MODEL 1
REMARK VINA RESULT:      -5.5      0.000      0.000
REMARK  4 active torsions:
REMARK  status: ('A' for Active; 'I' for Inactive)
REMARK    1  A    between atoms: C_1  and  O_2 
REMARK    2  A    between atoms: O_2  and  C_3 
REMARK    3  A    between atoms: C_7  and  C_14 
REMARK    4  A    between atoms: C_14  and  C_15 
ROOT
ATOM      1  C   LIG d   1       3.376  -0.388  -7.872  0.00  0.00     0.124 A 
ATOM      2  C   LIG d   1       2.618   0.302  -6.928  0.00  0.00    -0.019 A 
ATOM      3  C   LIG d   1       2.874   0.156  -5.595  0.00  0.00    -0.047 A 
ATOM      4  C   LIG d   1       3.902  -0.694  -5.173  0.00  0.00     0.021 A 
ATOM      5  C   LIG d   1       4.198  -0.871  -3.750  0.00  0.00    -0.025 A 
ATOM      6  C   LIG d   1       5.208  -1.710  -3.403  0.00  0.00     0.027 A 
ATOM      7  C   LIG d   1       5.938  -2.380  -4.407  0.00  0.00     0.338 A 
ATOM      8  O   LIG d   1       6.841  -3.130  -4.083  0.00  0.00    -0.245 OA
ATOM      9  O   LIG d   1       5.662  -2.214  -5.710  0.00  0.00    -0.422 OA
ATOM     10  C   LIG d   1       4.671  -1.395  -6.121  0.00  0.00     0.143 A 
ATOM     11  C   LIG d   1       4.395  -1.238  -7.472  0.00  0.00     0.023 A 
ATOM     12  H   LIG d   1       1.825   0.959  -7.253  0.00  0.00     0.065 H 
ATOM     13  H   LIG d   1       2.283   0.694  -4.868  0.00  0.00     0.063 H 
ATOM     14  H   LIG d   1       5.452  -1.864  -2.363  0.00  0.00     0.069 H 
ATOM     15  H   LIG d   1       4.975  -1.773  -8.208  0.00  0.00     0.069 H 
ENDROOT
BRANCH   5  16
ATOM     16  C   LIG d   1       3.403  -0.143  -2.697  0.00  0.00     0.013 C 
ATOM     17  H   LIG d   1       2.413   0.094  -3.089  0.00  0.00     0.037 H 
ATOM     18  H   LIG d   1       3.303  -0.774  -1.815  0.00  0.00     0.037 H 
BRANCH  16  19
ATOM     19  C   LIG d   1       4.114   1.133  -2.324  0.00  0.00     0.046 C 
ATOM     20  O   LIG d   1       4.029   2.112  -3.046  0.00  0.00    -0.549 OA
ATOM     21  O   LIG d   1       4.775   1.185  -1.301  0.00  0.00    -0.549 OA
ENDBRANCH  16  19
ENDBRANCH   5  16
BRANCH   1  22
ATOM     22  O   LIG d   1       3.111  -0.232  -9.193  0.00  0.00    -0.495 OA
BRANCH  22  23
ATOM     23  C   LIG d   1       1.830  -0.666  -9.654  0.00  0.00     0.079 C 
ATOM     24  H   LIG d   1       1.955  -1.511 -10.331  0.00  0.00     0.066 H 
ATOM     25  H   LIG d   1       1.222  -0.970  -8.802  0.00  0.00     0.066 H 
ATOM     26  H   LIG d   1       1.337   0.151 -10.180  0.00  0.00     0.066 H 
ENDBRANCH  22  23
ENDBRANCH   1  22
TORSDOF 4
ENDMDL
MODEL 2
REMARK VINA RESULT:      -5.2      3.098      3.878
REMARK  4 active torsions:
REMARK  status: ('A' for Active; 'I' for Inactive)
REMARK    1  A    between atoms: C_1  and  O_2 
REMARK    2  A    between atoms: O_2  and  C_3 
REMARK    3  A    between atoms: C_7  and  C_14 
REMARK    4  A    between atoms: C_14  and  C_15 
ROOT
ATOM      1  C   LIG d   1       8.297  -0.024  -5.122  0.00  0.00     0.124 A 
ATOM      2  C   LIG d   1       7.743   0.716  -4.078  0.00  0.00    -0.019 A 
ATOM      3  C   LIG d   1       6.650   0.251  -3.406  0.00  0.00    -0.047 A 
ATOM      4  C   LIG d   1       6.080  -0.975  -3.767  0.00  0.00     0.021 A 
ATOM      5  C   LIG d   1       4.906  -1.497  -3.065  0.00  0.00    -0.025 A 
ATOM      6  C   LIG d   1       4.399  -2.693  -3.463  0.00  0.00     0.027 A 
ATOM      7  C   LIG d   1       5.005  -3.392  -4.526  0.00  0.00     0.338 A 
ATOM      8  O   LIG d   1       4.541  -4.463  -4.874  0.00  0.00    -0.245 OA
ATOM      9  O   LIG d   1       6.081  -2.908  -5.167  0.00  0.00    -0.422 OA
ATOM     10  C   LIG d   1       6.634  -1.726  -4.821  0.00  0.00     0.143 A 
ATOM     11  C   LIG d   1       7.743  -1.237  -5.497  0.00  0.00     0.023 A 
ATOM     12  H   LIG d   1       8.184   1.662  -3.798  0.00  0.00     0.065 H 
ATOM     13  H   LIG d   1       6.225   0.829  -2.597  0.00  0.00     0.063 H 
ATOM     14  H   LIG d   1       3.534  -3.106  -2.966  0.00  0.00     0.069 H 
ATOM     15  H   LIG d   1       8.174  -1.802  -6.308  0.00  0.00     0.069 H 
ENDROOT
BRANCH   5  16
ATOM     16  C   LIG d   1       4.278  -0.729  -1.930  0.00  0.00     0.013 C 
ATOM     17  H   LIG d   1       3.674  -1.406  -1.325  0.00  0.00     0.037 H 
ATOM     18  H   LIG d   1       5.060  -0.288  -1.313  0.00  0.00     0.037 H 
BRANCH  16  19
ATOM     19  C   LIG d   1       3.402   0.363  -2.488  0.00  0.00     0.046 C 
ATOM     20  O   LIG d   1       2.674   0.135  -3.439  0.00  0.00    -0.549 OA
ATOM     21  O   LIG d   1       3.422   1.475  -1.988  0.00  0.00    -0.549 OA
ENDBRANCH  16  19
ENDBRANCH   5  16
BRANCH   1  22
ATOM     22  O   LIG d   1       9.385   0.451  -5.780  0.00  0.00    -0.495 OA
BRANCH  22  23
ATOM     23  C   LIG d   1       9.156   1.448  -6.777  0.00  0.00     0.079 C 
ATOM     24  H   LIG d   1       8.423   1.082  -7.495  0.00  0.00     0.066 H 
ATOM     25  H   LIG d   1       8.779   2.355  -6.304  0.00  0.00     0.066 H 
ATOM     26  H   LIG d   1      10.091   1.668  -7.292  0.00  0.00     0.066 H 
ENDBRANCH  22  23
ENDBRANCH   1  22
TORSDOF 4
ENDMDL
MODEL 3
REMARK VINA RESULT:      -5.1      3.275      5.541
REMARK  4 active torsions:
REMARK  status: ('A' for Active; 'I' for Inactive)
REMARK    1  A    between atoms: C_1  and  O_2 
REMARK    2  A    between atoms: O_2  and  C_3 
REMARK    3  A    between atoms: C_7  and  C_14 
REMARK    4  A    between atoms: C_14  and  C_15 
ROOT
ATOM      1  C   LIG d   1       8.891   1.584  -4.869  0.00  0.00     0.124 A 
ATOM      2  C   LIG d   1       8.980   0.241  -5.231  0.00  0.00    -0.019 A 
ATOM      3  C   LIG d   1       8.065  -0.662  -4.771  0.00  0.00    -0.047 A 
ATOM      4  C   LIG d   1       7.032  -0.236  -3.928  0.00  0.00     0.021 A 
ATOM      5  C   LIG d   1       6.037  -1.182  -3.418  0.00  0.00    -0.025 A 
ATOM      6  C   LIG d   1       5.059  -0.708  -2.604  0.00  0.00     0.027 A 
ATOM      7  C   LIG d   1       5.024   0.662  -2.274  0.00  0.00     0.338 A 
ATOM      8  O   LIG d   1       4.142   1.074  -1.543  0.00  0.00    -0.245 OA
ATOM      9  O   LIG d   1       5.939   1.524  -2.744  0.00  0.00    -0.422 OA
ATOM     10  C   LIG d   1       6.937   1.119  -3.558  0.00  0.00     0.143 A 
ATOM     11  C   LIG d   1       7.878   2.022  -4.031  0.00  0.00     0.023 A 
ATOM     12  H   LIG d   1       9.777  -0.087  -5.882  0.00  0.00     0.065 H 
ATOM     13  H   LIG d   1       8.139  -1.701  -5.056  0.00  0.00     0.063 H 
ATOM     14  H   LIG d   1       4.310  -1.379  -2.211  0.00  0.00     0.069 H 
ATOM     15  H   LIG d   1       7.818   3.062  -3.751  0.00  0.00     0.069 H 
ENDROOT
BRANCH   5  16
ATOM     16  C   LIG d   1       6.097  -2.642  -3.787  0.00  0.00     0.013 C 
ATOM     17  H   LIG d   1       7.049  -2.855  -4.274  0.00  0.00     0.037 H 
ATOM     18  H   LIG d   1       6.006  -3.249  -2.887  0.00  0.00     0.037 H 
BRANCH  16  19
ATOM     19  C   LIG d   1       4.967  -2.969  -4.729  0.00  0.00     0.046 C 
ATOM     20  O   LIG d   1       4.711  -2.221  -5.657  0.00  0.00    -0.549 OA
ATOM     21  O   LIG d   1       4.307  -3.980  -4.561  0.00  0.00    -0.549 OA
ENDBRANCH  16  19
ENDBRANCH   5  16
BRANCH   1  22
ATOM     22  O   LIG d   1       9.807   2.469  -5.336  0.00  0.00    -0.495 OA
BRANCH  22  23
ATOM     23  C   LIG d   1       9.523   3.857  -5.146  0.00  0.00     0.079 C 
ATOM     24  H   LIG d   1       9.821   4.155  -4.142  0.00  0.00     0.066 H 
ATOM     25  H   LIG d   1      10.077   4.444  -5.878  0.00  0.00     0.066 H 
ATOM     26  H   LIG d   1       8.455   4.030  -5.275  0.00  0.00     0.066 H 
ENDBRANCH  22  23
ENDBRANCH   1  22
TORSDOF 4
ENDMDL
MODEL 4
REMARK VINA RESULT:      -5.1      1.402      4.290
REMARK  4 active torsions:
REMARK  status: ('A' for Active; 'I' for Inactive)
REMARK    1  A    between atoms: C_1  and  O_2 
REMARK    2  A    between atoms: O_2  and  C_3 
REMARK    3  A    between atoms: C_7  and  C_14 
REMARK    4  A    between atoms: C_14  and  C_15 
ROOT
ATOM      1  C   LIG d   1       7.208  -2.573  -5.050  0.00  0.00     0.124 A 
ATOM      2  C   LIG d   1       6.850  -2.282  -3.735  0.00  0.00    -0.019 A 
ATOM      3  C   LIG d   1       5.720  -1.563  -3.470  0.00  0.00    -0.047 A 
ATOM      4  C   LIG d   1       4.916  -1.115  -4.524  0.00  0.00     0.021 A 
ATOM      5  C   LIG d   1       3.700  -0.341  -4.270  0.00  0.00    -0.025 A 
ATOM      6  C   LIG d   1       2.963   0.065  -5.336  0.00  0.00     0.027 A 
ATOM      7  C   LIG d   1       3.379  -0.262  -6.642  0.00  0.00     0.338 A 
ATOM      8  O   LIG d   1       2.710   0.109  -7.589  0.00  0.00    -0.245 OA
ATOM      9  O   LIG d   1       4.497  -0.971  -6.869  0.00  0.00    -0.422 OA
ATOM     10  C   LIG d   1       5.274  -1.406  -5.855  0.00  0.00     0.143 A 
ATOM     11  C   LIG d   1       6.428  -2.133  -6.107  0.00  0.00     0.023 A 
ATOM     12  H   LIG d   1       7.469  -2.628  -2.921  0.00  0.00     0.065 H 
ATOM     13  H   LIG d   1       5.447  -1.340  -2.448  0.00  0.00     0.063 H 
ATOM     14  H   LIG d   1       2.060   0.638  -5.183  0.00  0.00     0.069 H 
ATOM     15  H   LIG d   1       6.714  -2.359  -7.123  0.00  0.00     0.069 H 
ENDROOT
BRANCH   5  16
ATOM     16  C   LIG d   1       3.276  -0.005  -2.863  0.00  0.00     0.013 C 
ATOM     17  H   LIG d   1       2.198   0.151  -2.836  0.00  0.00     0.037 H 
ATOM     18  H   LIG d   1       3.541  -0.827  -2.197  0.00  0.00     0.037 H 
BRANCH  16  19
ATOM     19  C   LIG d   1       3.977   1.251  -2.414  0.00  0.00     0.046 C 
ATOM     20  O   LIG d   1       4.610   1.257  -1.372  0.00  0.00    -0.549 OA
ATOM     21  O   LIG d   1       3.911   2.261  -3.093  0.00  0.00    -0.549 OA
ENDBRANCH  16  19
ENDBRANCH   5  16
BRANCH   1  22
ATOM     22  O   LIG d   1       8.334  -3.290  -5.298  0.00  0.00    -0.495 OA
BRANCH  22  23
ATOM     23  C   LIG d   1       9.219  -3.508  -4.198  0.00  0.00     0.079 C 
ATOM     24  H   LIG d   1      10.182  -3.856  -4.569  0.00  0.00     0.066 H 
ATOM     25  H   LIG d   1       9.356  -2.575  -3.651  0.00  0.00     0.066 H 
ATOM     26  H   LIG d   1       8.793  -4.260  -3.533  0.00  0.00     0.066 H 
ENDBRANCH  22  23
ENDBRANCH   1  22
TORSDOF 4
ENDMDL
MODEL 5
REMARK VINA RESULT:      -5.0      1.062      3.350
REMARK  4 active torsions:
REMARK  status: ('A' for Active; 'I' for Inactive)
REMARK    1  A    between atoms: C_1  and  O_2 
REMARK    2  A    between atoms: O_2  and  C_3 
REMARK    3  A    between atoms: C_7  and  C_14 
REMARK    4  A    between atoms: C_14  and  C_15 
ROOT
ATOM      1  C   LIG d   1       2.975  -0.168  -7.675  0.00  0.00     0.124 A 
ATOM      2  C   LIG d   1       3.805  -1.287  -7.642  0.00  0.00    -0.019 A 
ATOM      3  C   LIG d   1       4.388  -1.680  -6.472  0.00  0.00    -0.047 A 
ATOM      4  C   LIG d   1       4.153  -0.955  -5.299  0.00  0.00     0.021 A 
ATOM      5  C   LIG d   1       4.766  -1.352  -4.030  0.00  0.00    -0.025 A 
ATOM      6  C   LIG d   1       4.499  -0.607  -2.926  0.00  0.00     0.027 A 
ATOM      7  C   LIG d   1       3.651   0.515  -3.026  0.00  0.00     0.338 A 
ATOM      8  O   LIG d   1       3.419   1.175  -2.029  0.00  0.00    -0.245 OA
ATOM      9  O   LIG d   1       3.092   0.875  -4.193  0.00  0.00    -0.422 OA
ATOM     10  C   LIG d   1       3.316   0.177  -5.326  0.00  0.00     0.143 A 
ATOM     11  C   LIG d   1       2.735   0.566  -6.525  0.00  0.00     0.023 A 
ATOM     12  H   LIG d   1       3.986  -1.848  -8.547  0.00  0.00     0.065 H 
ATOM     13  H   LIG d   1       5.030  -2.549  -6.452  0.00  0.00     0.063 H 
ATOM     14  H   LIG d   1       4.935  -0.872  -1.975  0.00  0.00     0.069 H 
ATOM     15  H   LIG d   1       2.094   1.434  -6.559  0.00  0.00     0.069 H 
ENDROOT
BRANCH   5  16
ATOM     16  C   LIG d   1       5.669  -2.556  -3.950  0.00  0.00     0.013 C 
ATOM     17  H   LIG d   1       5.431  -3.129  -3.054  0.00  0.00     0.037 H 
ATOM     18  H   LIG d   1       5.521  -3.181  -4.831  0.00  0.00     0.037 H 
BRANCH  16  19
ATOM     19  C   LIG d   1       7.105  -2.104  -3.891  0.00  0.00     0.046 C 
ATOM     20  O   LIG d   1       7.909  -2.715  -3.209  0.00  0.00    -0.549 OA
ATOM     21  O   LIG d   1       7.462  -1.126  -4.525  0.00  0.00    -0.549 OA
ENDBRANCH  16  19
ENDBRANCH   5  16
BRANCH   1  22
ATOM     22  O   LIG d   1       2.401   0.210  -8.846  0.00  0.00    -0.495 OA
BRANCH  22  23
ATOM     23  C   LIG d   1       1.753  -0.810  -9.609  0.00  0.00     0.079 C 
ATOM     24  H   LIG d   1       0.833  -1.109  -9.109  0.00  0.00     0.066 H 
ATOM     25  H   LIG d   1       1.519  -0.426 -10.602  0.00  0.00     0.066 H 
ATOM     26  H   LIG d   1       2.415  -1.671  -9.699  0.00  0.00     0.066 H 
ENDBRANCH  22  23
ENDBRANCH   1  22
TORSDOF 4
ENDMDL
MODEL 6
REMARK VINA RESULT:      -5.0      3.425      5.708
REMARK  4 active torsions:
REMARK  status: ('A' for Active; 'I' for Inactive)
REMARK    1  A    between atoms: C_1  and  O_2 
REMARK    2  A    between atoms: O_2  and  C_3 
REMARK    3  A    between atoms: C_7  and  C_14 
REMARK    4  A    between atoms: C_14  and  C_15 
ROOT
ATOM      1  C   LIG d   1       4.974  -0.765  -2.548  0.00  0.00     0.124 A 
ATOM      2  C   LIG d   1       6.308  -0.590  -2.914  0.00  0.00    -0.019 A 
ATOM      3  C   LIG d   1       6.925  -1.492  -3.731  0.00  0.00    -0.047 A 
ATOM      4  C   LIG d   1       6.214  -2.602  -4.205  0.00  0.00     0.021 A 
ATOM      5  C   LIG d   1       6.850  -3.587  -5.081  0.00  0.00    -0.025 A 
ATOM      6  C   LIG d   1       6.107  -4.642  -5.507  0.00  0.00     0.027 A 
ATOM      7  C   LIG d   1       4.763  -4.762  -5.100  0.00  0.00     0.338 A 
ATOM      8  O   LIG d   1       4.108  -5.713  -5.488  0.00  0.00    -0.245 OA
ATOM      9  O   LIG d   1       4.186  -3.856  -4.295  0.00  0.00    -0.422 OA
ATOM     10  C   LIG d   1       4.867  -2.784  -3.838  0.00  0.00     0.143 A 
ATOM     11  C   LIG d   1       4.257  -1.860  -3.002  0.00  0.00     0.023 A 
ATOM     12  H   LIG d   1       6.856   0.266  -2.550  0.00  0.00     0.065 H 
ATOM     13  H   LIG d   1       7.958  -1.351  -4.012  0.00  0.00     0.063 H 
ATOM     14  H   LIG d   1       6.546  -5.386  -6.154  0.00  0.00     0.069 H 
ATOM     15  H   LIG d   1       3.226  -1.991  -2.711  0.00  0.00     0.069 H 
ENDROOT
BRANCH   5  16
ATOM     16  C   LIG d   1       8.289  -3.434  -5.502  0.00  0.00     0.013 C 
ATOM     17  H   LIG d   1       8.372  -3.598  -6.576  0.00  0.00     0.037 H 
ATOM     18  H   LIG d   1       8.634  -2.430  -5.259  0.00  0.00     0.037 H 
BRANCH  16  19
ATOM     19  C   LIG d   1       9.135  -4.445  -4.772  0.00  0.00     0.046 C 
ATOM     20  O   LIG d   1       9.813  -5.241  -5.400  0.00  0.00    -0.549 OA
ATOM     21  O   LIG d   1       9.141  -4.469  -3.553  0.00  0.00    -0.549 OA
ENDBRANCH  16  19
ENDBRANCH   5  16
BRANCH   1  22
ATOM     22  O   LIG d   1       4.375   0.142  -1.735  0.00  0.00    -0.495 OA
BRANCH  22  23
ATOM     23  C   LIG d   1       3.715   1.241  -2.366  0.00  0.00     0.079 C 
ATOM     24  H   LIG d   1       4.394   2.091  -2.420  0.00  0.00     0.066 H 
ATOM     25  H   LIG d   1       3.412   0.954  -3.373  0.00  0.00     0.066 H 
ATOM     26  H   LIG d   1       2.834   1.517  -1.786  0.00  0.00     0.066 H 
ENDBRANCH  22  23
ENDBRANCH   1  22
TORSDOF 4
ENDMDL
MODEL 7
REMARK VINA RESULT:      -4.8      3.148      4.388
REMARK  4 active torsions:
REMARK  status: ('A' for Active; 'I' for Inactive)
REMARK    1  A    between atoms: C_1  and  O_2 
REMARK    2  A    between atoms: O_2  and  C_3 
REMARK    3  A    between atoms: C_7  and  C_14 
REMARK    4  A    between atoms: C_14  and  C_15 
ROOT
ATOM      1  C   LIG d   1       7.009  -3.381  -5.285  0.00  0.00     0.124 A 
ATOM      2  C   LIG d   1       5.788  -3.456  -4.616  0.00  0.00    -0.019 A 
ATOM      3  C   LIG d   1       5.315  -2.382  -3.918  0.00  0.00    -0.047 A 
ATOM      4  C   LIG d   1       6.060  -1.198  -3.874  0.00  0.00     0.021 A 
ATOM      5  C   LIG d   1       5.579  -0.032  -3.133  0.00  0.00    -0.025 A 
ATOM      6  C   LIG d   1       6.348   1.088  -3.127  0.00  0.00     0.027 A 
ATOM      7  C   LIG d   1       7.573   1.100  -3.824  0.00  0.00     0.338 A 
ATOM      8  O   LIG d   1       8.254   2.110  -3.810  0.00  0.00    -0.245 OA
ATOM      9  O   LIG d   1       8.010   0.027  -4.501  0.00  0.00    -0.422 OA
ATOM     10  C   LIG d   1       7.294  -1.117  -4.547  0.00  0.00     0.143 A 
ATOM     11  C   LIG d   1       7.762  -2.219  -5.247  0.00  0.00     0.023 A 
ATOM     12  H   LIG d   1       5.213  -4.369  -4.651  0.00  0.00     0.065 H 
ATOM     13  H   LIG d   1       4.369  -2.446  -3.402  0.00  0.00     0.063 H 
ATOM     14  H   LIG d   1       6.022   1.966  -2.590  0.00  0.00     0.069 H 
ATOM     15  H   LIG d   1       8.708  -2.169  -5.764  0.00  0.00     0.069 H 
ENDROOT
BRANCH   5  16
ATOM     16  C   LIG d   1       4.264  -0.071  -2.396  0.00  0.00     0.013 C 
ATOM     17  H   LIG d   1       4.122  -1.059  -1.961  0.00  0.00     0.037 H 
ATOM     18  H   LIG d   1       4.268   0.678  -1.605  0.00  0.00     0.037 H 
BRANCH  16  19
ATOM     19  C   LIG d   1       3.141   0.221  -3.358  0.00  0.00     0.046 C 
ATOM     20  O   LIG d   1       2.247  -0.592  -3.516  0.00  0.00    -0.549 OA
ATOM     21  O   LIG d   1       3.128   1.270  -3.979  0.00  0.00    -0.549 OA
ENDBRANCH  16  19
ENDBRANCH   5  16
BRANCH   1  22
ATOM     22  O   LIG d   1       7.465  -4.457  -5.975  0.00  0.00    -0.495 OA
BRANCH  22  23
ATOM     23  C   LIG d   1       7.834  -5.608  -5.213  0.00  0.00     0.079 C 
ATOM     24  H   LIG d   1       8.813  -5.959  -5.537  0.00  0.00     0.066 H 
ATOM     25  H   LIG d   1       7.875  -5.345  -4.156  0.00  0.00     0.066 H 
ATOM     26  H   LIG d   1       7.096  -6.395  -5.364  0.00  0.00     0.066 H 
ENDBRANCH  22  23
ENDBRANCH   1  22
TORSDOF 4
ENDMDL
MODEL 8
REMARK VINA RESULT:      -4.7      3.409      4.577
REMARK  4 active torsions:
REMARK  status: ('A' for Active; 'I' for Inactive)
REMARK    1  A    between atoms: C_1  and  O_2 
REMARK    2  A    between atoms: O_2  and  C_3 
REMARK    3  A    between atoms: C_7  and  C_14 
REMARK    4  A    between atoms: C_14  and  C_15 
ROOT
ATOM      1  C   LIG d   1       6.144  -4.931  -5.512  0.00  0.00     0.124 A 
ATOM      2  C   LIG d   1       7.318  -4.189  -5.392  0.00  0.00    -0.019 A 
ATOM      3  C   LIG d   1       7.307  -2.975  -4.767  0.00  0.00    -0.047 A 
ATOM      4  C   LIG d   1       6.110  -2.473  -4.243  0.00  0.00     0.021 A 
ATOM      5  C   LIG d   1       6.069  -1.174  -3.569  0.00  0.00    -0.025 A 
ATOM      6  C   LIG d   1       4.877  -0.740  -3.083  0.00  0.00     0.027 A 
ATOM      7  C   LIG d   1       3.725  -1.539  -3.237  0.00  0.00     0.338 A 
ATOM      8  O   LIG d   1       2.663  -1.138  -2.796  0.00  0.00    -0.245 OA
ATOM      9  O   LIG d   1       3.769  -2.728  -3.857  0.00  0.00    -0.422 OA
ATOM     10  C   LIG d   1       4.922  -3.217  -4.362  0.00  0.00     0.143 A 
ATOM     11  C   LIG d   1       4.949  -4.447  -5.005  0.00  0.00     0.023 A 
ATOM     12  H   LIG d   1       8.241  -4.577  -5.795  0.00  0.00     0.065 H 
ATOM     13  H   LIG d   1       8.220  -2.405  -4.677  0.00  0.00     0.063 H 
ATOM     14  H   LIG d   1       4.812   0.213  -2.580  0.00  0.00     0.069 H 
ATOM     15  H   LIG d   1       4.043  -5.025  -5.105  0.00  0.00     0.069 H 
ENDROOT
BRANCH   5  16
ATOM     16  C   LIG d   1       7.315  -0.340  -3.417  0.00  0.00     0.013 C 
ATOM     17  H   LIG d   1       7.478  -0.119  -2.363  0.00  0.00     0.037 H 
ATOM     18  H   LIG d   1       8.171  -0.890  -3.810  0.00  0.00     0.037 H 
BRANCH  16  19
ATOM     19  C   LIG d   1       7.153   0.949  -4.181  0.00  0.00     0.046 C 
ATOM     20  O   LIG d   1       7.069   0.930  -5.397  0.00  0.00    -0.549 OA
ATOM     21  O   LIG d   1       7.108   2.010  -3.583  0.00  0.00    -0.549 OA
ENDBRANCH  16  19
ENDBRANCH   5  16
BRANCH   1  22
ATOM     22  O   LIG d   1       6.170  -6.136  -6.135  0.00  0.00    -0.495 OA
BRANCH  22  23
ATOM     23  C   LIG d   1       5.025  -6.976  -5.972  0.00  0.00     0.079 C 
ATOM     24  H   LIG d   1       4.120  -6.376  -6.056  0.00  0.00     0.066 H 
ATOM     25  H   LIG d   1       5.025  -7.743  -6.746  0.00  0.00     0.066 H 
ATOM     26  H   LIG d   1       5.059  -7.449  -4.991  0.00  0.00     0.066 H 
ENDBRANCH  22  23
ENDBRANCH   1  22
TORSDOF 4
ENDMDL
MODEL 9
REMARK VINA RESULT:      -4.7      9.562     11.890
REMARK  4 active torsions:
REMARK  status: ('A' for Active; 'I' for Inactive)
REMARK    1  A    between atoms: C_1  and  O_2 
REMARK    2  A    between atoms: O_2  and  C_3 
REMARK    3  A    between atoms: C_7  and  C_14 
REMARK    4  A    between atoms: C_14  and  C_15 
ROOT
ATOM      1  C   LIG d   1      10.794   4.965  -1.693  0.00  0.00     0.124 A 
ATOM      2  C   LIG d   1       9.905   5.777  -2.395  0.00  0.00    -0.019 A 
ATOM      3  C   LIG d   1       9.668   7.058  -1.987  0.00  0.00    -0.047 A 
ATOM      4  C   LIG d   1      10.322   7.559  -0.855  0.00  0.00     0.021 A 
ATOM      5  C   LIG d   1      10.086   8.928  -0.393  0.00  0.00    -0.025 A 
ATOM      6  C   LIG d   1      10.750   9.356   0.712  0.00  0.00     0.027 A 
ATOM      7  C   LIG d   1      11.636   8.485   1.379  0.00  0.00     0.338 A 
ATOM      8  O   LIG d   1      12.225   8.881   2.369  0.00  0.00    -0.245 OA
ATOM      9  O   LIG d   1      11.847   7.230   0.951  0.00  0.00    -0.422 OA
ATOM     10  C   LIG d   1      11.220   6.744  -0.141  0.00  0.00     0.143 A 
ATOM     11  C   LIG d   1      11.445   5.443  -0.567  0.00  0.00     0.023 A 
ATOM     12  H   LIG d   1       9.401   5.391  -3.269  0.00  0.00     0.065 H 
ATOM     13  H   LIG d   1       8.979   7.683  -2.535  0.00  0.00     0.063 H 
ATOM     14  H   LIG d   1      10.600  10.360   1.080  0.00  0.00     0.069 H 
ATOM     15  H   LIG d   1      12.128   4.807  -0.026  0.00  0.00     0.069 H 
ENDROOT
BRANCH   5  16
ATOM     16  C   LIG d   1       9.134   9.839  -1.124  0.00  0.00     0.013 C 
ATOM     17  H   LIG d   1       8.501   9.248  -1.785  0.00  0.00     0.037 H 
ATOM     18  H   LIG d   1       8.512  10.370  -0.403  0.00  0.00     0.037 H 
BRANCH  16  19
ATOM     19  C   LIG d   1       9.918  10.835  -1.939  0.00  0.00     0.046 C 
ATOM     20  O   LIG d   1      10.506  10.474  -2.944  0.00  0.00    -0.549 OA
ATOM     21  O   LIG d   1       9.966  12.003  -1.592  0.00  0.00    -0.549 OA
ENDBRANCH  16  19
ENDBRANCH   5  16
BRANCH   1  22
ATOM     22  O   LIG d   1      11.019   3.694  -2.112  0.00  0.00    -0.495 OA
BRANCH  22  23
ATOM     23  C   LIG d   1      10.105   3.155  -3.069  0.00  0.00     0.079 C 
ATOM     24  H   LIG d   1       9.252   3.825  -3.174  0.00  0.00     0.066 H 
ATOM     25  H   LIG d   1      10.606   3.051  -4.031  0.00  0.00     0.066 H 
ATOM     26  H   LIG d   1       9.760   2.178  -2.731  0.00  0.00     0.066 H 
ENDBRANCH  22  23
ENDBRANCH   1  22
TORSDOF 4
ENDMDL
MODEL 10
REMARK VINA RESULT:      -4.6      8.654     10.878
REMARK  4 active torsions:
REMARK  status: ('A' for Active; 'I' for Inactive)
REMARK    1  A    between atoms: C_1  and  O_2 
REMARK    2  A    between atoms: O_2  and  C_3 
REMARK    3  A    between atoms: C_7  and  C_14 
REMARK    4  A    between atoms: C_14  and  C_15 
ROOT
ATOM      1  C   LIG d   1       9.091  -9.441  -1.255  0.00  0.00     0.124 A 
ATOM      2  C   LIG d   1       8.133 -10.343  -0.794  0.00  0.00    -0.019 A 
ATOM      3  C   LIG d   1       6.999 -10.576  -1.516  0.00  0.00    -0.047 A 
ATOM      4  C   LIG d   1       6.794  -9.905  -2.727  0.00  0.00     0.021 A 
ATOM      5  C   LIG d   1       5.586 -10.134  -3.522  0.00  0.00    -0.025 A 
ATOM      6  C   LIG d   1       5.446  -9.451  -4.688  0.00  0.00     0.027 A 
ATOM      7  C   LIG d   1       6.451  -8.552  -5.099  0.00  0.00     0.338 A 
ATOM      8  O   LIG d   1       6.312  -7.946  -6.146  0.00  0.00    -0.245 OA
ATOM      9  O   LIG d   1       7.556  -8.345  -4.365  0.00  0.00    -0.422 OA
ATOM     10  C   LIG d   1       7.757  -8.992  -3.198  0.00  0.00     0.143 A 
ATOM     11  C   LIG d   1       8.903  -8.764  -2.449  0.00  0.00     0.023 A 
ATOM     12  H   LIG d   1       8.291 -10.862   0.140  0.00  0.00     0.065 H 
ATOM     13  H   LIG d   1       6.260 -11.277  -1.154  0.00  0.00     0.063 H 
ATOM     14  H   LIG d   1       4.567  -9.597  -5.298  0.00  0.00     0.069 H 
ATOM     15  H   LIG d   1       9.646  -8.063  -2.798  0.00  0.00     0.069 H 
ENDROOT
BRANCH   5  16
ATOM     16  C   LIG d   1       4.527 -11.101  -3.059  0.00  0.00     0.013 C 
ATOM     17  H   LIG d   1       4.708 -12.078  -3.507  0.00  0.00     0.037 H 
ATOM     18  H   LIG d   1       4.561 -11.186  -1.974  0.00  0.00     0.037 H 
BRANCH  16  19
ATOM     19  C   LIG d   1       3.170 -10.599  -3.481  0.00  0.00     0.046 C 
ATOM     20  O   LIG d   1       2.499 -11.243  -4.269  0.00  0.00    -0.549 OA
ATOM     21  O   LIG d   1       2.744  -9.548  -3.034  0.00  0.00    -0.549 OA
ENDBRANCH  16  19
ENDBRANCH   5  16
BRANCH   1  22
ATOM     22  O   LIG d   1      10.214  -9.221  -0.527  0.00  0.00    -0.495 OA
BRANCH  22  23
ATOM     23  C   LIG d   1      10.822  -7.933  -0.644  0.00  0.00     0.079 C 
ATOM     24  H   LIG d   1      11.234  -7.815  -1.646  0.00  0.00     0.066 H 
ATOM     25  H   LIG d   1      10.073  -7.161  -0.467  0.00  0.00     0.066 H 
ATOM     26  H   LIG d   1      11.621  -7.840   0.091  0.00  0.00     0.066 H 
ENDBRANCH  22  23
ENDBRANCH   1  22
TORSDOF 4
ENDMDL
