MODEL 1
REMARK VINA RESULT:      -7.1      0.000      0.000
REMARK  7 active torsions:
REMARK  status: ('A' for Active; 'I' for Inactive)
REMARK    1  A    between atoms: C_1  and  N_2 
REMARK       I    between atoms: N_5  and  C_8 
REMARK    2  A    between atoms: C_8  and  C_10 
REMARK    3  A    between atoms: C_10  and  C_11 
REMARK    4  A    between atoms: C_11  and  C_12 
REMARK    5  A    between atoms: C_22  and  N_25 
REMARK    6  A    between atoms: N_25  and  C_26 
REMARK    7  A    between atoms: C_26  and  C_27 
ROOT
ATOM      1  C   LIG d   1       6.195  -0.961  -8.604  0.00  0.00    -0.004 C 
ATOM      2  H   LIG d   1       5.754  -1.869  -9.015  0.00  0.00     0.087 H 
ATOM      3  C   LIG d   1       6.888  -0.166  -9.720  0.00  0.00     0.055 C 
ATOM      4  N   LIG d   1       5.936   0.585 -10.530  0.00  0.00    -0.305 N 
ATOM      5  C   LIG d   1       4.631   0.736 -10.227  0.00  0.00     0.262 C 
ATOM      6  O   LIG d   1       3.925   1.461 -10.894  0.00  0.00    -0.270 OA
ATOM      7  C   LIG d   1       4.071  -0.006  -9.059  0.00  0.00     0.059 C 
ATOM      8  H   LIG d   1       3.733  -0.996  -9.364  0.00  0.00     0.095 H 
ATOM      9  N   LIG d   1       5.154  -0.116  -8.046  0.00  0.00     0.248 N 
ATOM     10  C   LIG d   1       4.491  -0.565  -6.826  0.00  0.00    -0.015 C 
ATOM     11  C   LIG d   1       3.062   0.034  -6.884  0.00  0.00     0.054 C 
ATOM     12  H   LIG d   1       2.316  -0.757  -6.808  0.00  0.00     0.051 H 
ATOM     13  C   LIG d   1       2.962   0.724  -8.287  0.00  0.00     0.019 C 
ATOM     14  H   LIG d   1       7.596   0.530  -9.270  0.00  0.00     0.052 H 
ATOM     15  H   LIG d   1       7.432  -0.858 -10.362  0.00  0.00     0.052 H 
ATOM     16  H   LIG d   1       6.264   1.004 -11.341  0.00  0.00     0.149 HD
ATOM     17  H   LIG d   1       4.443  -1.653  -6.802  0.00  0.00     0.083 H 
ATOM     18  H   LIG d   1       5.020  -0.192  -5.949  0.00  0.00     0.083 H 
ATOM     19  H   LIG d   1       3.175   1.790  -8.213  0.00  0.00     0.034 H 
ATOM     20  H   LIG d   1       1.989   0.553  -8.747  0.00  0.00     0.034 H 
ATOM     21  H   LIG d   1       5.534   0.804  -7.877  0.00  0.00     0.204 HD
ENDROOT
BRANCH   1  22
ATOM     22  C   LIG d   1       7.209  -1.324  -7.517  0.00  0.00     0.000 C 
ATOM     23  H   LIG d   1       7.577  -2.335  -7.687  0.00  0.00     0.033 H 
ATOM     24  H   LIG d   1       6.728  -1.272  -6.540  0.00  0.00     0.033 H 
BRANCH  22  25
ATOM     25  C   LIG d   1       8.379  -0.340  -7.562  0.00  0.00     0.029 C 
ATOM     26  H   LIG d   1       8.350   0.218  -8.499  0.00  0.00     0.036 H 
ATOM     27  H   LIG d   1       9.319  -0.888  -7.495  0.00  0.00     0.036 H 
BRANCH  25  28
ATOM     28  C   LIG d   1       8.274   0.619  -6.404  0.00  0.00     0.216 C 
ATOM     29  N   LIG d   1       9.205   0.603  -5.428  0.00  0.00    -0.299 N 
ATOM     30  C   LIG d   1       9.121   1.529  -4.289  0.00  0.00     0.028 C 
ATOM     31  C   LIG d   1      10.330  -0.343  -5.476  0.00  0.00     0.028 C 
ATOM     32  C   LIG d   1      10.470   2.239  -4.139  0.00  0.00     0.015 C 
ATOM     33  H   LIG d   1       8.896   0.971  -3.380  0.00  0.00     0.048 H 
ATOM     34  H   LIG d   1       8.338   2.265  -4.473  0.00  0.00     0.048 H 
ATOM     35  N   LIG d   1      11.539   1.236  -4.047  0.00  0.00    -0.302 N 
ATOM     36  H   LIG d   1      10.463   2.847  -3.234  0.00  0.00     0.044 H 
ATOM     37  H   LIG d   1      10.644   2.877  -5.005  0.00  0.00     0.044 H 
ATOM     38  C   LIG d   1      11.632   0.440  -5.278  0.00  0.00     0.015 C 
ATOM     39  H   LIG d   1      11.790   1.104  -6.129  0.00  0.00     0.044 H 
ATOM     40  H   LIG d   1      12.467  -0.256  -5.199  0.00  0.00     0.044 H 
ATOM     41  H   LIG d   1      10.223  -1.080  -4.680  0.00  0.00     0.048 H 
ATOM     42  H   LIG d   1      10.347  -0.844  -6.443  0.00  0.00     0.048 H 
ATOM     43  O   LIG d   1       7.352   1.405  -6.349  0.00  0.00    -0.276 OA
BRANCH  35  44
ATOM     44  C   LIG d   1      12.828   1.867  -3.729  0.00  0.00    -0.013 C 
ATOM     45  H   LIG d   1      13.040   2.646  -4.462  0.00  0.00     0.039 H 
ATOM     46  H   LIG d   1      12.781   2.308  -2.733  0.00  0.00     0.039 H 
ATOM     47  H   LIG d   1      13.617   1.116  -3.758  0.00  0.00     0.039 H 
ENDBRANCH  35  44
ENDBRANCH  25  28
ENDBRANCH  22  25
ENDBRANCH   1  22
BRANCH  11  48
ATOM     48  N   LIG d   1       2.875   1.016  -5.808  0.00  0.00    -0.304 N 
ATOM     49  H   LIG d   1       3.763   1.349  -5.464  0.00  0.00     0.123 HD
BRANCH  48  50
ATOM     50  C   LIG d   1       2.067   0.455  -4.717  0.00  0.00     0.022 C 
ATOM     51  H   LIG d   1       1.367   1.210  -4.359  0.00  0.00     0.047 H 
ATOM     52  H   LIG d   1       1.512  -0.409  -5.084  0.00  0.00     0.047 H 
BRANCH  50  53
ATOM     53  C   LIG d   1       2.970   0.031  -3.588  0.00  0.00    -0.034 A 
ATOM     54  C   LIG d   1       3.630   0.985  -2.836  0.00  0.00    -0.057 A 
ATOM     55  C   LIG d   1       4.455   0.596  -1.797  0.00  0.00    -0.061 A 
ATOM     56  H   LIG d   1       3.499   2.033  -3.058  0.00  0.00     0.062 H 
ATOM     57  C   LIG d   1       4.627  -0.747  -1.517  0.00  0.00    -0.062 A 
ATOM     58  H   LIG d   1       4.967   1.341  -1.207  0.00  0.00     0.062 H 
ATOM     59  C   LIG d   1       3.970  -1.700  -2.272  0.00  0.00    -0.061 A 
ATOM     60  H   LIG d   1       5.273  -1.051  -0.706  0.00  0.00     0.062 H 
ATOM     61  C   LIG d   1       3.142  -1.311  -3.308  0.00  0.00    -0.057 A 
ATOM     62  H   LIG d   1       4.104  -2.749  -2.052  0.00  0.00     0.062 H 
ATOM     63  H   LIG d   1       2.629  -2.056  -3.898  0.00  0.00     0.062 H 
ENDBRANCH  50  53
ENDBRANCH  48  50
ENDBRANCH  11  48
TORSDOF 7
ENDMDL
MODEL 2
REMARK VINA RESULT:      -7.0      2.423      3.194
REMARK  7 active torsions:
REMARK  status: ('A' for Active; 'I' for Inactive)
REMARK    1  A    between atoms: C_1  and  N_2 
REMARK       I    between atoms: N_5  and  C_8 
REMARK    2  A    between atoms: C_8  and  C_10 
REMARK    3  A    between atoms: C_10  and  C_11 
REMARK    4  A    between atoms: C_11  and  C_12 
REMARK    5  A    between atoms: C_22  and  N_25 
REMARK    6  A    between atoms: N_25  and  C_26 
REMARK    7  A    between atoms: C_26  and  C_27 
ROOT
ATOM      1  C   LIG d   1       4.018  -1.779 -10.046  0.00  0.00    -0.004 C 
ATOM      2  H   LIG d   1       3.029  -1.965 -10.464  0.00  0.00     0.087 H 
ATOM      3  C   LIG d   1       4.961  -1.265 -11.143  0.00  0.00     0.055 C 
ATOM      4  N   LIG d   1       4.745   0.147 -11.434  0.00  0.00    -0.305 N 
ATOM      5  C   LIG d   1       3.963   0.965 -10.701  0.00  0.00     0.262 C 
ATOM      6  O   LIG d   1       3.916   2.152 -10.943  0.00  0.00    -0.270 OA
ATOM      7  C   LIG d   1       3.156   0.384  -9.587  0.00  0.00     0.059 C 
ATOM      8  H   LIG d   1       2.192   0.037  -9.958  0.00  0.00     0.095 H 
ATOM      9  N   LIG d   1       3.935  -0.750  -9.024  0.00  0.00     0.248 N 
ATOM     10  C   LIG d   1       3.266  -1.086  -7.771  0.00  0.00    -0.015 C 
ATOM     11  C   LIG d   1       2.679   0.248  -7.241  0.00  0.00     0.054 C 
ATOM     12  H   LIG d   1       1.604   0.154  -7.087  0.00  0.00     0.051 H 
ATOM     13  C   LIG d   1       2.964   1.298  -8.368  0.00  0.00     0.019 C 
ATOM     14  H   LIG d   1       5.992  -1.406 -10.818  0.00  0.00     0.052 H 
ATOM     15  H   LIG d   1       4.795  -1.843 -12.052  0.00  0.00     0.052 H 
ATOM     16  H   LIG d   1       5.195   0.524 -12.207  0.00  0.00     0.149 HD
ATOM     17  H   LIG d   1       2.468  -1.804  -7.950  0.00  0.00     0.083 H 
ATOM     18  H   LIG d   1       3.984  -1.491  -7.057  0.00  0.00     0.083 H 
ATOM     19  H   LIG d   1       3.872   1.861  -8.155  0.00  0.00     0.034 H 
ATOM     20  H   LIG d   1       2.116   1.968  -8.512  0.00  0.00     0.034 H 
ATOM     21  H   LIG d   1       4.866  -0.428  -8.807  0.00  0.00     0.204 HD
ENDROOT
BRANCH   1  22
ATOM     22  C   LIG d   1       4.577  -3.069  -9.442  0.00  0.00     0.000 C 
ATOM     23  H   LIG d   1       4.340  -3.908 -10.096  0.00  0.00     0.033 H 
ATOM     24  H   LIG d   1       4.128  -3.235  -8.462  0.00  0.00     0.033 H 
BRANCH  22  25
ATOM     25  C   LIG d   1       6.094  -2.947  -9.295  0.00  0.00     0.029 C 
ATOM     26  H   LIG d   1       6.399  -1.921  -9.502  0.00  0.00     0.036 H 
ATOM     27  H   LIG d   1       6.583  -3.621  -9.999  0.00  0.00     0.036 H 
BRANCH  25  28
ATOM     28  C   LIG d   1       6.494  -3.316  -7.888  0.00  0.00     0.216 C 
ATOM     29  N   LIG d   1       7.114  -2.411  -7.105  0.00  0.00    -0.299 N 
ATOM     30  C   LIG d   1       7.513  -2.750  -5.730  0.00  0.00     0.028 C 
ATOM     31  C   LIG d   1       7.410  -1.059  -7.602  0.00  0.00     0.028 C 
ATOM     32  C   LIG d   1       6.982  -1.665  -4.788  0.00  0.00     0.015 C 
ATOM     33  H   LIG d   1       8.600  -2.792  -5.665  0.00  0.00     0.048 H 
ATOM     34  H   LIG d   1       7.089  -3.715  -5.453  0.00  0.00     0.048 H 
ATOM     35  N   LIG d   1       7.432  -0.349  -5.259  0.00  0.00    -0.302 N 
ATOM     36  H   LIG d   1       7.360  -1.840  -3.781  0.00  0.00     0.044 H 
ATOM     37  H   LIG d   1       5.892  -1.694  -4.778  0.00  0.00     0.044 H 
ATOM     38  C   LIG d   1       6.883  -0.040  -6.587  0.00  0.00     0.015 C 
ATOM     39  H   LIG d   1       5.795  -0.092  -6.551  0.00  0.00     0.044 H 
ATOM     40  H   LIG d   1       7.192   0.963  -6.884  0.00  0.00     0.044 H 
ATOM     41  H   LIG d   1       8.487  -0.939  -7.716  0.00  0.00     0.048 H 
ATOM     42  H   LIG d   1       6.919  -0.906  -8.563  0.00  0.00     0.048 H 
ATOM     43  O   LIG d   1       6.258  -4.426  -7.462  0.00  0.00    -0.276 OA
BRANCH  35  44
ATOM     44  C   LIG d   1       7.091   0.703  -4.291  0.00  0.00    -0.013 C 
ATOM     45  H   LIG d   1       7.079   0.281  -3.286  0.00  0.00     0.039 H 
ATOM     46  H   LIG d   1       7.834   1.499  -4.342  0.00  0.00     0.039 H 
ATOM     47  H   LIG d   1       6.106   1.108  -4.526  0.00  0.00     0.039 H 
ENDBRANCH  35  44
ENDBRANCH  25  28
ENDBRANCH  22  25
ENDBRANCH   1  22
BRANCH  11  48
ATOM     48  N   LIG d   1       3.341   0.637  -5.989  0.00  0.00    -0.304 N 
ATOM     49  H   LIG d   1       4.189   0.107  -5.849  0.00  0.00     0.123 HD
BRANCH  48  50
ATOM     50  C   LIG d   1       2.433   0.489  -4.845  0.00  0.00     0.022 C 
ATOM     51  H   LIG d   1       2.009   1.460  -4.590  0.00  0.00     0.047 H 
ATOM     52  H   LIG d   1       1.630  -0.201  -5.105  0.00  0.00     0.047 H 
BRANCH  50  53
ATOM     53  C   LIG d   1       3.197  -0.050  -3.662  0.00  0.00    -0.034 A 
ATOM     54  C   LIG d   1       3.320  -1.415  -3.483  0.00  0.00    -0.057 A 
ATOM     55  C   LIG d   1       4.025  -1.909  -2.401  0.00  0.00    -0.061 A 
ATOM     56  H   LIG d   1       2.870  -2.095  -4.190  0.00  0.00     0.062 H 
ATOM     57  C   LIG d   1       4.597  -1.038  -1.493  0.00  0.00    -0.062 A 
ATOM     58  H   LIG d   1       4.124  -2.975  -2.264  0.00  0.00     0.062 H 
ATOM     59  C   LIG d   1       4.468   0.327  -1.670  0.00  0.00    -0.061 A 
ATOM     60  H   LIG d   1       5.145  -1.424  -0.647  0.00  0.00     0.062 H 
ATOM     61  C   LIG d   1       3.768   0.821  -2.754  0.00  0.00    -0.057 A 
ATOM     62  H   LIG d   1       4.917   1.008  -0.961  0.00  0.00     0.062 H 
ATOM     63  H   LIG d   1       3.668   1.888  -2.892  0.00  0.00     0.062 H 
ENDBRANCH  50  53
ENDBRANCH  48  50
ENDBRANCH  11  48
TORSDOF 7
ENDMDL
MODEL 3
REMARK VINA RESULT:      -7.0      3.880      5.346
REMARK  7 active torsions:
REMARK  status: ('A' for Active; 'I' for Inactive)
REMARK    1  A    between atoms: C_1  and  N_2 
REMARK       I    between atoms: N_5  and  C_8 
REMARK    2  A    between atoms: C_8  and  C_10 
REMARK    3  A    between atoms: C_10  and  C_11 
REMARK    4  A    between atoms: C_11  and  C_12 
REMARK    5  A    between atoms: C_22  and  N_25 
REMARK    6  A    between atoms: N_25  and  C_26 
REMARK    7  A    between atoms: C_26  and  C_27 
ROOT
ATOM      1  C   LIG d   1       2.813  -0.530 -10.976  0.00  0.00    -0.004 C 
ATOM      2  H   LIG d   1       2.240   0.334 -11.313  0.00  0.00     0.087 H 
ATOM      3  C   LIG d   1       4.100  -0.659 -11.804  0.00  0.00     0.055 C 
ATOM      4  N   LIG d   1       5.128   0.277 -11.366  0.00  0.00    -0.305 N 
ATOM      5  C   LIG d   1       5.050   1.026 -10.248  0.00  0.00     0.262 C 
ATOM      6  O   LIG d   1       5.992   1.704  -9.894  0.00  0.00    -0.270 OA
ATOM      7  C   LIG d   1       3.786   1.008  -9.453  0.00  0.00     0.059 C 
ATOM      8  H   LIG d   1       3.092   1.760  -9.828  0.00  0.00     0.095 H 
ATOM      9  N   LIG d   1       3.201  -0.352  -9.588  0.00  0.00     0.248 N 
ATOM     10  C   LIG d   1       2.155  -0.419  -8.573  0.00  0.00    -0.015 C 
ATOM     11  C   LIG d   1       2.643   0.486  -7.411  0.00  0.00     0.054 C 
ATOM     12  H   LIG d   1       1.903   1.257  -7.195  0.00  0.00     0.051 H 
ATOM     13  C   LIG d   1       3.961   1.150  -7.934  0.00  0.00     0.019 C 
ATOM     14  H   LIG d   1       4.482  -1.675 -11.707  0.00  0.00     0.052 H 
ATOM     15  H   LIG d   1       3.868  -0.467 -12.851  0.00  0.00     0.052 H 
ATOM     16  H   LIG d   1       5.922   0.366 -11.916  0.00  0.00     0.149 HD
ATOM     17  H   LIG d   1       1.215  -0.042  -8.974  0.00  0.00     0.083 H 
ATOM     18  H   LIG d   1       2.031  -1.444  -8.224  0.00  0.00     0.083 H 
ATOM     19  H   LIG d   1       4.837   0.600  -7.590  0.00  0.00     0.034 H 
ATOM     20  H   LIG d   1       4.022   2.199  -7.645  0.00  0.00     0.034 H 
ATOM     21  H   LIG d   1       3.908  -1.034  -9.355  0.00  0.00     0.204 HD
ENDROOT
BRANCH   1  22
ATOM     22  C   LIG d   1       1.971  -1.800 -11.122  0.00  0.00     0.000 C 
ATOM     23  H   LIG d   1       1.282  -1.684 -11.959  0.00  0.00     0.033 H 
ATOM     24  H   LIG d   1       1.404  -1.967 -10.206  0.00  0.00     0.033 H 
BRANCH  22  25
ATOM     25  C   LIG d   1       2.891  -2.995 -11.378  0.00  0.00     0.029 C 
ATOM     26  H   LIG d   1       3.927  -2.657 -11.404  0.00  0.00     0.036 H 
ATOM     27  H   LIG d   1       2.634  -3.453 -12.334  0.00  0.00     0.036 H 
BRANCH  25  28
ATOM     28  C   LIG d   1       2.719  -4.006 -10.274  0.00  0.00     0.216 C 
ATOM     29  N   LIG d   1       3.707  -4.200  -9.378  0.00  0.00    -0.299 N 
ATOM     30  C   LIG d   1       3.560  -5.183  -8.293  0.00  0.00     0.028 C 
ATOM     31  C   LIG d   1       4.960  -3.435  -9.459  0.00  0.00     0.028 C 
ATOM     32  C   LIG d   1       3.897  -4.496  -6.966  0.00  0.00     0.015 C 
ATOM     33  H   LIG d   1       4.243  -6.016  -8.459  0.00  0.00     0.048 H 
ATOM     34  H   LIG d   1       2.533  -5.547  -8.266  0.00  0.00     0.048 H 
ATOM     35  N   LIG d   1       5.224  -3.873  -7.064  0.00  0.00    -0.302 N 
ATOM     36  H   LIG d   1       3.901  -5.234  -6.164  0.00  0.00     0.044 H 
ATOM     37  H   LIG d   1       3.151  -3.731  -6.752  0.00  0.00     0.044 H 
ATOM     38  C   LIG d   1       5.243  -2.817  -8.086  0.00  0.00     0.015 C 
ATOM     39  H   LIG d   1       4.478  -2.075  -7.856  0.00  0.00     0.044 H 
ATOM     40  H   LIG d   1       6.223  -2.339  -8.097  0.00  0.00     0.044 H 
ATOM     41  H   LIG d   1       5.778  -4.100  -9.736  0.00  0.00     0.048 H 
ATOM     42  H   LIG d   1       4.859  -2.645 -10.203  0.00  0.00     0.048 H 
ATOM     43  O   LIG d   1       1.692  -4.646 -10.193  0.00  0.00    -0.276 OA
BRANCH  35  44
ATOM     44  C   LIG d   1       5.659  -3.352  -5.761  0.00  0.00    -0.013 C 
ATOM     45  H   LIG d   1       6.140  -4.150  -5.194  0.00  0.00     0.039 H 
ATOM     46  H   LIG d   1       6.367  -2.538  -5.914  0.00  0.00     0.039 H 
ATOM     47  H   LIG d   1       4.795  -2.984  -5.209  0.00  0.00     0.039 H 
ENDBRANCH  35  44
ENDBRANCH  25  28
ENDBRANCH  22  25
ENDBRANCH   1  22
BRANCH  11  48
ATOM     48  N   LIG d   1       2.906  -0.319  -6.212  0.00  0.00    -0.304 N 
ATOM     49  H   LIG d   1       2.593  -1.270  -6.339  0.00  0.00     0.123 HD
BRANCH  48  50
ATOM     50  C   LIG d   1       2.287   0.285  -5.025  0.00  0.00     0.022 C 
ATOM     51  H   LIG d   1       2.264   1.369  -5.140  0.00  0.00     0.047 H 
ATOM     52  H   LIG d   1       1.269  -0.090  -4.915  0.00  0.00     0.047 H 
BRANCH  50  53
ATOM     53  C   LIG d   1       3.090  -0.073  -3.801  0.00  0.00    -0.034 A 
ATOM     54  C   LIG d   1       3.637   0.925  -3.017  0.00  0.00    -0.057 A 
ATOM     55  C   LIG d   1       4.370   0.596  -1.891  0.00  0.00    -0.061 A 
ATOM     56  H   LIG d   1       3.489   1.961  -3.281  0.00  0.00     0.062 H 
ATOM     57  C   LIG d   1       4.563  -0.731  -1.557  0.00  0.00    -0.062 A 
ATOM     58  H   LIG d   1       4.793   1.376  -1.277  0.00  0.00     0.062 H 
ATOM     59  C   LIG d   1       4.021  -1.729  -2.344  0.00  0.00    -0.061 A 
ATOM     60  H   LIG d   1       5.138  -0.988  -0.679  0.00  0.00     0.062 H 
ATOM     61  C   LIG d   1       3.284  -1.400  -3.467  0.00  0.00    -0.057 A 
ATOM     62  H   LIG d   1       4.171  -2.766  -2.082  0.00  0.00     0.062 H 
ATOM     63  H   LIG d   1       2.860  -2.180  -4.082  0.00  0.00     0.062 H 
ENDBRANCH  50  53
ENDBRANCH  48  50
ENDBRANCH  11  48
TORSDOF 7
ENDMDL
MODEL 4
REMARK VINA RESULT:      -6.9      5.658      7.852
REMARK  7 active torsions:
REMARK  status: ('A' for Active; 'I' for Inactive)
REMARK    1  A    between atoms: C_1  and  N_2 
REMARK       I    between atoms: N_5  and  C_8 
REMARK    2  A    between atoms: C_8  and  C_10 
REMARK    3  A    between atoms: C_10  and  C_11 
REMARK    4  A    between atoms: C_11  and  C_12 
REMARK    5  A    between atoms: C_22  and  N_25 
REMARK    6  A    between atoms: N_25  and  C_26 
REMARK    7  A    between atoms: C_26  and  C_27 
ROOT
ATOM      1  C   LIG d   1      10.458   5.312  -3.682  0.00  0.00    -0.004 C 
ATOM      2  H   LIG d   1      11.474   4.946  -3.832  0.00  0.00     0.087 H 
ATOM      3  C   LIG d   1      10.287   6.674  -4.368  0.00  0.00     0.055 C 
ATOM      4  N   LIG d   1      10.097   6.542  -5.808  0.00  0.00    -0.305 N 
ATOM      5  C   LIG d   1       9.890   5.372  -6.444  0.00  0.00     0.262 C 
ATOM      6  O   LIG d   1       9.636   5.353  -7.630  0.00  0.00    -0.270 OA
ATOM      7  C   LIG d   1       9.982   4.101  -5.666  0.00  0.00     0.059 C 
ATOM      8  H   LIG d   1      11.010   3.740  -5.648  0.00  0.00     0.095 H 
ATOM      9  N   LIG d   1       9.510   4.394  -4.287  0.00  0.00     0.248 N 
ATOM     10  C   LIG d   1       9.329   3.088  -3.662  0.00  0.00    -0.015 C 
ATOM     11  C   LIG d   1       8.921   2.128  -4.810  0.00  0.00     0.054 C 
ATOM     12  H   LIG d   1       9.611   1.286  -4.862  0.00  0.00     0.051 H 
ATOM     13  C   LIG d   1       9.030   2.984  -6.118  0.00  0.00     0.019 C 
ATOM     14  H   LIG d   1       9.420   7.178  -3.941  0.00  0.00     0.052 H 
ATOM     15  H   LIG d   1      11.174   7.279  -4.182  0.00  0.00     0.052 H 
ATOM     16  H   LIG d   1      10.119   7.351  -6.343  0.00  0.00     0.149 HD
ATOM     17  H   LIG d   1      10.260   2.756  -3.206  0.00  0.00     0.083 H 
ATOM     18  H   LIG d   1       8.538   3.135  -2.912  0.00  0.00     0.083 H 
ATOM     19  H   LIG d   1       8.059   3.389  -6.399  0.00  0.00     0.034 H 
ATOM     20  H   LIG d   1       9.463   2.409  -6.936  0.00  0.00     0.034 H 
ATOM     21  H   LIG d   1       8.608   4.844  -4.342  0.00  0.00     0.204 HD
ENDROOT
BRANCH   1  22
ATOM     22  C   LIG d   1      10.172   5.443  -2.184  0.00  0.00     0.000 C 
ATOM     23  H   LIG d   1      11.096   5.304  -1.624  0.00  0.00     0.033 H 
ATOM     24  H   LIG d   1       9.448   4.685  -1.885  0.00  0.00     0.033 H 
BRANCH  22  25
ATOM     25  C   LIG d   1       9.604   6.834  -1.895  0.00  0.00     0.029 C 
ATOM     26  H   LIG d   1       8.528   6.761  -1.733  0.00  0.00     0.036 H 
ATOM     27  H   LIG d   1       9.800   7.491  -2.742  0.00  0.00     0.036 H 
BRANCH  25  28
ATOM     28  C   LIG d   1      10.260   7.397  -0.660  0.00  0.00     0.216 C 
ATOM     29  N   LIG d   1      10.788   8.638  -0.684  0.00  0.00    -0.299 N 
ATOM     30  C   LIG d   1      11.434   9.206   0.509  0.00  0.00     0.028 C 
ATOM     31  C   LIG d   1      10.733   9.458  -1.903  0.00  0.00     0.028 C 
ATOM     32  C   LIG d   1      10.830  10.589   0.777  0.00  0.00     0.015 C 
ATOM     33  H   LIG d   1      12.506   9.301   0.335  0.00  0.00     0.048 H 
ATOM     34  H   LIG d   1      11.255   8.557   1.367  0.00  0.00     0.048 H 
ATOM     35  N   LIG d   1      10.936  11.408  -0.437  0.00  0.00    -0.302 N 
ATOM     36  H   LIG d   1      11.372  11.071   1.590  0.00  0.00     0.044 H 
ATOM     37  H   LIG d   1       9.781  10.481   1.052  0.00  0.00     0.044 H 
ATOM     38  C   LIG d   1      10.158  10.831  -1.541  0.00  0.00     0.015 C 
ATOM     39  H   LIG d   1       9.118  10.719  -1.234  0.00  0.00     0.044 H 
ATOM     40  H   LIG d   1      10.213  11.488  -2.409  0.00  0.00     0.044 H 
ATOM     41  H   LIG d   1      11.738   9.577  -2.309  0.00  0.00     0.048 H 
ATOM     42  H   LIG d   1      10.093   8.975  -2.641  0.00  0.00     0.048 H 
ATOM     43  O   LIG d   1      10.314   6.734   0.354  0.00  0.00    -0.276 OA
BRANCH  35  44
ATOM     44  C   LIG d   1      10.527  12.795  -0.174  0.00  0.00    -0.013 C 
ATOM     45  H   LIG d   1      10.500  13.349  -1.113  0.00  0.00     0.039 H 
ATOM     46  H   LIG d   1       9.537  12.802   0.281  0.00  0.00     0.039 H 
ATOM     47  H   LIG d   1      11.242  13.263   0.503  0.00  0.00     0.039 H 
ENDBRANCH  35  44
ENDBRANCH  25  28
ENDBRANCH  22  25
ENDBRANCH   1  22
BRANCH  11  48
ATOM     48  N   LIG d   1       7.547   1.650  -4.614  0.00  0.00    -0.304 N 
ATOM     49  H   LIG d   1       7.062   2.214  -3.932  0.00  0.00     0.123 HD
BRANCH  48  50
ATOM     50  C   LIG d   1       7.531   0.233  -4.230  0.00  0.00     0.022 C 
ATOM     51  H   LIG d   1       7.494  -0.386  -5.127  0.00  0.00     0.047 H 
ATOM     52  H   LIG d   1       8.434  -0.001  -3.666  0.00  0.00     0.047 H 
BRANCH  50  53
ATOM     53  C   LIG d   1       6.320  -0.045  -3.378  0.00  0.00    -0.034 A 
ATOM     54  C   LIG d   1       5.647   1.000  -2.772  0.00  0.00    -0.057 A 
ATOM     55  C   LIG d   1       4.532   0.745  -1.995  0.00  0.00    -0.061 A 
ATOM     56  H   LIG d   1       5.988   2.014  -2.910  0.00  0.00     0.062 H 
ATOM     57  C   LIG d   1       4.098  -0.555  -1.814  0.00  0.00    -0.062 A 
ATOM     58  H   LIG d   1       4.004   1.562  -1.525  0.00  0.00     0.062 H 
ATOM     59  C   LIG d   1       4.775  -1.600  -2.416  0.00  0.00    -0.061 A 
ATOM     60  H   LIG d   1       3.229  -0.754  -1.205  0.00  0.00     0.062 H 
ATOM     61  C   LIG d   1       5.886  -1.344  -3.198  0.00  0.00    -0.057 A 
ATOM     62  H   LIG d   1       4.434  -2.615  -2.276  0.00  0.00     0.062 H 
ATOM     63  H   LIG d   1       6.414  -2.160  -3.667  0.00  0.00     0.062 H 
ENDBRANCH  50  53
ENDBRANCH  48  50
ENDBRANCH  11  48
TORSDOF 7
ENDMDL
MODEL 5
REMARK VINA RESULT:      -6.7      4.657      8.602
REMARK  7 active torsions:
REMARK  status: ('A' for Active; 'I' for Inactive)
REMARK    1  A    between atoms: C_1  and  N_2 
REMARK       I    between atoms: N_5  and  C_8 
REMARK    2  A    between atoms: C_8  and  C_10 
REMARK    3  A    between atoms: C_10  and  C_11 
REMARK    4  A    between atoms: C_11  and  C_12 
REMARK    5  A    between atoms: C_22  and  N_25 
REMARK    6  A    between atoms: N_25  and  C_26 
REMARK    7  A    between atoms: C_26  and  C_27 
ROOT
ATOM      1  C   LIG d   1       2.748  -0.385 -11.000  0.00  0.00    -0.004 C 
ATOM      2  H   LIG d   1       2.771   0.659 -11.312  0.00  0.00     0.087 H 
ATOM      3  C   LIG d   1       3.734  -1.205 -11.844  0.00  0.00     0.055 C 
ATOM      4  N   LIG d   1       5.111  -1.034 -11.398  0.00  0.00    -0.305 N 
ATOM      5  C   LIG d   1       5.471  -0.402 -10.263  0.00  0.00     0.262 C 
ATOM      6  O   LIG d   1       6.629  -0.391  -9.905  0.00  0.00    -0.270 OA
ATOM      7  C   LIG d   1       4.420   0.286  -9.455  0.00  0.00     0.059 C 
ATOM      8  H   LIG d   1       4.280   1.308  -9.805  0.00  0.00     0.095 H 
ATOM      9  N   LIG d   1       3.163  -0.494  -9.612  0.00  0.00     0.248 N 
ATOM     10  C   LIG d   1       2.263   0.024  -8.587  0.00  0.00    -0.015 C 
ATOM     11  C   LIG d   1       3.177   0.460  -7.412  0.00  0.00     0.054 C 
ATOM     12  H   LIG d   1       3.008   1.510  -7.171  0.00  0.00     0.051 H 
ATOM     13  C   LIG d   1       4.640   0.266  -7.935  0.00  0.00     0.019 C 
ATOM     14  H   LIG d   1       3.467  -2.259 -11.774  0.00  0.00     0.052 H 
ATOM     15  H   LIG d   1       3.656  -0.889 -12.884  0.00  0.00     0.052 H 
ATOM     16  H   LIG d   1       5.816  -1.400 -11.955  0.00  0.00     0.149 HD
ATOM     17  H   LIG d   1       1.708   0.879  -8.970  0.00  0.00     0.083 H 
ATOM     18  H   LIG d   1       1.576  -0.756  -8.260  0.00  0.00     0.083 H 
ATOM     19  H   LIG d   1       5.044  -0.693  -7.613  0.00  0.00     0.034 H 
ATOM     20  H   LIG d   1       5.288   1.085  -7.624  0.00  0.00     0.034 H 
ATOM     21  H   LIG d   1       3.355  -1.462  -9.403  0.00  0.00     0.204 HD
ENDROOT
BRANCH   1  22
ATOM     22  C   LIG d   1       1.332  -0.943 -11.164  0.00  0.00     0.000 C 
ATOM     23  H   LIG d   1       0.791  -0.347 -11.899  0.00  0.00     0.033 H 
ATOM     24  H   LIG d   1       0.812  -0.900 -10.207  0.00  0.00     0.033 H 
BRANCH  22  25
ATOM     25  C   LIG d   1       1.409  -2.395 -11.639  0.00  0.00     0.029 C 
ATOM     26  H   LIG d   1       1.487  -3.056 -10.776  0.00  0.00     0.036 H 
ATOM     27  H   LIG d   1       2.284  -2.523 -12.276  0.00  0.00     0.036 H 
BRANCH  25  28
ATOM     28  C   LIG d   1       0.165  -2.734 -12.420  0.00  0.00     0.216 C 
ATOM     29  N   LIG d   1      -0.532  -3.850 -12.127  0.00  0.00    -0.299 N 
ATOM     30  C   LIG d   1      -1.748  -4.200 -12.878  0.00  0.00     0.028 C 
ATOM     31  C   LIG d   1      -0.097  -4.750 -11.048  0.00  0.00     0.028 C 
ATOM     32  C   LIG d   1      -2.873  -4.479 -11.877  0.00  0.00     0.015 C 
ATOM     33  H   LIG d   1      -1.562  -5.089 -13.480  0.00  0.00     0.048 H 
ATOM     34  H   LIG d   1      -2.030  -3.369 -13.524  0.00  0.00     0.048 H 
ATOM     35  N   LIG d   1      -2.426  -5.492 -10.912  0.00  0.00    -0.302 N 
ATOM     36  H   LIG d   1      -3.751  -4.846 -12.409  0.00  0.00     0.044 H 
ATOM     37  H   LIG d   1      -3.127  -3.560 -11.348  0.00  0.00     0.044 H 
ATOM     38  C   LIG d   1      -1.287  -5.008 -10.119  0.00  0.00     0.015 C 
ATOM     39  H   LIG d   1      -1.563  -4.082  -9.615  0.00  0.00     0.044 H 
ATOM     40  H   LIG d   1      -1.014  -5.760  -9.378  0.00  0.00     0.044 H 
ATOM     41  H   LIG d   1       0.247  -5.692 -11.474  0.00  0.00     0.048 H 
ATOM     42  H   LIG d   1       0.712  -4.283 -10.486  0.00  0.00     0.048 H 
ATOM     43  O   LIG d   1      -0.208  -2.003 -13.313  0.00  0.00    -0.276 OA
BRANCH  35  44
ATOM     44  C   LIG d   1      -3.531  -5.915 -10.041  0.00  0.00    -0.013 C 
ATOM     45  H   LIG d   1      -3.580  -5.259  -9.172  0.00  0.00     0.039 H 
ATOM     46  H   LIG d   1      -4.470  -5.858 -10.592  0.00  0.00     0.039 H 
ATOM     47  H   LIG d   1      -3.364  -6.941  -9.713  0.00  0.00     0.039 H 
ENDBRANCH  35  44
ENDBRANCH  25  28
ENDBRANCH  22  25
ENDBRANCH   1  22
BRANCH  11  48
ATOM     48  N   LIG d   1       2.929  -0.380  -6.233  0.00  0.00    -0.304 N 
ATOM     49  H   LIG d   1       2.294  -1.133  -6.453  0.00  0.00     0.123 HD
BRANCH  48  50
ATOM     50  C   LIG d   1       2.426   0.422  -5.111  0.00  0.00     0.022 C 
ATOM     51  H   LIG d   1       2.587   1.480  -5.319  0.00  0.00     0.047 H 
ATOM     52  H   LIG d   1       1.360   0.236  -4.980  0.00  0.00     0.047 H 
BRANCH  50  53
ATOM     53  C   LIG d   1       3.162   0.042  -3.851  0.00  0.00    -0.034 A 
ATOM     54  C   LIG d   1       3.267  -1.287  -3.487  0.00  0.00    -0.057 A 
ATOM     55  C   LIG d   1       3.946  -1.636  -2.334  0.00  0.00    -0.061 A 
ATOM     56  H   LIG d   1       2.823  -2.053  -4.104  0.00  0.00     0.062 H 
ATOM     57  C   LIG d   1       4.510  -0.654  -1.541  0.00  0.00    -0.062 A 
ATOM     58  H   LIG d   1       4.032  -2.675  -2.052  0.00  0.00     0.062 H 
ATOM     59  C   LIG d   1       4.401   0.675  -1.903  0.00  0.00    -0.061 A 
ATOM     60  H   LIG d   1       5.039  -0.926  -0.639  0.00  0.00     0.062 H 
ATOM     61  C   LIG d   1       3.726   1.024  -3.058  0.00  0.00    -0.057 A 
ATOM     62  H   LIG d   1       4.843   1.442  -1.284  0.00  0.00     0.062 H 
ATOM     63  H   LIG d   1       3.640   2.062  -3.341  0.00  0.00     0.062 H 
ENDBRANCH  50  53
ENDBRANCH  48  50
ENDBRANCH  11  48
TORSDOF 7
ENDMDL
MODEL 6
REMARK VINA RESULT:      -6.7      4.792      7.741
REMARK  7 active torsions:
REMARK  status: ('A' for Active; 'I' for Inactive)
REMARK    1  A    between atoms: C_1  and  N_2 
REMARK       I    between atoms: N_5  and  C_8 
REMARK    2  A    between atoms: C_8  and  C_10 
REMARK    3  A    between atoms: C_10  and  C_11 
REMARK    4  A    between atoms: C_11  and  C_12 
REMARK    5  A    between atoms: C_22  and  N_25 
REMARK    6  A    between atoms: N_25  and  C_26 
REMARK    7  A    between atoms: C_26  and  C_27 
ROOT
ATOM      1  C   LIG d   1       5.061  -2.277  -3.876  0.00  0.00    -0.004 C 
ATOM      2  H   LIG d   1       5.868  -2.738  -3.306  0.00  0.00     0.087 H 
ATOM      3  C   LIG d   1       3.873  -1.979  -2.951  0.00  0.00     0.055 C 
ATOM      4  N   LIG d   1       4.087  -0.776  -2.156  0.00  0.00    -0.305 N 
ATOM      5  C   LIG d   1       5.102   0.090  -2.342  0.00  0.00     0.262 C 
ATOM      6  O   LIG d   1       5.155   1.123  -1.710  0.00  0.00    -0.270 OA
ATOM      7  C   LIG d   1       6.162  -0.244  -3.340  0.00  0.00     0.059 C 
ATOM      8  H   LIG d   1       6.949  -0.837  -2.874  0.00  0.00     0.095 H 
ATOM      9  N   LIG d   1       5.511  -1.013  -4.433  0.00  0.00     0.248 N 
ATOM     10  C   LIG d   1       6.496  -1.053  -5.509  0.00  0.00    -0.015 C 
ATOM     11  C   LIG d   1       7.300   0.268  -5.388  0.00  0.00     0.054 C 
ATOM     12  H   LIG d   1       8.364   0.054  -5.282  0.00  0.00     0.051 H 
ATOM     13  C   LIG d   1       6.766   0.955  -4.085  0.00  0.00     0.019 C 
ATOM     14  H   LIG d   1       2.977  -1.847  -3.558  0.00  0.00     0.052 H 
ATOM     15  H   LIG d   1       3.724  -2.825  -2.281  0.00  0.00     0.052 H 
ATOM     16  H   LIG d   1       3.454  -0.586  -1.445  0.00  0.00     0.149 HD
ATOM     17  H   LIG d   1       7.156  -1.910  -5.384  0.00  0.00     0.083 H 
ATOM     18  H   LIG d   1       5.996  -1.101  -6.477  0.00  0.00     0.083 H 
ATOM     19  H   LIG d   1       6.000   1.693  -4.321  0.00  0.00     0.034 H 
ATOM     20  H   LIG d   1       7.575   1.405  -3.511  0.00  0.00     0.034 H 
ATOM     21  H   LIG d   1       4.709  -0.495  -4.760  0.00  0.00     0.204 HD
ENDROOT
BRANCH   1  22
ATOM     22  C   LIG d   1       4.622  -3.215  -5.003  0.00  0.00     0.000 C 
ATOM     23  H   LIG d   1       4.756  -2.717  -5.963  0.00  0.00     0.033 H 
ATOM     24  H   LIG d   1       3.570  -3.472  -4.871  0.00  0.00     0.033 H 
BRANCH  22  25
ATOM     25  C   LIG d   1       5.468  -4.489  -4.965  0.00  0.00     0.029 C 
ATOM     26  H   LIG d   1       5.666  -4.763  -3.929  0.00  0.00     0.036 H 
ATOM     27  H   LIG d   1       6.411  -4.314  -5.482  0.00  0.00     0.036 H 
BRANCH  25  28
ATOM     28  C   LIG d   1       4.722  -5.607  -5.647  0.00  0.00     0.216 C 
ATOM     29  N   LIG d   1       5.347  -6.772  -5.911  0.00  0.00    -0.299 N 
ATOM     30  C   LIG d   1       4.638  -7.876  -6.576  0.00  0.00     0.028 C 
ATOM     31  C   LIG d   1       6.757  -6.972  -5.543  0.00  0.00     0.028 C 
ATOM     32  C   LIG d   1       4.838  -9.150  -5.749  0.00  0.00     0.015 C 
ATOM     33  H   LIG d   1       5.044  -8.020  -7.578  0.00  0.00     0.048 H 
ATOM     34  H   LIG d   1       3.575  -7.643  -6.639  0.00  0.00     0.048 H 
ATOM     35  N   LIG d   1       6.274  -9.372  -5.538  0.00  0.00    -0.302 N 
ATOM     36  H   LIG d   1       4.413 -10.000  -6.283  0.00  0.00     0.044 H 
ATOM     37  H   LIG d   1       4.342  -9.040  -4.786  0.00  0.00     0.044 H 
ATOM     38  C   LIG d   1       6.874  -8.281  -4.757  0.00  0.00     0.015 C 
ATOM     39  H   LIG d   1       6.349  -8.184  -3.807  0.00  0.00     0.044 H 
ATOM     40  H   LIG d   1       7.926  -8.502  -4.572  0.00  0.00     0.044 H 
ATOM     41  H   LIG d   1       7.366  -7.030  -6.445  0.00  0.00     0.048 H 
ATOM     42  H   LIG d   1       7.095  -6.141  -4.923  0.00  0.00     0.048 H 
ATOM     43  O   LIG d   1       3.559  -5.459  -5.957  0.00  0.00    -0.276 OA
BRANCH  35  44
ATOM     44  C   LIG d   1       6.518 -10.673  -4.899  0.00  0.00    -0.013 C 
ATOM     45  H   LIG d   1       5.714 -11.361  -5.160  0.00  0.00     0.039 H 
ATOM     46  H   LIG d   1       7.469 -11.076  -5.247  0.00  0.00     0.039 H 
ATOM     47  H   LIG d   1       6.551 -10.546  -3.817  0.00  0.00     0.039 H 
ENDBRANCH  35  44
ENDBRANCH  25  28
ENDBRANCH  22  25
ENDBRANCH   1  22
BRANCH  11  48
ATOM     48  N   LIG d   1       7.064   1.120  -6.560  0.00  0.00    -0.304 N 
ATOM     49  H   LIG d   1       6.432   1.874  -6.337  0.00  0.00     0.123 HD
BRANCH  48  50
ATOM     50  C   LIG d   1       6.564   0.331  -7.693  0.00  0.00     0.022 C 
ATOM     51  H   LIG d   1       7.297   0.350  -8.500  0.00  0.00     0.047 H 
ATOM     52  H   LIG d   1       6.401  -0.699  -7.375  0.00  0.00     0.047 H 
BRANCH  50  53
ATOM     53  C   LIG d   1       5.265   0.919  -8.181  0.00  0.00    -0.034 A 
ATOM     54  C   LIG d   1       5.275   2.020  -9.017  0.00  0.00    -0.057 A 
ATOM     55  C   LIG d   1       4.083   2.556  -9.468  0.00  0.00    -0.061 A 
ATOM     56  H   LIG d   1       6.213   2.458  -9.321  0.00  0.00     0.062 H 
ATOM     57  C   LIG d   1       2.882   1.997  -9.074  0.00  0.00    -0.062 A 
ATOM     58  H   LIG d   1       4.092   3.413 -10.125  0.00  0.00     0.062 H 
ATOM     59  C   LIG d   1       2.872   0.899  -8.234  0.00  0.00    -0.061 A 
ATOM     60  H   LIG d   1       1.950   2.417  -9.425  0.00  0.00     0.062 H 
ATOM     61  C   LIG d   1       4.063   0.360  -7.787  0.00  0.00    -0.057 A 
ATOM     62  H   LIG d   1       1.933   0.463  -7.927  0.00  0.00     0.062 H 
ATOM     63  H   LIG d   1       4.056  -0.497  -7.130  0.00  0.00     0.062 H 
ENDBRANCH  50  53
ENDBRANCH  48  50
ENDBRANCH  11  48
TORSDOF 7
ENDMDL
MODEL 7
REMARK VINA RESULT:      -6.6      3.180      4.697
REMARK  7 active torsions:
REMARK  status: ('A' for Active; 'I' for Inactive)
REMARK    1  A    between atoms: C_1  and  N_2 
REMARK       I    between atoms: N_5  and  C_8 
REMARK    2  A    between atoms: C_8  and  C_10 
REMARK    3  A    between atoms: C_10  and  C_11 
REMARK    4  A    between atoms: C_11  and  C_12 
REMARK    5  A    between atoms: C_22  and  N_25 
REMARK    6  A    between atoms: N_25  and  C_26 
REMARK    7  A    between atoms: C_26  and  C_27 
ROOT
ATOM      1  C   LIG d   1       3.281  -2.096  -9.367  0.00  0.00    -0.004 C 
ATOM      2  H   LIG d   1       4.228  -2.206  -9.896  0.00  0.00     0.087 H 
ATOM      3  C   LIG d   1       2.173  -2.847 -10.120  0.00  0.00     0.055 C 
ATOM      4  N   LIG d   1       2.220  -4.283  -9.873  0.00  0.00    -0.305 N 
ATOM      5  C   LIG d   1       3.001  -4.872  -8.946  0.00  0.00     0.262 C 
ATOM      6  O   LIG d   1       2.908  -6.061  -8.728  0.00  0.00    -0.270 OA
ATOM      7  C   LIG d   1       3.984  -4.036  -8.193  0.00  0.00     0.059 C 
ATOM      8  H   LIG d   1       4.927  -3.977  -8.737  0.00  0.00     0.095 H 
ATOM      9  N   LIG d   1       3.386  -2.683  -8.043  0.00  0.00     0.248 N 
ATOM     10  C   LIG d   1       4.224  -2.004  -7.060  0.00  0.00    -0.015 C 
ATOM     11  C   LIG d   1       4.740  -3.118  -6.112  0.00  0.00     0.054 C 
ATOM     12  H   LIG d   1       5.830  -3.116  -6.083  0.00  0.00     0.051 H 
ATOM     13  C   LIG d   1       4.229  -4.460  -6.738  0.00  0.00     0.019 C 
ATOM     14  H   LIG d   1       1.205  -2.464  -9.797  0.00  0.00     0.052 H 
ATOM     15  H   LIG d   1       2.286  -2.667 -11.188  0.00  0.00     0.052 H 
ATOM     16  H   LIG d   1       1.649  -4.853 -10.413  0.00  0.00     0.149 HD
ATOM     17  H   LIG d   1       5.061  -1.512  -7.553  0.00  0.00     0.083 H 
ATOM     18  H   LIG d   1       3.636  -1.277  -6.500  0.00  0.00     0.083 H 
ATOM     19  H   LIG d   1       3.303  -4.782  -6.264  0.00  0.00     0.034 H 
ATOM     20  H   LIG d   1       4.987  -5.241  -6.682  0.00  0.00     0.034 H 
ATOM     21  H   LIG d   1       2.460  -2.780  -7.653  0.00  0.00     0.204 HD
ENDROOT
BRANCH   1  22
ATOM     22  C   LIG d   1       2.921  -0.614  -9.253  0.00  0.00     0.000 C 
ATOM     23  H   LIG d   1       3.012  -0.297  -8.214  0.00  0.00     0.033 H 
ATOM     24  H   LIG d   1       1.895  -0.463  -9.590  0.00  0.00     0.033 H 
BRANCH  22  25
ATOM     25  C   LIG d   1       3.871   0.210 -10.123  0.00  0.00     0.029 C 
ATOM     26  H   LIG d   1       3.292   0.862 -10.777  0.00  0.00     0.036 H 
ATOM     27  H   LIG d   1       4.484  -0.459 -10.727  0.00  0.00     0.036 H 
BRANCH  25  28
ATOM     28  C   LIG d   1       4.761   1.048  -9.241  0.00  0.00     0.216 C 
ATOM     29  N   LIG d   1       6.068   0.741  -9.116  0.00  0.00    -0.299 N 
ATOM     30  C   LIG d   1       6.954   1.544  -8.260  0.00  0.00     0.028 C 
ATOM     31  C   LIG d   1       6.645  -0.406  -9.834  0.00  0.00     0.028 C 
ATOM     32  C   LIG d   1       8.189   1.942  -9.076  0.00  0.00     0.015 C 
ATOM     33  H   LIG d   1       7.260   0.955  -7.395  0.00  0.00     0.048 H 
ATOM     34  H   LIG d   1       6.430   2.441  -7.930  0.00  0.00     0.048 H 
ATOM     35  N   LIG d   1       8.803   0.737  -9.647  0.00  0.00    -0.302 N 
ATOM     36  H   LIG d   1       8.907   2.444  -8.427  0.00  0.00     0.044 H 
ATOM     37  H   LIG d   1       7.892   2.615  -9.880  0.00  0.00     0.044 H 
ATOM     38  C   LIG d   1       7.892   0.068 -10.587  0.00  0.00     0.015 C 
ATOM     39  H   LIG d   1       7.600   0.767 -11.370  0.00  0.00     0.044 H 
ATOM     40  H   LIG d   1       8.396  -0.790 -11.033  0.00  0.00     0.044 H 
ATOM     41  H   LIG d   1       6.922  -1.182  -9.120  0.00  0.00     0.048 H 
ATOM     42  H   LIG d   1       5.917  -0.799 -10.542  0.00  0.00     0.048 H 
ATOM     43  O   LIG d   1       4.302   1.997  -8.642  0.00  0.00    -0.276 OA
BRANCH  35  44
ATOM     44  C   LIG d   1      10.085   1.053 -10.292  0.00  0.00    -0.013 C 
ATOM     45  H   LIG d   1      10.329   2.101 -10.118  0.00  0.00     0.039 H 
ATOM     46  H   LIG d   1      10.868   0.423  -9.872  0.00  0.00     0.039 H 
ATOM     47  H   LIG d   1      10.007   0.871 -11.364  0.00  0.00     0.039 H 
ENDBRANCH  35  44
ENDBRANCH  25  28
ENDBRANCH  22  25
ENDBRANCH   1  22
BRANCH  11  48
ATOM     48  N   LIG d   1       4.195  -2.934  -4.761  0.00  0.00    -0.304 N 
ATOM     49  H   LIG d   1       3.334  -2.407  -4.787  0.00  0.00     0.123 HD
BRANCH  48  50
ATOM     50  C   LIG d   1       5.177  -2.291  -3.879  0.00  0.00     0.022 C 
ATOM     51  H   LIG d   1       5.398  -2.951  -3.039  0.00  0.00     0.047 H 
ATOM     52  H   LIG d   1       6.093  -2.096  -4.437  0.00  0.00     0.047 H 
BRANCH  50  53
ATOM     53  C   LIG d   1       4.616  -0.992  -3.362  0.00  0.00    -0.034 A 
ATOM     54  C   LIG d   1       3.649  -0.319  -4.086  0.00  0.00    -0.057 A 
ATOM     55  C   LIG d   1       3.131   0.870  -3.609  0.00  0.00    -0.061 A 
ATOM     56  H   LIG d   1       3.297  -0.725  -5.022  0.00  0.00     0.062 H 
ATOM     57  C   LIG d   1       3.587   1.392  -2.413  0.00  0.00    -0.062 A 
ATOM     58  H   LIG d   1       2.373   1.393  -4.174  0.00  0.00     0.062 H 
ATOM     59  C   LIG d   1       4.557   0.722  -1.692  0.00  0.00    -0.061 A 
ATOM     60  H   LIG d   1       3.184   2.323  -2.042  0.00  0.00     0.062 H 
ATOM     61  C   LIG d   1       5.071  -0.470  -2.166  0.00  0.00    -0.057 A 
ATOM     62  H   LIG d   1       4.912   1.130  -0.756  0.00  0.00     0.062 H 
ATOM     63  H   LIG d   1       5.829  -0.993  -1.602  0.00  0.00     0.062 H 
ENDBRANCH  50  53
ENDBRANCH  48  50
ENDBRANCH  11  48
TORSDOF 7
ENDMDL
MODEL 8
REMARK VINA RESULT:      -6.6      5.151      6.746
REMARK  7 active torsions:
REMARK  status: ('A' for Active; 'I' for Inactive)
REMARK    1  A    between atoms: C_1  and  N_2 
REMARK       I    between atoms: N_5  and  C_8 
REMARK    2  A    between atoms: C_8  and  C_10 
REMARK    3  A    between atoms: C_10  and  C_11 
REMARK    4  A    between atoms: C_11  and  C_12 
REMARK    5  A    between atoms: C_22  and  N_25 
REMARK    6  A    between atoms: N_25  and  C_26 
REMARK    7  A    between atoms: C_26  and  C_27 
ROOT
ATOM      1  C   LIG d   1      10.367   4.755  -6.239  0.00  0.00    -0.004 C 
ATOM      2  H   LIG d   1      11.296   4.262  -6.527  0.00  0.00     0.087 H 
ATOM      3  C   LIG d   1      10.040   5.876  -7.236  0.00  0.00     0.055 C 
ATOM      4  N   LIG d   1       9.461   5.359  -8.470  0.00  0.00    -0.305 N 
ATOM      5  C   LIG d   1       9.066   4.083  -8.650  0.00  0.00     0.262 C 
ATOM      6  O   LIG d   1       8.496   3.753  -9.669  0.00  0.00    -0.270 OA
ATOM      7  C   LIG d   1       9.342   3.083  -7.576  0.00  0.00     0.059 C 
ATOM      8  H   LIG d   1      10.329   2.642  -7.714  0.00  0.00     0.095 H 
ATOM      9  N   LIG d   1       9.271   3.802  -6.277  0.00  0.00     0.248 N 
ATOM     10  C   LIG d   1       9.243   2.753  -5.262  0.00  0.00    -0.015 C 
ATOM     11  C   LIG d   1       8.519   1.553  -5.924  0.00  0.00     0.054 C 
ATOM     12  H   LIG d   1       9.152   0.666  -5.895  0.00  0.00     0.051 H 
ATOM     13  C   LIG d   1       8.282   1.985  -7.411  0.00  0.00     0.019 C 
ATOM     14  H   LIG d   1       9.333   6.565  -6.774  0.00  0.00     0.052 H 
ATOM     15  H   LIG d   1      10.956   6.417  -7.473  0.00  0.00     0.052 H 
ATOM     16  H   LIG d   1       9.351   5.976  -9.211  0.00  0.00     0.149 HD
ATOM     17  H   LIG d   1      10.258   2.474  -4.981  0.00  0.00     0.083 H 
ATOM     18  H   LIG d   1       8.689   3.090  -4.386  0.00  0.00     0.083 H 
ATOM     19  H   LIG d   1       7.279   2.388  -7.544  0.00  0.00     0.034 H 
ATOM     20  H   LIG d   1       8.464   1.161  -8.100  0.00  0.00     0.034 H 
ATOM     21  H   LIG d   1       8.398   4.306  -6.232  0.00  0.00     0.204 HD
ENDROOT
BRANCH   1  22
ATOM     22  C   LIG d   1      10.504   5.335  -4.830  0.00  0.00     0.000 C 
ATOM     23  H   LIG d   1      11.494   5.775  -4.713  0.00  0.00     0.033 H 
ATOM     24  H   LIG d   1      10.370   4.541  -4.095  0.00  0.00     0.033 H 
BRANCH  22  25
ATOM     25  C   LIG d   1       9.438   6.412  -4.616  0.00  0.00     0.029 C 
ATOM     26  H   LIG d   1       8.468   5.938  -4.462  0.00  0.00     0.036 H 
ATOM     27  H   LIG d   1       9.392   7.057  -5.494  0.00  0.00     0.036 H 
BRANCH  25  28
ATOM     28  C   LIG d   1       9.792   7.236  -3.405  0.00  0.00     0.216 C 
ATOM     29  N   LIG d   1      10.131   8.533  -3.547  0.00  0.00    -0.299 N 
ATOM     30  C   LIG d   1      10.481   9.355  -2.378  0.00  0.00     0.028 C 
ATOM     31  C   LIG d   1      10.160   9.164  -4.876  0.00  0.00     0.028 C 
ATOM     32  C   LIG d   1       9.647  10.639  -2.420  0.00  0.00     0.015 C 
ATOM     33  H   LIG d   1      11.542   9.604  -2.411  0.00  0.00     0.048 H 
ATOM     34  H   LIG d   1      10.259   8.804  -1.464  0.00  0.00     0.048 H 
ATOM     35  N   LIG d   1       9.833  11.297  -3.720  0.00  0.00    -0.302 N 
ATOM     36  H   LIG d   1       9.971  11.310  -1.624  0.00  0.00     0.044 H 
ATOM     37  H   LIG d   1       8.594  10.395  -2.284  0.00  0.00     0.044 H 
ATOM     38  C   LIG d   1       9.340  10.456  -4.819  0.00  0.00     0.015 C 
ATOM     39  H   LIG d   1       8.291  10.214  -4.649  0.00  0.00     0.044 H 
ATOM     40  H   LIG d   1       9.442  10.993  -5.763  0.00  0.00     0.044 H 
ATOM     41  H   LIG d   1      11.190   9.395  -5.148  0.00  0.00     0.048 H 
ATOM     42  H   LIG d   1       9.728   8.487  -5.612  0.00  0.00     0.048 H 
ATOM     43  O   LIG d   1       9.773   6.732  -2.302  0.00  0.00    -0.276 OA
BRANCH  35  44
ATOM     44  C   LIG d   1       9.189  12.618  -3.739  0.00  0.00    -0.013 C 
ATOM     45  H   LIG d   1       9.526  13.198  -2.879  0.00  0.00     0.039 H 
ATOM     46  H   LIG d   1       9.458  13.140  -4.657  0.00  0.00     0.039 H 
ATOM     47  H   LIG d   1       8.107  12.496  -3.693  0.00  0.00     0.039 H 
ENDBRANCH  35  44
ENDBRANCH  25  28
ENDBRANCH  22  25
ENDBRANCH   1  22
BRANCH  11  48
ATOM     48  N   LIG d   1       7.242   1.290  -5.249  0.00  0.00    -0.304 N 
ATOM     49  H   LIG d   1       6.556   1.991  -5.487  0.00  0.00     0.123 HD
BRANCH  48  50
ATOM     50  C   LIG d   1       7.423   1.204  -3.794  0.00  0.00     0.022 C 
ATOM     51  H   LIG d   1       8.337   0.653  -3.574  0.00  0.00     0.047 H 
ATOM     52  H   LIG d   1       7.496   2.209  -3.377  0.00  0.00     0.047 H 
BRANCH  50  53
ATOM     53  C   LIG d   1       6.245   0.490  -3.182  0.00  0.00    -0.034 A 
ATOM     54  C   LIG d   1       5.225   1.215  -2.596  0.00  0.00    -0.057 A 
ATOM     55  C   LIG d   1       4.143   0.559  -2.039  0.00  0.00    -0.061 A 
ATOM     56  H   LIG d   1       5.271   2.293  -2.577  0.00  0.00     0.062 H 
ATOM     57  C   LIG d   1       4.087  -0.822  -2.059  0.00  0.00    -0.062 A 
ATOM     58  H   LIG d   1       3.344   1.126  -1.585  0.00  0.00     0.062 H 
ATOM     59  C   LIG d   1       5.110  -1.547  -2.641  0.00  0.00    -0.061 A 
ATOM     60  H   LIG d   1       3.243  -1.334  -1.622  0.00  0.00     0.062 H 
ATOM     61  C   LIG d   1       6.189  -0.891  -3.202  0.00  0.00    -0.057 A 
ATOM     62  H   LIG d   1       5.065  -2.626  -2.657  0.00  0.00     0.062 H 
ATOM     63  H   LIG d   1       6.989  -1.458  -3.657  0.00  0.00     0.062 H 
ENDBRANCH  50  53
ENDBRANCH  48  50
ENDBRANCH  11  48
TORSDOF 7
ENDMDL
MODEL 9
REMARK VINA RESULT:      -6.5      4.102      7.649
REMARK  7 active torsions:
REMARK  status: ('A' for Active; 'I' for Inactive)
REMARK    1  A    between atoms: C_1  and  N_2 
REMARK       I    between atoms: N_5  and  C_8 
REMARK    2  A    between atoms: C_8  and  C_10 
REMARK    3  A    between atoms: C_10  and  C_11 
REMARK    4  A    between atoms: C_11  and  C_12 
REMARK    5  A    between atoms: C_22  and  N_25 
REMARK    6  A    between atoms: N_25  and  C_26 
REMARK    7  A    between atoms: C_26  and  C_27 
ROOT
ATOM      1  C   LIG d   1       2.977  -2.702  -9.556  0.00  0.00    -0.004 C 
ATOM      2  H   LIG d   1       3.896  -2.764 -10.138  0.00  0.00     0.087 H 
ATOM      3  C   LIG d   1       1.897  -3.593 -10.186  0.00  0.00     0.055 C 
ATOM      4  N   LIG d   1       2.088  -5.001  -9.857  0.00  0.00    -0.305 N 
ATOM      5  C   LIG d   1       2.974  -5.457  -8.950  0.00  0.00     0.262 C 
ATOM      6  O   LIG d   1       3.002  -6.633  -8.654  0.00  0.00    -0.270 OA
ATOM      7  C   LIG d   1       3.922  -4.492  -8.316  0.00  0.00     0.059 C 
ATOM      8  H   LIG d   1       4.821  -4.388  -8.923  0.00  0.00     0.095 H 
ATOM      9  N   LIG d   1       3.215  -3.188  -8.208  0.00  0.00     0.248 N 
ATOM     10  C   LIG d   1       4.047  -2.376  -7.326  0.00  0.00    -0.015 C 
ATOM     11  C   LIG d   1       4.718  -3.377  -6.349  0.00  0.00     0.054 C 
ATOM     12  H   LIG d   1       5.803  -3.279  -6.393  0.00  0.00     0.051 H 
ATOM     13  C   LIG d   1       4.293  -4.796  -6.857  0.00  0.00     0.019 C 
ATOM     14  H   LIG d   1       0.920  -3.274  -9.823  0.00  0.00     0.052 H 
ATOM     15  H   LIG d   1       1.928  -3.475 -11.269  0.00  0.00     0.052 H 
ATOM     16  H   LIG d   1       1.540  -5.652 -10.322  0.00  0.00     0.149 HD
ATOM     17  H   LIG d   1       4.804  -1.848  -7.903  0.00  0.00     0.083 H 
ATOM     18  H   LIG d   1       3.430  -1.667  -6.773  0.00  0.00     0.083 H 
ATOM     19  H   LIG d   1       3.430  -5.165  -6.304  0.00  0.00     0.034 H 
ATOM     20  H   LIG d   1       5.120  -5.503  -6.804  0.00  0.00     0.034 H 
ATOM     21  H   LIG d   1       2.327  -3.338  -7.753  0.00  0.00     0.204 HD
ENDROOT
BRANCH   1  22
ATOM     22  C   LIG d   1       2.492  -1.251  -9.507  0.00  0.00     0.000 C 
ATOM     23  H   LIG d   1       3.307  -0.607  -9.180  0.00  0.00     0.033 H 
ATOM     24  H   LIG d   1       1.661  -1.170  -8.807  0.00  0.00     0.033 H 
BRANCH  22  25
ATOM     25  C   LIG d   1       2.029  -0.822 -10.901  0.00  0.00     0.029 C 
ATOM     26  H   LIG d   1       1.326   0.005 -10.811  0.00  0.00     0.036 H 
ATOM     27  H   LIG d   1       1.542  -1.662 -11.397  0.00  0.00     0.036 H 
BRANCH  25  28
ATOM     28  C   LIG d   1       3.221  -0.382 -11.712  0.00  0.00     0.216 C 
ATOM     29  N   LIG d   1       3.542  -1.035 -12.847  0.00  0.00    -0.299 N 
ATOM     30  C   LIG d   1       4.701  -0.623 -13.654  0.00  0.00     0.028 C 
ATOM     31  C   LIG d   1       2.742  -2.179 -13.312  0.00  0.00     0.028 C 
ATOM     32  C   LIG d   1       4.246  -0.450 -15.106  0.00  0.00     0.015 C 
ATOM     33  H   LIG d   1       5.475  -1.389 -13.600  0.00  0.00     0.048 H 
ATOM     34  H   LIG d   1       5.091   0.323 -13.277  0.00  0.00     0.048 H 
ATOM     35  N   LIG d   1       3.581  -1.680 -15.557  0.00  0.00    -0.302 N 
ATOM     36  H   LIG d   1       5.112  -0.252 -15.738  0.00  0.00     0.044 H 
ATOM     37  H   LIG d   1       3.549   0.385 -15.172  0.00  0.00     0.044 H 
ATOM     38  C   LIG d   1       2.364  -1.945 -14.778  0.00  0.00     0.015 C 
ATOM     39  H   LIG d   1       1.693  -1.089 -14.849  0.00  0.00     0.044 H 
ATOM     40  H   LIG d   1       1.866  -2.832 -15.171  0.00  0.00     0.044 H 
ATOM     41  H   LIG d   1       3.327  -3.094 -13.226  0.00  0.00     0.048 H 
ATOM     42  H   LIG d   1       1.838  -2.262 -12.709  0.00  0.00     0.048 H 
ATOM     43  O   LIG d   1       3.892   0.558 -11.344  0.00  0.00    -0.276 OA
BRANCH  35  44
ATOM     44  C   LIG d   1       3.283  -1.621 -16.995  0.00  0.00    -0.013 C 
ATOM     45  H   LIG d   1       2.346  -1.085 -17.150  0.00  0.00     0.039 H 
ATOM     46  H   LIG d   1       4.089  -1.101 -17.512  0.00  0.00     0.039 H 
ATOM     47  H   LIG d   1       3.192  -2.633 -17.389  0.00  0.00     0.039 H 
ENDBRANCH  35  44
ENDBRANCH  25  28
ENDBRANCH  22  25
ENDBRANCH   1  22
BRANCH  11  48
ATOM     48  N   LIG d   1       4.241  -3.151  -4.978  0.00  0.00    -0.304 N 
ATOM     49  H   LIG d   1       3.428  -2.553  -4.972  0.00  0.00     0.123 HD
BRANCH  48  50
ATOM     50  C   LIG d   1       5.307  -2.597  -4.134  0.00  0.00     0.022 C 
ATOM     51  H   LIG d   1       5.592  -3.332  -3.380  0.00  0.00     0.047 H 
ATOM     52  H   LIG d   1       6.172  -2.357  -4.752  0.00  0.00     0.047 H 
BRANCH  50  53
ATOM     53  C   LIG d   1       4.812  -1.347  -3.453  0.00  0.00    -0.034 A 
ATOM     54  C   LIG d   1       3.455  -1.135  -3.299  0.00  0.00    -0.057 A 
ATOM     55  C   LIG d   1       3.001   0.010  -2.671  0.00  0.00    -0.061 A 
ATOM     56  H   LIG d   1       2.750  -1.865  -3.666  0.00  0.00     0.062 H 
ATOM     57  C   LIG d   1       3.905   0.947  -2.206  0.00  0.00    -0.062 A 
ATOM     58  H   LIG d   1       1.941   0.173  -2.547  0.00  0.00     0.062 H 
ATOM     59  C   LIG d   1       5.262   0.737  -2.365  0.00  0.00    -0.061 A 
ATOM     60  H   LIG d   1       3.551   1.843  -1.717  0.00  0.00     0.062 H 
ATOM     61  C   LIG d   1       5.716  -0.410  -2.989  0.00  0.00    -0.057 A 
ATOM     62  H   LIG d   1       5.968   1.469  -2.001  0.00  0.00     0.062 H 
ATOM     63  H   LIG d   1       6.776  -0.574  -3.113  0.00  0.00     0.062 H 
ENDBRANCH  50  53
ENDBRANCH  48  50
ENDBRANCH  11  48
TORSDOF 7
ENDMDL
