MODEL 1
REMARK VINA RESULT:      -6.8      0.000      0.000
REMARK  11 active torsions:
REMARK  status: ('A' for Active; 'I' for Inactive)
REMARK    1  A    between atoms: C_1  and  C_2 
REMARK    2  A    between atoms: C_4  and  N_33 
REMARK    3  A    between atoms: C_8  and  C_32 
REMARK    4  A    between atoms: C_11  and  O_31 
REMARK    5  A    between atoms: C_13  and  C_17 
REMARK    6  A    between atoms: C_17  and  C_19 
REMARK    7  A    between atoms: C_17  and  C_20 
REMARK       I    between atoms: C_20  and  N_22 
REMARK    8  A    between atoms: N_22  and  C_23 
REMARK    9  A    between atoms: C_23  and  C_24 
REMARK   10  A    between atoms: C_24  and  N_25 
REMARK       I    between atoms: N_33  and  C_34 
REMARK   11  A    between atoms: C_34  and  C_36 
ROOT
ATOM      1  C   LIG d   1       9.000   2.341  -5.882  0.00  0.00    -0.020 C 
ATOM      2  H   LIG d   1       9.863   1.667  -5.787  0.00  0.00     0.032 H 
ATOM      3  C   LIG d   1       8.270   2.428  -4.540  0.00  0.00     0.026 C 
ATOM      4  H   LIG d   1       7.379   3.069  -4.624  0.00  0.00     0.050 H 
ATOM      5  C   LIG d   1       9.225   2.969  -3.474  0.00  0.00    -0.034 C 
ATOM      6  C   LIG d   1       9.708   4.362  -3.883  0.00  0.00    -0.046 C 
ATOM      7  C   LIG d   1      10.438   4.276  -5.226  0.00  0.00    -0.026 C 
ATOM      8  C   LIG d   1       9.483   3.734  -6.291  0.00  0.00    -0.005 C 
ATOM      9  H   LIG d   1       8.619   4.408  -6.386  0.00  0.00     0.033 H 
ATOM     10  C   LIG d   1      10.212   3.647  -7.633  0.00  0.00     0.062 C 
ATOM     11  H   LIG d   1      11.048   2.933  -7.588  0.00  0.00     0.060 H 
ATOM     12  C   LIG d   1      10.696   5.040  -8.042  0.00  0.00    -0.004 C 
ATOM     13  H   LIG d   1      11.220   4.977  -9.007  0.00  0.00     0.033 H 
ATOM     14  C   LIG d   1      11.651   5.581  -6.977  0.00  0.00    -0.047 C 
ATOM     15  C   LIG d   1      10.921   5.669  -5.634  0.00  0.00    -0.047 C 
ATOM     16  H   LIG d   1       8.701   3.033  -2.510  0.00  0.00     0.028 H 
ATOM     17  H   LIG d   1      10.088   2.295  -3.379  0.00  0.00     0.028 H 
ATOM     18  H   LIG d   1       8.845   5.038  -3.979  0.00  0.00     0.027 H 
ATOM     19  H   LIG d   1      10.395   4.752  -3.117  0.00  0.00     0.027 H 
ATOM     20  H   LIG d   1      12.515   4.907  -6.881  0.00  0.00     0.027 H 
ATOM     21  H   LIG d   1      11.999   6.583  -7.271  0.00  0.00     0.027 H 
ATOM     22  H   LIG d   1      10.058   6.343  -5.730  0.00  0.00     0.027 H 
ATOM     23  H   LIG d   1      11.608   6.058  -4.869  0.00  0.00     0.027 H 
ENDROOT
BRANCH  12  24
ATOM     24  C   LIG d   1       9.494   5.978  -8.174  0.00  0.00     0.038 C 
ATOM     25  H   LIG d   1       8.833   5.864  -7.303  0.00  0.00     0.040 H 
BRANCH  24  26
ATOM     26  C   LIG d   1       8.727   5.647  -9.456  0.00  0.00    -0.054 C 
ATOM     27  H   LIG d   1       8.683   6.539 -10.099  0.00  0.00     0.024 H 
ATOM     28  H   LIG d   1       7.706   5.328  -9.200  0.00  0.00     0.024 H 
ATOM     29  H   LIG d   1       9.241   4.834  -9.992  0.00  0.00     0.024 H 
ENDBRANCH  24  26
BRANCH  24  30
ATOM     30  C   LIG d   1       9.975   7.405  -8.231  0.00  0.00     0.216 C 
ATOM     31  O   LIG d   1      10.836   7.723  -9.023  0.00  0.00    -0.276 OA
ATOM     32  N   LIG d   1       9.448   8.327  -7.401  0.00  0.00    -0.310 N 
ATOM     33  H   LIG d   1       8.667   8.038  -6.683  0.00  0.00     0.149 HD
BRANCH  32  34
ATOM     34  C   LIG d   1       9.915   9.715  -7.457  0.00  0.00     0.052 C 
ATOM     35  H   LIG d   1      10.458   9.880  -8.399  0.00  0.00     0.051 H 
ATOM     36  H   LIG d   1       9.053  10.395  -7.406  0.00  0.00     0.051 H 
BRANCH  34  37
ATOM     37  C   LIG d   1      10.849   9.986  -6.276  0.00  0.00    -0.016 C 
ATOM     38  H   LIG d   1      11.551   9.146  -6.163  0.00  0.00     0.083 H 
ATOM     39  H   LIG d   1      11.413  10.913  -6.458  0.00  0.00     0.083 H 
BRANCH  37  40
ATOM     40  N   LIG d   1      10.056  10.129  -5.047  0.00  0.00     0.240 N 
ATOM     41  C   LIG d   1      10.853   9.780  -3.862  0.00  0.00    -0.008 C 
ATOM     42  C   LIG d   1       9.972   9.885  -2.614  0.00  0.00     0.088 C 
ATOM     43  H   LIG d   1      11.229   8.751  -3.962  0.00  0.00     0.084 H 
ATOM     44  H   LIG d   1      11.701  10.474  -3.774  0.00  0.00     0.084 H 
ATOM     45  O   LIG d   1       9.427  11.205  -2.530  0.00  0.00    -0.369 OA
ATOM     46  H   LIG d   1      10.578   9.682  -1.717  0.00  0.00     0.061 H 
ATOM     47  H   LIG d   1       9.153   9.153  -2.677  0.00  0.00     0.061 H 
ATOM     48  C   LIG d   1       8.645  11.577  -3.669  0.00  0.00     0.088 C 
ATOM     49  C   LIG d   1       9.511  11.489  -4.928  0.00  0.00    -0.008 C 
ATOM     50  H   LIG d   1       8.282  12.608  -3.545  0.00  0.00     0.061 H 
ATOM     51  H   LIG d   1       7.787  10.895  -3.765  0.00  0.00     0.061 H 
ATOM     52  H   LIG d   1      10.339  12.211  -4.857  0.00  0.00     0.084 H 
ATOM     53  H   LIG d   1       8.899  11.718  -5.813  0.00  0.00     0.084 H 
ATOM     54  H   LIG d   1       9.211   9.427  -5.110  0.00  0.00     0.204 HD
ENDBRANCH  37  40
ENDBRANCH  34  37
ENDBRANCH  32  34
ENDBRANCH  24  30
ENDBRANCH  12  24
BRANCH  10  55
ATOM     55  O   LIG d   1       9.320   3.141  -8.628  0.00  0.00    -0.391 OA
ATOM     56  H   LIG d   1       9.205   3.672  -9.585  0.00  0.00     0.210 HD
ENDBRANCH  10  55
BRANCH   1  57
ATOM     57  C   LIG d   1       8.044   1.800  -6.947  0.00  0.00    -0.060 C 
ATOM     58  H   LIG d   1       7.030   2.183  -6.759  0.00  0.00     0.023 H 
ATOM     59  H   LIG d   1       8.034   0.700  -6.906  0.00  0.00     0.023 H 
ATOM     60  H   LIG d   1       8.380   2.127  -7.942  0.00  0.00     0.023 H 
ENDBRANCH   1  57
BRANCH   7  61
ATOM     61  C   LIG d   1      11.640   3.338  -5.093  0.00  0.00    -0.059 C 
ATOM     62  H   LIG d   1      11.496   2.464  -5.744  0.00  0.00     0.024 H 
ATOM     63  H   LIG d   1      11.731   3.005  -4.048  0.00  0.00     0.024 H 
ATOM     64  H   LIG d   1      12.555   3.870  -5.389  0.00  0.00     0.024 H 
ENDBRANCH   7  61
BRANCH   3  65
ATOM     65  N   LIG d   1       7.807   1.095  -4.148  0.00  0.00    -0.312 N 
ATOM     66  C   LIG d   1       6.634   0.951  -3.499  0.00  0.00     0.216 C 
ATOM     67  O   LIG d   1       5.963   1.927  -3.240  0.00  0.00    -0.276 OA
ATOM     68  H   LIG d   1       8.417   0.209  -4.384  0.00  0.00     0.149 HD
BRANCH  66  69
ATOM     69  C   LIG d   1       6.158  -0.420  -3.096  0.00  0.00     0.036 C 
ATOM     70  C   LIG d   1       4.831  -0.299  -2.345  0.00  0.00    -0.042 C 
ATOM     71  C   LIG d   1       4.348  -1.692  -1.937  0.00  0.00    -0.052 C 
ATOM     72  H   LIG d   1       4.974   0.318  -1.447  0.00  0.00     0.027 H 
ATOM     73  H   LIG d   1       4.081   0.172  -2.999  0.00  0.00     0.027 H 
ATOM     74  C   LIG d   1       4.150  -2.551  -3.187  0.00  0.00    -0.053 C 
ATOM     75  H   LIG d   1       3.394  -1.606  -1.396  0.00  0.00     0.026 H 
ATOM     76  H   LIG d   1       5.097  -2.163  -1.283  0.00  0.00     0.026 H 
ATOM     77  C   LIG d   1       5.477  -2.672  -3.938  0.00  0.00    -0.052 C 
ATOM     78  H   LIG d   1       3.400  -2.081  -3.841  0.00  0.00     0.026 H 
ATOM     79  H   LIG d   1       3.802  -3.553  -2.893  0.00  0.00     0.026 H 
ATOM     80  C   LIG d   1       5.960  -1.279  -4.347  0.00  0.00    -0.042 C 
ATOM     81  H   LIG d   1       5.335  -3.290  -4.837  0.00  0.00     0.026 H 
ATOM     82  H   LIG d   1       6.226  -3.143  -3.285  0.00  0.00     0.026 H 
ATOM     83  H   LIG d   1       5.211  -0.808  -5.000  0.00  0.00     0.027 H 
ATOM     84  H   LIG d   1       6.915  -1.366  -4.887  0.00  0.00     0.027 H 
ATOM     85  H   LIG d   1       6.917  -0.878  -2.445  0.00  0.00     0.039 H 
ENDBRANCH  66  69
ENDBRANCH   3  65
TORSDOF 11
ENDMDL
MODEL 2
REMARK VINA RESULT:      -6.2      2.798      9.111
REMARK  11 active torsions:
REMARK  status: ('A' for Active; 'I' for Inactive)
REMARK    1  A    between atoms: C_1  and  C_2 
REMARK    2  A    between atoms: C_4  and  N_33 
REMARK    3  A    between atoms: C_8  and  C_32 
REMARK    4  A    between atoms: C_11  and  O_31 
REMARK    5  A    between atoms: C_13  and  C_17 
REMARK    6  A    between atoms: C_17  and  C_19 
REMARK    7  A    between atoms: C_17  and  C_20 
REMARK       I    between atoms: C_20  and  N_22 
REMARK    8  A    between atoms: N_22  and  C_23 
REMARK    9  A    between atoms: C_23  and  C_24 
REMARK   10  A    between atoms: C_24  and  N_25 
REMARK       I    between atoms: N_33  and  C_34 
REMARK   11  A    between atoms: C_34  and  C_36 
ROOT
ATOM      1  C   LIG d   1      10.604   5.802  -3.100  0.00  0.00    -0.020 C 
ATOM      2  H   LIG d   1      11.668   6.021  -3.267  0.00  0.00     0.032 H 
ATOM      3  C   LIG d   1       9.812   7.111  -3.065  0.00  0.00     0.026 C 
ATOM      4  H   LIG d   1       8.749   6.915  -2.860  0.00  0.00     0.050 H 
ATOM      5  C   LIG d   1       9.979   7.842  -4.399  0.00  0.00    -0.034 C 
ATOM      6  C   LIG d   1       9.455   6.959  -5.533  0.00  0.00    -0.046 C 
ATOM      7  C   LIG d   1      10.246   5.649  -5.568  0.00  0.00    -0.026 C 
ATOM      8  C   LIG d   1      10.080   4.919  -4.234  0.00  0.00    -0.005 C 
ATOM      9  H   LIG d   1       9.015   4.699  -4.066  0.00  0.00     0.033 H 
ATOM     10  C   LIG d   1      10.871   3.609  -4.268  0.00  0.00     0.062 C 
ATOM     11  H   LIG d   1      11.950   3.797  -4.375  0.00  0.00     0.060 H 
ATOM     12  C   LIG d   1      10.347   2.727  -5.403  0.00  0.00    -0.004 C 
ATOM     13  H   LIG d   1      10.916   1.785  -5.428  0.00  0.00     0.033 H 
ATOM     14  C   LIG d   1      10.514   3.458  -6.736  0.00  0.00    -0.047 C 
ATOM     15  C   LIG d   1       9.722   4.767  -6.703  0.00  0.00    -0.047 C 
ATOM     16  H   LIG d   1       9.410   8.783  -4.375  0.00  0.00     0.028 H 
ATOM     17  H   LIG d   1      11.043   8.061  -4.566  0.00  0.00     0.028 H 
ATOM     18  H   LIG d   1       8.390   6.739  -5.366  0.00  0.00     0.027 H 
ATOM     19  H   LIG d   1       9.575   7.485  -6.492  0.00  0.00     0.027 H 
ATOM     20  H   LIG d   1      11.578   3.677  -6.904  0.00  0.00     0.027 H 
ATOM     21  H   LIG d   1      10.137   2.823  -7.552  0.00  0.00     0.027 H 
ATOM     22  H   LIG d   1       8.658   4.547  -6.535  0.00  0.00     0.027 H 
ATOM     23  H   LIG d   1       9.842   5.292  -7.661  0.00  0.00     0.027 H 
ENDROOT
BRANCH  12  24
ATOM     24  C   LIG d   1       8.866   2.422  -5.169  0.00  0.00     0.038 C 
ATOM     25  H   LIG d   1       8.271   3.336  -5.304  0.00  0.00     0.040 H 
BRANCH  24  26
ATOM     26  C   LIG d   1       8.674   1.880  -3.752  0.00  0.00    -0.054 C 
ATOM     27  H   LIG d   1       9.634   1.905  -3.216  0.00  0.00     0.024 H 
ATOM     28  H   LIG d   1       8.309   0.843  -3.802  0.00  0.00     0.024 H 
ATOM     29  H   LIG d   1       7.939   2.501  -3.217  0.00  0.00     0.024 H 
ENDBRANCH  24  26
BRANCH  24  30
ATOM     30  C   LIG d   1       8.402   1.393  -6.168  0.00  0.00     0.216 C 
ATOM     31  O   LIG d   1       9.143   0.493  -6.500  0.00  0.00    -0.276 OA
ATOM     32  N   LIG d   1       7.162   1.473  -6.691  0.00  0.00    -0.310 N 
ATOM     33  H   LIG d   1       6.490   2.289  -6.389  0.00  0.00     0.149 HD
BRANCH  32  34
ATOM     34  C   LIG d   1       6.711   0.472  -7.661  0.00  0.00     0.052 C 
ATOM     35  H   LIG d   1       6.040   0.948  -8.392  0.00  0.00     0.051 H 
ATOM     36  H   LIG d   1       7.581   0.048  -8.184  0.00  0.00     0.051 H 
BRANCH  34  37
ATOM     37  C   LIG d   1       5.961  -0.644  -6.931  0.00  0.00    -0.016 C 
ATOM     38  H   LIG d   1       5.406  -1.251  -7.662  0.00  0.00     0.083 H 
ATOM     39  H   LIG d   1       6.680  -1.282  -6.396  0.00  0.00     0.083 H 
BRANCH  37  40
ATOM     40  N   LIG d   1       5.020  -0.055  -5.970  0.00  0.00     0.240 N 
ATOM     41  C   LIG d   1       3.630  -0.237  -6.413  0.00  0.00    -0.008 C 
ATOM     42  C   LIG d   1       2.689   0.443  -5.415  0.00  0.00     0.088 C 
ATOM     43  H   LIG d   1       3.500   0.215  -7.408  0.00  0.00     0.084 H 
ATOM     44  H   LIG d   1       3.399  -1.310  -6.464  0.00  0.00     0.084 H 
ATOM     45  O   LIG d   1       2.916  -0.097  -4.110  0.00  0.00    -0.369 OA
ATOM     46  H   LIG d   1       1.644   0.261  -5.710  0.00  0.00     0.061 H 
ATOM     47  H   LIG d   1       2.883   1.526  -5.403  0.00  0.00     0.061 H 
ATOM     48  C   LIG d   1       4.259   0.063  -3.647  0.00  0.00     0.088 C 
ATOM     49  C   LIG d   1       5.217  -0.620  -4.626  0.00  0.00    -0.008 C 
ATOM     50  H   LIG d   1       4.363  -0.396  -2.653  0.00  0.00     0.061 H 
ATOM     51  H   LIG d   1       4.502   1.135  -3.583  0.00  0.00     0.061 H 
ATOM     52  H   LIG d   1       5.012  -1.701  -4.650  0.00  0.00     0.084 H 
ATOM     53  H   LIG d   1       6.255  -0.450  -4.306  0.00  0.00     0.084 H 
ATOM     54  H   LIG d   1       5.224   1.025  -5.919  0.00  0.00     0.204 HD
ENDBRANCH  37  40
ENDBRANCH  34  37
ENDBRANCH  32  34
ENDBRANCH  24  30
ENDBRANCH  12  24
BRANCH  10  55
ATOM     55  O   LIG d   1      10.715   2.927  -3.023  0.00  0.00    -0.391 OA
ATOM     56  H   LIG d   1      11.578   2.806  -2.351  0.00  0.00     0.210 HD
ENDBRANCH  10  55
BRANCH   1  57
ATOM     57  C   LIG d   1      10.437   5.070  -1.766  0.00  0.00    -0.060 C 
ATOM     58  H   LIG d   1       9.372   5.044  -1.493  0.00  0.00     0.023 H 
ATOM     59  H   LIG d   1      11.003   5.599  -0.985  0.00  0.00     0.023 H 
ATOM     60  H   LIG d   1      10.816   4.043  -1.861  0.00  0.00     0.023 H 
ENDBRANCH   1  57
BRANCH   7  61
ATOM     61  C   LIG d   1      11.727   5.954  -5.802  0.00  0.00    -0.059 C 
ATOM     62  H   LIG d   1      12.249   6.001  -4.835  0.00  0.00     0.024 H 
ATOM     63  H   LIG d   1      11.825   6.922  -6.317  0.00  0.00     0.024 H 
ATOM     64  H   LIG d   1      12.171   5.163  -6.422  0.00  0.00     0.024 H 
ENDBRANCH   7  61
BRANCH   3  65
ATOM     65  N   LIG d   1      10.314   7.956  -1.979  0.00  0.00    -0.312 N 
ATOM     66  C   LIG d   1       9.504   8.290  -0.955  0.00  0.00     0.216 C 
ATOM     67  O   LIG d   1       8.359   7.890  -0.933  0.00  0.00    -0.276 OA
ATOM     68  H   LIG d   1      11.353   8.319  -1.999  0.00  0.00     0.149 HD
BRANCH  66  69
ATOM     69  C   LIG d   1      10.020   9.159   0.162  0.00  0.00     0.036 C 
ATOM     70  C   LIG d   1      11.389   8.649   0.614  0.00  0.00    -0.042 C 
ATOM     71  C   LIG d   1      11.913   9.532   1.748  0.00  0.00    -0.052 C 
ATOM     72  H   LIG d   1      11.296   7.613   0.968  0.00  0.00     0.027 H 
ATOM     73  H   LIG d   1      12.092   8.685  -0.233  0.00  0.00     0.027 H 
ATOM     74  C   LIG d   1      12.044  10.974   1.255  0.00  0.00    -0.053 C 
ATOM     75  H   LIG d   1      12.898   9.166   2.073  0.00  0.00     0.026 H 
ATOM     76  H   LIG d   1      11.211   9.496   2.595  0.00  0.00     0.026 H 
ATOM     77  C   LIG d   1      10.673  11.485   0.802  0.00  0.00    -0.052 C 
ATOM     78  H   LIG d   1      12.745  11.010   0.408  0.00  0.00     0.026 H 
ATOM     79  H   LIG d   1      12.421  11.609   2.070  0.00  0.00     0.026 H 
ATOM     80  C   LIG d   1      10.150  10.602  -0.332  0.00  0.00    -0.042 C 
ATOM     81  H   LIG d   1      10.767  12.521   0.447  0.00  0.00     0.026 H 
ATOM     82  H   LIG d   1       9.972  11.449   1.649  0.00  0.00     0.026 H 
ATOM     83  H   LIG d   1      10.852  10.637  -1.178  0.00  0.00     0.027 H 
ATOM     84  H   LIG d   1       9.164  10.968  -0.657  0.00  0.00     0.027 H 
ATOM     85  H   LIG d   1       9.308   9.114   1.000  0.00  0.00     0.039 H 
ENDBRANCH  66  69
ENDBRANCH   3  65
TORSDOF 11
ENDMDL
MODEL 3
REMARK VINA RESULT:      -6.2      2.438      4.319
REMARK  11 active torsions:
REMARK  status: ('A' for Active; 'I' for Inactive)
REMARK    1  A    between atoms: C_1  and  C_2 
REMARK    2  A    between atoms: C_4  and  N_33 
REMARK    3  A    between atoms: C_8  and  C_32 
REMARK    4  A    between atoms: C_11  and  O_31 
REMARK    5  A    between atoms: C_13  and  C_17 
REMARK    6  A    between atoms: C_17  and  C_19 
REMARK    7  A    between atoms: C_17  and  C_20 
REMARK       I    between atoms: C_20  and  N_22 
REMARK    8  A    between atoms: N_22  and  C_23 
REMARK    9  A    between atoms: C_23  and  C_24 
REMARK   10  A    between atoms: C_24  and  N_25 
REMARK       I    between atoms: N_33  and  C_34 
REMARK   11  A    between atoms: C_34  and  C_36 
ROOT
ATOM      1  C   LIG d   1       9.036   2.314  -5.883  0.00  0.00    -0.020 C 
ATOM      2  H   LIG d   1       9.889   1.628  -5.784  0.00  0.00     0.032 H 
ATOM      3  C   LIG d   1       8.309   2.421  -4.541  0.00  0.00     0.026 C 
ATOM      4  H   LIG d   1       7.428   3.074  -4.628  0.00  0.00     0.050 H 
ATOM      5  C   LIG d   1       9.274   2.955  -3.480  0.00  0.00    -0.034 C 
ATOM      6  C   LIG d   1       9.776   4.338  -3.899  0.00  0.00    -0.046 C 
ATOM      7  C   LIG d   1      10.503   4.232  -5.242  0.00  0.00    -0.026 C 
ATOM      8  C   LIG d   1       9.539   3.697  -6.302  0.00  0.00    -0.005 C 
ATOM      9  H   LIG d   1       8.685   4.383  -6.401  0.00  0.00     0.033 H 
ATOM     10  C   LIG d   1      10.265   3.590  -7.645  0.00  0.00     0.062 C 
ATOM     11  H   LIG d   1      11.090   2.864  -7.595  0.00  0.00     0.060 H 
ATOM     12  C   LIG d   1      10.769   4.973  -8.063  0.00  0.00    -0.004 C 
ATOM     13  H   LIG d   1      11.291   4.897  -9.029  0.00  0.00     0.033 H 
ATOM     14  C   LIG d   1      11.733   5.508  -7.003  0.00  0.00    -0.047 C 
ATOM     15  C   LIG d   1      11.006   5.615  -5.660  0.00  0.00    -0.047 C 
ATOM     16  H   LIG d   1       8.751   3.033  -2.515  0.00  0.00     0.028 H 
ATOM     17  H   LIG d   1      10.127   2.269  -3.381  0.00  0.00     0.028 H 
ATOM     18  H   LIG d   1       8.923   5.025  -3.999  0.00  0.00     0.027 H 
ATOM     19  H   LIG d   1      10.470   4.722  -3.136  0.00  0.00     0.027 H 
ATOM     20  H   LIG d   1      12.587   4.821  -6.904  0.00  0.00     0.027 H 
ATOM     21  H   LIG d   1      12.095   6.502  -7.304  0.00  0.00     0.027 H 
ATOM     22  H   LIG d   1      10.152   6.301  -5.760  0.00  0.00     0.027 H 
ATOM     23  H   LIG d   1      11.699   5.999  -4.898  0.00  0.00     0.027 H 
ENDROOT
BRANCH  12  24
ATOM     24  C   LIG d   1       9.580   5.928  -8.201  0.00  0.00     0.038 C 
ATOM     25  H   LIG d   1       8.948   5.868  -7.303  0.00  0.00     0.040 H 
BRANCH  24  26
ATOM     26  C   LIG d   1       8.765   5.552  -9.439  0.00  0.00    -0.054 C 
ATOM     27  H   LIG d   1       7.693   5.570  -9.192  0.00  0.00     0.024 H 
ATOM     28  H   LIG d   1       9.048   4.543  -9.772  0.00  0.00     0.024 H 
ATOM     29  H   LIG d   1       8.967   6.274 -10.245  0.00  0.00     0.024 H 
ENDBRANCH  24  26
BRANCH  24  30
ATOM     30  C   LIG d   1      10.086   7.340  -8.341  0.00  0.00     0.216 C 
ATOM     31  O   LIG d   1       9.716   8.197  -7.566  0.00  0.00    -0.276 OA
ATOM     32  N   LIG d   1      10.949   7.652  -9.328  0.00  0.00    -0.310 N 
ATOM     33  H   LIG d   1      11.284   6.875 -10.031  0.00  0.00     0.149 HD
BRANCH  32  34
ATOM     34  C   LIG d   1      11.441   9.026  -9.465  0.00  0.00     0.052 C 
ATOM     35  H   LIG d   1      10.711   9.721  -9.025  0.00  0.00     0.051 H 
ATOM     36  H   LIG d   1      12.403   9.124  -8.941  0.00  0.00     0.051 H 
BRANCH  34  37
ATOM     37  C   LIG d   1      11.630   9.354 -10.947  0.00  0.00    -0.016 C 
ATOM     38  H   LIG d   1      11.074  10.271 -11.192  0.00  0.00     0.083 H 
ATOM     39  H   LIG d   1      12.700   9.508 -11.156  0.00  0.00     0.083 H 
BRANCH  37  40
ATOM     40  N   LIG d   1      11.127   8.243 -11.763  0.00  0.00     0.240 N 
ATOM     41  C   LIG d   1       9.927   8.640 -12.514  0.00  0.00    -0.008 C 
ATOM     42  C   LIG d   1       9.403   7.437 -13.302  0.00  0.00     0.088 C 
ATOM     43  H   LIG d   1       9.153   8.986 -11.812  0.00  0.00     0.084 H 
ATOM     44  H   LIG d   1      10.182   9.453 -13.209  0.00  0.00     0.084 H 
ATOM     45  O   LIG d   1      10.439   6.947 -14.159  0.00  0.00    -0.369 OA
ATOM     46  H   LIG d   1       8.539   7.744 -13.912  0.00  0.00     0.061 H 
ATOM     47  H   LIG d   1       9.097   6.643 -12.605  0.00  0.00     0.061 H 
ATOM     48  C   LIG d   1      11.622   6.550 -13.461  0.00  0.00     0.088 C 
ATOM     49  C   LIG d   1      12.169   7.743 -12.673  0.00  0.00    -0.008 C 
ATOM     50  H   LIG d   1      12.379   6.210 -14.182  0.00  0.00     0.061 H 
ATOM     51  H   LIG d   1      11.383   5.730 -12.766  0.00  0.00     0.061 H 
ATOM     52  H   LIG d   1      12.461   8.543 -13.371  0.00  0.00     0.084 H 
ATOM     53  H   LIG d   1      13.046   7.429 -12.088  0.00  0.00     0.084 H 
ATOM     54  H   LIG d   1      10.849   7.424 -11.083  0.00  0.00     0.204 HD
ENDBRANCH  37  40
ENDBRANCH  34  37
ENDBRANCH  32  34
ENDBRANCH  24  30
ENDBRANCH  12  24
BRANCH  10  55
ATOM     55  O   LIG d   1       9.364   3.091  -8.635  0.00  0.00    -0.391 OA
ATOM     56  H   LIG d   1       9.031   3.744  -9.455  0.00  0.00     0.210 HD
ENDBRANCH  10  55
BRANCH   1  57
ATOM     57  C   LIG d   1       8.071   1.779  -6.944  0.00  0.00    -0.060 C 
ATOM     58  H   LIG d   1       8.614   1.624  -7.888  0.00  0.00     0.023 H 
ATOM     59  H   LIG d   1       7.261   2.507  -7.102  0.00  0.00     0.023 H 
ATOM     60  H   LIG d   1       7.645   0.825  -6.605  0.00  0.00     0.023 H 
ENDBRANCH   1  57
BRANCH   7  61
ATOM     61  C   LIG d   1      11.691   3.277  -5.104  0.00  0.00    -0.059 C 
ATOM     62  H   LIG d   1      11.322   2.252  -4.962  0.00  0.00     0.024 H 
ATOM     63  H   LIG d   1      12.299   3.572  -4.235  0.00  0.00     0.024 H 
ATOM     64  H   LIG d   1      12.306   3.324  -6.014  0.00  0.00     0.024 H 
ENDBRANCH   7  61
BRANCH   3  65
ATOM     65  N   LIG d   1       7.827   1.097  -4.139  0.00  0.00    -0.312 N 
ATOM     66  C   LIG d   1       6.650   0.974  -3.495  0.00  0.00     0.216 C 
ATOM     67  O   LIG d   1       5.989   1.961  -3.248  0.00  0.00    -0.276 OA
ATOM     68  H   LIG d   1       8.427   0.202  -4.364  0.00  0.00     0.149 HD
BRANCH  66  69
ATOM     69  C   LIG d   1       6.154  -0.387  -3.083  0.00  0.00     0.036 C 
ATOM     70  C   LIG d   1       4.856  -0.238  -2.287  0.00  0.00    -0.042 C 
ATOM     71  C   LIG d   1       4.353  -1.621  -1.869  0.00  0.00    -0.052 C 
ATOM     72  H   LIG d   1       5.044   0.371  -1.391  0.00  0.00     0.027 H 
ATOM     73  H   LIG d   1       4.097   0.254  -2.913  0.00  0.00     0.027 H 
ATOM     74  C   LIG d   1       4.092  -2.469  -3.115  0.00  0.00    -0.053 C 
ATOM     75  H   LIG d   1       3.420  -1.515  -1.296  0.00  0.00     0.026 H 
ATOM     76  H   LIG d   1       5.112  -2.114  -1.242  0.00  0.00     0.026 H 
ATOM     77  C   LIG d   1       5.390  -2.618  -3.911  0.00  0.00    -0.052 C 
ATOM     78  H   LIG d   1       3.333  -1.976  -3.741  0.00  0.00     0.026 H 
ATOM     79  H   LIG d   1       3.730  -3.463  -2.814  0.00  0.00     0.026 H 
ATOM     80  C   LIG d   1       5.893  -1.235  -4.330  0.00  0.00    -0.042 C 
ATOM     81  H   LIG d   1       5.202  -3.227  -4.808  0.00  0.00     0.026 H 
ATOM     82  H   LIG d   1       6.149  -3.110  -3.286  0.00  0.00     0.026 H 
ATOM     83  H   LIG d   1       5.134  -0.742  -4.955  0.00  0.00     0.027 H 
ATOM     84  H   LIG d   1       6.827  -1.342  -4.902  0.00  0.00     0.027 H 
ATOM     85  H   LIG d   1       6.923  -0.867  -2.459  0.00  0.00     0.039 H 
ENDBRANCH  66  69
ENDBRANCH   3  65
TORSDOF 11
ENDMDL
MODEL 4
REMARK VINA RESULT:      -6.2      1.888      2.774
REMARK  11 active torsions:
REMARK  status: ('A' for Active; 'I' for Inactive)
REMARK    1  A    between atoms: C_1  and  C_2 
REMARK    2  A    between atoms: C_4  and  N_33 
REMARK    3  A    between atoms: C_8  and  C_32 
REMARK    4  A    between atoms: C_11  and  O_31 
REMARK    5  A    between atoms: C_13  and  C_17 
REMARK    6  A    between atoms: C_17  and  C_19 
REMARK    7  A    between atoms: C_17  and  C_20 
REMARK       I    between atoms: C_20  and  N_22 
REMARK    8  A    between atoms: N_22  and  C_23 
REMARK    9  A    between atoms: C_23  and  C_24 
REMARK   10  A    between atoms: C_24  and  N_25 
REMARK       I    between atoms: N_33  and  C_34 
REMARK   11  A    between atoms: C_34  and  C_36 
ROOT
ATOM      1  C   LIG d   1      10.002   3.964  -5.521  0.00  0.00    -0.020 C 
ATOM      2  H   LIG d   1      11.013   3.534  -5.499  0.00  0.00     0.032 H 
ATOM      3  C   LIG d   1       9.164   3.357  -4.393  0.00  0.00     0.026 C 
ATOM      4  H   LIG d   1       8.136   3.747  -4.421  0.00  0.00     0.050 H 
ATOM      5  C   LIG d   1       9.822   3.667  -3.047  0.00  0.00    -0.034 C 
ATOM      6  C   LIG d   1       9.909   5.183  -2.858  0.00  0.00    -0.046 C 
ATOM      7  C   LIG d   1      10.745   5.790  -3.987  0.00  0.00    -0.026 C 
ATOM      8  C   LIG d   1      10.088   5.480  -5.333  0.00  0.00    -0.005 C 
ATOM      9  H   LIG d   1       9.076   5.911  -5.355  0.00  0.00     0.033 H 
ATOM     10  C   LIG d   1      10.925   6.088  -6.461  0.00  0.00     0.062 C 
ATOM     11  H   LIG d   1      11.926   5.633  -6.504  0.00  0.00     0.060 H 
ATOM     12  C   LIG d   1      11.011   7.603  -6.272  0.00  0.00    -0.004 C 
ATOM     13  H   LIG d   1      11.613   8.040  -7.084  0.00  0.00     0.033 H 
ATOM     14  C   LIG d   1      11.669   7.913  -4.926  0.00  0.00    -0.047 C 
ATOM     15  C   LIG d   1      10.832   7.306  -3.798  0.00  0.00    -0.047 C 
ATOM     16  H   LIG d   1       9.220   3.231  -2.236  0.00  0.00     0.028 H 
ATOM     17  H   LIG d   1      10.834   3.236  -3.025  0.00  0.00     0.028 H 
ATOM     18  H   LIG d   1       8.897   5.614  -2.880  0.00  0.00     0.027 H 
ATOM     19  H   LIG d   1      10.382   5.406  -1.891  0.00  0.00     0.027 H 
ATOM     20  H   LIG d   1      12.681   7.482  -4.904  0.00  0.00     0.027 H 
ATOM     21  H   LIG d   1      11.732   9.003  -4.791  0.00  0.00     0.027 H 
ATOM     22  H   LIG d   1       9.820   7.737  -3.820  0.00  0.00     0.027 H 
ATOM     23  H   LIG d   1      11.305   7.529  -2.831  0.00  0.00     0.027 H 
ENDROOT
BRANCH  12  24
ATOM     24  C   LIG d   1       9.603   8.202  -6.302  0.00  0.00     0.038 C 
ATOM     25  H   LIG d   1       8.950   7.655  -5.608  0.00  0.00     0.040 H 
BRANCH  24  26
ATOM     26  C   LIG d   1       9.042   8.115  -7.723  0.00  0.00    -0.054 C 
ATOM     27  H   LIG d   1       9.780   7.631  -8.380  0.00  0.00     0.024 H 
ATOM     28  H   LIG d   1       8.828   9.128  -8.095  0.00  0.00     0.024 H 
ATOM     29  H   LIG d   1       8.115   7.523  -7.715  0.00  0.00     0.024 H 
ENDBRANCH  24  26
BRANCH  24  30
ATOM     30  C   LIG d   1       9.663   9.645  -5.873  0.00  0.00     0.216 C 
ATOM     31  O   LIG d   1      10.298  10.446  -6.525  0.00  0.00    -0.276 OA
ATOM     32  N   LIG d   1       9.010  10.045  -4.764  0.00  0.00    -0.310 N 
ATOM     33  H   LIG d   1       8.434   9.319  -4.173  0.00  0.00     0.149 HD
BRANCH  32  34
ATOM     34  C   LIG d   1       9.067  11.449  -4.347  0.00  0.00     0.052 C 
ATOM     35  H   LIG d   1      10.019  11.890  -4.676  0.00  0.00     0.051 H 
ATOM     36  H   LIG d   1       8.231  12.001  -4.800  0.00  0.00     0.051 H 
BRANCH  34  37
ATOM     37  C   LIG d   1       8.966  11.532  -2.823  0.00  0.00    -0.016 C 
ATOM     38  H   LIG d   1       9.362  12.501  -2.482  0.00  0.00     0.083 H 
ATOM     39  H   LIG d   1       7.913  11.439  -2.518  0.00  0.00     0.083 H 
BRANCH  37  40
ATOM     40  N   LIG d   1       9.748  10.445  -2.220  0.00  0.00     0.240 N 
ATOM     41  C   LIG d   1      11.079  10.915  -1.813  0.00  0.00    -0.008 C 
ATOM     42  C   LIG d   1      11.879   9.739  -1.247  0.00  0.00     0.088 C 
ATOM     43  H   LIG d   1      11.604  11.331  -2.686  0.00  0.00     0.084 H 
ATOM     44  H   LIG d   1      10.974  11.693  -1.044  0.00  0.00     0.084 H 
ATOM     45  O   LIG d   1      11.155   9.157  -0.158  0.00  0.00    -0.369 OA
ATOM     46  H   LIG d   1      12.856  10.096  -0.887  0.00  0.00     0.061 H 
ATOM     47  H   LIG d   1      12.031   8.983  -2.031  0.00  0.00     0.061 H 
ATOM     48  C   LIG d   1       9.853   8.688  -0.519  0.00  0.00     0.088 C 
ATOM     49  C   LIG d   1       9.033   9.852  -1.079  0.00  0.00    -0.008 C 
ATOM     50  H   LIG d   1       9.350   8.279   0.369  0.00  0.00     0.061 H 
ATOM     51  H   LIG d   1       9.944   7.901  -1.284  0.00  0.00     0.061 H 
ATOM     52  H   LIG d   1       8.895  10.615  -0.297  0.00  0.00     0.084 H 
ATOM     53  H   LIG d   1       8.051   9.486  -1.412  0.00  0.00     0.084 H 
ATOM     54  H   LIG d   1       9.879   9.663  -2.982  0.00  0.00     0.204 HD
ENDBRANCH  37  40
ENDBRANCH  34  37
ENDBRANCH  32  34
ENDBRANCH  24  30
ENDBRANCH  12  24
BRANCH  10  55
ATOM     55  O   LIG d   1      10.310   5.798  -7.718  0.00  0.00    -0.391 OA
ATOM     56  H   LIG d   1      10.797   5.105  -8.421  0.00  0.00     0.210 HD
ENDBRANCH  10  55
BRANCH   1  57
ATOM     57  C   LIG d   1       9.343   3.655  -6.867  0.00  0.00    -0.060 C 
ATOM     58  H   LIG d   1      10.120   3.547  -7.639  0.00  0.00     0.023 H 
ATOM     59  H   LIG d   1       8.665   4.477  -7.141  0.00  0.00     0.023 H 
ATOM     60  H   LIG d   1       8.772   2.719  -6.790  0.00  0.00     0.023 H 
ENDBRANCH   1  57
BRANCH   7  61
ATOM     61  C   LIG d   1      12.153   5.192  -3.957  0.00  0.00    -0.059 C 
ATOM     62  H   LIG d   1      12.783   5.770  -3.265  0.00  0.00     0.024 H 
ATOM     63  H   LIG d   1      12.590   5.229  -4.967  0.00  0.00     0.024 H 
ATOM     64  H   LIG d   1      12.100   4.147  -3.620  0.00  0.00     0.024 H 
ENDBRANCH   7  61
BRANCH   3  65
ATOM     65  N   LIG d   1       9.081   1.906  -4.573  0.00  0.00    -0.312 N 
ATOM     66  C   LIG d   1       7.916   1.265  -4.356  0.00  0.00     0.216 C 
ATOM     67  O   LIG d   1       6.936   1.890  -4.011  0.00  0.00    -0.276 OA
ATOM     68  H   LIG d   1       9.971   1.339  -4.886  0.00  0.00     0.149 HD
BRANCH  66  69
ATOM     69  C   LIG d   1       7.830  -0.228  -4.541  0.00  0.00     0.036 C 
ATOM     70  C   LIG d   1       6.928  -0.825  -3.461  0.00  0.00    -0.042 C 
ATOM     71  C   LIG d   1       6.841  -2.341  -3.650  0.00  0.00    -0.052 C 
ATOM     72  H   LIG d   1       7.346  -0.602  -2.469  0.00  0.00     0.027 H 
ATOM     73  H   LIG d   1       5.921  -0.388  -3.540  0.00  0.00     0.027 H 
ATOM     74  C   LIG d   1       6.258  -2.652  -5.029  0.00  0.00    -0.053 C 
ATOM     75  H   LIG d   1       6.192  -2.771  -2.872  0.00  0.00     0.026 H 
ATOM     76  H   LIG d   1       7.847  -2.779  -3.569  0.00  0.00     0.026 H 
ATOM     77  C   LIG d   1       7.161  -2.054  -6.111  0.00  0.00    -0.052 C 
ATOM     78  H   LIG d   1       5.252  -2.214  -5.110  0.00  0.00     0.026 H 
ATOM     79  H   LIG d   1       6.195  -3.741  -5.164  0.00  0.00     0.026 H 
ATOM     80  C   LIG d   1       7.247  -0.538  -5.922  0.00  0.00    -0.042 C 
ATOM     81  H   LIG d   1       6.742  -2.277  -7.103  0.00  0.00     0.026 H 
ATOM     82  H   LIG d   1       8.167  -2.492  -6.030  0.00  0.00     0.026 H 
ATOM     83  H   LIG d   1       6.241  -0.101  -6.001  0.00  0.00     0.027 H 
ATOM     84  H   LIG d   1       7.897  -0.108  -6.699  0.00  0.00     0.027 H 
ATOM     85  H   LIG d   1       8.843  -0.651  -4.459  0.00  0.00     0.039 H 
ENDBRANCH  66  69
ENDBRANCH   3  65
TORSDOF 11
ENDMDL
MODEL 5
REMARK VINA RESULT:      -6.1      8.725     13.349
REMARK  11 active torsions:
REMARK  status: ('A' for Active; 'I' for Inactive)
REMARK    1  A    between atoms: C_1  and  C_2 
REMARK    2  A    between atoms: C_4  and  N_33 
REMARK    3  A    between atoms: C_8  and  C_32 
REMARK    4  A    between atoms: C_11  and  O_31 
REMARK    5  A    between atoms: C_13  and  C_17 
REMARK    6  A    between atoms: C_17  and  C_19 
REMARK    7  A    between atoms: C_17  and  C_20 
REMARK       I    between atoms: C_20  and  N_22 
REMARK    8  A    between atoms: N_22  and  C_23 
REMARK    9  A    between atoms: C_23  and  C_24 
REMARK   10  A    between atoms: C_24  and  N_25 
REMARK       I    between atoms: N_33  and  C_34 
REMARK   11  A    between atoms: C_34  and  C_36 
ROOT
ATOM      1  C   LIG d   1       3.600  -1.922  -8.759  0.00  0.00    -0.020 C 
ATOM      2  H   LIG d   1       4.610  -1.612  -9.061  0.00  0.00     0.032 H 
ATOM      3  C   LIG d   1       2.994  -0.860  -7.838  0.00  0.00     0.026 C 
ATOM      4  H   LIG d   1       1.997  -1.170  -7.493  0.00  0.00     0.050 H 
ATOM      5  C   LIG d   1       2.917   0.475  -8.582  0.00  0.00    -0.034 C 
ATOM      6  C   LIG d   1       2.038   0.316  -9.824  0.00  0.00    -0.046 C 
ATOM      7  C   LIG d   1       2.643  -0.747 -10.745  0.00  0.00    -0.026 C 
ATOM      8  C   LIG d   1       2.721  -2.081 -10.001  0.00  0.00    -0.005 C 
ATOM      9  H   LIG d   1       1.711  -2.392  -9.698  0.00  0.00     0.033 H 
ATOM     10  C   LIG d   1       3.326  -3.144 -10.921  0.00  0.00     0.062 C 
ATOM     11  H   LIG d   1       4.362  -2.891 -11.195  0.00  0.00     0.060 H 
ATOM     12  C   LIG d   1       2.448  -3.302 -12.164  0.00  0.00    -0.004 C 
ATOM     13  H   LIG d   1       2.883  -4.066 -12.826  0.00  0.00     0.033 H 
ATOM     14  C   LIG d   1       2.371  -1.968 -12.908  0.00  0.00    -0.047 C 
ATOM     15  C   LIG d   1       1.765  -0.905 -11.988  0.00  0.00    -0.047 C 
ATOM     16  H   LIG d   1       2.481   1.238  -7.921  0.00  0.00     0.028 H 
ATOM     17  H   LIG d   1       3.927   0.785  -8.885  0.00  0.00     0.028 H 
ATOM     18  H   LIG d   1       1.027   0.005  -9.522  0.00  0.00     0.027 H 
ATOM     19  H   LIG d   1       1.983   1.275 -10.360  0.00  0.00     0.027 H 
ATOM     20  H   LIG d   1       3.381  -1.657 -13.210  0.00  0.00     0.027 H 
ATOM     21  H   LIG d   1       1.739  -2.082 -13.801  0.00  0.00     0.027 H 
ATOM     22  H   LIG d   1       0.754  -1.216 -11.685  0.00  0.00     0.027 H 
ATOM     23  H   LIG d   1       1.709   0.054 -12.522  0.00  0.00     0.027 H 
ENDROOT
BRANCH  12  24
ATOM     24  C   LIG d   1       1.042  -3.734 -11.742  0.00  0.00     0.038 C 
ATOM     25  H   LIG d   1       0.708  -3.132 -10.885  0.00  0.00     0.040 H 
BRANCH  24  26
ATOM     26  C   LIG d   1       1.055  -5.216 -11.365  0.00  0.00    -0.054 C 
ATOM     27  H   LIG d   1       0.834  -5.324 -10.292  0.00  0.00     0.024 H 
ATOM     28  H   LIG d   1       2.047  -5.640 -11.579  0.00  0.00     0.024 H 
ATOM     29  H   LIG d   1       0.293  -5.751 -11.951  0.00  0.00     0.024 H 
ENDBRANCH  24  26
BRANCH  24  30
ATOM     30  C   LIG d   1       0.086  -3.515 -12.886  0.00  0.00     0.216 C 
ATOM     31  O   LIG d   1       0.280  -4.061 -13.952  0.00  0.00    -0.276 OA
ATOM     32  N   LIG d   1      -0.985  -2.713 -12.725  0.00  0.00    -0.310 N 
ATOM     33  H   LIG d   1      -1.161  -2.218 -11.759  0.00  0.00     0.149 HD
BRANCH  32  34
ATOM     34  C   LIG d   1      -1.916  -2.501 -13.838  0.00  0.00     0.052 C 
ATOM     35  H   LIG d   1      -1.646  -1.576 -14.368  0.00  0.00     0.051 H 
ATOM     36  H   LIG d   1      -1.858  -3.352 -14.531  0.00  0.00     0.051 H 
BRANCH  34  37
ATOM     37  C   LIG d   1      -3.341  -2.380 -13.294  0.00  0.00    -0.016 C 
ATOM     38  H   LIG d   1      -3.491  -1.372 -12.882  0.00  0.00     0.083 H 
ATOM     39  H   LIG d   1      -4.061  -2.555 -14.108  0.00  0.00     0.083 H 
BRANCH  37  40
ATOM     40  N   LIG d   1      -3.548  -3.378 -12.236  0.00  0.00     0.240 N 
ATOM     41  C   LIG d   1      -4.720  -3.041 -11.417  0.00  0.00    -0.008 C 
ATOM     42  C   LIG d   1      -4.863  -4.071 -10.292  0.00  0.00     0.088 C 
ATOM     43  H   LIG d   1      -4.590  -2.038 -10.983  0.00  0.00     0.084 H 
ATOM     44  H   LIG d   1      -5.622  -3.054 -12.045  0.00  0.00     0.084 H 
ATOM     45  O   LIG d   1      -4.958  -5.380 -10.861  0.00  0.00    -0.369 OA
ATOM     46  H   LIG d   1      -5.772  -3.858  -9.710  0.00  0.00     0.061 H 
ATOM     47  H   LIG d   1      -3.984  -4.021  -9.632  0.00  0.00     0.061 H 
ATOM     48  C   LIG d   1      -3.832  -5.741 -11.666  0.00  0.00     0.088 C 
ATOM     49  C   LIG d   1      -3.678  -4.728 -12.803  0.00  0.00    -0.008 C 
ATOM     50  H   LIG d   1      -3.987  -6.745 -12.087  0.00  0.00     0.061 H 
ATOM     51  H   LIG d   1      -2.922  -5.739 -11.047  0.00  0.00     0.061 H 
ATOM     52  H   LIG d   1      -4.564  -4.768 -13.455  0.00  0.00     0.084 H 
ATOM     53  H   LIG d   1      -2.780  -4.967 -13.391  0.00  0.00     0.084 H 
ATOM     54  H   LIG d   1      -2.661  -3.366 -11.585  0.00  0.00     0.204 HD
ENDBRANCH  37  40
ENDBRANCH  34  37
ENDBRANCH  32  34
ENDBRANCH  24  30
ENDBRANCH  12  24
BRANCH  10  55
ATOM     55  O   LIG d   1       3.399  -4.390 -10.226  0.00  0.00    -0.391 OA
ATOM     56  H   LIG d   1       2.605  -4.672  -9.519  0.00  0.00     0.210 HD
ENDBRANCH  10  55
BRANCH   1  57
ATOM     57  C   LIG d   1       3.677  -3.257  -8.015  0.00  0.00    -0.060 C 
ATOM     58  H   LIG d   1       4.198  -3.113  -7.056  0.00  0.00     0.023 H 
ATOM     59  H   LIG d   1       4.229  -3.986  -8.627  0.00  0.00     0.023 H 
ATOM     60  H   LIG d   1       2.661  -3.631  -7.827  0.00  0.00     0.023 H 
ENDBRANCH   1  57
BRANCH   7  61
ATOM     61  C   LIG d   1       4.050  -0.315 -11.167  0.00  0.00    -0.059 C 
ATOM     62  H   LIG d   1       4.789  -0.753 -10.481  0.00  0.00     0.024 H 
ATOM     63  H   LIG d   1       4.122   0.783 -11.130  0.00  0.00     0.024 H 
ATOM     64  H   LIG d   1       4.248  -0.661 -12.191  0.00  0.00     0.024 H 
ENDBRANCH   7  61
BRANCH   3  65
ATOM     65  N   LIG d   1       3.835  -0.708  -6.649  0.00  0.00    -0.312 N 
ATOM     66  C   LIG d   1       3.323  -0.168  -5.525  0.00  0.00     0.216 C 
ATOM     67  O   LIG d   1       2.165   0.192  -5.500  0.00  0.00    -0.276 OA
ATOM     68  H   LIG d   1       4.886  -1.035  -6.672  0.00  0.00     0.149 HD
BRANCH  66  69
ATOM     69  C   LIG d   1       4.188  -0.011  -4.302  0.00  0.00     0.036 C 
ATOM     70  C   LIG d   1       3.445   0.821  -3.255  0.00  0.00    -0.042 C 
ATOM     71  C   LIG d   1       4.323   0.980  -2.012  0.00  0.00    -0.052 C 
ATOM     72  H   LIG d   1       3.215   1.813  -3.671  0.00  0.00     0.027 H 
ATOM     73  H   LIG d   1       2.508   0.314  -2.979  0.00  0.00     0.027 H 
ATOM     74  C   LIG d   1       4.642  -0.399  -1.433  0.00  0.00    -0.053 C 
ATOM     75  H   LIG d   1       3.790   1.579  -1.260  0.00  0.00     0.026 H 
ATOM     76  H   LIG d   1       5.259   1.488  -2.288  0.00  0.00     0.026 H 
ATOM     77  C   LIG d   1       5.386  -1.233  -2.480  0.00  0.00    -0.052 C 
ATOM     78  H   LIG d   1       3.706  -0.908  -1.158  0.00  0.00     0.026 H 
ATOM     79  H   LIG d   1       5.274  -0.285  -0.540  0.00  0.00     0.026 H 
ATOM     80  C   LIG d   1       4.507  -1.392  -3.722  0.00  0.00    -0.042 C 
ATOM     81  H   LIG d   1       5.615  -2.225  -2.063  0.00  0.00     0.026 H 
ATOM     82  H   LIG d   1       6.321  -0.725  -2.755  0.00  0.00     0.026 H 
ATOM     83  H   LIG d   1       3.571  -1.899  -3.447  0.00  0.00     0.027 H 
ATOM     84  H   LIG d   1       5.041  -1.990  -4.476  0.00  0.00     0.027 H 
ATOM     85  H   LIG d   1       5.119   0.497  -4.592  0.00  0.00     0.039 H 
ENDBRANCH  66  69
ENDBRANCH   3  65
TORSDOF 11
ENDMDL
MODEL 6
REMARK VINA RESULT:      -6.1      8.937     12.670
REMARK  11 active torsions:
REMARK  status: ('A' for Active; 'I' for Inactive)
REMARK    1  A    between atoms: C_1  and  C_2 
REMARK    2  A    between atoms: C_4  and  N_33 
REMARK    3  A    between atoms: C_8  and  C_32 
REMARK    4  A    between atoms: C_11  and  O_31 
REMARK    5  A    between atoms: C_13  and  C_17 
REMARK    6  A    between atoms: C_17  and  C_19 
REMARK    7  A    between atoms: C_17  and  C_20 
REMARK       I    between atoms: C_20  and  N_22 
REMARK    8  A    between atoms: N_22  and  C_23 
REMARK    9  A    between atoms: C_23  and  C_24 
REMARK   10  A    between atoms: C_24  and  N_25 
REMARK       I    between atoms: N_33  and  C_34 
REMARK   11  A    between atoms: C_34  and  C_36 
ROOT
ATOM      1  C   LIG d   1       3.646  -2.006  -8.802  0.00  0.00    -0.020 C 
ATOM      2  H   LIG d   1       4.656  -1.682  -9.089  0.00  0.00     0.032 H 
ATOM      3  C   LIG d   1       3.018  -0.962  -7.876  0.00  0.00     0.026 C 
ATOM      4  H   LIG d   1       2.020  -1.287  -7.547  0.00  0.00     0.050 H 
ATOM      5  C   LIG d   1       2.935   0.381  -8.605  0.00  0.00    -0.034 C 
ATOM      6  C   LIG d   1       2.072   0.227  -9.859  0.00  0.00    -0.046 C 
ATOM      7  C   LIG d   1       2.699  -0.818 -10.786  0.00  0.00    -0.026 C 
ATOM      8  C   LIG d   1       2.783  -2.160 -10.056  0.00  0.00    -0.005 C 
ATOM      9  H   LIG d   1       1.772  -2.485  -9.769  0.00  0.00     0.033 H 
ATOM     10  C   LIG d   1       3.410  -3.205 -10.983  0.00  0.00     0.062 C 
ATOM     11  H   LIG d   1       4.446  -2.938 -11.241  0.00  0.00     0.060 H 
ATOM     12  C   LIG d   1       2.547  -3.357 -12.237  0.00  0.00    -0.004 C 
ATOM     13  H   LIG d   1       2.998  -4.109 -12.903  0.00  0.00     0.033 H 
ATOM     14  C   LIG d   1       2.465  -2.015 -12.966  0.00  0.00    -0.047 C 
ATOM     15  C   LIG d   1       1.837  -0.970 -12.040  0.00  0.00    -0.047 C 
ATOM     16  H   LIG d   1       2.483   1.131  -7.940  0.00  0.00     0.028 H 
ATOM     17  H   LIG d   1       3.946   0.705  -8.892  0.00  0.00     0.028 H 
ATOM     18  H   LIG d   1       1.061  -0.098  -9.573  0.00  0.00     0.027 H 
ATOM     19  H   LIG d   1       2.013   1.193 -10.384  0.00  0.00     0.027 H 
ATOM     20  H   LIG d   1       3.475  -1.690 -13.253  0.00  0.00     0.027 H 
ATOM     21  H   LIG d   1       1.845  -2.125 -13.868  0.00  0.00     0.027 H 
ATOM     22  H   LIG d   1       0.826  -1.295 -11.753  0.00  0.00     0.027 H 
ATOM     23  H   LIG d   1       1.777  -0.006 -12.564  0.00  0.00     0.027 H 
ENDROOT
BRANCH  12  24
ATOM     24  C   LIG d   1       1.141  -3.809 -11.837  0.00  0.00     0.038 C 
ATOM     25  H   LIG d   1       0.809  -3.252 -10.949  0.00  0.00     0.040 H 
BRANCH  24  26
ATOM     26  C   LIG d   1       1.153  -5.309 -11.537  0.00  0.00    -0.054 C 
ATOM     27  H   LIG d   1       0.934  -5.473 -10.472  0.00  0.00     0.024 H 
ATOM     28  H   LIG d   1       2.145  -5.722 -11.775  0.00  0.00     0.024 H 
ATOM     29  H   LIG d   1       0.390  -5.812 -12.150  0.00  0.00     0.024 H 
ENDBRANCH  24  26
BRANCH  24  30
ATOM     30  C   LIG d   1       0.184  -3.530 -12.967  0.00  0.00     0.216 C 
ATOM     31  O   LIG d   1       0.401  -3.982 -14.071  0.00  0.00    -0.276 OA
ATOM     32  N   LIG d   1      -0.913  -2.779 -12.750  0.00  0.00    -0.310 N 
ATOM     33  H   LIG d   1      -1.110  -2.370 -11.748  0.00  0.00     0.149 HD
BRANCH  32  34
ATOM     34  C   LIG d   1      -1.845  -2.508 -13.849  0.00  0.00     0.052 C 
ATOM     35  H   LIG d   1      -1.432  -1.716 -14.491  0.00  0.00     0.051 H 
ATOM     36  H   LIG d   1      -1.989  -3.423 -14.441  0.00  0.00     0.051 H 
BRANCH  34  37
ATOM     37  C   LIG d   1      -3.189  -2.053 -13.277  0.00  0.00    -0.016 C 
ATOM     38  H   LIG d   1      -3.980  -2.741 -13.609  0.00  0.00     0.083 H 
ATOM     39  H   LIG d   1      -3.140  -2.054 -12.178  0.00  0.00     0.083 H 
BRANCH  37  40
ATOM     40  N   LIG d   1      -3.489  -0.696 -13.753  0.00  0.00     0.240 N 
ATOM     41  C   LIG d   1      -4.888  -0.339 -13.479  0.00  0.00    -0.008 C 
ATOM     42  C   LIG d   1      -5.174   1.055 -14.043  0.00  0.00     0.088 C 
ATOM     43  H   LIG d   1      -5.555  -1.073 -13.956  0.00  0.00     0.084 H 
ATOM     44  H   LIG d   1      -5.061  -0.339 -12.393  0.00  0.00     0.084 H 
ATOM     45  O   LIG d   1      -4.254   1.992 -13.473  0.00  0.00    -0.369 OA
ATOM     46  H   LIG d   1      -6.203   1.352 -13.790  0.00  0.00     0.061 H 
ATOM     47  H   LIG d   1      -5.053   1.043 -15.136  0.00  0.00     0.061 H 
ATOM     48  C   LIG d   1      -2.882   1.675 -13.720  0.00  0.00     0.088 C 
ATOM     49  C   LIG d   1      -2.573   0.287 -13.154  0.00  0.00    -0.008 C 
ATOM     50  H   LIG d   1      -2.238   2.421 -13.233  0.00  0.00     0.061 H 
ATOM     51  H   LIG d   1      -2.693   1.679 -14.805  0.00  0.00     0.061 H 
ATOM     52  H   LIG d   1      -2.709   0.296 -12.062  0.00  0.00     0.084 H 
ATOM     53  H   LIG d   1      -1.536   0.013 -13.392  0.00  0.00     0.084 H 
ATOM     54  H   LIG d   1      -3.339  -0.681 -14.842  0.00  0.00     0.204 HD
ENDBRANCH  37  40
ENDBRANCH  34  37
ENDBRANCH  32  34
ENDBRANCH  24  30
ENDBRANCH  12  24
BRANCH  10  55
ATOM     55  O   LIG d   1       3.488  -4.459 -10.302  0.00  0.00    -0.391 OA
ATOM     56  H   LIG d   1       2.689  -4.757  -9.607  0.00  0.00     0.210 HD
ENDBRANCH  10  55
BRANCH   1  57
ATOM     57  C   LIG d   1       3.728  -3.350  -8.074  0.00  0.00    -0.060 C 
ATOM     58  H   LIG d   1       4.237  -3.212  -7.108  0.00  0.00     0.023 H 
ATOM     59  H   LIG d   1       4.295  -4.065  -8.688  0.00  0.00     0.023 H 
ATOM     60  H   LIG d   1       2.714  -3.737  -7.902  0.00  0.00     0.023 H 
ENDBRANCH   1  57
BRANCH   7  61
ATOM     61  C   LIG d   1       4.106  -0.366 -11.186  0.00  0.00    -0.059 C 
ATOM     62  H   LIG d   1       4.841  -0.804 -10.497  0.00  0.00     0.024 H 
ATOM     63  H   LIG d   1       4.166   0.732 -11.135  0.00  0.00     0.024 H 
ATOM     64  H   LIG d   1       4.319  -0.697 -12.212  0.00  0.00     0.024 H 
ENDBRANCH   7  61
BRANCH   3  65
ATOM     65  N   LIG d   1       3.844  -0.815  -6.675  0.00  0.00    -0.312 N 
ATOM     66  C   LIG d   1       3.344  -0.202  -5.584  0.00  0.00     0.216 C 
ATOM     67  O   LIG d   1       2.210   0.228  -5.597  0.00  0.00    -0.276 OA
ATOM     68  H   LIG d   1       4.872  -1.206  -6.664  0.00  0.00     0.149 HD
BRANCH  66  69
ATOM     69  C   LIG d   1       4.193  -0.052  -4.349  0.00  0.00     0.036 C 
ATOM     70  C   LIG d   1       3.448   0.799  -3.319  0.00  0.00    -0.042 C 
ATOM     71  C   LIG d   1       4.310   0.952  -2.064  0.00  0.00    -0.052 C 
ATOM     72  H   LIG d   1       3.240   1.791  -3.744  0.00  0.00     0.027 H 
ATOM     73  H   LIG d   1       2.499   0.308  -3.054  0.00  0.00     0.027 H 
ATOM     74  C   LIG d   1       4.599  -0.428  -1.472  0.00  0.00    -0.053 C 
ATOM     75  H   LIG d   1       3.775   1.564  -1.323  0.00  0.00     0.026 H 
ATOM     76  H   LIG d   1       5.258   1.444  -2.329  0.00  0.00     0.026 H 
ATOM     77  C   LIG d   1       5.344  -1.280  -2.502  0.00  0.00    -0.052 C 
ATOM     78  H   LIG d   1       3.651  -0.920  -1.207  0.00  0.00     0.026 H 
ATOM     79  H   LIG d   1       5.219  -0.318  -0.569  0.00  0.00     0.026 H 
ATOM     80  C   LIG d   1       4.482  -1.433  -3.756  0.00  0.00    -0.042 C 
ATOM     81  H   LIG d   1       5.552  -2.272  -2.076  0.00  0.00     0.026 H 
ATOM     82  H   LIG d   1       6.292  -0.788  -2.766  0.00  0.00     0.026 H 
ATOM     83  H   LIG d   1       3.533  -1.923  -3.492  0.00  0.00     0.027 H 
ATOM     84  H   LIG d   1       5.017  -2.044  -4.498  0.00  0.00     0.027 H 
ATOM     85  H   LIG d   1       5.136   0.440  -4.629  0.00  0.00     0.039 H 
ENDBRANCH  66  69
ENDBRANCH   3  65
TORSDOF 11
ENDMDL
MODEL 7
REMARK VINA RESULT:      -6.0      3.407      9.161
REMARK  11 active torsions:
REMARK  status: ('A' for Active; 'I' for Inactive)
REMARK    1  A    between atoms: C_1  and  C_2 
REMARK    2  A    between atoms: C_4  and  N_33 
REMARK    3  A    between atoms: C_8  and  C_32 
REMARK    4  A    between atoms: C_11  and  O_31 
REMARK    5  A    between atoms: C_13  and  C_17 
REMARK    6  A    between atoms: C_17  and  C_19 
REMARK    7  A    between atoms: C_17  and  C_20 
REMARK       I    between atoms: C_20  and  N_22 
REMARK    8  A    between atoms: N_22  and  C_23 
REMARK    9  A    between atoms: C_23  and  C_24 
REMARK   10  A    between atoms: C_24  and  N_25 
REMARK       I    between atoms: N_33  and  C_34 
REMARK   11  A    between atoms: C_34  and  C_36 
ROOT
ATOM      1  C   LIG d   1      10.787   6.098  -2.986  0.00  0.00    -0.020 C 
ATOM      2  H   LIG d   1      11.836   6.380  -3.160  0.00  0.00     0.032 H 
ATOM      3  C   LIG d   1       9.917   7.356  -2.966  0.00  0.00     0.026 C 
ATOM      4  H   LIG d   1       8.868   7.098  -2.755  0.00  0.00     0.050 H 
ATOM      5  C   LIG d   1      10.035   8.080  -4.309  0.00  0.00    -0.034 C 
ATOM      6  C   LIG d   1       9.564   7.153  -5.430  0.00  0.00    -0.046 C 
ATOM      7  C   LIG d   1      10.434   5.894  -5.451  0.00  0.00    -0.026 C 
ATOM      8  C   LIG d   1      10.316   5.171  -4.108  0.00  0.00    -0.005 C 
ATOM      9  H   LIG d   1       9.267   4.888  -3.934  0.00  0.00     0.033 H 
ATOM     10  C   LIG d   1      11.186   3.912  -4.129  0.00  0.00     0.062 C 
ATOM     11  H   LIG d   1      12.251   4.165  -4.241  0.00  0.00     0.060 H 
ATOM     12  C   LIG d   1      10.715   2.985  -5.252  0.00  0.00    -0.004 C 
ATOM     13  H   LIG d   1      11.341   2.080  -5.266  0.00  0.00     0.033 H 
ATOM     14  C   LIG d   1      10.833   3.708  -6.594  0.00  0.00    -0.047 C 
ATOM     15  C   LIG d   1       9.963   4.967  -6.574  0.00  0.00    -0.047 C 
ATOM     16  H   LIG d   1       9.409   8.984  -4.294  0.00  0.00     0.028 H 
ATOM     17  H   LIG d   1      11.083   8.362  -4.482  0.00  0.00     0.028 H 
ATOM     18  H   LIG d   1       8.515   6.870  -5.257  0.00  0.00     0.027 H 
ATOM     19  H   LIG d   1       9.649   7.673  -6.396  0.00  0.00     0.027 H 
ATOM     20  H   LIG d   1      11.882   3.991  -6.768  0.00  0.00     0.027 H 
ATOM     21  H   LIG d   1      10.495   3.042  -7.401  0.00  0.00     0.027 H 
ATOM     22  H   LIG d   1       8.914   4.684  -6.400  0.00  0.00     0.027 H 
ATOM     23  H   LIG d   1      10.048   5.486  -7.539  0.00  0.00     0.027 H 
ENDROOT
BRANCH  12  24
ATOM     24  C   LIG d   1       9.256   2.592  -5.010  0.00  0.00     0.038 C 
ATOM     25  H   LIG d   1       8.617   3.486  -5.051  0.00  0.00     0.040 H 
BRANCH  24  26
ATOM     26  C   LIG d   1       9.128   1.923  -3.640  0.00  0.00    -0.054 C 
ATOM     27  H   LIG d   1       9.912   1.159  -3.530  0.00  0.00     0.024 H 
ATOM     28  H   LIG d   1       8.139   1.449  -3.555  0.00  0.00     0.024 H 
ATOM     29  H   LIG d   1       9.241   2.680  -2.849  0.00  0.00     0.024 H 
ENDBRANCH  24  26
BRANCH  24  30
ATOM     30  C   LIG d   1       8.811   1.632  -6.082  0.00  0.00     0.216 C 
ATOM     31  O   LIG d   1       9.439   0.615  -6.284  0.00  0.00    -0.276 OA
ATOM     32  N   LIG d   1       7.713   1.903  -6.816  0.00  0.00    -0.310 N 
ATOM     33  H   LIG d   1       7.143   2.826  -6.632  0.00  0.00     0.149 HD
BRANCH  32  34
ATOM     34  C   LIG d   1       7.280   0.969  -7.858  0.00  0.00     0.052 C 
ATOM     35  H   LIG d   1       8.161   0.574  -8.385  0.00  0.00     0.051 H 
ATOM     36  H   LIG d   1       6.724   0.139  -7.399  0.00  0.00     0.051 H 
BRANCH  34  37
ATOM     37  C   LIG d   1       6.376   1.699  -8.853  0.00  0.00    -0.016 C 
ATOM     38  H   LIG d   1       6.638   2.767  -8.871  0.00  0.00     0.083 H 
ATOM     39  H   LIG d   1       6.514   1.272  -9.858  0.00  0.00     0.083 H 
BRANCH  37  40
ATOM     40  N   LIG d   1       4.974   1.546  -8.445  0.00  0.00     0.240 N 
ATOM     41  C   LIG d   1       4.064   2.039  -9.489  0.00  0.00    -0.008 C 
ATOM     42  C   LIG d   1       2.619   1.916  -8.999  0.00  0.00     0.088 C 
ATOM     43  H   LIG d   1       4.291   3.093  -9.706  0.00  0.00     0.084 H 
ATOM     44  H   LIG d   1       4.195   1.440 -10.402  0.00  0.00     0.084 H 
ATOM     45  O   LIG d   1       2.353   0.555  -8.648  0.00  0.00    -0.369 OA
ATOM     46  H   LIG d   1       1.930   2.229  -9.798  0.00  0.00     0.061 H 
ATOM     47  H   LIG d   1       2.472   2.557  -8.117  0.00  0.00     0.061 H 
ATOM     48  C   LIG d   1       3.221   0.042  -7.634  0.00  0.00     0.088 C 
ATOM     49  C   LIG d   1       4.672   0.146  -8.109  0.00  0.00    -0.008 C 
ATOM     50  H   LIG d   1       2.975  -1.011  -7.436  0.00  0.00     0.061 H 
ATOM     51  H   LIG d   1       3.095   0.628  -6.710  0.00  0.00     0.061 H 
ATOM     52  H   LIG d   1       4.814  -0.483  -9.001  0.00  0.00     0.084 H 
ATOM     53  H   LIG d   1       5.348  -0.192  -7.310  0.00  0.00     0.084 H 
ATOM     54  H   LIG d   1       4.818   2.154  -7.542  0.00  0.00     0.204 HD
ENDBRANCH  37  40
ENDBRANCH  34  37
ENDBRANCH  32  34
ENDBRANCH  24  30
ENDBRANCH  12  24
BRANCH  10  55
ATOM     55  O   LIG d   1      11.076   3.236  -2.875  0.00  0.00    -0.391 OA
ATOM     56  H   LIG d   1      11.843   2.508  -2.573  0.00  0.00     0.210 HD
ENDBRANCH  10  55
BRANCH   1  57
ATOM     57  C   LIG d   1      10.669   5.374  -1.643  0.00  0.00    -0.060 C 
ATOM     58  H   LIG d   1       9.935   4.559  -1.730  0.00  0.00     0.023 H 
ATOM     59  H   LIG d   1      10.338   6.086  -0.872  0.00  0.00     0.023 H 
ATOM     60  H   LIG d   1      11.647   4.958  -1.363  0.00  0.00     0.023 H 
ENDBRANCH   1  57
BRANCH   7  61
ATOM     61  C   LIG d   1      11.893   6.286  -5.693  0.00  0.00    -0.059 C 
ATOM     62  H   LIG d   1      12.224   6.973  -4.901  0.00  0.00     0.024 H 
ATOM     63  H   LIG d   1      11.981   6.786  -6.671  0.00  0.00     0.024 H 
ATOM     64  H   LIG d   1      12.522   5.385  -5.685  0.00  0.00     0.024 H 
ENDBRANCH   7  61
BRANCH   3  65
ATOM     65  N   LIG d   1      10.368   8.244  -1.891  0.00  0.00    -0.312 N 
ATOM     66  C   LIG d   1       9.531   8.564  -0.885  0.00  0.00     0.216 C 
ATOM     67  O   LIG d   1       8.404   8.116  -0.868  0.00  0.00    -0.276 OA
ATOM     68  H   LIG d   1      11.390   8.650  -1.906  0.00  0.00     0.149 HD
BRANCH  66  69
ATOM     69  C   LIG d   1       9.995   9.477   0.220  0.00  0.00     0.036 C 
ATOM     70  C   LIG d   1      11.346   8.992   0.749  0.00  0.00    -0.042 C 
ATOM     71  C   LIG d   1      11.817   9.920   1.871  0.00  0.00    -0.052 C 
ATOM     72  H   LIG d   1      11.242   7.969   1.138  0.00  0.00     0.027 H 
ATOM     73  H   LIG d   1      12.084   9.001  -0.068  0.00  0.00     0.027 H 
ATOM     74  C   LIG d   1      11.962  11.343   1.330  0.00  0.00    -0.053 C 
ATOM     75  H   LIG d   1      12.789   9.572   2.251  0.00  0.00     0.026 H 
ATOM     76  H   LIG d   1      11.080   9.911   2.688  0.00  0.00     0.026 H 
ATOM     77  C   LIG d   1      10.610  11.828   0.801  0.00  0.00    -0.052 C 
ATOM     78  H   LIG d   1      12.699  11.352   0.513  0.00  0.00     0.026 H 
ATOM     79  H   LIG d   1      12.301  12.010   2.137  0.00  0.00     0.026 H 
ATOM     80  C   LIG d   1      10.140  10.901  -0.321  0.00  0.00    -0.042 C 
ATOM     81  H   LIG d   1      10.715  12.852   0.412  0.00  0.00     0.026 H 
ATOM     82  H   LIG d   1       9.874  11.820   1.618  0.00  0.00     0.026 H 
ATOM     83  H   LIG d   1      10.877  10.909  -1.137  0.00  0.00     0.027 H 
ATOM     84  H   LIG d   1       9.167  11.249  -0.701  0.00  0.00     0.027 H 
ATOM     85  H   LIG d   1       9.248   9.458   1.029  0.00  0.00     0.039 H 
ENDBRANCH  66  69
ENDBRANCH   3  65
TORSDOF 11
ENDMDL
MODEL 8
REMARK VINA RESULT:      -5.8      7.748     12.628
REMARK  11 active torsions:
REMARK  status: ('A' for Active; 'I' for Inactive)
REMARK    1  A    between atoms: C_1  and  C_2 
REMARK    2  A    between atoms: C_4  and  N_33 
REMARK    3  A    between atoms: C_8  and  C_32 
REMARK    4  A    between atoms: C_11  and  O_31 
REMARK    5  A    between atoms: C_13  and  C_17 
REMARK    6  A    between atoms: C_17  and  C_19 
REMARK    7  A    between atoms: C_17  and  C_20 
REMARK       I    between atoms: C_20  and  N_22 
REMARK    8  A    between atoms: N_22  and  C_23 
REMARK    9  A    between atoms: C_23  and  C_24 
REMARK   10  A    between atoms: C_24  and  N_25 
REMARK       I    between atoms: N_33  and  C_34 
REMARK   11  A    between atoms: C_34  and  C_36 
ROOT
ATOM      1  C   LIG d   1       4.248  -1.161  -8.914  0.00  0.00    -0.020 C 
ATOM      2  H   LIG d   1       5.260  -1.578  -9.015  0.00  0.00     0.032 H 
ATOM      3  C   LIG d   1       4.314   0.158  -8.142  0.00  0.00     0.026 C 
ATOM      4  H   LIG d   1       3.306   0.573  -7.996  0.00  0.00     0.050 H 
ATOM      5  C   LIG d   1       5.201   1.149  -8.901  0.00  0.00    -0.034 C 
ATOM      6  C   LIG d   1       4.610   1.400 -10.290  0.00  0.00    -0.046 C 
ATOM      7  C   LIG d   1       4.542   0.080 -11.062  0.00  0.00    -0.026 C 
ATOM      8  C   LIG d   1       3.658  -0.910 -10.303  0.00  0.00    -0.005 C 
ATOM      9  H   LIG d   1       2.645  -0.494 -10.201  0.00  0.00     0.033 H 
ATOM     10  C   LIG d   1       3.590  -2.230 -11.075  0.00  0.00     0.062 C 
ATOM     11  H   LIG d   1       4.581  -2.704 -11.142  0.00  0.00     0.060 H 
ATOM     12  C   LIG d   1       3.000  -1.979 -12.464  0.00  0.00    -0.004 C 
ATOM     13  H   LIG d   1       2.952  -2.928 -13.018  0.00  0.00     0.033 H 
ATOM     14  C   LIG d   1       3.886  -0.989 -13.223  0.00  0.00    -0.047 C 
ATOM     15  C   LIG d   1       3.953   0.331 -12.451  0.00  0.00    -0.047 C 
ATOM     16  H   LIG d   1       5.248   2.097  -8.347  0.00  0.00     0.028 H 
ATOM     17  H   LIG d   1       6.213   0.732  -9.003  0.00  0.00     0.028 H 
ATOM     18  H   LIG d   1       3.597   1.816 -10.189  0.00  0.00     0.027 H 
ATOM     19  H   LIG d   1       5.247   2.111 -10.836  0.00  0.00     0.027 H 
ATOM     20  H   LIG d   1       4.899  -1.405 -13.325  0.00  0.00     0.027 H 
ATOM     21  H   LIG d   1       3.462  -0.809 -14.221  0.00  0.00     0.027 H 
ATOM     22  H   LIG d   1       2.940   0.747 -12.349  0.00  0.00     0.027 H 
ATOM     23  H   LIG d   1       4.589   1.042 -12.997  0.00  0.00     0.027 H 
ENDROOT
BRANCH  12  24
ATOM     24  C   LIG d   1       1.591  -1.399 -12.322  0.00  0.00     0.038 C 
ATOM     25  H   LIG d   1       1.510  -0.469 -12.903  0.00  0.00     0.040 H 
BRANCH  24  26
ATOM     26  C   LIG d   1       1.301  -1.118 -10.846  0.00  0.00    -0.054 C 
ATOM     27  H   LIG d   1       0.700  -0.201 -10.758  0.00  0.00     0.024 H 
ATOM     28  H   LIG d   1       2.250  -0.989 -10.304  0.00  0.00     0.024 H 
ATOM     29  H   LIG d   1       0.745  -1.964 -10.414  0.00  0.00     0.024 H 
ENDBRANCH  24  26
BRANCH  24  30
ATOM     30  C   LIG d   1       0.586  -2.388 -12.852  0.00  0.00     0.216 C 
ATOM     31  O   LIG d   1       0.407  -2.490 -14.047  0.00  0.00    -0.276 OA
ATOM     32  N   LIG d   1      -0.114  -3.160 -11.998  0.00  0.00    -0.310 N 
ATOM     33  H   LIG d   1       0.048  -3.068 -10.914  0.00  0.00     0.149 HD
BRANCH  32  34
ATOM     34  C   LIG d   1      -1.092  -4.123 -12.513  0.00  0.00     0.052 C 
ATOM     35  H   LIG d   1      -2.094  -3.860 -12.144  0.00  0.00     0.051 H 
ATOM     36  H   LIG d   1      -1.087  -4.097 -13.613  0.00  0.00     0.051 H 
BRANCH  34  37
ATOM     37  C   LIG d   1      -0.724  -5.528 -12.034  0.00  0.00    -0.016 C 
ATOM     38  H   LIG d   1      -0.675  -6.208 -12.898  0.00  0.00     0.083 H 
ATOM     39  H   LIG d   1       0.254  -5.502 -11.532  0.00  0.00     0.083 H 
BRANCH  37  40
ATOM     40  N   LIG d   1      -1.745  -6.007 -11.092  0.00  0.00     0.240 N 
ATOM     41  C   LIG d   1      -1.124  -6.615  -9.907  0.00  0.00    -0.008 C 
ATOM     42  C   LIG d   1      -2.220  -7.153  -8.983  0.00  0.00     0.088 C 
ATOM     43  H   LIG d   1      -0.468  -7.441 -10.219  0.00  0.00     0.084 H 
ATOM     44  H   LIG d   1      -0.532  -5.858  -9.374  0.00  0.00     0.084 H 
ATOM     45  O   LIG d   1      -3.112  -6.088  -8.640  0.00  0.00    -0.369 OA
ATOM     46  H   LIG d   1      -1.764  -7.557  -8.066  0.00  0.00     0.061 H 
ATOM     47  H   LIG d   1      -2.779  -7.948  -9.497  0.00  0.00     0.061 H 
ATOM     48  C   LIG d   1      -3.735  -5.473  -9.771  0.00  0.00     0.088 C 
ATOM     49  C   LIG d   1      -2.655  -4.919 -10.704  0.00  0.00    -0.008 C 
ATOM     50  H   LIG d   1      -4.383  -4.652  -9.434  0.00  0.00     0.061 H 
ATOM     51  H   LIG d   1      -4.338  -6.219 -10.311  0.00  0.00     0.061 H 
ATOM     52  H   LIG d   1      -2.086  -4.133 -10.184  0.00  0.00     0.084 H 
ATOM     53  H   LIG d   1      -3.125  -4.497 -11.603  0.00  0.00     0.084 H 
ATOM     54  H   LIG d   1      -2.337  -6.781 -11.603  0.00  0.00     0.204 HD
ENDBRANCH  37  40
ENDBRANCH  34  37
ENDBRANCH  32  34
ENDBRANCH  24  30
ENDBRANCH  12  24
BRANCH  10  55
ATOM     55  O   LIG d   1       2.763  -3.155 -10.365  0.00  0.00    -0.391 OA
ATOM     56  H   LIG d   1       2.605  -3.033  -9.283  0.00  0.00     0.210 HD
ENDBRANCH  10  55
BRANCH   1  57
ATOM     57  C   LIG d   1       3.362  -2.151  -8.155  0.00  0.00    -0.060 C 
ATOM     58  H   LIG d   1       3.002  -1.684  -7.226  0.00  0.00     0.023 H 
ATOM     59  H   LIG d   1       3.945  -3.052  -7.910  0.00  0.00     0.023 H 
ATOM     60  H   LIG d   1       2.503  -2.430  -8.781  0.00  0.00     0.023 H 
ENDBRANCH   1  57
BRANCH   7  61
ATOM     61  C   LIG d   1       5.952  -0.500 -11.204  0.00  0.00    -0.059 C 
ATOM     62  H   LIG d   1       6.545   0.140 -11.872  0.00  0.00     0.024 H 
ATOM     63  H   LIG d   1       5.890  -1.514 -11.629  0.00  0.00     0.024 H 
ATOM     64  H   LIG d   1       6.430  -0.546 -10.216  0.00  0.00     0.024 H 
ENDBRANCH   7  61
BRANCH   3  65
ATOM     65  N   LIG d   1       4.880  -0.081  -6.812  0.00  0.00    -0.312 N 
ATOM     66  C   LIG d   1       4.136   0.146  -5.712  0.00  0.00     0.216 C 
ATOM     67  O   LIG d   1       2.998   0.551  -5.823  0.00  0.00    -0.276 OA
ATOM     68  H   LIG d   1       5.913  -0.449  -6.711  0.00  0.00     0.149 HD
BRANCH  66  69
ATOM     69  C   LIG d   1       4.717  -0.101  -4.344  0.00  0.00     0.036 C 
ATOM     70  C   LIG d   1       3.907   0.668  -3.299  0.00  0.00    -0.042 C 
ATOM     71  C   LIG d   1       4.497   0.416  -1.910  0.00  0.00    -0.052 C 
ATOM     72  H   LIG d   1       3.944   1.743  -3.524  0.00  0.00     0.027 H 
ATOM     73  H   LIG d   1       2.861   0.324  -3.320  0.00  0.00     0.027 H 
ATOM     74  C   LIG d   1       4.445  -1.080  -1.596  0.00  0.00    -0.053 C 
ATOM     75  H   LIG d   1       3.914   0.969  -1.158  0.00  0.00     0.026 H 
ATOM     76  H   LIG d   1       5.542   0.760  -1.888  0.00  0.00     0.026 H 
ATOM     77  C   LIG d   1       5.256  -1.849  -2.642  0.00  0.00    -0.052 C 
ATOM     78  H   LIG d   1       3.400  -1.424  -1.618  0.00  0.00     0.026 H 
ATOM     79  H   LIG d   1       4.869  -1.261  -0.597  0.00  0.00     0.026 H 
ATOM     80  C   LIG d   1       4.665  -1.598  -4.030  0.00  0.00    -0.042 C 
ATOM     81  H   LIG d   1       5.218  -2.925  -2.416  0.00  0.00     0.026 H 
ATOM     82  H   LIG d   1       6.300  -1.506  -2.619  0.00  0.00     0.026 H 
ATOM     83  H   LIG d   1       3.620  -1.941  -4.052  0.00  0.00     0.027 H 
ATOM     84  H   LIG d   1       5.248  -2.150  -4.783  0.00  0.00     0.027 H 
ATOM     85  H   LIG d   1       5.761   0.246  -4.338  0.00  0.00     0.039 H 
ENDBRANCH  66  69
ENDBRANCH   3  65
TORSDOF 11
ENDMDL
MODEL 9
REMARK VINA RESULT:      -5.8      2.845      9.411
REMARK  11 active torsions:
REMARK  status: ('A' for Active; 'I' for Inactive)
REMARK    1  A    between atoms: C_1  and  C_2 
REMARK    2  A    between atoms: C_4  and  N_33 
REMARK    3  A    between atoms: C_8  and  C_32 
REMARK    4  A    between atoms: C_11  and  O_31 
REMARK    5  A    between atoms: C_13  and  C_17 
REMARK    6  A    between atoms: C_17  and  C_19 
REMARK    7  A    between atoms: C_17  and  C_20 
REMARK       I    between atoms: C_20  and  N_22 
REMARK    8  A    between atoms: N_22  and  C_23 
REMARK    9  A    between atoms: C_23  and  C_24 
REMARK   10  A    between atoms: C_24  and  N_25 
REMARK       I    between atoms: N_33  and  C_34 
REMARK   11  A    between atoms: C_34  and  C_36 
ROOT
ATOM      1  C   LIG d   1      10.643   5.389  -3.289  0.00  0.00    -0.020 C 
ATOM      2  H   LIG d   1      11.714   5.502  -3.509  0.00  0.00     0.032 H 
ATOM      3  C   LIG d   1       9.988   6.771  -3.219  0.00  0.00     0.026 C 
ATOM      4  H   LIG d   1       8.923   6.682  -2.961  0.00  0.00     0.050 H 
ATOM      5  C   LIG d   1      10.161   7.485  -4.562  0.00  0.00    -0.034 C 
ATOM      6  C   LIG d   1       9.497   6.661  -5.666  0.00  0.00    -0.046 C 
ATOM      7  C   LIG d   1      10.150   5.279  -5.736  0.00  0.00    -0.026 C 
ATOM      8  C   LIG d   1       9.978   4.566  -4.394  0.00  0.00    -0.005 C 
ATOM      9  H   LIG d   1       8.907   4.453  -4.173  0.00  0.00     0.033 H 
ATOM     10  C   LIG d   1      10.632   3.183  -4.463  0.00  0.00     0.062 C 
ATOM     11  H   LIG d   1      11.717   3.264  -4.624  0.00  0.00     0.060 H 
ATOM     12  C   LIG d   1       9.967   2.360  -5.569  0.00  0.00    -0.004 C 
ATOM     13  H   LIG d   1      10.437   1.367  -5.618  0.00  0.00     0.033 H 
ATOM     14  C   LIG d   1      10.140   3.074  -6.910  0.00  0.00    -0.047 C 
ATOM     15  C   LIG d   1       9.486   4.456  -6.841  0.00  0.00    -0.047 C 
ATOM     16  H   LIG d   1       9.690   8.478  -4.512  0.00  0.00     0.028 H 
ATOM     17  H   LIG d   1      11.233   7.597  -4.782  0.00  0.00     0.028 H 
ATOM     18  H   LIG d   1       8.424   6.548  -5.446  0.00  0.00     0.027 H 
ATOM     19  H   LIG d   1       9.621   7.174  -6.631  0.00  0.00     0.027 H 
ATOM     20  H   LIG d   1      11.211   3.187  -7.131  0.00  0.00     0.027 H 
ATOM     21  H   LIG d   1       9.662   2.482  -7.705  0.00  0.00     0.027 H 
ATOM     22  H   LIG d   1       8.414   4.343  -6.620  0.00  0.00     0.027 H 
ATOM     23  H   LIG d   1       9.609   4.968  -7.806  0.00  0.00     0.027 H 
ENDROOT
BRANCH  12  24
ATOM     24  C   LIG d   1       8.476   2.204  -5.261  0.00  0.00     0.038 C 
ATOM     25  H   LIG d   1       7.926   3.082  -5.628  0.00  0.00     0.040 H 
BRANCH  24  26
ATOM     26  C   LIG d   1       8.279   2.060  -3.751  0.00  0.00    -0.054 C 
ATOM     27  H   LIG d   1       9.170   1.591  -3.307  0.00  0.00     0.024 H 
ATOM     28  H   LIG d   1       7.398   1.432  -3.555  0.00  0.00     0.024 H 
ATOM     29  H   LIG d   1       8.128   3.054  -3.304  0.00  0.00     0.024 H 
ENDBRANCH  24  26
BRANCH  24  30
ATOM     30  C   LIG d   1       7.947   0.977  -5.956  0.00  0.00     0.216 C 
ATOM     31  O   LIG d   1       8.713   0.207  -6.496  0.00  0.00    -0.276 OA
ATOM     32  N   LIG d   1       6.622   0.734  -5.978  0.00  0.00    -0.310 N 
ATOM     33  H   LIG d   1       5.927   1.432  -5.488  0.00  0.00     0.149 HD
BRANCH  32  34
ATOM     34  C   LIG d   1       6.106  -0.460  -6.654  0.00  0.00     0.052 C 
ATOM     35  H   LIG d   1       6.482  -0.486  -7.687  0.00  0.00     0.051 H 
ATOM     36  H   LIG d   1       6.443  -1.359  -6.118  0.00  0.00     0.051 H 
BRANCH  34  37
ATOM     37  C   LIG d   1       4.577  -0.418  -6.669  0.00  0.00    -0.016 C 
ATOM     38  H   LIG d   1       4.239   0.629  -6.631  0.00  0.00     0.083 H 
ATOM     39  H   LIG d   1       4.205  -0.890  -7.590  0.00  0.00     0.083 H 
BRANCH  37  40
ATOM     40  N   LIG d   1       4.055  -1.142  -5.502  0.00  0.00     0.240 N 
ATOM     41  C   LIG d   1       5.086  -2.012  -4.918  0.00  0.00    -0.008 C 
ATOM     42  C   LIG d   1       4.483  -2.790  -3.745  0.00  0.00     0.088 C 
ATOM     43  H   LIG d   1       5.447  -2.717  -5.681  0.00  0.00     0.084 H 
ATOM     44  H   LIG d   1       5.924  -1.397  -4.559  0.00  0.00     0.084 H 
ATOM     45  O   LIG d   1       3.949  -1.868  -2.791  0.00  0.00    -0.369 OA
ATOM     46  H   LIG d   1       5.265  -3.400  -3.266  0.00  0.00     0.061 H 
ATOM     47  H   LIG d   1       3.679  -3.446  -4.111  0.00  0.00     0.061 H 
ATOM     48  C   LIG d   1       2.942  -1.005  -3.327  0.00  0.00     0.088 C 
ATOM     49  C   LIG d   1       3.528  -0.208  -4.495  0.00  0.00    -0.008 C 
ATOM     50  H   LIG d   1       2.598  -0.311  -2.547  0.00  0.00     0.061 H 
ATOM     51  H   LIG d   1       2.092  -1.607  -3.683  0.00  0.00     0.061 H 
ATOM     52  H   LIG d   1       4.343   0.436  -4.131  0.00  0.00     0.084 H 
ATOM     53  H   LIG d   1       2.743   0.414  -4.949  0.00  0.00     0.084 H 
ATOM     54  H   LIG d   1       3.225  -1.778  -5.845  0.00  0.00     0.204 HD
ENDBRANCH  37  40
ENDBRANCH  34  37
ENDBRANCH  32  34
ENDBRANCH  24  30
ENDBRANCH  12  24
BRANCH  10  55
ATOM     55  O   LIG d   1      10.471   2.517  -3.209  0.00  0.00    -0.391 OA
ATOM     56  H   LIG d   1      10.977   1.557  -3.028  0.00  0.00     0.210 HD
ENDBRANCH  10  55
BRANCH   1  57
ATOM     57  C   LIG d   1      10.470   4.675  -1.947  0.00  0.00    -0.060 C 
ATOM     58  H   LIG d   1      11.409   4.734  -1.376  0.00  0.00     0.023 H 
ATOM     59  H   LIG d   1      10.214   3.620  -2.124  0.00  0.00     0.023 H 
ATOM     60  H   LIG d   1       9.664   5.157  -1.376  0.00  0.00     0.023 H 
ENDBRANCH   1  57
BRANCH   7  61
ATOM     61  C   LIG d   1      11.641   5.435  -6.043  0.00  0.00    -0.059 C 
ATOM     62  H   LIG d   1      12.124   4.448  -6.028  0.00  0.00     0.024 H 
ATOM     63  H   LIG d   1      12.106   6.082  -5.284  0.00  0.00     0.024 H 
ATOM     64  H   LIG d   1      11.765   5.890  -7.036  0.00  0.00     0.024 H 
ENDBRANCH   7  61
BRANCH   3  65
ATOM     65  N   LIG d   1      10.625   7.560  -2.162  0.00  0.00    -0.312 N 
ATOM     66  C   LIG d   1       9.904   7.968  -1.098  0.00  0.00     0.216 C 
ATOM     67  O   LIG d   1       8.728   7.682  -1.018  0.00  0.00    -0.276 OA
ATOM     68  H   LIG d   1      11.692   7.819  -2.235  0.00  0.00     0.149 HD
BRANCH  66  69
ATOM     69  C   LIG d   1      10.559   8.779  -0.010  0.00  0.00     0.036 C 
ATOM     70  C   LIG d   1      12.073   8.570  -0.060  0.00  0.00    -0.042 C 
ATOM     71  C   LIG d   1      12.738   9.394   1.045  0.00  0.00    -0.052 C 
ATOM     72  H   LIG d   1      12.301   7.505   0.089  0.00  0.00     0.027 H 
ATOM     73  H   LIG d   1      12.457   8.894  -1.039  0.00  0.00     0.027 H 
ATOM     74  C   LIG d   1      12.421  10.876   0.838  0.00  0.00    -0.053 C 
ATOM     75  H   LIG d   1      13.827   9.244   1.010  0.00  0.00     0.026 H 
ATOM     76  H   LIG d   1      12.355   9.070   2.024  0.00  0.00     0.026 H 
ATOM     77  C   LIG d   1      10.906  11.085   0.887  0.00  0.00    -0.052 C 
ATOM     78  H   LIG d   1      12.803  11.200  -0.142  0.00  0.00     0.026 H 
ATOM     79  H   LIG d   1      12.899  11.468   1.632  0.00  0.00     0.026 H 
ATOM     80  C   LIG d   1      10.241  10.262  -0.218  0.00  0.00    -0.042 C 
ATOM     81  H   LIG d   1      10.678  12.151   0.738  0.00  0.00     0.026 H 
ATOM     82  H   LIG d   1      10.523  10.762   1.866  0.00  0.00     0.026 H 
ATOM     83  H   LIG d   1      10.624  10.585  -1.197  0.00  0.00     0.027 H 
ATOM     84  H   LIG d   1       9.152  10.411  -0.182  0.00  0.00     0.027 H 
ATOM     85  H   LIG d   1      10.166   8.445   0.962  0.00  0.00     0.039 H 
ENDBRANCH  66  69
ENDBRANCH   3  65
TORSDOF 11
ENDMDL
