MODEL 1
REMARK VINA RESULT:      -5.3      0.000      0.000
REMARK  12 active torsions:
REMARK  status: ('A' for Active; 'I' for Inactive)
REMARK    1  A    between atoms: C_1  and  C_2 
REMARK    2  A    between atoms: C_4  and  O_25 
REMARK    3  A    between atoms: C_5  and  C_9 
REMARK    4  A    between atoms: C_6  and  O_8 
REMARK    5  A    between atoms: C_9  and  C_11 
REMARK    6  A    between atoms: C_12  and  C_21 
REMARK    7  A    between atoms: C_14  and  O_19 
REMARK    8  A    between atoms: C_16  and  O_17 
REMARK    9  A    between atoms: O_17  and  C_18 
REMARK   10  A    between atoms: O_19  and  C_20 
REMARK   11  A    between atoms: C_21  and  O_23 
REMARK   12  A    between atoms: O_23  and  C_24 
ROOT
ATOM      1  C   LIG d   1       4.246  -1.857  -8.110  0.00  0.00     0.078 A 
ATOM      2  C   LIG d   1       3.442  -0.735  -8.400  0.00  0.00     0.077 A 
ATOM      3  C   LIG d   1       2.357  -0.867  -9.256  0.00  0.00    -0.005 A 
ATOM      4  C   LIG d   1       2.064  -2.103  -9.825  0.00  0.00     0.124 A 
ATOM      5  C   LIG d   1       2.851  -3.209  -9.543  0.00  0.00     0.022 A 
ATOM      6  C   LIG d   1       3.943  -3.094  -8.694  0.00  0.00     0.135 A 
ATOM      7  H   LIG d   1       1.740  -0.011  -9.481  0.00  0.00     0.066 H 
ATOM      8  H   LIG d   1       2.616  -4.164  -9.989  0.00  0.00     0.069 H 
ENDROOT
BRANCH   1   9
ATOM      9  C   LIG d   1       5.401  -1.728  -7.205  0.00  0.00     0.204 C 
ATOM     10  O   LIG d   1       6.532  -1.762  -7.652  0.00  0.00    -0.286 OA
BRANCH   9  11
ATOM     11  C   LIG d   1       5.186  -1.559  -5.759  0.00  0.00     0.105 A 
ATOM     12  C   LIG d   1       5.673  -0.419  -5.100  0.00  0.00     0.131 A 
ATOM     13  C   LIG d   1       5.464  -0.271  -3.738  0.00  0.00    -0.016 A 
ATOM     14  C   LIG d   1       4.780  -1.239  -3.029  0.00  0.00    -0.043 A 
ATOM     15  H   LIG d   1       5.838   0.605  -3.230  0.00  0.00     0.066 H 
ATOM     16  C   LIG d   1       4.296  -2.367  -3.667  0.00  0.00    -0.016 A 
ATOM     17  C   LIG d   1       4.492  -2.537  -5.028  0.00  0.00     0.131 A 
ATOM     18  H   LIG d   1       3.762  -3.117  -3.103  0.00  0.00     0.066 H 
BRANCH  12  19
ATOM     19  O   LIG d   1       6.340   0.535  -5.795  0.00  0.00    -0.506 OA
ATOM     20  H   LIG d   1       6.319   1.410  -5.383  0.00  0.00     0.292 HD
ENDBRANCH  12  19
BRANCH  14  21
ATOM     21  C   LIG d   1       4.558  -1.066  -1.548  0.00  0.00    -0.040 C 
ATOM     22  H   LIG d   1       5.002  -1.906  -1.014  0.00  0.00     0.028 H 
ATOM     23  H   LIG d   1       5.023  -0.137  -1.217  0.00  0.00     0.028 H 
ATOM     24  H   LIG d   1       3.488  -1.030  -1.343  0.00  0.00     0.028 H 
ENDBRANCH  14  21
BRANCH  17  25
ATOM     25  O   LIG d   1       4.018  -3.644  -5.651  0.00  0.00    -0.506 OA
ATOM     26  H   LIG d   1       3.662  -3.476  -6.534  0.00  0.00     0.292 HD
ENDBRANCH  17  25
ENDBRANCH   9  11
ENDBRANCH   1   9
BRANCH   6  27
ATOM     27  O   LIG d   1       4.712  -4.178  -8.426  0.00  0.00    -0.494 OA
BRANCH  27  28
ATOM     28  C   LIG d   1       4.128  -5.462  -8.657  0.00  0.00     0.079 C 
ATOM     29  H   LIG d   1       4.135  -6.037  -7.732  0.00  0.00     0.066 H 
ATOM     30  H   LIG d   1       3.101  -5.336  -9.001  0.00  0.00     0.066 H 
ATOM     31  H   LIG d   1       4.703  -5.991  -9.417  0.00  0.00     0.066 H 
ENDBRANCH  27  28
ENDBRANCH   6  27
BRANCH   2  32
ATOM     32  C   LIG d   1       3.754   0.577  -7.795  0.00  0.00     0.340 C 
ATOM     33  O   LIG d   1       3.059   1.014  -6.901  0.00  0.00    -0.245 OA
BRANCH  32  34
ATOM     34  O   LIG d   1       4.811   1.287  -8.235  0.00  0.00    -0.464 OA
BRANCH  34  35
ATOM     35  C   LIG d   1       4.588   2.165  -9.371  0.00  0.00     0.082 C 
ATOM     36  H   LIG d   1       3.964   3.004  -9.065  0.00  0.00     0.066 H 
ATOM     37  H   LIG d   1       5.545   2.537  -9.736  0.00  0.00     0.066 H 
ATOM     38  H   LIG d   1       4.087   1.610 -10.166  0.00  0.00     0.066 H 
ENDBRANCH  34  35
ENDBRANCH  32  34
ENDBRANCH   2  32
BRANCH   4  39
ATOM     39  O   LIG d   1       1.002  -2.227 -10.661  0.00  0.00    -0.495 OA
BRANCH  39  40
ATOM     40  C   LIG d   1       0.975  -1.372 -11.806  0.00  0.00     0.079 C 
ATOM     41  H   LIG d   1       1.912  -1.469 -12.353  0.00  0.00     0.066 H 
ATOM     42  H   LIG d   1       0.144  -1.657 -12.452  0.00  0.00     0.066 H 
ATOM     43  H   LIG d   1       0.847  -0.339 -11.483  0.00  0.00     0.066 H 
ENDBRANCH  39  40
ENDBRANCH   4  39
TORSDOF 12
ENDMDL
MODEL 2
REMARK VINA RESULT:      -5.0      1.261      3.494
REMARK  12 active torsions:
REMARK  status: ('A' for Active; 'I' for Inactive)
REMARK    1  A    between atoms: C_1  and  C_2 
REMARK    2  A    between atoms: C_4  and  O_25 
REMARK    3  A    between atoms: C_5  and  C_9 
REMARK    4  A    between atoms: C_6  and  O_8 
REMARK    5  A    between atoms: C_9  and  C_11 
REMARK    6  A    between atoms: C_12  and  C_21 
REMARK    7  A    between atoms: C_14  and  O_19 
REMARK    8  A    between atoms: C_16  and  O_17 
REMARK    9  A    between atoms: O_17  and  C_18 
REMARK   10  A    between atoms: O_19  and  C_20 
REMARK   11  A    between atoms: C_21  and  O_23 
REMARK   12  A    between atoms: O_23  and  C_24 
ROOT
ATOM      1  C   LIG d   1       3.970  -0.582  -8.079  0.00  0.00     0.078 A 
ATOM      2  C   LIG d   1       3.837  -1.932  -8.467  0.00  0.00     0.077 A 
ATOM      3  C   LIG d   1       2.861  -2.292  -9.386  0.00  0.00    -0.005 A 
ATOM      4  C   LIG d   1       2.017  -1.323  -9.921  0.00  0.00     0.124 A 
ATOM      5  C   LIG d   1       2.143   0.005  -9.543  0.00  0.00     0.022 A 
ATOM      6  C   LIG d   1       3.109   0.381  -8.622  0.00  0.00     0.135 A 
ATOM      7  H   LIG d   1       2.756  -3.323  -9.685  0.00  0.00     0.066 H 
ATOM      8  H   LIG d   1       1.483   0.748  -9.964  0.00  0.00     0.069 H 
ENDROOT
BRANCH   1   9
ATOM      9  C   LIG d   1       5.001  -0.189  -7.103  0.00  0.00     0.204 C 
ATOM     10  O   LIG d   1       5.986   0.423  -7.472  0.00  0.00    -0.286 OA
BRANCH   9  11
ATOM     11  C   LIG d   1       4.841  -0.537  -5.682  0.00  0.00     0.105 A 
ATOM     12  C   LIG d   1       3.759  -0.028  -4.947  0.00  0.00     0.131 A 
ATOM     13  C   LIG d   1       3.617  -0.364  -3.611  0.00  0.00    -0.016 A 
ATOM     14  C   LIG d   1       4.536  -1.197  -3.001  0.00  0.00    -0.043 A 
ATOM     15  H   LIG d   1       2.786   0.027  -3.043  0.00  0.00     0.066 H 
ATOM     16  C   LIG d   1       5.606  -1.704  -3.715  0.00  0.00    -0.016 A 
ATOM     17  C   LIG d   1       5.768  -1.382  -5.053  0.00  0.00     0.131 A 
ATOM     18  H   LIG d   1       6.318  -2.355  -3.228  0.00  0.00     0.066 H 
BRANCH  12  19
ATOM     19  O   LIG d   1       2.853   0.786  -5.545  0.00  0.00    -0.506 OA
ATOM     20  H   LIG d   1       2.870   0.752  -6.511  0.00  0.00     0.292 HD
ENDBRANCH  12  19
BRANCH  14  21
ATOM     21  C   LIG d   1       4.372  -1.555  -1.546  0.00  0.00    -0.040 C 
ATOM     22  H   LIG d   1       3.778  -0.789  -1.048  0.00  0.00     0.028 H 
ATOM     23  H   LIG d   1       3.868  -2.518  -1.463  0.00  0.00     0.028 H 
ATOM     24  H   LIG d   1       5.353  -1.617  -1.075  0.00  0.00     0.028 H 
ENDBRANCH  14  21
BRANCH  17  25
ATOM     25  O   LIG d   1       6.818  -1.881  -5.750  0.00  0.00    -0.506 OA
ATOM     26  H   LIG d   1       7.666  -1.808  -5.290  0.00  0.00     0.292 HD
ENDBRANCH  17  25
ENDBRANCH   9  11
ENDBRANCH   1   9
BRANCH   6  27
ATOM     27  O   LIG d   1       3.225   1.681  -8.252  0.00  0.00    -0.494 OA
BRANCH  27  28
ATOM     28  C   LIG d   1       3.788   2.580  -9.210  0.00  0.00     0.079 C 
ATOM     29  H   LIG d   1       3.050   2.798  -9.982  0.00  0.00     0.066 H 
ATOM     30  H   LIG d   1       4.077   3.505  -8.712  0.00  0.00     0.066 H 
ATOM     31  H   LIG d   1       4.666   2.123  -9.665  0.00  0.00     0.066 H 
ENDBRANCH  27  28
ENDBRANCH   6  27
BRANCH   2  32
ATOM     32  C   LIG d   1       4.735  -2.959  -7.897  0.00  0.00     0.340 C 
ATOM     33  O   LIG d   1       5.839  -3.132  -8.372  0.00  0.00    -0.245 OA
BRANCH  32  34
ATOM     34  O   LIG d   1       4.328  -3.702  -6.850  0.00  0.00    -0.464 OA
BRANCH  34  35
ATOM     35  C   LIG d   1       3.858  -5.046  -7.139  0.00  0.00     0.082 C 
ATOM     36  H   LIG d   1       3.158  -5.360  -6.365  0.00  0.00     0.066 H 
ATOM     37  H   LIG d   1       3.358  -5.055  -8.107  0.00  0.00     0.066 H 
ATOM     38  H   LIG d   1       4.706  -5.730  -7.161  0.00  0.00     0.066 H 
ENDBRANCH  34  35
ENDBRANCH  32  34
ENDBRANCH   2  32
BRANCH   4  39
ATOM     39  O   LIG d   1       1.064  -1.681 -10.819  0.00  0.00    -0.495 OA
BRANCH  39  40
ATOM     40  C   LIG d   1       0.885  -3.080 -11.053  0.00  0.00     0.079 C 
ATOM     41  H   LIG d   1       0.943  -3.616 -10.106  0.00  0.00     0.066 H 
ATOM     42  H   LIG d   1      -0.091  -3.249 -11.508  0.00  0.00     0.066 H 
ATOM     43  H   LIG d   1       1.666  -3.438 -11.723  0.00  0.00     0.066 H 
ENDBRANCH  39  40
ENDBRANCH   4  39
TORSDOF 12
ENDMDL
MODEL 3
REMARK VINA RESULT:      -4.9      1.943      6.442
REMARK  12 active torsions:
REMARK  status: ('A' for Active; 'I' for Inactive)
REMARK    1  A    between atoms: C_1  and  C_2 
REMARK    2  A    between atoms: C_4  and  O_25 
REMARK    3  A    between atoms: C_5  and  C_9 
REMARK    4  A    between atoms: C_6  and  O_8 
REMARK    5  A    between atoms: C_9  and  C_11 
REMARK    6  A    between atoms: C_12  and  C_21 
REMARK    7  A    between atoms: C_14  and  O_19 
REMARK    8  A    between atoms: C_16  and  O_17 
REMARK    9  A    between atoms: O_17  and  C_18 
REMARK   10  A    between atoms: O_19  and  C_20 
REMARK   11  A    between atoms: C_21  and  O_23 
REMARK   12  A    between atoms: O_23  and  C_24 
ROOT
ATOM      1  C   LIG d   1       5.352  -0.809  -5.854  0.00  0.00     0.078 A 
ATOM      2  C   LIG d   1       5.649  -1.900  -5.011  0.00  0.00     0.077 A 
ATOM      3  C   LIG d   1       6.972  -2.199  -4.711  0.00  0.00    -0.005 A 
ATOM      4  C   LIG d   1       7.999  -1.423  -5.241  0.00  0.00     0.124 A 
ATOM      5  C   LIG d   1       7.711  -0.350  -6.071  0.00  0.00     0.022 A 
ATOM      6  C   LIG d   1       6.396  -0.041  -6.385  0.00  0.00     0.135 A 
ATOM      7  H   LIG d   1       7.204  -3.032  -4.067  0.00  0.00     0.066 H 
ATOM      8  H   LIG d   1       8.515   0.245  -6.477  0.00  0.00     0.069 H 
ENDROOT
BRANCH   1   9
ATOM      9  C   LIG d   1       3.952  -0.485  -6.180  0.00  0.00     0.204 C 
ATOM     10  O   LIG d   1       3.186  -0.142  -5.299  0.00  0.00    -0.286 OA
BRANCH   9  11
ATOM     11  C   LIG d   1       3.481  -0.577  -7.571  0.00  0.00     0.105 A 
ATOM     12  C   LIG d   1       3.421  -1.821  -8.217  0.00  0.00     0.131 A 
ATOM     13  C   LIG d   1       2.975  -1.895  -9.526  0.00  0.00    -0.016 A 
ATOM     14  C   LIG d   1       2.589  -0.750 -10.197  0.00  0.00    -0.043 A 
ATOM     15  H   LIG d   1       2.928  -2.852 -10.025  0.00  0.00     0.066 H 
ATOM     16  C   LIG d   1       2.644   0.482  -9.571  0.00  0.00    -0.016 A 
ATOM     17  C   LIG d   1       3.087   0.581  -8.262  0.00  0.00     0.131 A 
ATOM     18  H   LIG d   1       2.340   1.371 -10.104  0.00  0.00     0.066 H 
BRANCH  12  19
ATOM     19  O   LIG d   1       3.794  -2.947  -7.560  0.00  0.00    -0.506 OA
ATOM     20  H   LIG d   1       3.341  -3.080  -6.716  0.00  0.00     0.292 HD
ENDBRANCH  12  19
BRANCH  14  21
ATOM     21  C   LIG d   1       2.105  -0.843 -11.621  0.00  0.00    -0.040 C 
ATOM     22  H   LIG d   1       1.262  -1.531 -11.674  0.00  0.00     0.028 H 
ATOM     23  H   LIG d   1       1.793   0.143 -11.965  0.00  0.00     0.028 H 
ATOM     24  H   LIG d   1       2.914  -1.209 -12.256  0.00  0.00     0.028 H 
ENDBRANCH  14  21
BRANCH  17  25
ATOM     25  O   LIG d   1       3.140   1.790  -7.651  0.00  0.00    -0.506 OA
ATOM     26  H   LIG d   1       3.493   1.761  -6.751  0.00  0.00     0.292 HD
ENDBRANCH  17  25
ENDBRANCH   9  11
ENDBRANCH   1   9
BRANCH   6  27
ATOM     27  O   LIG d   1       6.121   1.007  -7.200  0.00  0.00    -0.494 OA
BRANCH  27  28
ATOM     28  C   LIG d   1       7.149   1.413  -8.106  0.00  0.00     0.079 C 
ATOM     29  H   LIG d   1       7.654   2.295  -7.711  0.00  0.00     0.066 H 
ATOM     30  H   LIG d   1       7.869   0.603  -8.223  0.00  0.00     0.066 H 
ATOM     31  H   LIG d   1       6.707   1.650  -9.074  0.00  0.00     0.066 H 
ENDBRANCH  27  28
ENDBRANCH   6  27
BRANCH   2  32
ATOM     32  C   LIG d   1       4.557  -2.723  -4.448  0.00  0.00     0.340 C 
ATOM     33  O   LIG d   1       4.293  -3.800  -4.941  0.00  0.00    -0.245 OA
BRANCH  32  34
ATOM     34  O   LIG d   1       3.857  -2.277  -3.388  0.00  0.00    -0.464 OA
BRANCH  34  35
ATOM     35  C   LIG d   1       4.609  -1.642  -2.321  0.00  0.00     0.082 C 
ATOM     36  H   LIG d   1       4.706  -2.332  -1.483  0.00  0.00     0.066 H 
ATOM     37  H   LIG d   1       5.600  -1.372  -2.686  0.00  0.00     0.066 H 
ATOM     38  H   LIG d   1       4.086  -0.743  -1.993  0.00  0.00     0.066 H 
ENDBRANCH  34  35
ENDBRANCH  32  34
ENDBRANCH   2  32
BRANCH   4  39
ATOM     39  O   LIG d   1       9.290  -1.719  -4.945  0.00  0.00    -0.495 OA
BRANCH  39  40
ATOM     40  C   LIG d   1      10.287  -0.806  -5.406  0.00  0.00     0.079 C 
ATOM     41  H   LIG d   1      10.340  -0.845  -6.494  0.00  0.00     0.066 H 
ATOM     42  H   LIG d   1      10.028   0.205  -5.090  0.00  0.00     0.066 H 
ATOM     43  H   LIG d   1      11.254  -1.081  -4.985  0.00  0.00     0.066 H 
ENDBRANCH  39  40
ENDBRANCH   4  39
TORSDOF 12
ENDMDL
MODEL 4
REMARK VINA RESULT:      -4.9      1.946      4.126
REMARK  12 active torsions:
REMARK  status: ('A' for Active; 'I' for Inactive)
REMARK    1  A    between atoms: C_1  and  C_2 
REMARK    2  A    between atoms: C_4  and  O_25 
REMARK    3  A    between atoms: C_5  and  C_9 
REMARK    4  A    between atoms: C_6  and  O_8 
REMARK    5  A    between atoms: C_9  and  C_11 
REMARK    6  A    between atoms: C_12  and  C_21 
REMARK    7  A    between atoms: C_14  and  O_19 
REMARK    8  A    between atoms: C_16  and  O_17 
REMARK    9  A    between atoms: O_17  and  C_18 
REMARK   10  A    between atoms: O_19  and  C_20 
REMARK   11  A    between atoms: C_21  and  O_23 
REMARK   12  A    between atoms: O_23  and  C_24 
ROOT
ATOM      1  C   LIG d   1       5.133  -3.180  -6.635  0.00  0.00     0.078 A 
ATOM      2  C   LIG d   1       4.558  -4.452  -6.832  0.00  0.00     0.077 A 
ATOM      3  C   LIG d   1       3.712  -4.665  -7.913  0.00  0.00    -0.005 A 
ATOM      4  C   LIG d   1       3.435  -3.626  -8.796  0.00  0.00     0.124 A 
ATOM      5  C   LIG d   1       3.998  -2.374  -8.606  0.00  0.00     0.022 A 
ATOM      6  C   LIG d   1       4.841  -2.142  -7.528  0.00  0.00     0.135 A 
ATOM      7  H   LIG d   1       3.269  -5.637  -8.068  0.00  0.00     0.066 H 
ATOM      8  H   LIG d   1       3.777  -1.574  -9.296  0.00  0.00     0.069 H 
ENDROOT
BRANCH   1   9
ATOM      9  C   LIG d   1       6.031  -2.942  -5.490  0.00  0.00     0.204 C 
ATOM     10  O   LIG d   1       7.069  -3.570  -5.390  0.00  0.00    -0.286 OA
BRANCH   9  11
ATOM     11  C   LIG d   1       5.671  -1.947  -4.468  0.00  0.00     0.105 A 
ATOM     12  C   LIG d   1       6.306  -0.695  -4.445  0.00  0.00     0.131 A 
ATOM     13  C   LIG d   1       5.958   0.235  -3.479  0.00  0.00    -0.016 A 
ATOM     14  C   LIG d   1       4.991  -0.066  -2.539  0.00  0.00    -0.043 A 
ATOM     15  H   LIG d   1       6.445   1.198  -3.459  0.00  0.00     0.066 H 
ATOM     16  C   LIG d   1       4.359  -1.297  -2.551  0.00  0.00    -0.016 A 
ATOM     17  C   LIG d   1       4.690  -2.242  -3.508  0.00  0.00     0.131 A 
ATOM     18  H   LIG d   1       3.604  -1.521  -1.812  0.00  0.00     0.066 H 
BRANCH  12  19
ATOM     19  O   LIG d   1       7.252  -0.395  -5.370  0.00  0.00    -0.506 OA
ATOM     20  H   LIG d   1       8.038   0.034  -5.005  0.00  0.00     0.292 HD
ENDBRANCH  12  19
BRANCH  14  21
ATOM     21  C   LIG d   1       4.621   0.953  -1.492  0.00  0.00    -0.040 C 
ATOM     22  H   LIG d   1       5.517   1.265  -0.955  0.00  0.00     0.028 H 
ATOM     23  H   LIG d   1       4.165   1.819  -1.972  0.00  0.00     0.028 H 
ATOM     24  H   LIG d   1       3.912   0.512  -0.791  0.00  0.00     0.028 H 
ENDBRANCH  14  21
BRANCH  17  25
ATOM     25  O   LIG d   1       4.069  -3.447  -3.517  0.00  0.00    -0.506 OA
ATOM     26  H   LIG d   1       4.667  -4.199  -3.402  0.00  0.00     0.292 HD
ENDBRANCH  17  25
ENDBRANCH   9  11
ENDBRANCH   1   9
BRANCH   6  27
ATOM     27  O   LIG d   1       5.386  -0.914  -7.345  0.00  0.00    -0.494 OA
BRANCH  27  28
ATOM     28  C   LIG d   1       4.773   0.178  -8.034  0.00  0.00     0.079 C 
ATOM     29  H   LIG d   1       5.535   0.907  -8.310  0.00  0.00     0.066 H 
ATOM     30  H   LIG d   1       4.280  -0.191  -8.933  0.00  0.00     0.066 H 
ATOM     31  H   LIG d   1       4.037   0.650  -7.383  0.00  0.00     0.066 H 
ENDBRANCH  27  28
ENDBRANCH   6  27
BRANCH   2  32
ATOM     32  C   LIG d   1       4.853  -5.555  -5.893  0.00  0.00     0.340 C 
ATOM     33  O   LIG d   1       4.126  -5.753  -4.941  0.00  0.00    -0.245 OA
BRANCH  32  34
ATOM     34  O   LIG d   1       5.929  -6.340  -6.093  0.00  0.00    -0.464 OA
BRANCH  34  35
ATOM     35  C   LIG d   1       5.973  -7.597  -5.367  0.00  0.00     0.082 C 
ATOM     36  H   LIG d   1       6.233  -7.405  -4.326  0.00  0.00     0.066 H 
ATOM     37  H   LIG d   1       4.996  -8.078  -5.414  0.00  0.00     0.066 H 
ATOM     38  H   LIG d   1       6.722  -8.250  -5.815  0.00  0.00     0.066 H 
ENDBRANCH  34  35
ENDBRANCH  32  34
ENDBRANCH   2  32
BRANCH   4  39
ATOM     39  O   LIG d   1       2.607  -3.840  -9.851  0.00  0.00    -0.495 OA
BRANCH  39  40
ATOM     40  C   LIG d   1       2.118  -5.170 -10.032  0.00  0.00     0.079 C 
ATOM     41  H   LIG d   1       1.074  -5.218  -9.722  0.00  0.00     0.066 H 
ATOM     42  H   LIG d   1       2.198  -5.446 -11.084  0.00  0.00     0.066 H 
ATOM     43  H   LIG d   1       2.709  -5.859  -9.429  0.00  0.00     0.066 H 
ENDBRANCH  39  40
ENDBRANCH   4  39
TORSDOF 12
ENDMDL
MODEL 5
REMARK VINA RESULT:      -4.9      2.556      5.928
REMARK  12 active torsions:
REMARK  status: ('A' for Active; 'I' for Inactive)
REMARK    1  A    between atoms: C_1  and  C_2 
REMARK    2  A    between atoms: C_4  and  O_25 
REMARK    3  A    between atoms: C_5  and  C_9 
REMARK    4  A    between atoms: C_6  and  O_8 
REMARK    5  A    between atoms: C_9  and  C_11 
REMARK    6  A    between atoms: C_12  and  C_21 
REMARK    7  A    between atoms: C_14  and  O_19 
REMARK    8  A    between atoms: C_16  and  O_17 
REMARK    9  A    between atoms: O_17  and  C_18 
REMARK   10  A    between atoms: O_19  and  C_20 
REMARK   11  A    between atoms: C_21  and  O_23 
REMARK   12  A    between atoms: O_23  and  C_24 
ROOT
ATOM      1  C   LIG d   1       5.342  -2.118  -4.374  0.00  0.00     0.078 A 
ATOM      2  C   LIG d   1       6.421  -1.323  -3.936  0.00  0.00     0.077 A 
ATOM      3  C   LIG d   1       7.692  -1.876  -3.842  0.00  0.00    -0.005 A 
ATOM      4  C   LIG d   1       7.897  -3.210  -4.180  0.00  0.00     0.124 A 
ATOM      5  C   LIG d   1       6.839  -3.996  -4.611  0.00  0.00     0.022 A 
ATOM      6  C   LIG d   1       5.563  -3.461  -4.705  0.00  0.00     0.135 A 
ATOM      7  H   LIG d   1       8.520  -1.271  -3.507  0.00  0.00     0.066 H 
ATOM      8  H   LIG d   1       7.009  -5.030  -4.871  0.00  0.00     0.069 H 
ENDROOT
BRANCH   1   9
ATOM      9  C   LIG d   1       3.990  -1.542  -4.476  0.00  0.00     0.204 C 
ATOM     10  O   LIG d   1       3.167  -1.764  -3.607  0.00  0.00    -0.286 OA
BRANCH   9  11
ATOM     11  C   LIG d   1       3.634  -0.699  -5.628  0.00  0.00     0.105 A 
ATOM     12  C   LIG d   1       3.748  -1.202  -6.934  0.00  0.00     0.131 A 
ATOM     13  C   LIG d   1       3.409  -0.400  -8.011  0.00  0.00    -0.016 A 
ATOM     14  C   LIG d   1       2.961   0.891  -7.805  0.00  0.00    -0.043 A 
ATOM     15  H   LIG d   1       3.496  -0.784  -9.017  0.00  0.00     0.066 H 
ATOM     16  C   LIG d   1       2.846   1.398  -6.523  0.00  0.00    -0.016 A 
ATOM     17  C   LIG d   1       3.178   0.614  -5.430  0.00  0.00     0.131 A 
ATOM     18  H   LIG d   1       2.494   2.408  -6.373  0.00  0.00     0.066 H 
BRANCH  12  19
ATOM     19  O   LIG d   1       4.183  -2.470  -7.139  0.00  0.00    -0.506 OA
ATOM     20  H   LIG d   1       4.663  -2.848  -6.390  0.00  0.00     0.292 HD
ENDBRANCH  12  19
BRANCH  14  21
ATOM     21  C   LIG d   1       2.596   1.755  -8.985  0.00  0.00    -0.040 C 
ATOM     22  H   LIG d   1       3.478   1.917  -9.604  0.00  0.00     0.028 H 
ATOM     23  H   LIG d   1       1.824   1.259  -9.574  0.00  0.00     0.028 H 
ATOM     24  H   LIG d   1       2.220   2.715  -8.629  0.00  0.00     0.028 H 
ENDBRANCH  14  21
BRANCH  17  25
ATOM     25  O   LIG d   1       3.065   1.113  -4.175  0.00  0.00    -0.506 OA
ATOM     26  H   LIG d   1       2.728   2.019  -4.140  0.00  0.00     0.292 HD
ENDBRANCH  17  25
ENDBRANCH   9  11
ENDBRANCH   1   9
BRANCH   6  27
ATOM     27  O   LIG d   1       4.531  -4.236  -5.123  0.00  0.00    -0.494 OA
BRANCH  27  28
ATOM     28  C   LIG d   1       4.849  -5.559  -5.561  0.00  0.00     0.079 C 
ATOM     29  H   LIG d   1       3.946  -6.047  -5.927  0.00  0.00     0.066 H 
ATOM     30  H   LIG d   1       5.586  -5.508  -6.363  0.00  0.00     0.066 H 
ATOM     31  H   LIG d   1       5.257  -6.129  -4.727  0.00  0.00     0.066 H 
ENDBRANCH  27  28
ENDBRANCH   6  27
BRANCH   2  32
ATOM     32  C   LIG d   1       6.201   0.095  -3.577  0.00  0.00     0.340 C 
ATOM     33  O   LIG d   1       5.642   0.378  -2.538  0.00  0.00    -0.245 OA
BRANCH  32  34
ATOM     34  O   LIG d   1       6.622   1.071  -4.404  0.00  0.00    -0.464 OA
BRANCH  34  35
ATOM     35  C   LIG d   1       7.784   1.834  -3.984  0.00  0.00     0.082 C 
ATOM     36  H   LIG d   1       8.427   2.020  -4.844  0.00  0.00     0.066 H 
ATOM     37  H   LIG d   1       7.460   2.785  -3.560  0.00  0.00     0.066 H 
ATOM     38  H   LIG d   1       8.337   1.271  -3.232  0.00  0.00     0.066 H 
ENDBRANCH  34  35
ENDBRANCH  32  34
ENDBRANCH   2  32
BRANCH   4  39
ATOM     39  O   LIG d   1       9.141  -3.746  -4.087  0.00  0.00    -0.495 OA
BRANCH  39  40
ATOM     40  C   LIG d   1       9.557  -4.197  -2.796  0.00  0.00     0.079 C 
ATOM     41  H   LIG d   1      10.644  -4.280  -2.774  0.00  0.00     0.066 H 
ATOM     42  H   LIG d   1       9.231  -3.484  -2.039  0.00  0.00     0.066 H 
ATOM     43  H   LIG d   1       9.114  -5.172  -2.593  0.00  0.00     0.066 H 
ENDBRANCH  39  40
ENDBRANCH   4  39
TORSDOF 12
ENDMDL
MODEL 6
REMARK VINA RESULT:      -4.8      2.228      4.105
REMARK  12 active torsions:
REMARK  status: ('A' for Active; 'I' for Inactive)
REMARK    1  A    between atoms: C_1  and  C_2 
REMARK    2  A    between atoms: C_4  and  O_25 
REMARK    3  A    between atoms: C_5  and  C_9 
REMARK    4  A    between atoms: C_6  and  O_8 
REMARK    5  A    between atoms: C_9  and  C_11 
REMARK    6  A    between atoms: C_12  and  C_21 
REMARK    7  A    between atoms: C_14  and  O_19 
REMARK    8  A    between atoms: C_16  and  O_17 
REMARK    9  A    between atoms: O_17  and  C_18 
REMARK   10  A    between atoms: O_19  and  C_20 
REMARK   11  A    between atoms: C_21  and  O_23 
REMARK   12  A    between atoms: O_23  and  C_24 
ROOT
ATOM      1  C   LIG d   1       5.416   0.103  -8.053  0.00  0.00     0.078 A 
ATOM      2  C   LIG d   1       4.976   1.291  -8.673  0.00  0.00     0.077 A 
ATOM      3  C   LIG d   1       5.905   2.238  -9.082  0.00  0.00    -0.005 A 
ATOM      4  C   LIG d   1       7.264   2.015  -8.879  0.00  0.00     0.124 A 
ATOM      5  C   LIG d   1       7.700   0.849  -8.270  0.00  0.00     0.022 A 
ATOM      6  C   LIG d   1       6.786  -0.106  -7.850  0.00  0.00     0.135 A 
ATOM      7  H   LIG d   1       5.574   3.149  -9.556  0.00  0.00     0.066 H 
ATOM      8  H   LIG d   1       8.756   0.685  -8.117  0.00  0.00     0.069 H 
ENDROOT
BRANCH   1   9
ATOM      9  C   LIG d   1       4.439  -0.909  -7.614  0.00  0.00     0.204 C 
ATOM     10  O   LIG d   1       3.748  -1.485  -8.434  0.00  0.00    -0.286 OA
BRANCH   9  11
ATOM     11  C   LIG d   1       4.297  -1.222  -6.183  0.00  0.00     0.105 A 
ATOM     12  C   LIG d   1       3.653  -0.320  -5.321  0.00  0.00     0.131 A 
ATOM     13  C   LIG d   1       3.524  -0.625  -3.977  0.00  0.00    -0.016 A 
ATOM     14  C   LIG d   1       4.027  -1.813  -3.481  0.00  0.00    -0.043 A 
ATOM     15  H   LIG d   1       3.030   0.068  -3.313  0.00  0.00     0.066 H 
ATOM     16  C   LIG d   1       4.664  -2.710  -4.320  0.00  0.00    -0.016 A 
ATOM     17  C   LIG d   1       4.804  -2.426  -5.668  0.00  0.00     0.131 A 
ATOM     18  H   LIG d   1       5.052  -3.636  -3.922  0.00  0.00     0.066 H 
BRANCH  12  19
ATOM     19  O   LIG d   1       3.154   0.845  -5.806  0.00  0.00    -0.506 OA
ATOM     20  H   LIG d   1       2.916   0.812  -6.743  0.00  0.00     0.292 HD
ENDBRANCH  12  19
BRANCH  14  21
ATOM     21  C   LIG d   1       3.881  -2.135  -2.016  0.00  0.00    -0.040 C 
ATOM     22  H   LIG d   1       4.431  -3.047  -1.787  0.00  0.00     0.028 H 
ATOM     23  H   LIG d   1       4.278  -1.312  -1.421  0.00  0.00     0.028 H 
ATOM     24  H   LIG d   1       2.826  -2.277  -1.779  0.00  0.00     0.028 H 
ENDBRANCH  14  21
BRANCH  17  25
ATOM     25  O   LIG d   1       5.429  -3.307  -6.488  0.00  0.00    -0.506 OA
ATOM     26  H   LIG d   1       5.777  -4.087  -6.035  0.00  0.00     0.292 HD
ENDBRANCH  17  25
ENDBRANCH   9  11
ENDBRANCH   1   9
BRANCH   6  27
ATOM     27  O   LIG d   1       7.218  -1.243  -7.251  0.00  0.00    -0.494 OA
BRANCH  27  28
ATOM     28  C   LIG d   1       8.621  -1.353  -7.003  0.00  0.00     0.079 C 
ATOM     29  H   LIG d   1       9.166  -1.245  -7.940  0.00  0.00     0.066 H 
ATOM     30  H   LIG d   1       8.929  -0.570  -6.310  0.00  0.00     0.066 H 
ATOM     31  H   LIG d   1       8.837  -2.329  -6.568  0.00  0.00     0.066 H 
ENDBRANCH  27  28
ENDBRANCH   6  27
BRANCH   2  32
ATOM     32  C   LIG d   1       3.533   1.526  -8.887  0.00  0.00     0.340 C 
ATOM     33  O   LIG d   1       2.910   2.224  -8.114  0.00  0.00    -0.245 OA
BRANCH  32  34
ATOM     34  O   LIG d   1       2.909   0.967  -9.942  0.00  0.00    -0.464 OA
BRANCH  34  35
ATOM     35  C   LIG d   1       3.688   0.802 -11.157  0.00  0.00     0.082 C 
ATOM     36  H   LIG d   1       4.403  -0.009 -11.022  0.00  0.00     0.066 H 
ATOM     37  H   LIG d   1       3.021   0.565 -11.986  0.00  0.00     0.066 H 
ATOM     38  H   LIG d   1       4.223   1.727 -11.373  0.00  0.00     0.066 H 
ENDBRANCH  34  35
ENDBRANCH  32  34
ENDBRANCH   2  32
BRANCH   4  39
ATOM     39  O   LIG d   1       8.168   2.945  -9.280  0.00  0.00    -0.495 OA
BRANCH  39  40
ATOM     40  C   LIG d   1       9.500   2.491  -9.526  0.00  0.00     0.079 C 
ATOM     41  H   LIG d   1      10.034   3.235 -10.118  0.00  0.00     0.066 H 
ATOM     42  H   LIG d   1      10.015   2.345  -8.576  0.00  0.00     0.066 H 
ATOM     43  H   LIG d   1       9.467   1.547 -10.070  0.00  0.00     0.066 H 
ENDBRANCH  39  40
ENDBRANCH   4  39
TORSDOF 12
ENDMDL
MODEL 7
REMARK VINA RESULT:      -4.8      1.265      3.838
REMARK  12 active torsions:
REMARK  status: ('A' for Active; 'I' for Inactive)
REMARK    1  A    between atoms: C_1  and  C_2 
REMARK    2  A    between atoms: C_4  and  O_25 
REMARK    3  A    between atoms: C_5  and  C_9 
REMARK    4  A    between atoms: C_6  and  O_8 
REMARK    5  A    between atoms: C_9  and  C_11 
REMARK    6  A    between atoms: C_12  and  C_21 
REMARK    7  A    between atoms: C_14  and  O_19 
REMARK    8  A    between atoms: C_16  and  O_17 
REMARK    9  A    between atoms: O_17  and  C_18 
REMARK   10  A    between atoms: O_19  and  C_20 
REMARK   11  A    between atoms: C_21  and  O_23 
REMARK   12  A    between atoms: O_23  and  C_24 
ROOT
ATOM      1  C   LIG d   1       4.733  -1.958  -7.357  0.00  0.00     0.078 A 
ATOM      2  C   LIG d   1       4.115  -3.151  -7.786  0.00  0.00     0.077 A 
ATOM      3  C   LIG d   1       3.203  -3.116  -8.832  0.00  0.00    -0.005 A 
ATOM      4  C   LIG d   1       2.900  -1.909  -9.453  0.00  0.00     0.124 A 
ATOM      5  C   LIG d   1       3.505  -0.733  -9.035  0.00  0.00     0.022 A 
ATOM      6  C   LIG d   1       4.414  -0.748  -7.987  0.00  0.00     0.135 A 
ATOM      7  H   LIG d   1       2.728  -4.027  -9.164  0.00  0.00     0.066 H 
ATOM      8  H   LIG d   1       3.262   0.199  -9.522  0.00  0.00     0.069 H 
ENDROOT
BRANCH   1   9
ATOM      9  C   LIG d   1       5.701  -1.983  -6.247  0.00  0.00     0.204 C 
ATOM     10  O   LIG d   1       6.724  -2.635  -6.345  0.00  0.00    -0.286 OA
BRANCH   9  11
ATOM     11  C   LIG d   1       5.431  -1.219  -5.018  0.00  0.00     0.105 A 
ATOM     12  C   LIG d   1       4.380  -1.595  -4.167  0.00  0.00     0.131 A 
ATOM     13  C   LIG d   1       4.136  -0.869  -3.013  0.00  0.00    -0.016 A 
ATOM     14  C   LIG d   1       4.923   0.222  -2.697  0.00  0.00    -0.043 A 
ATOM     15  H   LIG d   1       3.327  -1.157  -2.358  0.00  0.00     0.066 H 
ATOM     16  C   LIG d   1       5.961   0.603  -3.528  0.00  0.00    -0.016 A 
ATOM     17  C   LIG d   1       6.224  -0.108  -4.687  0.00  0.00     0.131 A 
ATOM     18  H   LIG d   1       6.570   1.457  -3.271  0.00  0.00     0.066 H 
BRANCH  12  19
ATOM     19  O   LIG d   1       3.610  -2.669  -4.473  0.00  0.00    -0.506 OA
ATOM     20  H   LIG d   1       3.810  -3.067  -5.331  0.00  0.00     0.292 HD
ENDBRANCH  12  19
BRANCH  14  21
ATOM     21  C   LIG d   1       4.647   1.004  -1.439  0.00  0.00    -0.040 C 
ATOM     22  H   LIG d   1       4.058   1.888  -1.681  0.00  0.00     0.028 H 
ATOM     23  H   LIG d   1       4.096   0.380  -0.736  0.00  0.00     0.028 H 
ATOM     24  H   LIG d   1       5.592   1.310  -0.988  0.00  0.00     0.028 H 
ENDBRANCH  14  21
BRANCH  17  25
ATOM     25  O   LIG d   1       7.242   0.268  -5.500  0.00  0.00    -0.506 OA
ATOM     26  H   LIG d   1       6.965   0.504  -6.396  0.00  0.00     0.292 HD
ENDBRANCH  17  25
ENDBRANCH   9  11
ENDBRANCH   1   9
BRANCH   6  27
ATOM     27  O   LIG d   1       4.999   0.405  -7.579  0.00  0.00    -0.494 OA
BRANCH  27  28
ATOM     28  C   LIG d   1       5.739   1.140  -8.557  0.00  0.00     0.079 C 
ATOM     29  H   LIG d   1       5.286   0.997  -9.538  0.00  0.00     0.066 H 
ATOM     30  H   LIG d   1       5.727   2.199  -8.300  0.00  0.00     0.066 H 
ATOM     31  H   LIG d   1       6.768   0.782  -8.577  0.00  0.00     0.066 H 
ENDBRANCH  27  28
ENDBRANCH   6  27
BRANCH   2  32
ATOM     32  C   LIG d   1       4.438  -4.434  -7.125  0.00  0.00     0.340 C 
ATOM     33  O   LIG d   1       3.817  -4.784  -6.143  0.00  0.00    -0.245 OA
BRANCH  32  34
ATOM     34  O   LIG d   1       5.422  -5.213  -7.614  0.00  0.00    -0.464 OA
BRANCH  34  35
ATOM     35  C   LIG d   1       5.149  -6.637  -7.706  0.00  0.00     0.082 C 
ATOM     36  H   LIG d   1       5.209  -7.083  -6.714  0.00  0.00     0.066 H 
ATOM     37  H   LIG d   1       4.150  -6.790  -8.114  0.00  0.00     0.066 H 
ATOM     38  H   LIG d   1       5.884  -7.106  -8.360  0.00  0.00     0.066 H 
ENDBRANCH  34  35
ENDBRANCH  32  34
ENDBRANCH   2  32
BRANCH   4  39
ATOM     39  O   LIG d   1       2.007  -1.880 -10.475  0.00  0.00    -0.495 OA
BRANCH  39  40
ATOM     40  C   LIG d   1       1.215  -3.053 -10.678  0.00  0.00     0.079 C 
ATOM     41  H   LIG d   1       1.867  -3.895 -10.910  0.00  0.00     0.066 H 
ATOM     42  H   LIG d   1       0.649  -3.269  -9.771  0.00  0.00     0.066 H 
ATOM     43  H   LIG d   1       0.527  -2.886 -11.506  0.00  0.00     0.066 H 
ENDBRANCH  39  40
ENDBRANCH   4  39
TORSDOF 12
ENDMDL
MODEL 8
REMARK VINA RESULT:      -4.8      2.077      6.490
REMARK  12 active torsions:
REMARK  status: ('A' for Active; 'I' for Inactive)
REMARK    1  A    between atoms: C_1  and  C_2 
REMARK    2  A    between atoms: C_4  and  O_25 
REMARK    3  A    between atoms: C_5  and  C_9 
REMARK    4  A    between atoms: C_6  and  O_8 
REMARK    5  A    between atoms: C_9  and  C_11 
REMARK    6  A    between atoms: C_12  and  C_21 
REMARK    7  A    between atoms: C_14  and  O_19 
REMARK    8  A    between atoms: C_16  and  O_17 
REMARK    9  A    between atoms: O_17  and  C_18 
REMARK   10  A    between atoms: O_19  and  C_20 
REMARK   11  A    between atoms: C_21  and  O_23 
REMARK   12  A    between atoms: O_23  and  C_24 
ROOT
ATOM      1  C   LIG d   1       5.739  -0.520  -4.880  0.00  0.00     0.078 A 
ATOM      2  C   LIG d   1       6.971  -0.291  -5.527  0.00  0.00     0.077 A 
ATOM      3  C   LIG d   1       7.845   0.664  -5.026  0.00  0.00    -0.005 A 
ATOM      4  C   LIG d   1       7.506   1.392  -3.889  0.00  0.00     0.124 A 
ATOM      5  C   LIG d   1       6.296   1.170  -3.249  0.00  0.00     0.022 A 
ATOM      6  C   LIG d   1       5.408   0.224  -3.740  0.00  0.00     0.135 A 
ATOM      7  H   LIG d   1       8.788   0.843  -5.519  0.00  0.00     0.066 H 
ATOM      8  H   LIG d   1       6.042   1.740  -2.369  0.00  0.00     0.069 H 
ENDROOT
BRANCH   1   9
ATOM      9  C   LIG d   1       4.803  -1.530  -5.403  0.00  0.00     0.204 C 
ATOM     10  O   LIG d   1       4.645  -2.580  -4.809  0.00  0.00    -0.286 OA
BRANCH   9  11
ATOM     11  C   LIG d   1       4.059  -1.269  -6.646  0.00  0.00     0.105 A 
ATOM     12  C   LIG d   1       4.157  -2.157  -7.729  0.00  0.00     0.131 A 
ATOM     13  C   LIG d   1       3.452  -1.901  -8.894  0.00  0.00    -0.016 A 
ATOM     14  C   LIG d   1       2.654  -0.777  -8.993  0.00  0.00    -0.043 A 
ATOM     15  H   LIG d   1       3.526  -2.583  -9.728  0.00  0.00     0.066 H 
ATOM     16  C   LIG d   1       2.550   0.106  -7.933  0.00  0.00    -0.016 A 
ATOM     17  C   LIG d   1       3.246  -0.130  -6.758  0.00  0.00     0.131 A 
ATOM     18  H   LIG d   1       1.923   0.981  -8.020  0.00  0.00     0.066 H 
BRANCH  12  19
ATOM     19  O   LIG d   1       4.935  -3.263  -7.633  0.00  0.00    -0.506 OA
ATOM     20  H   LIG d   1       4.975  -3.789  -8.443  0.00  0.00     0.292 HD
ENDBRANCH  12  19
BRANCH  14  21
ATOM     21  C   LIG d   1       1.892  -0.509 -10.265  0.00  0.00    -0.040 C 
ATOM     22  H   LIG d   1       1.567  -1.454 -10.699  0.00  0.00     0.028 H 
ATOM     23  H   LIG d   1       1.021   0.109 -10.044  0.00  0.00     0.028 H 
ATOM     24  H   LIG d   1       2.537   0.013 -10.972  0.00  0.00     0.028 H 
ENDBRANCH  14  21
BRANCH  17  25
ATOM     25  O   LIG d   1       3.143   0.738  -5.721  0.00  0.00    -0.506 OA
ATOM     26  H   LIG d   1       2.823   1.615  -5.972  0.00  0.00     0.292 HD
ENDBRANCH  17  25
ENDBRANCH   9  11
ENDBRANCH   1   9
BRANCH   6  27
ATOM     27  O   LIG d   1       4.224   0.014  -3.112  0.00  0.00    -0.494 OA
BRANCH  27  28
ATOM     28  C   LIG d   1       3.713   1.086  -2.317  0.00  0.00     0.079 C 
ATOM     29  H   LIG d   1       4.318   1.192  -1.417  0.00  0.00     0.066 H 
ATOM     30  H   LIG d   1       3.747   2.012  -2.890  0.00  0.00     0.066 H 
ATOM     31  H   LIG d   1       2.682   0.869  -2.037  0.00  0.00     0.066 H 
ENDBRANCH  27  28
ENDBRANCH   6  27
BRANCH   2  32
ATOM     32  C   LIG d   1       7.330  -1.065  -6.735  0.00  0.00     0.340 C 
ATOM     33  O   LIG d   1       7.290  -0.537  -7.828  0.00  0.00    -0.245 OA
BRANCH  32  34
ATOM     34  O   LIG d   1       7.702  -2.354  -6.622  0.00  0.00    -0.464 OA
BRANCH  34  35
ATOM     35  C   LIG d   1       8.487  -2.911  -7.710  0.00  0.00     0.082 C 
ATOM     36  H   LIG d   1       8.485  -2.218  -8.551  0.00  0.00     0.066 H 
ATOM     37  H   LIG d   1       9.511  -3.071  -7.374  0.00  0.00     0.066 H 
ATOM     38  H   LIG d   1       8.054  -3.862  -8.021  0.00  0.00     0.066 H 
ENDBRANCH  34  35
ENDBRANCH  32  34
ENDBRANCH   2  32
BRANCH   4  39
ATOM     39  O   LIG d   1       8.364   2.325  -3.404  0.00  0.00    -0.495 OA
BRANCH  39  40
ATOM     40  C   LIG d   1       9.745   2.174  -3.742  0.00  0.00     0.079 C 
ATOM     41  H   LIG d   1      10.033   1.129  -3.632  0.00  0.00     0.066 H 
ATOM     42  H   LIG d   1       9.902   2.489  -4.774  0.00  0.00     0.066 H 
ATOM     43  H   LIG d   1      10.349   2.791  -3.077  0.00  0.00     0.066 H 
ENDBRANCH  39  40
ENDBRANCH   4  39
TORSDOF 12
ENDMDL
MODEL 9
REMARK VINA RESULT:      -4.7      1.824      3.297
REMARK  12 active torsions:
REMARK  status: ('A' for Active; 'I' for Inactive)
REMARK    1  A    between atoms: C_1  and  C_2 
REMARK    2  A    between atoms: C_4  and  O_25 
REMARK    3  A    between atoms: C_5  and  C_9 
REMARK    4  A    between atoms: C_6  and  O_8 
REMARK    5  A    between atoms: C_9  and  C_11 
REMARK    6  A    between atoms: C_12  and  C_21 
REMARK    7  A    between atoms: C_14  and  O_19 
REMARK    8  A    between atoms: C_16  and  O_17 
REMARK    9  A    between atoms: O_17  and  C_18 
REMARK   10  A    between atoms: O_19  and  C_20 
REMARK   11  A    between atoms: C_21  and  O_23 
REMARK   12  A    between atoms: O_23  and  C_24 
ROOT
ATOM      1  C   LIG d   1       4.701  -2.366  -7.309  0.00  0.00     0.078 A 
ATOM      2  C   LIG d   1       3.748  -2.528  -8.336  0.00  0.00     0.077 A 
ATOM      3  C   LIG d   1       3.295  -3.800  -8.661  0.00  0.00    -0.005 A 
ATOM      4  C   LIG d   1       3.782  -4.909  -7.975  0.00  0.00     0.124 A 
ATOM      5  C   LIG d   1       4.719  -4.755  -6.965  0.00  0.00     0.022 A 
ATOM      6  C   LIG d   1       5.186  -3.492  -6.631  0.00  0.00     0.135 A 
ATOM      7  H   LIG d   1       2.566  -3.929  -9.446  0.00  0.00     0.066 H 
ATOM      8  H   LIG d   1       5.091  -5.621  -6.440  0.00  0.00     0.069 H 
ENDROOT
BRANCH   1   9
ATOM      9  C   LIG d   1       5.190  -1.021  -6.957  0.00  0.00     0.204 C 
ATOM     10  O   LIG d   1       5.746  -0.337  -7.795  0.00  0.00    -0.286 OA
BRANCH   9  11
ATOM     11  C   LIG d   1       5.005  -0.507  -5.590  0.00  0.00     0.105 A 
ATOM     12  C   LIG d   1       3.723  -0.172  -5.127  0.00  0.00     0.131 A 
ATOM     13  C   LIG d   1       3.562   0.311  -3.839  0.00  0.00    -0.016 A 
ATOM     14  C   LIG d   1       4.657   0.463  -3.010  0.00  0.00    -0.043 A 
ATOM     15  H   LIG d   1       2.577   0.569  -3.481  0.00  0.00     0.066 H 
ATOM     16  C   LIG d   1       5.926   0.137  -3.455  0.00  0.00    -0.016 A 
ATOM     17  C   LIG d   1       6.111  -0.347  -4.740  0.00  0.00     0.131 A 
ATOM     18  H   LIG d   1       6.774   0.259  -2.799  0.00  0.00     0.066 H 
BRANCH  12  19
ATOM     19  O   LIG d   1       2.646  -0.325  -5.937  0.00  0.00    -0.506 OA
ATOM     20  H   LIG d   1       2.735   0.107  -6.797  0.00  0.00     0.292 HD
ENDBRANCH  12  19
BRANCH  14  21
ATOM     21  C   LIG d   1       4.469   0.989  -1.610  0.00  0.00    -0.040 C 
ATOM     22  H   LIG d   1       5.291   1.660  -1.360  0.00  0.00     0.028 H 
ATOM     23  H   LIG d   1       3.525   1.531  -1.549  0.00  0.00     0.028 H 
ATOM     24  H   LIG d   1       4.455   0.155  -0.908  0.00  0.00     0.028 H 
ENDBRANCH  14  21
BRANCH  17  25
ATOM     25  O   LIG d   1       7.355  -0.666  -5.174  0.00  0.00    -0.506 OA
ATOM     26  H   LIG d   1       8.021   0.011  -4.990  0.00  0.00     0.292 HD
ENDBRANCH  17  25
ENDBRANCH   9  11
ENDBRANCH   1   9
BRANCH   6  27
ATOM     27  O   LIG d   1       6.107  -3.347  -5.646  0.00  0.00    -0.494 OA
BRANCH  27  28
ATOM     28  C   LIG d   1       7.126  -4.345  -5.558  0.00  0.00     0.079 C 
ATOM     29  H   LIG d   1       7.382  -4.512  -4.512  0.00  0.00     0.066 H 
ATOM     30  H   LIG d   1       6.764  -5.274  -5.998  0.00  0.00     0.066 H 
ATOM     31  H   LIG d   1       8.011  -4.008  -6.098  0.00  0.00     0.066 H 
ENDBRANCH  27  28
ENDBRANCH   6  27
BRANCH   2  32
ATOM     32  C   LIG d   1       3.232  -1.349  -9.063  0.00  0.00     0.340 C 
ATOM     33  O   LIG d   1       2.313  -0.705  -8.600  0.00  0.00    -0.245 OA
BRANCH  32  34
ATOM     34  O   LIG d   1       3.783  -0.988 -10.238  0.00  0.00    -0.464 OA
BRANCH  34  35
ATOM     35  C   LIG d   1       2.880  -0.805 -11.360  0.00  0.00     0.082 C 
ATOM     36  H   LIG d   1       3.241  -1.377 -12.214  0.00  0.00     0.066 H 
ATOM     37  H   LIG d   1       1.884  -1.151 -11.086  0.00  0.00     0.066 H 
ATOM     38  H   LIG d   1       2.838   0.252 -11.623  0.00  0.00     0.066 H 
ENDBRANCH  34  35
ENDBRANCH  32  34
ENDBRANCH   2  32
BRANCH   4  39
ATOM     39  O   LIG d   1       3.336  -6.150  -8.297  0.00  0.00    -0.495 OA
BRANCH  39  40
ATOM     40  C   LIG d   1       4.184  -7.251  -7.963  0.00  0.00     0.079 C 
ATOM     41  H   LIG d   1       3.904  -7.640  -6.984  0.00  0.00     0.066 H 
ATOM     42  H   LIG d   1       4.073  -8.035  -8.712  0.00  0.00     0.066 H 
ATOM     43  H   LIG d   1       5.221  -6.916  -7.939  0.00  0.00     0.066 H 
ENDBRANCH  39  40
ENDBRANCH   4  39
TORSDOF 12
ENDMDL
MODEL 10
REMARK VINA RESULT:      -4.7      1.951      5.835
REMARK  12 active torsions:
REMARK  status: ('A' for Active; 'I' for Inactive)
REMARK    1  A    between atoms: C_1  and  C_2 
REMARK    2  A    between atoms: C_4  and  O_25 
REMARK    3  A    between atoms: C_5  and  C_9 
REMARK    4  A    between atoms: C_6  and  O_8 
REMARK    5  A    between atoms: C_9  and  C_11 
REMARK    6  A    between atoms: C_12  and  C_21 
REMARK    7  A    between atoms: C_14  and  O_19 
REMARK    8  A    between atoms: C_16  and  O_17 
REMARK    9  A    between atoms: O_17  and  C_18 
REMARK   10  A    between atoms: O_19  and  C_20 
REMARK   11  A    between atoms: C_21  and  O_23 
REMARK   12  A    between atoms: O_23  and  C_24 
ROOT
ATOM      1  C   LIG d   1       5.224  -1.089  -5.660  0.00  0.00     0.078 A 
ATOM      2  C   LIG d   1       6.477  -0.830  -6.253  0.00  0.00     0.077 A 
ATOM      3  C   LIG d   1       7.588  -1.569  -5.867  0.00  0.00    -0.005 A 
ATOM      4  C   LIG d   1       7.463  -2.561  -4.900  0.00  0.00     0.124 A 
ATOM      5  C   LIG d   1       6.233  -2.820  -4.314  0.00  0.00     0.022 A 
ATOM      6  C   LIG d   1       5.114  -2.087  -4.684  0.00  0.00     0.135 A 
ATOM      7  H   LIG d   1       8.549  -1.374  -6.318  0.00  0.00     0.066 H 
ATOM      8  H   LIG d   1       6.146  -3.591  -3.564  0.00  0.00     0.069 H 
ENDROOT
BRANCH   1   9
ATOM      9  C   LIG d   1       4.039  -0.310  -6.061  0.00  0.00     0.204 C 
ATOM     10  O   LIG d   1       3.532   0.472  -5.278  0.00  0.00    -0.286 OA
BRANCH   9  11
ATOM     11  C   LIG d   1       3.469  -0.478  -7.407  0.00  0.00     0.105 A 
ATOM     12  C   LIG d   1       3.389  -1.753  -7.987  0.00  0.00     0.131 A 
ATOM     13  C   LIG d   1       2.850  -1.899  -9.255  0.00  0.00    -0.016 A 
ATOM     14  C   LIG d   1       2.391  -0.795  -9.948  0.00  0.00    -0.043 A 
ATOM     15  H   LIG d   1       2.787  -2.879  -9.703  0.00  0.00     0.066 H 
ATOM     16  C   LIG d   1       2.465   0.467  -9.387  0.00  0.00    -0.016 A 
ATOM     17  C   LIG d   1       3.001   0.637  -8.121  0.00  0.00     0.131 A 
ATOM     18  H   LIG d   1       2.104   1.323  -9.937  0.00  0.00     0.066 H 
BRANCH  12  19
ATOM     19  O   LIG d   1       3.834  -2.839  -7.307  0.00  0.00    -0.506 OA
ATOM     20  H   LIG d   1       4.473  -3.376  -7.795  0.00  0.00     0.292 HD
ENDBRANCH  12  19
BRANCH  14  21
ATOM     21  C   LIG d   1       1.807  -0.966 -11.327  0.00  0.00    -0.040 C 
ATOM     22  H   LIG d   1       0.794  -0.564 -11.344  0.00  0.00     0.028 H 
ATOM     23  H   LIG d   1       2.422  -0.434 -12.052  0.00  0.00     0.028 H 
ATOM     24  H   LIG d   1       1.781  -2.026 -11.581  0.00  0.00     0.028 H 
ENDBRANCH  14  21
BRANCH  17  25
ATOM     25  O   LIG d   1       3.073   1.875  -7.573  0.00  0.00    -0.506 OA
ATOM     26  H   LIG d   1       3.841   2.389  -7.860  0.00  0.00     0.292 HD
ENDBRANCH  17  25
ENDBRANCH   9  11
ENDBRANCH   1   9
BRANCH   6  27
ATOM     27  O   LIG d   1       3.915  -2.341  -4.104  0.00  0.00    -0.494 OA
BRANCH  27  28
ATOM     28  C   LIG d   1       3.789  -2.039  -2.713  0.00  0.00     0.079 C 
ATOM     29  H   LIG d   1       4.446  -1.207  -2.461  0.00  0.00     0.066 H 
ATOM     30  H   LIG d   1       2.756  -1.767  -2.493  0.00  0.00     0.066 H 
ATOM     31  H   LIG d   1       4.067  -2.913  -2.125  0.00  0.00     0.066 H 
ENDBRANCH  27  28
ENDBRANCH   6  27
BRANCH   2  32
ATOM     32  C   LIG d   1       6.608   0.225  -7.281  0.00  0.00     0.340 C 
ATOM     33  O   LIG d   1       6.793   1.377  -6.948  0.00  0.00    -0.245 OA
BRANCH  32  34
ATOM     34  O   LIG d   1       6.523  -0.094  -8.587  0.00  0.00    -0.464 OA
BRANCH  34  35
ATOM     35  C   LIG d   1       6.394   1.006  -9.526  0.00  0.00     0.082 C 
ATOM     36  H   LIG d   1       6.957   1.865  -9.160  0.00  0.00     0.066 H 
ATOM     37  H   LIG d   1       6.785   0.703 -10.497  0.00  0.00     0.066 H 
ATOM     38  H   LIG d   1       5.343   1.277  -9.626  0.00  0.00     0.066 H 
ENDBRANCH  34  35
ENDBRANCH  32  34
ENDBRANCH   2  32
BRANCH   4  39
ATOM     39  O   LIG d   1       8.552  -3.281  -4.527  0.00  0.00    -0.495 OA
BRANCH  39  40
ATOM     40  C   LIG d   1       8.547  -4.675  -4.839  0.00  0.00     0.079 C 
ATOM     41  H   LIG d   1       9.445  -5.141  -4.434  0.00  0.00     0.066 H 
ATOM     42  H   LIG d   1       7.664  -5.142  -4.401  0.00  0.00     0.066 H 
ATOM     43  H   LIG d   1       8.526  -4.804  -5.921  0.00  0.00     0.066 H 
ENDBRANCH  39  40
ENDBRANCH   4  39
TORSDOF 12
ENDMDL
