MODEL 1
REMARK VINA RESULT:      -5.4      0.000      0.000
REMARK  10 active torsions:
REMARK  status: ('A' for Active; 'I' for Inactive)
REMARK    1  A    between atoms: C_1  and  N_2 
REMARK    2  A    between atoms: C_8  and  C_11 
REMARK       I    between atoms: C_11  and  N_13 
REMARK    3  A    between atoms: N_13  and  C_14 
REMARK    4  A    between atoms: C_14  and  C_16 
REMARK    5  A    between atoms: C_14  and  C_20 
REMARK    6  A    between atoms: C_16  and  C_17 
REMARK    7  A    between atoms: C_17  and  S_18 
REMARK    8  A    between atoms: S_18  and  C_19 
REMARK    9  A    between atoms: C_20  and  O_22 
REMARK   10  A    between atoms: O_22  and  C_23 
ROOT
ATOM      1  C   LIG d   1       2.858   0.283  -5.568  0.00  0.00     0.245 C 
ATOM      2  O   LIG d   1       1.760   0.309  -5.048  0.00  0.00    -0.270 OA
ATOM      3  N   LIG d   1       3.965   0.207  -4.804  0.00  0.00    -0.298 N 
ATOM      4  H   LIG d   1       4.842   0.186  -5.219  0.00  0.00     0.150 HD
ENDROOT
BRANCH   3   5
ATOM      5  C   LIG d   1       3.846   0.156  -3.344  0.00  0.00     0.121 C 
ATOM      6  H   LIG d   1       2.868   0.535  -3.047  0.00  0.00     0.061 H 
BRANCH   5   7
ATOM      7  C   LIG d   1       3.998  -1.290  -2.870  0.00  0.00    -0.015 C 
ATOM      8  H   LIG d   1       4.013  -1.316  -1.781  0.00  0.00     0.030 H 
ATOM      9  H   LIG d   1       3.159  -1.882  -3.236  0.00  0.00     0.030 H 
BRANCH   7  10
ATOM     10  C   LIG d   1       5.306  -1.870  -3.413  0.00  0.00    -0.004 C 
ATOM     11  H   LIG d   1       5.858  -1.091  -3.939  0.00  0.00     0.038 H 
ATOM     12  H   LIG d   1       5.906  -2.247  -2.586  0.00  0.00     0.038 H 
BRANCH  10  13
ATOM     13  S   LIG d   1       4.936  -3.228  -4.558  0.00  0.00    -0.164 SA
BRANCH  13  14
ATOM     14  C   LIG d   1       5.904  -2.828  -6.039  0.00  0.00    -0.018 C 
ATOM     15  H   LIG d   1       6.825  -2.324  -5.745  0.00  0.00     0.034 H 
ATOM     16  H   LIG d   1       6.146  -3.746  -6.574  0.00  0.00     0.034 H 
ATOM     17  H   LIG d   1       5.322  -2.173  -6.687  0.00  0.00     0.034 H 
ENDBRANCH  13  14
ENDBRANCH  10  13
ENDBRANCH   7  10
ENDBRANCH   5   7
BRANCH   5  18
ATOM     18  C   LIG d   1       4.923   1.005  -2.722  0.00  0.00     0.327 C 
ATOM     19  O   LIG d   1       5.013   1.083  -1.520  0.00  0.00    -0.249 OA
BRANCH  18  20
ATOM     20  O   LIG d   1       5.784   1.677  -3.504  0.00  0.00    -0.467 OA
BRANCH  20  21
ATOM     21  C   LIG d   1       7.132   1.201  -3.541  0.00  0.00     0.082 C 
ATOM     22  H   LIG d   1       7.145   0.130  -3.337  0.00  0.00     0.066 H 
ATOM     23  H   LIG d   1       7.555   1.388  -4.528  0.00  0.00     0.066 H 
ATOM     24  H   LIG d   1       7.722   1.722  -2.788  0.00  0.00     0.066 H 
ENDBRANCH  20  21
ENDBRANCH  18  20
ENDBRANCH   5  18
ENDBRANCH   3   5
BRANCH   1  25
ATOM     25  C   LIG d   1       2.980   0.335  -7.038  0.00  0.00     0.039 A 
ATOM     26  C   LIG d   1       3.282  -0.824  -7.749  0.00  0.00    -0.025 A 
ATOM     27  C   LIG d   1       3.395  -0.772  -9.130  0.00  0.00     0.050 A 
ATOM     28  H   LIG d   1       3.428  -1.759  -7.228  0.00  0.00     0.065 H 
ATOM     29  N   LIG d   1       3.676  -1.717 -10.094  0.00  0.00    -0.350 N 
ATOM     30  C   LIG d   1       3.207   0.456  -9.796  0.00  0.00    -0.000 A 
ATOM     31  C   LIG d   1       3.662  -1.138 -11.330  0.00  0.00     0.005 A 
ATOM     32  C   LIG d   1       3.384   0.174 -11.220  0.00  0.00    -0.036 A 
ATOM     33  H   LIG d   1       3.847  -1.655 -12.259  0.00  0.00     0.081 H 
ATOM     34  H   LIG d   1       3.308   0.884 -12.030  0.00  0.00     0.064 H 
ATOM     35  C   LIG d   1       2.908   1.612  -9.068  0.00  0.00    -0.052 A 
ATOM     36  C   LIG d   1       2.790   1.550  -7.711  0.00  0.00    -0.049 A 
ATOM     37  H   LIG d   1       2.760   2.550  -9.581  0.00  0.00     0.062 H 
ATOM     38  H   LIG d   1       2.557   2.444  -7.152  0.00  0.00     0.062 H 
BRANCH  29  39
ATOM     39  C   LIG d   1       3.944  -3.133  -9.831  0.00  0.00     0.012 C 
ATOM     40  H   LIG d   1       4.949  -3.382 -10.174  0.00  0.00     0.046 H 
ATOM     41  H   LIG d   1       3.868  -3.325  -8.761  0.00  0.00     0.046 H 
ATOM     42  H   LIG d   1       3.216  -3.745 -10.363  0.00  0.00     0.046 H 
ENDBRANCH  29  39
ENDBRANCH   1  25
TORSDOF 10
ENDMDL
MODEL 2
REMARK VINA RESULT:      -5.3      2.420      2.974
REMARK  10 active torsions:
REMARK  status: ('A' for Active; 'I' for Inactive)
REMARK    1  A    between atoms: C_1  and  N_2 
REMARK    2  A    between atoms: C_8  and  C_11 
REMARK       I    between atoms: C_11  and  N_13 
REMARK    3  A    between atoms: N_13  and  C_14 
REMARK    4  A    between atoms: C_14  and  C_16 
REMARK    5  A    between atoms: C_14  and  C_20 
REMARK    6  A    between atoms: C_16  and  C_17 
REMARK    7  A    between atoms: C_17  and  S_18 
REMARK    8  A    between atoms: S_18  and  C_19 
REMARK    9  A    between atoms: C_20  and  O_22 
REMARK   10  A    between atoms: O_22  and  C_23 
ROOT
ATOM      1  C   LIG d   1       4.281  -0.690  -6.345  0.00  0.00     0.245 C 
ATOM      2  O   LIG d   1       5.095   0.182  -6.110  0.00  0.00    -0.270 OA
ATOM      3  N   LIG d   1       4.097  -1.695  -5.467  0.00  0.00    -0.298 N 
ATOM      4  H   LIG d   1       3.447  -2.391  -5.654  0.00  0.00     0.150 HD
ENDROOT
BRANCH   3   5
ATOM      5  C   LIG d   1       4.879  -1.739  -4.229  0.00  0.00     0.121 C 
ATOM      6  H   LIG d   1       5.383  -0.783  -4.084  0.00  0.00     0.061 H 
BRANCH   5   7
ATOM      7  C   LIG d   1       3.946  -2.008  -3.046  0.00  0.00    -0.015 C 
ATOM      8  H   LIG d   1       2.923  -1.760  -3.327  0.00  0.00     0.030 H 
ATOM      9  H   LIG d   1       4.003  -3.062  -2.772  0.00  0.00     0.030 H 
BRANCH   7  10
ATOM     10  C   LIG d   1       4.372  -1.147  -1.855  0.00  0.00    -0.004 C 
ATOM     11  H   LIG d   1       3.502  -0.928  -1.236  0.00  0.00     0.038 H 
ATOM     12  H   LIG d   1       5.112  -1.686  -1.265  0.00  0.00     0.038 H 
BRANCH  10  13
ATOM     13  S   LIG d   1       5.094   0.404  -2.458  0.00  0.00    -0.164 SA
BRANCH  13  14
ATOM     14  C   LIG d   1       3.657   1.474  -2.744  0.00  0.00    -0.018 C 
ATOM     15  H   LIG d   1       3.839   2.100  -3.618  0.00  0.00     0.034 H 
ATOM     16  H   LIG d   1       2.774   0.859  -2.916  0.00  0.00     0.034 H 
ATOM     17  H   LIG d   1       3.495   2.106  -1.871  0.00  0.00     0.034 H 
ENDBRANCH  13  14
ENDBRANCH  10  13
ENDBRANCH   7  10
ENDBRANCH   5   7
BRANCH   5  18
ATOM     18  C   LIG d   1       5.904  -2.839  -4.321  0.00  0.00     0.327 C 
ATOM     19  O   LIG d   1       5.602  -3.909  -4.792  0.00  0.00    -0.249 OA
BRANCH  18  20
ATOM     20  O   LIG d   1       7.155  -2.629  -3.879  0.00  0.00    -0.467 OA
BRANCH  20  21
ATOM     21  C   LIG d   1       7.904  -1.594  -4.520  0.00  0.00     0.082 C 
ATOM     22  H   LIG d   1       8.530  -2.028  -5.300  0.00  0.00     0.066 H 
ATOM     23  H   LIG d   1       7.218  -0.872  -4.965  0.00  0.00     0.066 H 
ATOM     24  H   LIG d   1       8.533  -1.093  -3.786  0.00  0.00     0.066 H 
ENDBRANCH  20  21
ENDBRANCH  18  20
ENDBRANCH   5  18
ENDBRANCH   3   5
BRANCH   1  25
ATOM     25  C   LIG d   1       3.494  -0.647  -7.592  0.00  0.00     0.039 A 
ATOM     26  C   LIG d   1       3.248  -1.824  -8.297  0.00  0.00    -0.025 A 
ATOM     27  C   LIG d   1       2.508  -1.780  -9.469  0.00  0.00     0.050 A 
ATOM     28  H   LIG d   1       3.633  -2.765  -7.933  0.00  0.00     0.065 H 
ATOM     29  N   LIG d   1       2.104  -2.742 -10.370  0.00  0.00    -0.350 N 
ATOM     30  C   LIG d   1       2.016  -0.544  -9.934  0.00  0.00    -0.000 A 
ATOM     31  C   LIG d   1       1.376  -2.164 -11.370  0.00  0.00     0.005 A 
ATOM     32  C   LIG d   1       1.285  -0.837 -11.165  0.00  0.00    -0.036 A 
ATOM     33  H   LIG d   1       0.937  -2.694 -12.203  0.00  0.00     0.081 H 
ATOM     34  H   LIG d   1       0.771  -0.125 -11.793  0.00  0.00     0.064 H 
ATOM     35  C   LIG d   1       2.275   0.630  -9.218  0.00  0.00    -0.052 A 
ATOM     36  C   LIG d   1       2.996   0.576  -8.062  0.00  0.00    -0.049 A 
ATOM     37  H   LIG d   1       1.894   1.575  -9.574  0.00  0.00     0.062 H 
ATOM     38  H   LIG d   1       3.192   1.484  -7.510  0.00  0.00     0.062 H 
BRANCH  29  39
ATOM     39  C   LIG d   1       2.406  -4.172 -10.267  0.00  0.00     0.012 C 
ATOM     40  H   LIG d   1       3.360  -4.377 -10.755  0.00  0.00     0.046 H 
ATOM     41  H   LIG d   1       2.467  -4.456  -9.217  0.00  0.00     0.046 H 
ATOM     42  H   LIG d   1       1.618  -4.745 -10.754  0.00  0.00     0.046 H 
ENDBRANCH  29  39
ENDBRANCH   1  25
TORSDOF 10
ENDMDL
MODEL 3
REMARK VINA RESULT:      -5.2      5.249      7.262
REMARK  10 active torsions:
REMARK  status: ('A' for Active; 'I' for Inactive)
REMARK    1  A    between atoms: C_1  and  N_2 
REMARK    2  A    between atoms: C_8  and  C_11 
REMARK       I    between atoms: C_11  and  N_13 
REMARK    3  A    between atoms: N_13  and  C_14 
REMARK    4  A    between atoms: C_14  and  C_16 
REMARK    5  A    between atoms: C_14  and  C_20 
REMARK    6  A    between atoms: C_16  and  C_17 
REMARK    7  A    between atoms: C_17  and  S_18 
REMARK    8  A    between atoms: S_18  and  C_19 
REMARK    9  A    between atoms: C_20  and  O_22 
REMARK   10  A    between atoms: O_22  and  C_23 
ROOT
ATOM      1  C   LIG d   1       7.904   1.690  -4.042  0.00  0.00     0.245 C 
ATOM      2  O   LIG d   1       7.748   2.481  -4.952  0.00  0.00    -0.270 OA
ATOM      3  N   LIG d   1       9.104   1.586  -3.438  0.00  0.00    -0.298 N 
ATOM      4  H   LIG d   1       9.228   0.955  -2.711  0.00  0.00     0.150 HD
ENDROOT
BRANCH   3   5
ATOM      5  C   LIG d   1      10.222   2.424  -3.878  0.00  0.00     0.121 C 
ATOM      6  H   LIG d   1       9.900   3.051  -4.710  0.00  0.00     0.061 H 
BRANCH   5   7
ATOM      7  C   LIG d   1      10.680   3.312  -2.719  0.00  0.00    -0.015 C 
ATOM      8  H   LIG d   1      10.429   2.833  -1.774  0.00  0.00     0.030 H 
ATOM      9  H   LIG d   1      11.760   3.455  -2.778  0.00  0.00     0.030 H 
BRANCH   7  10
ATOM     10  C   LIG d   1       9.979   4.669  -2.808  0.00  0.00    -0.004 C 
ATOM     11  H   LIG d   1      10.218   5.139  -3.762  0.00  0.00     0.038 H 
ATOM     12  H   LIG d   1       8.902   4.527  -2.731  0.00  0.00     0.038 H 
BRANCH  10  13
ATOM     13  S   LIG d   1      10.547   5.731  -1.451  0.00  0.00    -0.164 SA
BRANCH  13  14
ATOM     14  C   LIG d   1       9.489   7.200  -1.573  0.00  0.00    -0.018 C 
ATOM     15  H   LIG d   1       9.108   7.456  -0.584  0.00  0.00     0.034 H 
ATOM     16  H   LIG d   1      10.070   8.035  -1.965  0.00  0.00     0.034 H 
ATOM     17  H   LIG d   1       8.654   6.992  -2.242  0.00  0.00     0.034 H 
ENDBRANCH  13  14
ENDBRANCH  10  13
ENDBRANCH   7  10
ENDBRANCH   5   7
BRANCH   5  18
ATOM     18  C   LIG d   1      11.363   1.547  -4.322  0.00  0.00     0.327 C 
ATOM     19  O   LIG d   1      11.380   1.100  -5.444  0.00  0.00    -0.249 OA
BRANCH  18  20
ATOM     20  O   LIG d   1      12.361   1.262  -3.471  0.00  0.00    -0.467 OA
BRANCH  20  21
ATOM     21  C   LIG d   1      13.262   0.220  -3.853  0.00  0.00     0.082 C 
ATOM     22  H   LIG d   1      14.146   0.656  -4.318  0.00  0.00     0.066 H 
ATOM     23  H   LIG d   1      13.557  -0.346  -2.969  0.00  0.00     0.066 H 
ATOM     24  H   LIG d   1      12.768  -0.445  -4.562  0.00  0.00     0.066 H 
ENDBRANCH  20  21
ENDBRANCH  18  20
ENDBRANCH   5  18
ENDBRANCH   3   5
BRANCH   1  25
ATOM     25  C   LIG d   1       6.779   0.845  -3.599  0.00  0.00     0.039 A 
ATOM     26  C   LIG d   1       6.684  -0.472  -4.044  0.00  0.00    -0.025 A 
ATOM     27  C   LIG d   1       5.626  -1.264  -3.626  0.00  0.00     0.050 A 
ATOM     28  H   LIG d   1       7.432  -0.874  -4.713  0.00  0.00     0.065 H 
ATOM     29  N   LIG d   1       5.261  -2.568  -3.881  0.00  0.00    -0.350 N 
ATOM     30  C   LIG d   1       4.656  -0.724  -2.757  0.00  0.00    -0.000 A 
ATOM     31  C   LIG d   1       4.114  -2.870  -3.204  0.00  0.00     0.005 A 
ATOM     32  C   LIG d   1       3.697  -1.798  -2.506  0.00  0.00    -0.036 A 
ATOM     33  H   LIG d   1       3.614  -3.827  -3.227  0.00  0.00     0.081 H 
ATOM     34  H   LIG d   1       2.819  -1.742  -1.879  0.00  0.00     0.064 H 
ATOM     35  C   LIG d   1       4.762   0.601  -2.322  0.00  0.00    -0.052 A 
ATOM     36  C   LIG d   1       5.811   1.370  -2.732  0.00  0.00    -0.049 A 
ATOM     37  H   LIG d   1       4.020   1.011  -1.654  0.00  0.00     0.062 H 
ATOM     38  H   LIG d   1       5.891   2.392  -2.392  0.00  0.00     0.062 H 
BRANCH  29  39
ATOM     39  C   LIG d   1       5.997  -3.495  -4.745  0.00  0.00     0.012 C 
ATOM     40  H   LIG d   1       5.390  -3.736  -5.618  0.00  0.00     0.046 H 
ATOM     41  H   LIG d   1       6.928  -3.030  -5.066  0.00  0.00     0.046 H 
ATOM     42  H   LIG d   1       6.218  -4.408  -4.192  0.00  0.00     0.046 H 
ENDBRANCH  29  39
ENDBRANCH   1  25
TORSDOF 10
ENDMDL
MODEL 4
REMARK VINA RESULT:      -5.1      2.870      6.665
REMARK  10 active torsions:
REMARK  status: ('A' for Active; 'I' for Inactive)
REMARK    1  A    between atoms: C_1  and  N_2 
REMARK    2  A    between atoms: C_8  and  C_11 
REMARK       I    between atoms: C_11  and  N_13 
REMARK    3  A    between atoms: N_13  and  C_14 
REMARK    4  A    between atoms: C_14  and  C_16 
REMARK    5  A    between atoms: C_14  and  C_20 
REMARK    6  A    between atoms: C_16  and  C_17 
REMARK    7  A    between atoms: C_17  and  S_18 
REMARK    8  A    between atoms: S_18  and  C_19 
REMARK    9  A    between atoms: C_20  and  O_22 
REMARK   10  A    between atoms: O_22  and  C_23 
ROOT
ATOM      1  C   LIG d   1       2.916   0.583  -7.473  0.00  0.00     0.245 C 
ATOM      2  O   LIG d   1       2.789   1.769  -7.704  0.00  0.00    -0.270 OA
ATOM      3  N   LIG d   1       2.766  -0.318  -8.464  0.00  0.00    -0.298 N 
ATOM      4  H   LIG d   1       2.867  -1.265  -8.280  0.00  0.00     0.150 HD
ENDROOT
BRANCH   3   5
ATOM      5  C   LIG d   1       2.448   0.133  -9.822  0.00  0.00     0.121 C 
ATOM      6  H   LIG d   1       1.824   1.026  -9.771  0.00  0.00     0.061 H 
BRANCH   5   7
ATOM      7  C   LIG d   1       3.744   0.460 -10.566  0.00  0.00    -0.015 C 
ATOM      8  H   LIG d   1       3.534   0.569 -11.630  0.00  0.00     0.030 H 
ATOM      9  H   LIG d   1       4.160   1.391 -10.181  0.00  0.00     0.030 H 
BRANCH   7  10
ATOM     10  C   LIG d   1       4.752  -0.673 -10.358  0.00  0.00    -0.004 C 
ATOM     11  H   LIG d   1       4.466  -1.257  -9.484  0.00  0.00     0.038 H 
ATOM     12  H   LIG d   1       4.763  -1.315 -11.238  0.00  0.00     0.038 H 
BRANCH  10  13
ATOM     13  S   LIG d   1       6.405   0.029 -10.102  0.00  0.00    -0.164 SA
BRANCH  13  14
ATOM     14  C   LIG d   1       6.103   1.507  -9.096  0.00  0.00    -0.018 C 
ATOM     15  H   LIG d   1       7.054   1.985  -8.859  0.00  0.00     0.034 H 
ATOM     16  H   LIG d   1       5.475   2.203  -9.651  0.00  0.00     0.034 H 
ATOM     17  H   LIG d   1       5.601   1.221  -8.172  0.00  0.00     0.034 H 
ENDBRANCH  13  14
ENDBRANCH  10  13
ENDBRANCH   7  10
ENDBRANCH   5   7
BRANCH   5  18
ATOM     18  C   LIG d   1       1.709  -0.956 -10.553  0.00  0.00     0.327 C 
ATOM     19  O   LIG d   1       1.433  -0.821 -11.721  0.00  0.00    -0.249 OA
BRANCH  18  20
ATOM     20  O   LIG d   1       1.355  -2.078  -9.906  0.00  0.00    -0.467 OA
BRANCH  20  21
ATOM     21  C   LIG d   1       1.274  -3.276 -10.683  0.00  0.00     0.082 C 
ATOM     22  H   LIG d   1       0.250  -3.650 -10.668  0.00  0.00     0.066 H 
ATOM     23  H   LIG d   1       1.568  -3.062 -11.710  0.00  0.00     0.066 H 
ATOM     24  H   LIG d   1       1.941  -4.028 -10.262  0.00  0.00     0.066 H 
ENDBRANCH  20  21
ENDBRANCH  18  20
ENDBRANCH   5  18
ENDBRANCH   3   5
BRANCH   1  25
ATOM     25  C   LIG d   1       3.234   0.128  -6.106  0.00  0.00     0.039 A 
ATOM     26  C   LIG d   1       4.390  -0.615  -5.875  0.00  0.00    -0.025 A 
ATOM     27  C   LIG d   1       4.687  -1.041  -4.589  0.00  0.00     0.050 A 
ATOM     28  H   LIG d   1       5.052  -0.859  -6.693  0.00  0.00     0.065 H 
ATOM     29  N   LIG d   1       5.724  -1.772  -4.049  0.00  0.00    -0.350 N 
ATOM     30  C   LIG d   1       3.812  -0.720  -3.532  0.00  0.00    -0.000 A 
ATOM     31  C   LIG d   1       5.541  -1.913  -2.704  0.00  0.00     0.005 A 
ATOM     32  C   LIG d   1       4.404  -1.300  -2.328  0.00  0.00    -0.036 A 
ATOM     33  H   LIG d   1       6.210  -2.439  -2.039  0.00  0.00     0.081 H 
ATOM     34  H   LIG d   1       4.004  -1.247  -1.326  0.00  0.00     0.064 H 
ATOM     35  C   LIG d   1       2.652   0.022  -3.781  0.00  0.00    -0.052 A 
ATOM     36  C   LIG d   1       2.373   0.445  -5.046  0.00  0.00    -0.049 A 
ATOM     37  H   LIG d   1       1.986   0.271  -2.969  0.00  0.00     0.062 H 
ATOM     38  H   LIG d   1       1.479   1.020  -5.234  0.00  0.00     0.062 H 
BRANCH  29  39
ATOM     39  C   LIG d   1       6.857  -2.311  -4.806  0.00  0.00     0.012 C 
ATOM     40  H   LIG d   1       7.775  -1.821  -4.483  0.00  0.00     0.046 H 
ATOM     41  H   LIG d   1       6.936  -3.384  -4.626  0.00  0.00     0.046 H 
ATOM     42  H   LIG d   1       6.702  -2.131  -5.869  0.00  0.00     0.046 H 
ENDBRANCH  29  39
ENDBRANCH   1  25
TORSDOF 10
ENDMDL
MODEL 5
REMARK VINA RESULT:      -5.1      4.295      7.320
REMARK  10 active torsions:
REMARK  status: ('A' for Active; 'I' for Inactive)
REMARK    1  A    between atoms: C_1  and  N_2 
REMARK    2  A    between atoms: C_8  and  C_11 
REMARK       I    between atoms: C_11  and  N_13 
REMARK    3  A    between atoms: N_13  and  C_14 
REMARK    4  A    between atoms: C_14  and  C_16 
REMARK    5  A    between atoms: C_14  and  C_20 
REMARK    6  A    between atoms: C_16  and  C_17 
REMARK    7  A    between atoms: C_17  and  S_18 
REMARK    8  A    between atoms: S_18  and  C_19 
REMARK    9  A    between atoms: C_20  and  O_22 
REMARK   10  A    between atoms: O_22  and  C_23 
ROOT
ATOM      1  C   LIG d   1       5.556  -3.987  -5.034  0.00  0.00     0.245 C 
ATOM      2  O   LIG d   1       6.668  -4.035  -5.522  0.00  0.00    -0.270 OA
ATOM      3  N   LIG d   1       4.663  -4.962  -5.294  0.00  0.00    -0.298 N 
ATOM      4  H   LIG d   1       3.775  -4.924  -4.904  0.00  0.00     0.150 HD
ENDROOT
BRANCH   3   5
ATOM      5  C   LIG d   1       5.032  -6.081  -6.165  0.00  0.00     0.121 C 
ATOM      6  H   LIG d   1       6.019  -5.899  -6.590  0.00  0.00     0.061 H 
BRANCH   5   7
ATOM      7  C   LIG d   1       5.058  -7.375  -5.350  0.00  0.00    -0.015 C 
ATOM      8  H   LIG d   1       4.572  -7.208  -4.389  0.00  0.00     0.030 H 
ATOM      9  H   LIG d   1       4.529  -8.157  -5.894  0.00  0.00     0.030 H 
BRANCH   7  10
ATOM     10  C   LIG d   1       6.509  -7.805  -5.122  0.00  0.00    -0.004 C 
ATOM     11  H   LIG d   1       7.050  -7.004  -4.617  0.00  0.00     0.038 H 
ATOM     12  H   LIG d   1       6.529  -8.702  -4.505  0.00  0.00     0.038 H 
BRANCH  10  13
ATOM     13  S   LIG d   1       7.294  -8.153  -6.720  0.00  0.00    -0.164 SA
BRANCH  13  14
ATOM     14  C   LIG d   1       6.461  -9.656  -7.299  0.00  0.00    -0.018 C 
ATOM     15  H   LIG d   1       5.388  -9.568  -7.121  0.00  0.00     0.034 H 
ATOM     16  H   LIG d   1       6.642  -9.785  -8.366  0.00  0.00     0.034 H 
ATOM     17  H   LIG d   1       6.849 -10.518  -6.757  0.00  0.00     0.034 H 
ENDBRANCH  13  14
ENDBRANCH  10  13
ENDBRANCH   7  10
ENDBRANCH   5   7
BRANCH   5  18
ATOM     18  C   LIG d   1       4.022  -6.206  -7.276  0.00  0.00     0.327 C 
ATOM     19  O   LIG d   1       3.894  -7.256  -7.860  0.00  0.00    -0.249 OA
BRANCH  18  20
ATOM     20  O   LIG d   1       3.265  -5.152  -7.617  0.00  0.00    -0.467 OA
BRANCH  20  21
ATOM     21  C   LIG d   1       3.654  -4.425  -8.785  0.00  0.00     0.082 C 
ATOM     22  H   LIG d   1       4.106  -3.478  -8.490  0.00  0.00     0.066 H 
ATOM     23  H   LIG d   1       4.376  -5.012  -9.353  0.00  0.00     0.066 H 
ATOM     24  H   LIG d   1       2.776  -4.232  -9.401  0.00  0.00     0.066 H 
ENDBRANCH  20  21
ENDBRANCH  18  20
ENDBRANCH   5  18
ENDBRANCH   3   5
BRANCH   1  25
ATOM     25  C   LIG d   1       5.183  -2.860  -4.157  0.00  0.00     0.039 A 
ATOM     26  C   LIG d   1       5.913  -1.674  -4.206  0.00  0.00    -0.025 A 
ATOM     27  C   LIG d   1       5.560  -0.617  -3.381  0.00  0.00     0.050 A 
ATOM     28  H   LIG d   1       6.750  -1.578  -4.882  0.00  0.00     0.065 H 
ATOM     29  N   LIG d   1       6.068   0.651  -3.196  0.00  0.00    -0.350 N 
ATOM     30  C   LIG d   1       4.469  -0.758  -2.500  0.00  0.00    -0.000 A 
ATOM     31  C   LIG d   1       5.339   1.310  -2.249  0.00  0.00     0.005 A 
ATOM     32  C   LIG d   1       4.357   0.514  -1.788  0.00  0.00    -0.036 A 
ATOM     33  H   LIG d   1       5.522   2.321  -1.917  0.00  0.00     0.081 H 
ATOM     34  H   LIG d   1       3.625   0.767  -1.035  0.00  0.00     0.064 H 
ATOM     35  C   LIG d   1       3.749  -1.957  -2.459  0.00  0.00    -0.052 A 
ATOM     36  C   LIG d   1       4.097  -2.988  -3.281  0.00  0.00    -0.049 A 
ATOM     37  H   LIG d   1       2.911  -2.061  -1.787  0.00  0.00     0.062 H 
ATOM     38  H   LIG d   1       3.538  -3.911  -3.249  0.00  0.00     0.062 H 
BRANCH  29  39
ATOM     39  C   LIG d   1       7.216   1.211  -3.914  0.00  0.00     0.012 C 
ATOM     40  H   LIG d   1       7.502   2.159  -3.459  0.00  0.00     0.046 H 
ATOM     41  H   LIG d   1       8.053   0.515  -3.859  0.00  0.00     0.046 H 
ATOM     42  H   LIG d   1       6.947   1.374  -4.958  0.00  0.00     0.046 H 
ENDBRANCH  29  39
ENDBRANCH   1  25
TORSDOF 10
ENDMDL
MODEL 6
REMARK VINA RESULT:      -4.8      5.097      7.094
REMARK  10 active torsions:
REMARK  status: ('A' for Active; 'I' for Inactive)
REMARK    1  A    between atoms: C_1  and  N_2 
REMARK    2  A    between atoms: C_8  and  C_11 
REMARK       I    between atoms: C_11  and  N_13 
REMARK    3  A    between atoms: N_13  and  C_14 
REMARK    4  A    between atoms: C_14  and  C_16 
REMARK    5  A    between atoms: C_14  and  C_20 
REMARK    6  A    between atoms: C_16  and  C_17 
REMARK    7  A    between atoms: C_17  and  S_18 
REMARK    8  A    between atoms: S_18  and  C_19 
REMARK    9  A    between atoms: C_20  and  O_22 
REMARK   10  A    between atoms: O_22  and  C_23 
ROOT
ATOM      1  C   LIG d   1       7.904   1.665  -4.073  0.00  0.00     0.245 C 
ATOM      2  O   LIG d   1       7.677   2.665  -4.726  0.00  0.00    -0.270 OA
ATOM      3  N   LIG d   1       9.174   1.330  -3.771  0.00  0.00    -0.298 N 
ATOM      4  H   LIG d   1       9.355   0.532  -3.250  0.00  0.00     0.150 HD
ENDROOT
BRANCH   3   5
ATOM      5  C   LIG d   1      10.282   2.170  -4.232  0.00  0.00     0.121 C 
ATOM      6  H   LIG d   1       9.893   3.129  -4.576  0.00  0.00     0.061 H 
BRANCH   5   7
ATOM      7  C   LIG d   1      11.260   2.402  -3.079  0.00  0.00    -0.015 C 
ATOM      8  H   LIG d   1      10.804   2.075  -2.145  0.00  0.00     0.030 H 
ATOM      9  H   LIG d   1      12.172   1.831  -3.256  0.00  0.00     0.030 H 
BRANCH   7  10
ATOM     10  C   LIG d   1      11.600   3.891  -2.989  0.00  0.00    -0.004 C 
ATOM     11  H   LIG d   1      12.283   4.058  -2.156  0.00  0.00     0.038 H 
ATOM     12  H   LIG d   1      12.072   4.212  -3.917  0.00  0.00     0.038 H 
BRANCH  10  13
ATOM     13  S   LIG d   1      10.078   4.843  -2.724  0.00  0.00    -0.164 SA
BRANCH  13  14
ATOM     14  C   LIG d   1      10.470   5.913  -1.314  0.00  0.00    -0.018 C 
ATOM     15  H   LIG d   1      10.537   5.310  -0.408  0.00  0.00     0.034 H 
ATOM     16  H   LIG d   1      11.423   6.412  -1.489  0.00  0.00     0.034 H 
ATOM     17  H   LIG d   1       9.685   6.660  -1.196  0.00  0.00     0.034 H 
ENDBRANCH  13  14
ENDBRANCH  10  13
ENDBRANCH   7  10
ENDBRANCH   5   7
BRANCH   5  18
ATOM     18  C   LIG d   1      10.996   1.483  -5.366  0.00  0.00     0.327 C 
ATOM     19  O   LIG d   1      11.744   0.562  -5.140  0.00  0.00    -0.249 OA
BRANCH  18  20
ATOM     20  O   LIG d   1      10.801   1.894  -6.630  0.00  0.00    -0.467 OA
BRANCH  20  21
ATOM     21  C   LIG d   1       9.749   1.260  -7.362  0.00  0.00     0.082 C 
ATOM     22  H   LIG d   1       9.607   1.774  -8.312  0.00  0.00     0.066 H 
ATOM     23  H   LIG d   1      10.014   0.218  -7.549  0.00  0.00     0.066 H 
ATOM     24  H   LIG d   1       8.827   1.302  -6.784  0.00  0.00     0.066 H 
ENDBRANCH  20  21
ENDBRANCH  18  20
ENDBRANCH   5  18
ENDBRANCH   3   5
BRANCH   1  25
ATOM     25  C   LIG d   1       6.788   0.818  -3.609  0.00  0.00     0.039 A 
ATOM     26  C   LIG d   1       6.680  -0.495  -4.063  0.00  0.00    -0.025 A 
ATOM     27  C   LIG d   1       5.631  -1.289  -3.625  0.00  0.00     0.050 A 
ATOM     28  H   LIG d   1       7.410  -0.893  -4.753  0.00  0.00     0.065 H 
ATOM     29  N   LIG d   1       5.257  -2.590  -3.883  0.00  0.00    -0.350 N 
ATOM     30  C   LIG d   1       4.684  -0.755  -2.729  0.00  0.00    -0.000 A 
ATOM     31  C   LIG d   1       4.126  -2.896  -3.181  0.00  0.00     0.005 A 
ATOM     32  C   LIG d   1       3.729  -1.829  -2.463  0.00  0.00    -0.036 A 
ATOM     33  H   LIG d   1       3.625  -3.851  -3.199  0.00  0.00     0.081 H 
ATOM     34  H   LIG d   1       2.867  -1.777  -1.814  0.00  0.00     0.064 H 
ATOM     35  C   LIG d   1       4.803   0.567  -2.285  0.00  0.00    -0.052 A 
ATOM     36  C   LIG d   1       5.843   1.337  -2.714  0.00  0.00    -0.049 A 
ATOM     37  H   LIG d   1       4.079   0.972  -1.595  0.00  0.00     0.062 H 
ATOM     38  H   LIG d   1       5.934   2.356  -2.368  0.00  0.00     0.062 H 
BRANCH  29  39
ATOM     39  C   LIG d   1       5.970  -3.511  -4.772  0.00  0.00     0.012 C 
ATOM     40  H   LIG d   1       5.383  -3.669  -5.677  0.00  0.00     0.046 H 
ATOM     41  H   LIG d   1       6.937  -3.085  -5.036  0.00  0.00     0.046 H 
ATOM     42  H   LIG d   1       6.118  -4.464  -4.264  0.00  0.00     0.046 H 
ENDBRANCH  29  39
ENDBRANCH   1  25
TORSDOF 10
ENDMDL
MODEL 7
REMARK VINA RESULT:      -4.8      3.400      6.896
REMARK  10 active torsions:
REMARK  status: ('A' for Active; 'I' for Inactive)
REMARK    1  A    between atoms: C_1  and  N_2 
REMARK    2  A    between atoms: C_8  and  C_11 
REMARK       I    between atoms: C_11  and  N_13 
REMARK    3  A    between atoms: N_13  and  C_14 
REMARK    4  A    between atoms: C_14  and  C_16 
REMARK    5  A    between atoms: C_14  and  C_20 
REMARK    6  A    between atoms: C_16  and  C_17 
REMARK    7  A    between atoms: C_17  and  S_18 
REMARK    8  A    between atoms: S_18  and  C_19 
REMARK    9  A    between atoms: C_20  and  O_22 
REMARK   10  A    between atoms: O_22  and  C_23 
ROOT
ATOM      1  C   LIG d   1       3.659  -0.726  -7.797  0.00  0.00     0.245 C 
ATOM      2  O   LIG d   1       4.411  -1.616  -8.142  0.00  0.00    -0.270 OA
ATOM      3  N   LIG d   1       2.890  -0.101  -8.710  0.00  0.00    -0.298 N 
ATOM      4  H   LIG d   1       2.289   0.610  -8.435  0.00  0.00     0.150 HD
ENDROOT
BRANCH   3   5
ATOM      5  C   LIG d   1       2.961  -0.493 -10.120  0.00  0.00     0.121 C 
ATOM      6  H   LIG d   1       3.536  -1.415 -10.212  0.00  0.00     0.061 H 
BRANCH   5   7
ATOM      7  C   LIG d   1       1.547  -0.719 -10.658  0.00  0.00    -0.015 C 
ATOM      8  H   LIG d   1       0.821  -0.494  -9.877  0.00  0.00     0.030 H 
ATOM      9  H   LIG d   1       1.375  -0.066 -11.513  0.00  0.00     0.030 H 
BRANCH   7  10
ATOM     10  C   LIG d   1       1.394  -2.179 -11.092  0.00  0.00    -0.004 C 
ATOM     11  H   LIG d   1       2.334  -2.706 -10.932  0.00  0.00     0.038 H 
ATOM     12  H   LIG d   1       0.607  -2.651 -10.505  0.00  0.00     0.038 H 
BRANCH  10  13
ATOM     13  S   LIG d   1       0.956  -2.243 -12.852  0.00  0.00    -0.164 SA
BRANCH  13  14
ATOM     14  C   LIG d   1       0.916  -4.016 -13.229  0.00  0.00    -0.018 C 
ATOM     15  H   LIG d   1       1.470  -4.563 -12.464  0.00  0.00     0.034 H 
ATOM     16  H   LIG d   1      -0.118  -4.362 -13.245  0.00  0.00     0.034 H 
ATOM     17  H   LIG d   1       1.372  -4.191 -14.203  0.00  0.00     0.034 H 
ENDBRANCH  13  14
ENDBRANCH  10  13
ENDBRANCH   7  10
ENDBRANCH   5   7
BRANCH   5  18
ATOM     18  C   LIG d   1       3.632   0.599 -10.912  0.00  0.00     0.327 C 
ATOM     19  O   LIG d   1       4.177   0.339 -11.957  0.00  0.00    -0.249 OA
BRANCH  18  20
ATOM     20  O   LIG d   1       3.623   1.861 -10.455  0.00  0.00    -0.467 OA
BRANCH  20  21
ATOM     21  C   LIG d   1       4.680   2.237  -9.568  0.00  0.00     0.082 C 
ATOM     22  H   LIG d   1       4.592   3.296  -9.326  0.00  0.00     0.066 H 
ATOM     23  H   LIG d   1       4.613   1.648  -8.654  0.00  0.00     0.066 H 
ATOM     24  H   LIG d   1       5.640   2.053 -10.050  0.00  0.00     0.066 H 
ENDBRANCH  20  21
ENDBRANCH  18  20
ENDBRANCH   5  18
ENDBRANCH   3   5
BRANCH   1  25
ATOM     25  C   LIG d   1       3.587  -0.329  -6.377  0.00  0.00     0.039 A 
ATOM     26  C   LIG d   1       4.578  -0.746  -5.491  0.00  0.00    -0.025 A 
ATOM     27  C   LIG d   1       4.508  -0.372  -4.158  0.00  0.00     0.050 A 
ATOM     28  H   LIG d   1       5.397  -1.359  -5.840  0.00  0.00     0.065 H 
ATOM     29  N   LIG d   1       5.309  -0.616  -3.062  0.00  0.00    -0.350 N 
ATOM     30  C   LIG d   1       3.432   0.423  -3.716  0.00  0.00    -0.000 A 
ATOM     31  C   LIG d   1       4.787  -0.002  -1.960  0.00  0.00     0.005 A 
ATOM     32  C   LIG d   1       3.653   0.644  -2.287  0.00  0.00    -0.036 A 
ATOM     33  H   LIG d   1       5.220  -0.030  -0.972  0.00  0.00     0.081 H 
ATOM     34  H   LIG d   1       3.024   1.215  -1.621  0.00  0.00     0.064 H 
ATOM     35  C   LIG d   1       2.442   0.830  -4.616  0.00  0.00    -0.052 A 
ATOM     36  C   LIG d   1       2.524   0.465  -5.927  0.00  0.00    -0.049 A 
ATOM     37  H   LIG d   1       1.621   1.443  -4.276  0.00  0.00     0.062 H 
ATOM     38  H   LIG d   1       1.760   0.783  -6.621  0.00  0.00     0.062 H 
BRANCH  29  39
ATOM     39  C   LIG d   1       6.540  -1.410  -3.079  0.00  0.00     0.012 C 
ATOM     40  H   LIG d   1       6.340  -2.380  -3.536  0.00  0.00     0.046 H 
ATOM     41  H   LIG d   1       7.302  -0.887  -3.657  0.00  0.00     0.046 H 
ATOM     42  H   LIG d   1       6.893  -1.555  -2.058  0.00  0.00     0.046 H 
ENDBRANCH  29  39
ENDBRANCH   1  25
TORSDOF 10
ENDMDL
MODEL 8
REMARK VINA RESULT:      -4.7      5.635      7.438
REMARK  10 active torsions:
REMARK  status: ('A' for Active; 'I' for Inactive)
REMARK    1  A    between atoms: C_1  and  N_2 
REMARK    2  A    between atoms: C_8  and  C_11 
REMARK       I    between atoms: C_11  and  N_13 
REMARK    3  A    between atoms: N_13  and  C_14 
REMARK    4  A    between atoms: C_14  and  C_16 
REMARK    5  A    between atoms: C_14  and  C_20 
REMARK    6  A    between atoms: C_16  and  C_17 
REMARK    7  A    between atoms: C_17  and  S_18 
REMARK    8  A    between atoms: S_18  and  C_19 
REMARK    9  A    between atoms: C_20  and  O_22 
REMARK   10  A    between atoms: O_22  and  C_23 
ROOT
ATOM      1  C   LIG d   1       8.614   0.978  -4.287  0.00  0.00     0.245 C 
ATOM      2  O   LIG d   1       9.561   0.591  -4.944  0.00  0.00    -0.270 OA
ATOM      3  N   LIG d   1       8.576   2.249  -3.842  0.00  0.00    -0.298 N 
ATOM      4  H   LIG d   1       7.820   2.558  -3.318  0.00  0.00     0.150 HD
ENDROOT
BRANCH   3   5
ATOM      5  C   LIG d   1       9.677   3.166  -4.149  0.00  0.00     0.121 C 
ATOM      6  H   LIG d   1      10.469   2.623  -4.665  0.00  0.00     0.061 H 
BRANCH   5   7
ATOM      7  C   LIG d   1       9.165   4.295  -5.047  0.00  0.00    -0.015 C 
ATOM      8  H   LIG d   1       8.330   3.932  -5.644  0.00  0.00     0.030 H 
ATOM      9  H   LIG d   1       8.834   5.129  -4.428  0.00  0.00     0.030 H 
BRANCH   7  10
ATOM     10  C   LIG d   1      10.292   4.761  -5.972  0.00  0.00    -0.004 C 
ATOM     11  H   LIG d   1      11.239   4.733  -5.433  0.00  0.00     0.038 H 
ATOM     12  H   LIG d   1      10.345   4.103  -6.838  0.00  0.00     0.038 H 
BRANCH  10  13
ATOM     13  S   LIG d   1       9.958   6.458  -6.522  0.00  0.00    -0.164 SA
BRANCH  13  14
ATOM     14  C   LIG d   1       9.657   7.367  -4.981  0.00  0.00    -0.018 C 
ATOM     15  H   LIG d   1       9.293   8.368  -5.215  0.00  0.00     0.034 H 
ATOM     16  H   LIG d   1       8.912   6.839  -4.386  0.00  0.00     0.034 H 
ATOM     17  H   LIG d   1      10.586   7.441  -4.416  0.00  0.00     0.034 H 
ENDBRANCH  13  14
ENDBRANCH  10  13
ENDBRANCH   7  10
ENDBRANCH   5   7
BRANCH   5  18
ATOM     18  C   LIG d   1      10.217   3.748  -2.869  0.00  0.00     0.327 C 
ATOM     19  O   LIG d   1      11.032   3.134  -2.223  0.00  0.00    -0.249 OA
BRANCH  18  20
ATOM     20  O   LIG d   1       9.794   4.950  -2.446  0.00  0.00    -0.467 OA
BRANCH  20  21
ATOM     21  C   LIG d   1      10.703   5.715  -1.651  0.00  0.00     0.082 C 
ATOM     22  H   LIG d   1      10.220   5.994  -0.714  0.00  0.00     0.066 H 
ATOM     23  H   LIG d   1      11.590   5.117  -1.438  0.00  0.00     0.066 H 
ATOM     24  H   LIG d   1      10.991   6.615  -2.193  0.00  0.00     0.066 H 
ENDBRANCH  20  21
ENDBRANCH  18  20
ENDBRANCH   5  18
ENDBRANCH   3   5
BRANCH   1  25
ATOM     25  C   LIG d   1       7.505   0.055  -3.977  0.00  0.00     0.039 A 
ATOM     26  C   LIG d   1       6.300   0.559  -3.494  0.00  0.00    -0.025 A 
ATOM     27  C   LIG d   1       5.259  -0.311  -3.203  0.00  0.00     0.050 A 
ATOM     28  H   LIG d   1       6.175   1.621  -3.345  0.00  0.00     0.065 H 
ATOM     29  N   LIG d   1       3.979  -0.131  -2.724  0.00  0.00    -0.350 N 
ATOM     30  C   LIG d   1       5.438  -1.696  -3.398  0.00  0.00    -0.000 A 
ATOM     31  C   LIG d   1       3.348  -1.337  -2.620  0.00  0.00     0.005 A 
ATOM     32  C   LIG d   1       4.175  -2.324  -3.012  0.00  0.00    -0.036 A 
ATOM     33  H   LIG d   1       2.335  -1.479  -2.274  0.00  0.00     0.081 H 
ATOM     34  H   LIG d   1       3.949  -3.379  -3.035  0.00  0.00     0.064 H 
ATOM     35  C   LIG d   1       6.656  -2.187  -3.879  0.00  0.00    -0.052 A 
ATOM     36  C   LIG d   1       7.670  -1.324  -4.170  0.00  0.00    -0.049 A 
ATOM     37  H   LIG d   1       6.789  -3.247  -4.031  0.00  0.00     0.062 H 
ATOM     38  H   LIG d   1       8.608  -1.705  -4.544  0.00  0.00     0.062 H 
BRANCH  29  39
ATOM     39  C   LIG d   1       3.383   1.163  -2.384  0.00  0.00     0.012 C 
ATOM     40  H   LIG d   1       3.930   1.960  -2.889  0.00  0.00     0.046 H 
ATOM     41  H   LIG d   1       2.341   1.179  -2.704  0.00  0.00     0.046 H 
ATOM     42  H   LIG d   1       3.435   1.314  -1.306  0.00  0.00     0.046 H 
ENDBRANCH  29  39
ENDBRANCH   1  25
TORSDOF 10
ENDMDL
MODEL 9
REMARK VINA RESULT:      -4.6      5.485      7.623
REMARK  10 active torsions:
REMARK  status: ('A' for Active; 'I' for Inactive)
REMARK    1  A    between atoms: C_1  and  N_2 
REMARK    2  A    between atoms: C_8  and  C_11 
REMARK       I    between atoms: C_11  and  N_13 
REMARK    3  A    between atoms: N_13  and  C_14 
REMARK    4  A    between atoms: C_14  and  C_16 
REMARK    5  A    between atoms: C_14  and  C_20 
REMARK    6  A    between atoms: C_16  and  C_17 
REMARK    7  A    between atoms: C_17  and  S_18 
REMARK    8  A    between atoms: S_18  and  C_19 
REMARK    9  A    between atoms: C_20  and  O_22 
REMARK   10  A    between atoms: O_22  and  C_23 
ROOT
ATOM      1  C   LIG d   1       8.384   1.518  -4.200  0.00  0.00     0.245 C 
ATOM      2  O   LIG d   1       8.083   2.449  -4.922  0.00  0.00    -0.270 OA
ATOM      3  N   LIG d   1       9.608   1.466  -3.640  0.00  0.00    -0.298 N 
ATOM      4  H   LIG d   1       9.848   0.724  -3.063  0.00  0.00     0.150 HD
ENDROOT
BRANCH   3   5
ATOM      5  C   LIG d   1      10.580   2.532  -3.903  0.00  0.00     0.121 C 
ATOM      6  H   LIG d   1      10.212   3.167  -4.709  0.00  0.00     0.061 H 
BRANCH   5   7
ATOM      7  C   LIG d   1      10.770   3.371  -2.638  0.00  0.00    -0.015 C 
ATOM      8  H   LIG d   1      10.384   2.825  -1.779  0.00  0.00     0.030 H 
ATOM      9  H   LIG d   1      11.831   3.574  -2.493  0.00  0.00     0.030 H 
BRANCH   7  10
ATOM     10  C   LIG d   1      10.014   4.694  -2.786  0.00  0.00    -0.004 C 
ATOM     11  H   LIG d   1      10.271   5.154  -3.739  0.00  0.00     0.038 H 
ATOM     12  H   LIG d   1       8.942   4.505  -2.749  0.00  0.00     0.038 H 
BRANCH  10  13
ATOM     13  S   LIG d   1      10.477   5.808  -1.431  0.00  0.00    -0.164 SA
BRANCH  13  14
ATOM     14  C   LIG d   1       9.381   7.237  -1.645  0.00  0.00    -0.018 C 
ATOM     15  H   LIG d   1       8.795   7.112  -2.557  0.00  0.00     0.034 H 
ATOM     16  H   LIG d   1       8.710   7.313  -0.790  0.00  0.00     0.034 H 
ATOM     17  H   LIG d   1       9.978   8.146  -1.719  0.00  0.00     0.034 H 
ENDBRANCH  13  14
ENDBRANCH  10  13
ENDBRANCH   7  10
ENDBRANCH   5   7
BRANCH   5  18
ATOM     18  C   LIG d   1      11.897   1.922  -4.305  0.00  0.00     0.327 C 
ATOM     19  O   LIG d   1      12.651   2.533  -5.025  0.00  0.00    -0.249 OA
BRANCH  18  20
ATOM     20  O   LIG d   1      12.234   0.700  -3.862  0.00  0.00    -0.467 OA
BRANCH  20  21
ATOM     21  C   LIG d   1      12.722  -0.229  -4.834  0.00  0.00     0.082 C 
ATOM     22  H   LIG d   1      12.562  -1.246  -4.476  0.00  0.00     0.066 H 
ATOM     23  H   LIG d   1      12.188  -0.085  -5.773  0.00  0.00     0.066 H 
ATOM     24  H   LIG d   1      13.787  -0.063  -4.992  0.00  0.00     0.066 H 
ENDBRANCH  20  21
ENDBRANCH  18  20
ENDBRANCH   5  18
ENDBRANCH   3   5
BRANCH   1  25
ATOM     25  C   LIG d   1       7.407   0.444  -3.935  0.00  0.00     0.039 A 
ATOM     26  C   LIG d   1       6.142   0.764  -3.446  0.00  0.00    -0.025 A 
ATOM     27  C   LIG d   1       5.226  -0.247  -3.199  0.00  0.00     0.050 A 
ATOM     28  H   LIG d   1       5.876   1.794  -3.260  0.00  0.00     0.065 H 
ATOM     29  N   LIG d   1       3.931  -0.257  -2.727  0.00  0.00    -0.350 N 
ATOM     30  C   LIG d   1       5.588  -1.587  -3.443  0.00  0.00    -0.000 A 
ATOM     31  C   LIG d   1       3.466  -1.540  -2.674  0.00  0.00     0.005 A 
ATOM     32  C   LIG d   1       4.419  -2.392  -3.093  0.00  0.00    -0.036 A 
ATOM     33  H   LIG d   1       2.479  -1.828  -2.344  0.00  0.00     0.081 H 
ATOM     34  H   LIG d   1       4.336  -3.466  -3.158  0.00  0.00     0.064 H 
ATOM     35  C   LIG d   1       6.864  -1.893  -3.929  0.00  0.00    -0.052 A 
ATOM     36  C   LIG d   1       7.755  -0.891  -4.178  0.00  0.00    -0.049 A 
ATOM     37  H   LIG d   1       7.138  -2.919  -4.119  0.00  0.00     0.062 H 
ATOM     38  H   LIG d   1       8.738  -1.130  -4.556  0.00  0.00     0.062 H 
BRANCH  29  39
ATOM     39  C   LIG d   1       3.165   0.932  -2.345  0.00  0.00     0.012 C 
ATOM     40  H   LIG d   1       3.255   1.688  -3.125  0.00  0.00     0.046 H 
ATOM     41  H   LIG d   1       2.116   0.664  -2.218  0.00  0.00     0.046 H 
ATOM     42  H   LIG d   1       3.554   1.329  -1.407  0.00  0.00     0.046 H 
ENDBRANCH  29  39
ENDBRANCH   1  25
TORSDOF 10
ENDMDL
