MODEL 1
REMARK VINA RESULT:      -5.5      0.000      0.000
REMARK  9 active torsions:
REMARK  status: ('A' for Active; 'I' for Inactive)
REMARK    1  A    between atoms: C_1  and  O_2 
REMARK    2  A    between atoms: O_2  and  C_3 
REMARK    3  A    between atoms: C_6  and  C_11 
REMARK    4  A    between atoms: C_8  and  O_9 
REMARK    5  A    between atoms: O_9  and  C_10 
REMARK    6  A    between atoms: C_11  and  C_12 
REMARK    7  A    between atoms: C_12  and  C_14 
REMARK    8  A    between atoms: C_17  and  O_21 
REMARK    9  A    between atoms: C_19  and  O_20 
ROOT
ATOM      1  C   LIG d   1       9.323  -5.158  -3.528  0.00  0.00     0.162 A 
ATOM      2  C   LIG d   1       9.040  -3.847  -3.177  0.00  0.00    -0.016 A 
ATOM      3  C   LIG d   1       8.023  -3.164  -3.819  0.00  0.00    -0.054 A 
ATOM      4  C   LIG d   1       7.288  -3.786  -4.811  0.00  0.00    -0.036 A 
ATOM      5  C   LIG d   1       7.565  -5.092  -5.166  0.00  0.00    -0.013 A 
ATOM      6  C   LIG d   1       8.586  -5.781  -4.531  0.00  0.00     0.162 A 
ATOM      7  H   LIG d   1       9.612  -3.360  -2.402  0.00  0.00     0.066 H 
ATOM      8  H   LIG d   1       7.803  -2.144  -3.544  0.00  0.00     0.062 H 
ATOM      9  H   LIG d   1       6.988  -5.575  -5.941  0.00  0.00     0.066 H 
ENDROOT
BRANCH   4  10
ATOM     10  C   LIG d   1       6.180  -3.037  -5.507  0.00  0.00     0.036 C 
ATOM     11  H   LIG d   1       6.485  -2.003  -5.667  0.00  0.00     0.039 H 
ATOM     12  H   LIG d   1       5.972  -3.507  -6.468  0.00  0.00     0.039 H 
BRANCH  10  13
ATOM     13  C   LIG d   1       4.939  -3.069  -4.652  0.00  0.00     0.171 C 
ATOM     14  O   LIG d   1       4.298  -4.094  -4.552  0.00  0.00    -0.292 OA
BRANCH  13  15
ATOM     15  C   LIG d   1       4.508  -1.862  -3.941  0.00  0.00     0.059 A 
ATOM     16  C   LIG d   1       3.813  -0.849  -4.626  0.00  0.00     0.131 A 
ATOM     17  C   LIG d   1       3.406   0.283  -3.941  0.00  0.00     0.022 A 
ATOM     18  C   LIG d   1       3.696   0.418  -2.591  0.00  0.00     0.120 A 
ATOM     19  H   LIG d   1       2.867   1.064  -4.458  0.00  0.00     0.069 H 
ATOM     20  C   LIG d   1       4.390  -0.585  -1.917  0.00  0.00    -0.019 A 
ATOM     21  C   LIG d   1       4.793  -1.709  -2.577  0.00  0.00    -0.044 A 
ATOM     22  H   LIG d   1       4.612  -0.471  -0.866  0.00  0.00     0.065 H 
ATOM     23  H   LIG d   1       5.330  -2.482  -2.048  0.00  0.00     0.063 H 
BRANCH  16  24
ATOM     24  O   LIG d   1       3.536  -0.984  -5.946  0.00  0.00    -0.506 OA
ATOM     25  H   LIG d   1       3.764  -0.210  -6.478  0.00  0.00     0.292 HD
ENDBRANCH  16  24
BRANCH  18  26
ATOM     26  O   LIG d   1       3.301   1.531  -1.923  0.00  0.00    -0.507 OA
ATOM     27  H   LIG d   1       2.412   1.833  -2.155  0.00  0.00     0.292 HD
ENDBRANCH  18  26
ENDBRANCH  13  15
ENDBRANCH  10  13
ENDBRANCH   4  10
BRANCH   6  28
ATOM     28  O   LIG d   1       8.864  -7.065  -4.882  0.00  0.00    -0.491 OA
BRANCH  28  29
ATOM     29  C   LIG d   1       8.033  -8.084  -4.325  0.00  0.00     0.079 C 
ATOM     30  H   LIG d   1       8.301  -9.048  -4.757  0.00  0.00     0.066 H 
ATOM     31  H   LIG d   1       8.171  -8.118  -3.245  0.00  0.00     0.066 H 
ATOM     32  H   LIG d   1       6.989  -7.864  -4.551  0.00  0.00     0.066 H 
ENDBRANCH  28  29
ENDBRANCH   6  28
BRANCH   1  33
ATOM     33  O   LIG d   1      10.323  -5.831  -2.898  0.00  0.00    -0.491 OA
BRANCH  33  34
ATOM     34  C   LIG d   1      10.063  -6.279  -1.566  0.00  0.00     0.079 C 
ATOM     35  H   LIG d   1      10.970  -6.186  -0.969  0.00  0.00     0.066 H 
ATOM     36  H   LIG d   1       9.274  -5.670  -1.125  0.00  0.00     0.066 H 
ATOM     37  H   LIG d   1       9.748  -7.322  -1.589  0.00  0.00     0.066 H 
ENDBRANCH  33  34
ENDBRANCH   1  33
TORSDOF 9
ENDMDL
MODEL 2
REMARK VINA RESULT:      -5.5      1.678      6.779
REMARK  9 active torsions:
REMARK  status: ('A' for Active; 'I' for Inactive)
REMARK    1  A    between atoms: C_1  and  O_2 
REMARK    2  A    between atoms: O_2  and  C_3 
REMARK    3  A    between atoms: C_6  and  C_11 
REMARK    4  A    between atoms: C_8  and  O_9 
REMARK    5  A    between atoms: O_9  and  C_10 
REMARK    6  A    between atoms: C_11  and  C_12 
REMARK    7  A    between atoms: C_12  and  C_14 
REMARK    8  A    between atoms: C_17  and  O_21 
REMARK    9  A    between atoms: C_19  and  O_20 
ROOT
ATOM      1  C   LIG d   1       3.613  -0.691  -3.592  0.00  0.00     0.162 A 
ATOM      2  C   LIG d   1       3.995  -1.808  -2.867  0.00  0.00    -0.016 A 
ATOM      3  C   LIG d   1       4.629  -2.861  -3.501  0.00  0.00    -0.054 A 
ATOM      4  C   LIG d   1       4.884  -2.801  -4.858  0.00  0.00    -0.036 A 
ATOM      5  C   LIG d   1       4.506  -1.689  -5.588  0.00  0.00    -0.013 A 
ATOM      6  C   LIG d   1       3.865  -0.634  -4.960  0.00  0.00     0.162 A 
ATOM      7  H   LIG d   1       3.797  -1.856  -1.806  0.00  0.00     0.066 H 
ATOM      8  H   LIG d   1       4.925  -3.730  -2.935  0.00  0.00     0.062 H 
ATOM      9  H   LIG d   1       4.707  -1.645  -6.648  0.00  0.00     0.066 H 
ENDROOT
BRANCH   4  10
ATOM     10  C   LIG d   1       5.576  -3.951  -5.545  0.00  0.00     0.036 C 
ATOM     11  H   LIG d   1       5.426  -4.862  -4.967  0.00  0.00     0.039 H 
ATOM     12  H   LIG d   1       5.160  -4.081  -6.543  0.00  0.00     0.039 H 
BRANCH  10  13
ATOM     13  C   LIG d   1       7.051  -3.657  -5.649  0.00  0.00     0.171 C 
ATOM     14  O   LIG d   1       7.469  -2.959  -6.548  0.00  0.00    -0.292 OA
BRANCH  13  15
ATOM     15  C   LIG d   1       7.980  -4.216  -4.663  0.00  0.00     0.059 A 
ATOM     16  C   LIG d   1       8.515  -3.397  -3.653  0.00  0.00     0.131 A 
ATOM     17  C   LIG d   1       9.387  -3.938  -2.724  0.00  0.00     0.022 A 
ATOM     18  C   LIG d   1       9.737  -5.279  -2.801  0.00  0.00     0.120 A 
ATOM     19  H   LIG d   1       9.799  -3.317  -1.942  0.00  0.00     0.069 H 
ATOM     20  C   LIG d   1       9.209  -6.086  -3.806  0.00  0.00    -0.019 A 
ATOM     21  C   LIG d   1       8.344  -5.569  -4.726  0.00  0.00    -0.044 A 
ATOM     22  H   LIG d   1       9.488  -7.129  -3.859  0.00  0.00     0.065 H 
ATOM     23  H   LIG d   1       7.940  -6.201  -5.502  0.00  0.00     0.063 H 
BRANCH  16  24
ATOM     24  O   LIG d   1       8.173  -2.087  -3.585  0.00  0.00    -0.506 OA
ATOM     25  H   LIG d   1       8.911  -1.479  -3.730  0.00  0.00     0.292 HD
ENDBRANCH  16  24
BRANCH  18  26
ATOM     26  O   LIG d   1      10.595  -5.806  -1.893  0.00  0.00    -0.507 OA
ATOM     27  H   LIG d   1      10.704  -5.268  -1.097  0.00  0.00     0.292 HD
ENDBRANCH  18  26
ENDBRANCH  13  15
ENDBRANCH  10  13
ENDBRANCH   4  10
BRANCH   6  28
ATOM     28  O   LIG d   1       3.488   0.459  -5.677  0.00  0.00    -0.491 OA
BRANCH  28  29
ATOM     29  C   LIG d   1       2.992   0.229  -6.996  0.00  0.00     0.079 C 
ATOM     30  H   LIG d   1       2.691   1.177  -7.442  0.00  0.00     0.066 H 
ATOM     31  H   LIG d   1       3.771  -0.228  -7.605  0.00  0.00     0.066 H 
ATOM     32  H   LIG d   1       2.131  -0.438  -6.948  0.00  0.00     0.066 H 
ENDBRANCH  28  29
ENDBRANCH   6  28
BRANCH   1  33
ATOM     33  O   LIG d   1       2.990   0.345  -2.970  0.00  0.00    -0.491 OA
BRANCH  33  34
ATOM     34  C   LIG d   1       3.810   1.234  -2.209  0.00  0.00     0.079 C 
ATOM     35  H   LIG d   1       4.650   1.564  -2.819  0.00  0.00     0.066 H 
ATOM     36  H   LIG d   1       3.222   2.099  -1.903  0.00  0.00     0.066 H 
ATOM     37  H   LIG d   1       4.183   0.716  -1.325  0.00  0.00     0.066 H 
ENDBRANCH  33  34
ENDBRANCH   1  33
TORSDOF 9
ENDMDL
MODEL 3
REMARK VINA RESULT:      -5.3      9.613     11.571
REMARK  9 active torsions:
REMARK  status: ('A' for Active; 'I' for Inactive)
REMARK    1  A    between atoms: C_1  and  O_2 
REMARK    2  A    between atoms: O_2  and  C_3 
REMARK    3  A    between atoms: C_6  and  C_11 
REMARK    4  A    between atoms: C_8  and  O_9 
REMARK    5  A    between atoms: O_9  and  C_10 
REMARK    6  A    between atoms: C_11  and  C_12 
REMARK    7  A    between atoms: C_12  and  C_14 
REMARK    8  A    between atoms: C_17  and  O_21 
REMARK    9  A    between atoms: C_19  and  O_20 
ROOT
ATOM      1  C   LIG d   1      10.664   6.261  -0.454  0.00  0.00     0.162 A 
ATOM      2  C   LIG d   1      11.288   5.120  -0.934  0.00  0.00    -0.016 A 
ATOM      3  C   LIG d   1      10.972   4.637  -2.190  0.00  0.00    -0.054 A 
ATOM      4  C   LIG d   1      10.035   5.288  -2.970  0.00  0.00    -0.036 A 
ATOM      5  C   LIG d   1       9.409   6.427  -2.497  0.00  0.00    -0.013 A 
ATOM      6  C   LIG d   1       9.716   6.913  -1.237  0.00  0.00     0.162 A 
ATOM      7  H   LIG d   1      12.021   4.610  -0.327  0.00  0.00     0.066 H 
ATOM      8  H   LIG d   1      11.459   3.748  -2.562  0.00  0.00     0.062 H 
ATOM      9  H   LIG d   1       8.677   6.934  -3.109  0.00  0.00     0.066 H 
ENDROOT
BRANCH   4  10
ATOM     10  C   LIG d   1       9.696   4.757  -4.339  0.00  0.00     0.036 C 
ATOM     11  H   LIG d   1       9.855   3.680  -4.361  0.00  0.00     0.039 H 
ATOM     12  H   LIG d   1       8.652   4.975  -4.564  0.00  0.00     0.039 H 
BRANCH  10  13
ATOM     13  C   LIG d   1      10.580   5.417  -5.366  0.00  0.00     0.171 C 
ATOM     14  O   LIG d   1      11.754   5.123  -5.435  0.00  0.00    -0.292 OA
BRANCH  13  15
ATOM     15  C   LIG d   1      10.020   6.415  -6.281  0.00  0.00     0.059 A 
ATOM     16  C   LIG d   1       9.860   6.111  -7.646  0.00  0.00     0.131 A 
ATOM     17  C   LIG d   1       9.324   7.061  -8.499  0.00  0.00     0.022 A 
ATOM     18  C   LIG d   1       8.960   8.306  -8.008  0.00  0.00     0.120 A 
ATOM     19  H   LIG d   1       9.194   6.834  -9.547  0.00  0.00     0.069 H 
ATOM     20  C   LIG d   1       9.124   8.606  -6.658  0.00  0.00    -0.019 A 
ATOM     21  C   LIG d   1       9.646   7.679  -5.803  0.00  0.00    -0.044 A 
ATOM     22  H   LIG d   1       8.838   9.578  -6.285  0.00  0.00     0.065 H 
ATOM     23  H   LIG d   1       9.771   7.918  -4.757  0.00  0.00     0.063 H 
BRANCH  16  24
ATOM     24  O   LIG d   1      10.222   4.894  -8.120  0.00  0.00    -0.506 OA
ATOM     25  H   LIG d   1      10.258   4.842  -9.085  0.00  0.00     0.292 HD
ENDBRANCH  16  24
BRANCH  18  26
ATOM     26  O   LIG d   1       8.440   9.236  -8.847  0.00  0.00    -0.507 OA
ATOM     27  H   LIG d   1       8.833  10.114  -8.754  0.00  0.00     0.292 HD
ENDBRANCH  18  26
ENDBRANCH  13  15
ENDBRANCH  10  13
ENDBRANCH   4  10
BRANCH   6  28
ATOM     28  O   LIG d   1       9.097   8.030  -0.768  0.00  0.00    -0.491 OA
BRANCH  28  29
ATOM     29  C   LIG d   1       9.567   9.287  -1.259  0.00  0.00     0.079 C 
ATOM     30  H   LIG d   1      10.623   9.402  -1.015  0.00  0.00     0.066 H 
ATOM     31  H   LIG d   1       9.438   9.327  -2.341  0.00  0.00     0.066 H 
ATOM     32  H   LIG d   1       8.998  10.093  -0.796  0.00  0.00     0.066 H 
ENDBRANCH  28  29
ENDBRANCH   6  28
BRANCH   1  33
ATOM     33  O   LIG d   1      10.973   6.738   0.782  0.00  0.00    -0.491 OA
BRANCH  33  34
ATOM     34  C   LIG d   1      10.985   5.796   1.856  0.00  0.00     0.079 C 
ATOM     35  H   LIG d   1      10.157   6.007   2.533  0.00  0.00     0.066 H 
ATOM     36  H   LIG d   1      10.879   4.788   1.457  0.00  0.00     0.066 H 
ATOM     37  H   LIG d   1      11.927   5.876   2.398  0.00  0.00     0.066 H 
ENDBRANCH  33  34
ENDBRANCH   1  33
TORSDOF 9
ENDMDL
MODEL 4
REMARK VINA RESULT:      -5.2      2.789      5.465
REMARK  9 active torsions:
REMARK  status: ('A' for Active; 'I' for Inactive)
REMARK    1  A    between atoms: C_1  and  O_2 
REMARK    2  A    between atoms: O_2  and  C_3 
REMARK    3  A    between atoms: C_6  and  C_11 
REMARK    4  A    between atoms: C_8  and  O_9 
REMARK    5  A    between atoms: O_9  and  C_10 
REMARK    6  A    between atoms: C_11  and  C_12 
REMARK    7  A    between atoms: C_12  and  C_14 
REMARK    8  A    between atoms: C_17  and  O_21 
REMARK    9  A    between atoms: C_19  and  O_20 
ROOT
ATOM      1  C   LIG d   1       5.664  -1.621  -8.668  0.00  0.00     0.162 A 
ATOM      2  C   LIG d   1       6.895  -2.162  -8.330  0.00  0.00    -0.016 A 
ATOM      3  C   LIG d   1       7.060  -2.799  -7.114  0.00  0.00    -0.054 A 
ATOM      4  C   LIG d   1       5.999  -2.898  -6.233  0.00  0.00    -0.036 A 
ATOM      5  C   LIG d   1       4.769  -2.362  -6.563  0.00  0.00    -0.013 A 
ATOM      6  C   LIG d   1       4.599  -1.717  -7.778  0.00  0.00     0.162 A 
ATOM      7  H   LIG d   1       7.724  -2.086  -9.017  0.00  0.00     0.066 H 
ATOM      8  H   LIG d   1       8.019  -3.219  -6.853  0.00  0.00     0.062 H 
ATOM      9  H   LIG d   1       3.942  -2.442  -5.873  0.00  0.00     0.066 H 
ENDROOT
BRANCH   4  10
ATOM     10  C   LIG d   1       6.185  -3.595  -4.909  0.00  0.00     0.036 C 
ATOM     11  H   LIG d   1       5.222  -3.960  -4.552  0.00  0.00     0.039 H 
ATOM     12  H   LIG d   1       6.868  -4.434  -5.033  0.00  0.00     0.039 H 
BRANCH  10  13
ATOM     13  C   LIG d   1       6.757  -2.624  -3.908  0.00  0.00     0.171 C 
ATOM     14  O   LIG d   1       7.915  -2.721  -3.562  0.00  0.00    -0.292 OA
BRANCH  13  15
ATOM     15  C   LIG d   1       5.914  -1.562  -3.353  0.00  0.00     0.059 A 
ATOM     16  C   LIG d   1       6.396  -0.243  -3.277  0.00  0.00     0.131 A 
ATOM     17  C   LIG d   1       5.587   0.752  -2.756  0.00  0.00     0.022 A 
ATOM     18  C   LIG d   1       4.313   0.442  -2.302  0.00  0.00     0.120 A 
ATOM     19  H   LIG d   1       5.949   1.768  -2.698  0.00  0.00     0.069 H 
ATOM     20  C   LIG d   1       3.840  -0.866  -2.374  0.00  0.00    -0.019 A 
ATOM     21  C   LIG d   1       4.623  -1.857  -2.890  0.00  0.00    -0.044 A 
ATOM     22  H   LIG d   1       2.847  -1.098  -2.018  0.00  0.00     0.065 H 
ATOM     23  H   LIG d   1       4.250  -2.869  -2.942  0.00  0.00     0.063 H 
BRANCH  16  24
ATOM     24  O   LIG d   1       7.644   0.053  -3.718  0.00  0.00    -0.506 OA
ATOM     25  H   LIG d   1       7.830  -0.260  -4.613  0.00  0.00     0.292 HD
ENDBRANCH  16  24
BRANCH  18  26
ATOM     26  O   LIG d   1       3.524   1.418  -1.788  0.00  0.00    -0.507 OA
ATOM     27  H   LIG d   1       3.985   2.023  -1.191  0.00  0.00     0.292 HD
ENDBRANCH  18  26
ENDBRANCH  13  15
ENDBRANCH  10  13
ENDBRANCH   4  10
BRANCH   6  28
ATOM     28  O   LIG d   1       3.390  -1.183  -8.102  0.00  0.00    -0.491 OA
BRANCH  28  29
ATOM     29  C   LIG d   1       3.025   0.037  -7.456  0.00  0.00     0.079 C 
ATOM     30  H   LIG d   1       3.839   0.755  -7.547  0.00  0.00     0.066 H 
ATOM     31  H   LIG d   1       2.128   0.442  -7.923  0.00  0.00     0.066 H 
ATOM     32  H   LIG d   1       2.829  -0.157  -6.401  0.00  0.00     0.066 H 
ENDBRANCH  28  29
ENDBRANCH   6  28
BRANCH   1  33
ATOM     33  O   LIG d   1       5.500  -0.994  -9.863  0.00  0.00    -0.491 OA
BRANCH  33  34
ATOM     34  C   LIG d   1       6.010   0.337  -9.973  0.00  0.00     0.079 C 
ATOM     35  H   LIG d   1       5.240   0.988 -10.385  0.00  0.00     0.066 H 
ATOM     36  H   LIG d   1       6.300   0.697  -8.986  0.00  0.00     0.066 H 
ATOM     37  H   LIG d   1       6.879   0.339 -10.631  0.00  0.00     0.066 H 
ENDBRANCH  33  34
ENDBRANCH   1  33
TORSDOF 9
ENDMDL
MODEL 5
REMARK VINA RESULT:      -5.2      2.905      5.668
REMARK  9 active torsions:
REMARK  status: ('A' for Active; 'I' for Inactive)
REMARK    1  A    between atoms: C_1  and  O_2 
REMARK    2  A    between atoms: O_2  and  C_3 
REMARK    3  A    between atoms: C_6  and  C_11 
REMARK    4  A    between atoms: C_8  and  O_9 
REMARK    5  A    between atoms: O_9  and  C_10 
REMARK    6  A    between atoms: C_11  and  C_12 
REMARK    7  A    between atoms: C_12  and  C_14 
REMARK    8  A    between atoms: C_17  and  O_21 
REMARK    9  A    between atoms: C_19  and  O_20 
ROOT
ATOM      1  C   LIG d   1       5.144  -0.618  -8.091  0.00  0.00     0.162 A 
ATOM      2  C   LIG d   1       4.252  -1.511  -7.518  0.00  0.00    -0.016 A 
ATOM      3  C   LIG d   1       4.683  -2.382  -6.534  0.00  0.00    -0.054 A 
ATOM      4  C   LIG d   1       6.001  -2.364  -6.119  0.00  0.00    -0.036 A 
ATOM      5  C   LIG d   1       6.896  -1.476  -6.686  0.00  0.00    -0.013 A 
ATOM      6  C   LIG d   1       6.473  -0.604  -7.676  0.00  0.00     0.162 A 
ATOM      7  H   LIG d   1       3.222  -1.526  -7.840  0.00  0.00     0.066 H 
ATOM      8  H   LIG d   1       3.987  -3.077  -6.089  0.00  0.00     0.062 H 
ATOM      9  H   LIG d   1       7.925  -1.464  -6.359  0.00  0.00     0.066 H 
ENDROOT
BRANCH   4  10
ATOM     10  C   LIG d   1       6.464  -3.315  -5.045  0.00  0.00     0.036 C 
ATOM     11  H   LIG d   1       5.651  -3.989  -4.781  0.00  0.00     0.039 H 
ATOM     12  H   LIG d   1       7.311  -3.894  -5.413  0.00  0.00     0.039 H 
BRANCH  10  13
ATOM     13  C   LIG d   1       6.884  -2.531  -3.828  0.00  0.00     0.171 C 
ATOM     14  O   LIG d   1       7.953  -2.754  -3.301  0.00  0.00    -0.292 OA
BRANCH  13  15
ATOM     15  C   LIG d   1       5.999  -1.499  -3.282  0.00  0.00     0.059 A 
ATOM     16  C   LIG d   1       6.430  -0.162  -3.213  0.00  0.00     0.131 A 
ATOM     17  C   LIG d   1       5.582   0.805  -2.700  0.00  0.00     0.022 A 
ATOM     18  C   LIG d   1       4.320   0.448  -2.247  0.00  0.00     0.120 A 
ATOM     19  H   LIG d   1       5.903   1.835  -2.648  0.00  0.00     0.069 H 
ATOM     20  C   LIG d   1       3.897  -0.877  -2.310  0.00  0.00    -0.019 A 
ATOM     21  C   LIG d   1       4.720  -1.840  -2.819  0.00  0.00    -0.044 A 
ATOM     22  H   LIG d   1       2.913  -1.145  -1.954  0.00  0.00     0.065 H 
ATOM     23  H   LIG d   1       4.386  -2.866  -2.865  0.00  0.00     0.063 H 
BRANCH  16  24
ATOM     24  O   LIG d   1       7.666   0.179  -3.654  0.00  0.00    -0.506 OA
ATOM     25  H   LIG d   1       7.662   0.751  -4.433  0.00  0.00     0.292 HD
ENDBRANCH  16  24
BRANCH  18  26
ATOM     26  O   LIG d   1       3.492   1.397  -1.740  0.00  0.00    -0.507 OA
ATOM     27  H   LIG d   1       3.248   2.085  -2.373  0.00  0.00     0.292 HD
ENDBRANCH  18  26
ENDBRANCH  13  15
ENDBRANCH  10  13
ENDBRANCH   4  10
BRANCH   6  28
ATOM     28  O   LIG d   1       7.353   0.267  -8.239  0.00  0.00    -0.491 OA
BRANCH  28  29
ATOM     29  C   LIG d   1       7.746   1.391  -7.450  0.00  0.00     0.079 C 
ATOM     30  H   LIG d   1       7.178   1.400  -6.521  0.00  0.00     0.066 H 
ATOM     31  H   LIG d   1       8.811   1.324  -7.226  0.00  0.00     0.066 H 
ATOM     32  H   LIG d   1       7.550   2.309  -8.004  0.00  0.00     0.066 H 
ENDBRANCH  28  29
ENDBRANCH   6  28
BRANCH   1  33
ATOM     33  O   LIG d   1       4.723   0.239  -9.059  0.00  0.00    -0.491 OA
BRANCH  33  34
ATOM     34  C   LIG d   1       3.341   0.601  -9.048  0.00  0.00     0.079 C 
ATOM     35  H   LIG d   1       2.764  -0.182  -8.557  0.00  0.00     0.066 H 
ATOM     36  H   LIG d   1       3.215   1.538  -8.506  0.00  0.00     0.066 H 
ATOM     37  H   LIG d   1       2.990   0.724 -10.072  0.00  0.00     0.066 H 
ENDBRANCH  33  34
ENDBRANCH   1  33
TORSDOF 9
ENDMDL
MODEL 6
REMARK VINA RESULT:      -5.1     11.304     13.794
REMARK  9 active torsions:
REMARK  status: ('A' for Active; 'I' for Inactive)
REMARK    1  A    between atoms: C_1  and  O_2 
REMARK    2  A    between atoms: O_2  and  C_3 
REMARK    3  A    between atoms: C_6  and  C_11 
REMARK    4  A    between atoms: C_8  and  O_9 
REMARK    5  A    between atoms: O_9  and  C_10 
REMARK    6  A    between atoms: C_11  and  C_12 
REMARK    7  A    between atoms: C_12  and  C_14 
REMARK    8  A    between atoms: C_17  and  O_21 
REMARK    9  A    between atoms: C_19  and  O_20 
ROOT
ATOM      1  C   LIG d   1       9.376   8.330  -6.242  0.00  0.00     0.162 A 
ATOM      2  C   LIG d   1       9.527   6.988  -5.928  0.00  0.00    -0.016 A 
ATOM      3  C   LIG d   1       9.943   6.617  -4.663  0.00  0.00    -0.054 A 
ATOM      4  C   LIG d   1      10.210   7.581  -3.709  0.00  0.00    -0.036 A 
ATOM      5  C   LIG d   1      10.062   8.921  -4.015  0.00  0.00    -0.013 A 
ATOM      6  C   LIG d   1       9.650   9.300  -5.283  0.00  0.00     0.162 A 
ATOM      7  H   LIG d   1       9.318   6.234  -6.672  0.00  0.00     0.066 H 
ATOM      8  H   LIG d   1      10.060   5.571  -4.420  0.00  0.00     0.062 H 
ATOM      9  H   LIG d   1      10.270   9.672  -3.267  0.00  0.00     0.066 H 
ENDROOT
BRANCH   4  10
ATOM     10  C   LIG d   1      10.663   7.170  -2.331  0.00  0.00     0.036 C 
ATOM     11  H   LIG d   1      10.637   6.084  -2.249  0.00  0.00     0.039 H 
ATOM     12  H   LIG d   1      11.679   7.524  -2.163  0.00  0.00     0.039 H 
BRANCH  10  13
ATOM     13  C   LIG d   1       9.743   7.775  -1.301  0.00  0.00     0.171 C 
ATOM     14  O   LIG d   1       8.614   7.351  -1.172  0.00  0.00    -0.292 OA
BRANCH  13  15
ATOM     15  C   LIG d   1      10.215   8.874  -0.454  0.00  0.00     0.059 A 
ATOM     16  C   LIG d   1       9.509  10.090  -0.417  0.00  0.00     0.131 A 
ATOM     17  C   LIG d   1       9.962  11.119   0.392  0.00  0.00     0.022 A 
ATOM     18  C   LIG d   1      11.113  10.949   1.149  0.00  0.00     0.120 A 
ATOM     19  H   LIG d   1       9.424  12.054   0.430  0.00  0.00     0.069 H 
ATOM     20  C   LIG d   1      11.812   9.745   1.106  0.00  0.00    -0.019 A 
ATOM     21  C   LIG d   1      11.375   8.720   0.318  0.00  0.00    -0.044 A 
ATOM     22  H   LIG d   1      12.707   9.623   1.698  0.00  0.00     0.065 H 
ATOM     23  H   LIG d   1      11.923   7.790   0.289  0.00  0.00     0.063 H 
BRANCH  16  24
ATOM     24  O   LIG d   1       8.389  10.251  -1.163  0.00  0.00    -0.506 OA
ATOM     25  H   LIG d   1       7.880  11.043  -0.942  0.00  0.00     0.292 HD
ENDBRANCH  16  24
BRANCH  18  26
ATOM     26  O   LIG d   1      11.557  11.960   1.937  0.00  0.00    -0.507 OA
ATOM     27  H   LIG d   1      10.916  12.673   2.061  0.00  0.00     0.292 HD
ENDBRANCH  18  26
ENDBRANCH  13  15
ENDBRANCH  10  13
ENDBRANCH   4  10
BRANCH   6  28
ATOM     28  O   LIG d   1       9.509  10.618  -5.587  0.00  0.00    -0.491 OA
BRANCH  28  29
ATOM     29  C   LIG d   1       9.125  11.492  -4.524  0.00  0.00     0.079 C 
ATOM     30  H   LIG d   1       9.145  10.948  -3.580  0.00  0.00     0.066 H 
ATOM     31  H   LIG d   1       9.818  12.332  -4.475  0.00  0.00     0.066 H 
ATOM     32  H   LIG d   1       8.117  11.864  -4.707  0.00  0.00     0.066 H 
ENDBRANCH  28  29
ENDBRANCH   6  28
BRANCH   1  33
ATOM     33  O   LIG d   1       8.967   8.697  -7.485  0.00  0.00    -0.491 OA
BRANCH  33  34
ATOM     34  C   LIG d   1       9.075   7.717  -8.520  0.00  0.00     0.079 C 
ATOM     35  H   LIG d   1       8.264   6.996  -8.423  0.00  0.00     0.066 H 
ATOM     36  H   LIG d   1       9.013   8.206  -9.492  0.00  0.00     0.066 H 
ATOM     37  H   LIG d   1      10.032   7.202  -8.433  0.00  0.00     0.066 H 
ENDBRANCH  33  34
ENDBRANCH   1  33
TORSDOF 9
ENDMDL
MODEL 7
REMARK VINA RESULT:      -5.1      3.142      5.868
REMARK  9 active torsions:
REMARK  status: ('A' for Active; 'I' for Inactive)
REMARK    1  A    between atoms: C_1  and  O_2 
REMARK    2  A    between atoms: O_2  and  C_3 
REMARK    3  A    between atoms: C_6  and  C_11 
REMARK    4  A    between atoms: C_8  and  O_9 
REMARK    5  A    between atoms: O_9  and  C_10 
REMARK    6  A    between atoms: C_11  and  C_12 
REMARK    7  A    between atoms: C_12  and  C_14 
REMARK    8  A    between atoms: C_17  and  O_21 
REMARK    9  A    between atoms: C_19  and  O_20 
ROOT
ATOM      1  C   LIG d   1       4.270  -0.171  -8.796  0.00  0.00     0.162 A 
ATOM      2  C   LIG d   1       5.276   0.639  -8.292  0.00  0.00    -0.016 A 
ATOM      3  C   LIG d   1       6.193   0.124  -7.394  0.00  0.00    -0.054 A 
ATOM      4  C   LIG d   1       6.108  -1.197  -6.996  0.00  0.00    -0.036 A 
ATOM      5  C   LIG d   1       5.107  -2.011  -7.494  0.00  0.00    -0.013 A 
ATOM      6  C   LIG d   1       4.182  -1.499  -8.391  0.00  0.00     0.162 A 
ATOM      7  H   LIG d   1       5.345   1.671  -8.602  0.00  0.00     0.066 H 
ATOM      8  H   LIG d   1       6.976   0.755  -7.002  0.00  0.00     0.062 H 
ATOM      9  H   LIG d   1       5.044  -3.043  -7.182  0.00  0.00     0.066 H 
ENDROOT
BRANCH   4  10
ATOM     10  C   LIG d   1       7.110  -1.753  -6.017  0.00  0.00     0.036 C 
ATOM     11  H   LIG d   1       7.611  -2.614  -6.458  0.00  0.00     0.039 H 
ATOM     12  H   LIG d   1       7.847  -0.988  -5.777  0.00  0.00     0.039 H 
BRANCH  10  13
ATOM     13  C   LIG d   1       6.398  -2.177  -4.757  0.00  0.00     0.171 C 
ATOM     14  O   LIG d   1       6.485  -3.322  -4.367  0.00  0.00    -0.292 OA
BRANCH  13  15
ATOM     15  C   LIG d   1       5.601  -1.205  -4.005  0.00  0.00     0.059 A 
ATOM     16  C   LIG d   1       4.221  -1.409  -3.825  0.00  0.00     0.131 A 
ATOM     17  C   LIG d   1       3.481  -0.486  -3.107  0.00  0.00     0.022 A 
ATOM     18  C   LIG d   1       4.100   0.639  -2.580  0.00  0.00     0.120 A 
ATOM     19  H   LIG d   1       2.422  -0.638  -2.960  0.00  0.00     0.069 H 
ATOM     20  C   LIG d   1       5.465   0.842  -2.764  0.00  0.00    -0.019 A 
ATOM     21  C   LIG d   1       6.210  -0.062  -3.465  0.00  0.00    -0.044 A 
ATOM     22  H   LIG d   1       5.938   1.721  -2.351  0.00  0.00     0.065 H 
ATOM     23  H   LIG d   1       7.268   0.102  -3.604  0.00  0.00     0.063 H 
BRANCH  16  24
ATOM     24  O   LIG d   1       3.622  -2.508  -4.346  0.00  0.00    -0.506 OA
ATOM     25  H   LIG d   1       3.113  -3.021  -3.704  0.00  0.00     0.292 HD
ENDBRANCH  16  24
BRANCH  18  26
ATOM     26  O   LIG d   1       3.371   1.545  -1.881  0.00  0.00    -0.507 OA
ATOM     27  H   LIG d   1       2.676   1.973  -2.398  0.00  0.00     0.292 HD
ENDBRANCH  18  26
ENDBRANCH  13  15
ENDBRANCH  10  13
ENDBRANCH   4  10
BRANCH   6  28
ATOM     28  O   LIG d   1       3.194  -2.296  -8.878  0.00  0.00    -0.491 OA
BRANCH  28  29
ATOM     29  C   LIG d   1       3.450  -3.701  -8.912  0.00  0.00     0.079 C 
ATOM     30  H   LIG d   1       2.531  -4.233  -9.154  0.00  0.00     0.066 H 
ATOM     31  H   LIG d   1       4.205  -3.916  -9.668  0.00  0.00     0.066 H 
ATOM     32  H   LIG d   1       3.811  -4.027  -7.936  0.00  0.00     0.066 H 
ENDBRANCH  28  29
ENDBRANCH   6  28
BRANCH   1  33
ATOM     33  O   LIG d   1       3.368   0.334  -9.679  0.00  0.00    -0.491 OA
BRANCH  33  34
ATOM     34  C   LIG d   1       3.890   1.036 -10.810  0.00  0.00     0.079 C 
ATOM     35  H   LIG d   1       3.132   1.080 -11.591  0.00  0.00     0.066 H 
ATOM     36  H   LIG d   1       4.165   2.048 -10.513  0.00  0.00     0.066 H 
ATOM     37  H   LIG d   1       4.770   0.515 -11.186  0.00  0.00     0.066 H 
ENDBRANCH  33  34
ENDBRANCH   1  33
TORSDOF 9
ENDMDL
MODEL 8
REMARK VINA RESULT:      -5.0     10.386     12.356
REMARK  9 active torsions:
REMARK  status: ('A' for Active; 'I' for Inactive)
REMARK    1  A    between atoms: C_1  and  O_2 
REMARK    2  A    between atoms: O_2  and  C_3 
REMARK    3  A    between atoms: C_6  and  C_11 
REMARK    4  A    between atoms: C_8  and  O_9 
REMARK    5  A    between atoms: O_9  and  C_10 
REMARK    6  A    between atoms: C_11  and  C_12 
REMARK    7  A    between atoms: C_12  and  C_14 
REMARK    8  A    between atoms: C_17  and  O_21 
REMARK    9  A    between atoms: C_19  and  O_20 
ROOT
ATOM      1  C   LIG d   1      10.842   8.172   0.270  0.00  0.00     0.162 A 
ATOM      2  C   LIG d   1      10.213   8.813  -0.786  0.00  0.00    -0.016 A 
ATOM      3  C   LIG d   1       9.813   8.089  -1.894  0.00  0.00    -0.054 A 
ATOM      4  C   LIG d   1      10.041   6.726  -1.952  0.00  0.00    -0.036 A 
ATOM      5  C   LIG d   1      10.668   6.081  -0.903  0.00  0.00    -0.013 A 
ATOM      6  C   LIG d   1      11.075   6.802   0.208  0.00  0.00     0.162 A 
ATOM      7  H   LIG d   1      10.034   9.877  -0.742  0.00  0.00     0.066 H 
ATOM      8  H   LIG d   1       9.323   8.589  -2.716  0.00  0.00     0.062 H 
ATOM      9  H   LIG d   1      10.843   5.016  -0.951  0.00  0.00     0.066 H 
ENDROOT
BRANCH   4  10
ATOM     10  C   LIG d   1       9.603   5.942  -3.162  0.00  0.00     0.036 C 
ATOM     11  H   LIG d   1       9.634   4.877  -2.937  0.00  0.00     0.039 H 
ATOM     12  H   LIG d   1       8.586   6.226  -3.431  0.00  0.00     0.039 H 
BRANCH  10  13
ATOM     13  C   LIG d   1      10.528   6.239  -4.314  0.00  0.00     0.171 C 
ATOM     14  O   LIG d   1      11.681   5.864  -4.280  0.00  0.00    -0.292 OA
BRANCH  13  15
ATOM     15  C   LIG d   1      10.034   6.982  -5.477  0.00  0.00     0.059 A 
ATOM     16  C   LIG d   1       9.876   6.333  -6.715  0.00  0.00     0.131 A 
ATOM     17  C   LIG d   1       9.403   7.045  -7.804  0.00  0.00     0.022 A 
ATOM     18  C   LIG d   1       9.100   8.392  -7.673  0.00  0.00     0.120 A 
ATOM     19  H   LIG d   1       9.274   6.553  -8.757  0.00  0.00     0.069 H 
ATOM     20  C   LIG d   1       9.263   9.034  -6.447  0.00  0.00    -0.019 A 
ATOM     21  C   LIG d   1       9.723   8.344  -5.363  0.00  0.00    -0.044 A 
ATOM     22  H   LIG d   1       9.025  10.083  -6.354  0.00  0.00     0.065 H 
ATOM     23  H   LIG d   1       9.847   8.848  -4.416  0.00  0.00     0.063 H 
BRANCH  16  24
ATOM     24  O   LIG d   1      10.178   5.017  -6.839  0.00  0.00    -0.506 OA
ATOM     25  H   LIG d   1       9.771   4.590  -7.604  0.00  0.00     0.292 HD
ENDBRANCH  16  24
BRANCH  18  26
ATOM     26  O   LIG d   1       8.641   9.089  -8.743  0.00  0.00    -0.507 OA
ATOM     27  H   LIG d   1       9.325   9.312  -9.389  0.00  0.00     0.292 HD
ENDBRANCH  18  26
ENDBRANCH  13  15
ENDBRANCH  10  13
ENDBRANCH   4  10
BRANCH   6  28
ATOM     28  O   LIG d   1      11.697   6.170   1.240  0.00  0.00    -0.491 OA
BRANCH  28  29
ATOM     29  C   LIG d   1      10.863   5.516   2.198  0.00  0.00     0.079 C 
ATOM     30  H   LIG d   1      10.136   4.891   1.680  0.00  0.00     0.066 H 
ATOM     31  H   LIG d   1      11.476   4.896   2.852  0.00  0.00     0.066 H 
ATOM     32  H   LIG d   1      10.339   6.264   2.793  0.00  0.00     0.066 H 
ENDBRANCH  28  29
ENDBRANCH   6  28
BRANCH   1  33
ATOM     33  O   LIG d   1      11.235   8.883   1.360  0.00  0.00    -0.491 OA
BRANCH  33  34
ATOM     34  C   LIG d   1      11.725  10.206   1.131  0.00  0.00     0.079 C 
ATOM     35  H   LIG d   1      12.049  10.299   0.095  0.00  0.00     0.066 H 
ATOM     36  H   LIG d   1      10.931  10.926   1.329  0.00  0.00     0.066 H 
ATOM     37  H   LIG d   1      12.567  10.401   1.794  0.00  0.00     0.066 H 
ENDBRANCH  33  34
ENDBRANCH   1  33
TORSDOF 9
ENDMDL
MODEL 9
REMARK VINA RESULT:      -4.9     10.359     12.977
REMARK  9 active torsions:
REMARK  status: ('A' for Active; 'I' for Inactive)
REMARK    1  A    between atoms: C_1  and  O_2 
REMARK    2  A    between atoms: O_2  and  C_3 
REMARK    3  A    between atoms: C_6  and  C_11 
REMARK    4  A    between atoms: C_8  and  O_9 
REMARK    5  A    between atoms: O_9  and  C_10 
REMARK    6  A    between atoms: C_11  and  C_12 
REMARK    7  A    between atoms: C_12  and  C_14 
REMARK    8  A    between atoms: C_17  and  O_21 
REMARK    9  A    between atoms: C_19  and  O_20 
ROOT
ATOM      1  C   LIG d   1       9.784   8.791  -7.323  0.00  0.00     0.162 A 
ATOM      2  C   LIG d   1       9.813   7.416  -7.494  0.00  0.00    -0.016 A 
ATOM      3  C   LIG d   1       9.662   6.580  -6.402  0.00  0.00    -0.054 A 
ATOM      4  C   LIG d   1       9.481   7.113  -5.140  0.00  0.00    -0.036 A 
ATOM      5  C   LIG d   1       9.450   8.483  -4.962  0.00  0.00    -0.013 A 
ATOM      6  C   LIG d   1       9.607   9.326  -6.051  0.00  0.00     0.162 A 
ATOM      7  H   LIG d   1       9.954   6.997  -8.479  0.00  0.00     0.066 H 
ATOM      8  H   LIG d   1       9.686   5.509  -6.537  0.00  0.00     0.062 H 
ATOM      9  H   LIG d   1       9.307   8.897  -3.975  0.00  0.00     0.066 H 
ENDROOT
BRANCH   4  10
ATOM     10  C   LIG d   1       9.316   6.198  -3.954  0.00  0.00     0.036 C 
ATOM     11  H   LIG d   1       8.623   6.645  -3.243  0.00  0.00     0.039 H 
ATOM     12  H   LIG d   1       8.924   5.237  -4.288  0.00  0.00     0.039 H 
BRANCH  10  13
ATOM     13  C   LIG d   1      10.654   5.990  -3.291  0.00  0.00     0.171 C 
ATOM     14  O   LIG d   1      11.579   5.524  -3.922  0.00  0.00    -0.292 OA
BRANCH  13  15
ATOM     15  C   LIG d   1      10.837   6.353  -1.883  0.00  0.00     0.059 A 
ATOM     16  C   LIG d   1      11.155   5.364  -0.934  0.00  0.00     0.131 A 
ATOM     17  C   LIG d   1      11.331   5.721   0.392  0.00  0.00     0.022 A 
ATOM     18  C   LIG d   1      11.181   7.045   0.778  0.00  0.00     0.120 A 
ATOM     19  H   LIG d   1      11.581   4.969   1.126  0.00  0.00     0.069 H 
ATOM     20  C   LIG d   1      10.860   8.021  -0.162  0.00  0.00    -0.019 A 
ATOM     21  C   LIG d   1      10.689   7.686  -1.474  0.00  0.00    -0.044 A 
ATOM     22  H   LIG d   1      10.745   9.049   0.148  0.00  0.00     0.065 H 
ATOM     23  H   LIG d   1      10.440   8.448  -2.198  0.00  0.00     0.063 H 
BRANCH  16  24
ATOM     24  O   LIG d   1      11.296   4.072  -1.317  0.00  0.00    -0.506 OA
ATOM     25  H   LIG d   1      11.485   3.463  -0.590  0.00  0.00     0.292 HD
ENDBRANCH  16  24
BRANCH  18  26
ATOM     26  O   LIG d   1      11.350   7.391   2.080  0.00  0.00    -0.507 OA
ATOM     27  H   LIG d   1      11.138   6.685   2.705  0.00  0.00     0.292 HD
ENDBRANCH  18  26
ENDBRANCH  13  15
ENDBRANCH  10  13
ENDBRANCH   4  10
BRANCH   6  28
ATOM     28  O   LIG d   1       9.582  10.675  -5.877  0.00  0.00    -0.491 OA
BRANCH  28  29
ATOM     29  C   LIG d   1       9.135  11.158  -4.609  0.00  0.00     0.079 C 
ATOM     30  H   LIG d   1       8.050  11.254  -4.618  0.00  0.00     0.066 H 
ATOM     31  H   LIG d   1       9.432  10.459  -3.828  0.00  0.00     0.066 H 
ATOM     32  H   LIG d   1       9.584  12.132  -4.414  0.00  0.00     0.066 H 
ENDBRANCH  28  29
ENDBRANCH   6  28
BRANCH   1  33
ATOM     33  O   LIG d   1       9.932   9.614  -8.395  0.00  0.00    -0.491 OA
BRANCH  33  34
ATOM     34  C   LIG d   1      11.227   9.665  -8.999  0.00  0.00     0.079 C 
ATOM     35  H   LIG d   1      11.449   8.706  -9.464  0.00  0.00     0.066 H 
ATOM     36  H   LIG d   1      11.243  10.449  -9.757  0.00  0.00     0.066 H 
ATOM     37  H   LIG d   1      11.974   9.882  -8.236  0.00  0.00     0.066 H 
ENDBRANCH  33  34
ENDBRANCH   1  33
TORSDOF 9
ENDMDL
MODEL 10
REMARK VINA RESULT:      -4.8      3.999      6.385
REMARK  9 active torsions:
REMARK  status: ('A' for Active; 'I' for Inactive)
REMARK    1  A    between atoms: C_1  and  O_2 
REMARK    2  A    between atoms: O_2  and  C_3 
REMARK    3  A    between atoms: C_6  and  C_11 
REMARK    4  A    between atoms: C_8  and  O_9 
REMARK    5  A    between atoms: O_9  and  C_10 
REMARK    6  A    between atoms: C_11  and  C_12 
REMARK    7  A    between atoms: C_12  and  C_14 
REMARK    8  A    between atoms: C_17  and  O_21 
REMARK    9  A    between atoms: C_19  and  O_20 
ROOT
ATOM      1  C   LIG d   1       4.435  -4.304  -6.222  0.00  0.00     0.162 A 
ATOM      2  C   LIG d   1       4.629  -4.350  -7.594  0.00  0.00    -0.016 A 
ATOM      3  C   LIG d   1       5.127  -3.245  -8.259  0.00  0.00    -0.054 A 
ATOM      4  C   LIG d   1       5.432  -2.093  -7.559  0.00  0.00    -0.036 A 
ATOM      5  C   LIG d   1       5.241  -2.039  -6.191  0.00  0.00    -0.013 A 
ATOM      6  C   LIG d   1       4.737  -3.141  -5.519  0.00  0.00     0.162 A 
ATOM      7  H   LIG d   1       4.393  -5.250  -8.142  0.00  0.00     0.066 H 
ATOM      8  H   LIG d   1       5.278  -3.283  -9.327  0.00  0.00     0.062 H 
ATOM      9  H   LIG d   1       5.481  -1.138  -5.647  0.00  0.00     0.066 H 
ENDROOT
BRANCH   4  10
ATOM     10  C   LIG d   1       5.976  -0.891  -8.289  0.00  0.00     0.036 C 
ATOM     11  H   LIG d   1       6.777  -0.442  -7.704  0.00  0.00     0.039 H 
ATOM     12  H   LIG d   1       6.363  -1.201  -9.260  0.00  0.00     0.039 H 
BRANCH  10  13
ATOM     13  C   LIG d   1       4.872   0.116  -8.488  0.00  0.00     0.171 C 
ATOM     14  O   LIG d   1       4.933   1.198  -7.943  0.00  0.00    -0.292 OA
BRANCH  13  15
ATOM     15  C   LIG d   1       3.725  -0.212  -9.339  0.00  0.00     0.059 A 
ATOM     16  C   LIG d   1       2.455  -0.411  -8.768  0.00  0.00     0.131 A 
ATOM     17  C   LIG d   1       1.379  -0.715  -9.584  0.00  0.00     0.022 A 
ATOM     18  C   LIG d   1       1.561  -0.833 -10.955  0.00  0.00     0.120 A 
ATOM     19  H   LIG d   1       0.399  -0.864  -9.154  0.00  0.00     0.069 H 
ATOM     20  C   LIG d   1       2.821  -0.642 -11.516  0.00  0.00    -0.019 A 
ATOM     21  C   LIG d   1       3.890  -0.336 -10.726  0.00  0.00    -0.044 A 
ATOM     22  H   LIG d   1       2.953  -0.736 -12.584  0.00  0.00     0.065 H 
ATOM     23  H   LIG d   1       4.864  -0.189 -11.168  0.00  0.00     0.063 H 
BRANCH  16  24
ATOM     24  O   LIG d   1       2.285  -0.298  -7.428  0.00  0.00    -0.506 OA
ATOM     25  H   LIG d   1       1.669  -0.943  -7.053  0.00  0.00     0.292 HD
ENDBRANCH  16  24
BRANCH  18  26
ATOM     26  O   LIG d   1       0.505  -1.136 -11.752  0.00  0.00    -0.507 OA
ATOM     27  H   LIG d   1      -0.117  -1.764 -11.359  0.00  0.00     0.292 HD
ENDBRANCH  18  26
ENDBRANCH  13  15
ENDBRANCH  10  13
ENDBRANCH   4  10
BRANCH   6  28
ATOM     28  O   LIG d   1       4.543  -3.089  -4.174  0.00  0.00    -0.491 OA
BRANCH  28  29
ATOM     29  C   LIG d   1       3.893  -1.927  -3.657  0.00  0.00     0.079 C 
ATOM     30  H   LIG d   1       3.777  -2.024  -2.578  0.00  0.00     0.066 H 
ATOM     31  H   LIG d   1       4.493  -1.044  -3.880  0.00  0.00     0.066 H 
ATOM     32  H   LIG d   1       2.911  -1.824  -4.119  0.00  0.00     0.066 H 
ENDBRANCH  28  29
ENDBRANCH   6  28
BRANCH   1  33
ATOM     33  O   LIG d   1       3.945  -5.390  -5.567  0.00  0.00    -0.491 OA
BRANCH  33  34
ATOM     34  C   LIG d   1       4.733  -6.581  -5.606  0.00  0.00     0.079 C 
ATOM     35  H   LIG d   1       4.578  -7.150  -4.690  0.00  0.00     0.066 H 
ATOM     36  H   LIG d   1       4.434  -7.185  -6.463  0.00  0.00     0.066 H 
ATOM     37  H   LIG d   1       5.786  -6.317  -5.697  0.00  0.00     0.066 H 
ENDBRANCH  33  34
ENDBRANCH   1  33
TORSDOF 9
ENDMDL
