MODEL 1
REMARK VINA RESULT:      -7.3      0.000      0.000
REMARK  11 active torsions:
REMARK  status: ('A' for Active; 'I' for Inactive)
REMARK    1  A    between atoms: C_1  and  C_2 
REMARK    2  A    between atoms: C_4  and  O_12 
REMARK    3  A    between atoms: C_5  and  C_9 
REMARK    4  A    between atoms: C_9  and  C_10 
REMARK    5  A    between atoms: C_9  and  C_11 
REMARK    6  A    between atoms: O_12  and  C_13 
REMARK    7  A    between atoms: C_13  and  C_14 
REMARK    8  A    between atoms: C_16  and  C_22 
REMARK    9  A    between atoms: C_19  and  O_20 
REMARK   10  A    between atoms: O_20  and  C_21 
REMARK   11  A    between atoms: CA_35  and  C_37 
ROOT
ATOM      1  C   LIG d   1       9.721   5.206  -3.642  0.00  0.00     0.032 A 
ATOM      2  C   LIG d   1       9.139   4.241  -4.441  0.00  0.00    -0.043 A 
ATOM      3  C   LIG d   1       9.417   2.904  -4.227  0.00  0.00     0.007 A 
ATOM      4  C   LIG d   1      10.285   2.529  -3.218  0.00  0.00    -0.049 A 
ATOM      5  C   LIG d   1      10.875   3.490  -2.420  0.00  0.00    -0.019 A 
ATOM      6  C   LIG d   1      10.596   4.832  -2.632  0.00  0.00     0.127 A 
ATOM      7  H   LIG d   1       8.460   4.530  -5.229  0.00  0.00     0.063 H 
ATOM      8  H   LIG d   1      10.503   1.484  -3.053  0.00  0.00     0.062 H 
ATOM      9  H   LIG d   1      11.553   3.197  -1.633  0.00  0.00     0.065 H 
ENDROOT
BRANCH   1  10
ATOM     10  C   LIG d   1       9.411   6.662  -3.871  0.00  0.00     0.118 C 
ATOM     11  H   LIG d   1       8.712   7.009  -3.109  0.00  0.00     0.075 H 
ATOM     12  H   LIG d   1      10.331   7.243  -3.811  0.00  0.00     0.075 H 
BRANCH  10  13
ATOM     13  O   LIG d   1       8.825   6.827  -5.164  0.00  0.00    -0.487 OA
BRANCH  13  14
ATOM     14  C   LIG d   1       9.403   7.738  -5.992  0.00  0.00     0.125 A 
ATOM     15  C   LIG d   1       9.477   9.070  -5.613  0.00  0.00    -0.015 A 
ATOM     16  C   LIG d   1      10.069   9.994  -6.454  0.00  0.00    -0.029 A 
ATOM     17  H   LIG d   1       9.077   9.385  -4.661  0.00  0.00     0.066 H 
ATOM     18  C   LIG d   1      10.576   9.593  -7.676  0.00  0.00     0.044 A 
ATOM     19  C   LIG d   1      10.498   8.265  -8.058  0.00  0.00    -0.036 A 
ATOM     20 CL   LIG d   1      11.313  10.757  -8.733  0.00  0.00    -0.083 Cl
ATOM     21  C   LIG d   1       9.913   7.337  -7.218  0.00  0.00    -0.002 A 
ATOM     22  H   LIG d   1      10.895   7.954  -9.013  0.00  0.00     0.064 H 
BRANCH  16  23
ATOM     23  C   LIG d   1      10.155  11.441  -6.040  0.00  0.00    -0.038 C 
ATOM     24  H   LIG d   1      10.376  12.055  -6.912  0.00  0.00     0.028 H 
ATOM     25  H   LIG d   1       9.203  11.752  -5.608  0.00  0.00     0.028 H 
ATOM     26  H   LIG d   1      10.946  11.560  -5.301  0.00  0.00     0.028 H 
ENDBRANCH  16  23
BRANCH  21  27
ATOM     27  C   LIG d   1       9.829   5.891  -7.634  0.00  0.00    -0.018 C 
ATOM     28  H   LIG d   1       9.100   5.375  -7.010  0.00  0.00     0.035 H 
BRANCH  27  29
ATOM     29  C   LIG d   1       9.396   5.806  -9.099  0.00  0.00    -0.059 C 
ATOM     30  H   LIG d   1       8.310   5.876  -9.161  0.00  0.00     0.024 H 
ATOM     31  H   LIG d   1       9.845   6.627  -9.659  0.00  0.00     0.024 H 
ATOM     32  H   LIG d   1       9.723   4.856  -9.520  0.00  0.00     0.024 H 
ENDBRANCH  27  29
BRANCH  27  33
ATOM     33  C   LIG d   1      11.200   5.232  -7.467  0.00  0.00    -0.059 C 
ATOM     34  H   LIG d   1      11.074   4.229  -7.059  0.00  0.00     0.024 H 
ATOM     35  H   LIG d   1      11.693   5.171  -8.437  0.00  0.00     0.024 H 
ATOM     36  H   LIG d   1      11.809   5.828  -6.787  0.00  0.00     0.024 H 
ENDBRANCH  27  33
ENDBRANCH  21  27
ENDBRANCH  13  14
ENDBRANCH  10  13
ENDBRANCH   1  10
BRANCH   6  37
ATOM     37  O   LIG d   1      11.174   5.780  -1.849  0.00  0.00    -0.495 OA
BRANCH  37  38
ATOM     38  C   LIG d   1      10.769   5.826  -0.479  0.00  0.00     0.079 C 
ATOM     39  H   LIG d   1      11.646   5.746   0.163  0.00  0.00     0.066 H 
ATOM     40  H   LIG d   1      10.091   4.998  -0.273  0.00  0.00     0.066 H 
ATOM     41  H   LIG d   1      10.260   6.770  -0.284  0.00  0.00     0.066 H 
ENDBRANCH  37  38
ENDBRANCH   6  37
BRANCH   3  42
ATOM     42  C   LIG d   1       8.775   1.853  -5.095  0.00  0.00     0.045 C 
ATOM     43  H   LIG d   1       8.360   2.320  -5.988  0.00  0.00     0.097 H 
ATOM     44  C   LIG d   1       7.678   1.158  -4.324  0.00  0.00     0.074 A 
ATOM     45  N   LIG d   1       6.735   1.739  -3.521  0.00  0.00    -0.353 N 
ATOM     46  C   LIG d   1       7.499  -0.182  -4.343  0.00  0.00    -0.008 A 
ATOM     47  C   LIG d   1       5.919   0.778  -2.996  0.00  0.00     0.047 A 
ATOM     48  H   LIG d   1       6.657   2.692  -3.350  0.00  0.00     0.166 HD
ATOM     49  C   LIG d   1       6.366  -0.474  -3.493  0.00  0.00     0.004 A 
ATOM     50  C   LIG d   1       4.826   0.850  -2.135  0.00  0.00    -0.038 A 
ATOM     51  C   LIG d   1       5.727  -1.666  -3.134  0.00  0.00    -0.052 A 
ATOM     52  C   LIG d   1       4.655  -1.563  -2.284  0.00  0.00    -0.061 A 
ATOM     53  H   LIG d   1       6.063  -2.621  -3.509  0.00  0.00     0.062 H 
ATOM     54  C   LIG d   1       4.214  -0.344  -1.797  0.00  0.00    -0.060 A 
ATOM     55  H   LIG d   1       4.137  -2.463  -1.985  0.00  0.00     0.062 H 
ATOM     56  H   LIG d   1       3.364  -0.324  -1.130  0.00  0.00     0.062 H 
ATOM     57  H   LIG d   1       4.472   1.795  -1.749  0.00  0.00     0.064 H 
ATOM     58  C   LIG d   1       8.369  -1.126  -5.133  0.00  0.00     0.023 C 
ATOM     59  CA  LIG d   1       9.159  -0.299  -6.157  0.00  0.00     0.023 C 
ATOM     60  H   LIG d   1       7.746  -1.855  -5.652  0.00  0.00     0.037 H 
ATOM     61  H   LIG d   1       9.058  -1.641  -4.464  0.00  0.00     0.037 H 
ATOM     62  HA  LIG d   1       9.934  -0.920  -6.606  0.00  0.00     0.092 H 
ATOM     63  N   LIG d   1       9.793   0.850  -5.481  0.00  0.00     0.243 N 
ATOM     64  H1  LIG d   1      10.278   0.521  -4.638  0.00  0.00     0.203 HD
ATOM     65  H2  LIG d   1      10.471   1.286  -6.118  0.00  0.00     0.203 HD
BRANCH  59  66
ATOM     66  C   LIG d   1       8.226   0.194  -7.232  0.00  0.00     0.090 C 
ATOM     67  O   LIG d   1       8.566   1.095  -7.961  0.00  0.00    -0.544 OA
ATOM     68  OXT LIG d   1       7.016  -0.368  -7.380  0.00  0.00    -0.544 OA
ENDBRANCH  59  66
ENDBRANCH   3  42
TORSDOF 11
ENDMDL
MODEL 2
REMARK VINA RESULT:      -7.3      4.042      7.399
REMARK  11 active torsions:
REMARK  status: ('A' for Active; 'I' for Inactive)
REMARK    1  A    between atoms: C_1  and  C_2 
REMARK    2  A    between atoms: C_4  and  O_12 
REMARK    3  A    between atoms: C_5  and  C_9 
REMARK    4  A    between atoms: C_9  and  C_10 
REMARK    5  A    between atoms: C_9  and  C_11 
REMARK    6  A    between atoms: O_12  and  C_13 
REMARK    7  A    between atoms: C_13  and  C_14 
REMARK    8  A    between atoms: C_16  and  C_22 
REMARK    9  A    between atoms: C_19  and  O_20 
REMARK   10  A    between atoms: O_20  and  C_21 
REMARK   11  A    between atoms: CA_35  and  C_37 
ROOT
ATOM      1  C   LIG d   1       8.770   2.698  -5.453  0.00  0.00     0.032 A 
ATOM      2  C   LIG d   1       8.435   1.909  -6.537  0.00  0.00    -0.043 A 
ATOM      3  C   LIG d   1       8.813   2.286  -7.812  0.00  0.00     0.007 A 
ATOM      4  C   LIG d   1       9.522   3.457  -8.007  0.00  0.00    -0.049 A 
ATOM      5  C   LIG d   1       9.855   4.253  -6.928  0.00  0.00    -0.019 A 
ATOM      6  C   LIG d   1       9.477   3.876  -5.648  0.00  0.00     0.127 A 
ATOM      7  H   LIG d   1       7.882   0.994  -6.388  0.00  0.00     0.063 H 
ATOM      8  H   LIG d   1       9.816   3.751  -9.004  0.00  0.00     0.062 H 
ATOM      9  H   LIG d   1      10.408   5.168  -7.082  0.00  0.00     0.065 H 
ENDROOT
BRANCH   1  10
ATOM     10  C   LIG d   1       8.364   2.283  -4.063  0.00  0.00     0.118 C 
ATOM     11  H   LIG d   1       9.063   2.703  -3.339  0.00  0.00     0.075 H 
ATOM     12  H   LIG d   1       7.360   2.650  -3.854  0.00  0.00     0.075 H 
BRANCH  10  13
ATOM     13  O   LIG d   1       8.380   0.857  -3.968  0.00  0.00    -0.487 OA
BRANCH  13  14
ATOM     14  C   LIG d   1       7.210   0.248  -3.637  0.00  0.00     0.125 A 
ATOM     15  C   LIG d   1       6.184   0.981  -3.061  0.00  0.00    -0.015 A 
ATOM     16  C   LIG d   1       4.995   0.361  -2.729  0.00  0.00    -0.029 A 
ATOM     17  H   LIG d   1       6.312   2.037  -2.875  0.00  0.00     0.066 H 
ATOM     18  C   LIG d   1       4.832  -0.993  -2.961  0.00  0.00     0.044 A 
ATOM     19  C   LIG d   1       5.857  -1.728  -3.530  0.00  0.00    -0.036 A 
ATOM     20 CL   LIG d   1       3.339  -1.772  -2.537  0.00  0.00    -0.083 Cl
ATOM     21  C   LIG d   1       7.045  -1.110  -3.869  0.00  0.00    -0.002 A 
ATOM     22  H   LIG d   1       5.728  -2.785  -3.711  0.00  0.00     0.064 H 
BRANCH  16  23
ATOM     23  C   LIG d   1       3.877   1.159  -2.108  0.00  0.00    -0.038 C 
ATOM     24  H   LIG d   1       4.049   2.220  -2.281  0.00  0.00     0.028 H 
ATOM     25  H   LIG d   1       2.928   0.866  -2.559  0.00  0.00     0.028 H 
ATOM     26  H   LIG d   1       3.845   0.965  -1.036  0.00  0.00     0.028 H 
ENDBRANCH  16  23
BRANCH  21  27
ATOM     27  C   LIG d   1       8.161  -1.911  -4.491  0.00  0.00    -0.018 C 
ATOM     28  H   LIG d   1       9.113  -1.415  -4.300  0.00  0.00     0.035 H 
BRANCH  27  29
ATOM     29  C   LIG d   1       8.185  -3.313  -3.878  0.00  0.00    -0.059 C 
ATOM     30  H   LIG d   1       7.181  -3.582  -3.549  0.00  0.00     0.024 H 
ATOM     31  H   LIG d   1       8.527  -4.029  -4.625  0.00  0.00     0.024 H 
ATOM     32  H   LIG d   1       8.861  -3.325  -3.025  0.00  0.00     0.024 H 
ENDBRANCH  27  29
BRANCH  27  33
ATOM     33  C   LIG d   1       7.933  -2.016  -6.000  0.00  0.00    -0.059 C 
ATOM     34  H   LIG d   1       8.570  -2.800  -6.409  0.00  0.00     0.024 H 
ATOM     35  H   LIG d   1       6.888  -2.257  -6.193  0.00  0.00     0.024 H 
ATOM     36  H   LIG d   1       8.179  -1.064  -6.471  0.00  0.00     0.024 H 
ENDBRANCH  27  33
ENDBRANCH  21  27
ENDBRANCH  13  14
ENDBRANCH  10  13
ENDBRANCH   1  10
BRANCH   6  37
ATOM     37  O   LIG d   1       9.803   4.657  -4.584  0.00  0.00    -0.495 OA
BRANCH  37  38
ATOM     38  C   LIG d   1       9.293   5.991  -4.578  0.00  0.00     0.079 C 
ATOM     39  H   LIG d   1       9.897   6.616  -5.235  0.00  0.00     0.066 H 
ATOM     40  H   LIG d   1       9.330   6.389  -3.563  0.00  0.00     0.066 H 
ATOM     41  H   LIG d   1       8.261   5.986  -4.929  0.00  0.00     0.066 H 
ENDBRANCH  37  38
ENDBRANCH   6  37
BRANCH   3  42
ATOM     42  C   LIG d   1       8.452   1.420  -8.991  0.00  0.00     0.045 C 
ATOM     43  H   LIG d   1       8.827   1.874  -9.907  0.00  0.00     0.097 H 
ATOM     44  C   LIG d   1       6.951   1.272  -9.070  0.00  0.00     0.074 A 
ATOM     45  N   LIG d   1       6.012   2.254  -8.908  0.00  0.00    -0.353 N 
ATOM     46  C   LIG d   1       6.339   0.092  -9.321  0.00  0.00    -0.008 A 
ATOM     47  C   LIG d   1       4.761   1.726  -9.050  0.00  0.00     0.047 A 
ATOM     48  H   LIG d   1       6.206   3.186  -8.721  0.00  0.00     0.166 HD
ATOM     49  C   LIG d   1       4.914   0.340  -9.318  0.00  0.00     0.004 A 
ATOM     50  C   LIG d   1       3.493   2.298  -8.979  0.00  0.00    -0.038 A 
ATOM     51  C   LIG d   1       3.803  -0.487  -9.515  0.00  0.00    -0.052 A 
ATOM     52  C   LIG d   1       2.567   0.104  -9.437  0.00  0.00    -0.061 A 
ATOM     53  H   LIG d   1       3.914  -1.542  -9.718  0.00  0.00     0.062 H 
ATOM     54  C   LIG d   1       2.412   1.456  -9.177  0.00  0.00    -0.060 A 
ATOM     55  H   LIG d   1       1.687  -0.504  -9.584  0.00  0.00     0.062 H 
ATOM     56  H   LIG d   1       1.414   1.867  -9.128  0.00  0.00     0.062 H 
ATOM     57  H   LIG d   1       3.358   3.351  -8.778  0.00  0.00     0.064 H 
ATOM     58  C   LIG d   1       7.083  -1.198  -9.552  0.00  0.00     0.023 C 
ATOM     59  CA  LIG d   1       8.552  -0.854  -9.841  0.00  0.00     0.023 C 
ATOM     60  H   LIG d   1       6.654  -1.725 -10.404  0.00  0.00     0.037 H 
ATOM     61  H   LIG d   1       7.021  -1.824  -8.662  0.00  0.00     0.037 H 
ATOM     62  HA  LIG d   1       9.150  -1.765  -9.817  0.00  0.00     0.092 H 
ATOM     63  N   LIG d   1       9.053   0.080  -8.813  0.00  0.00     0.243 N 
ATOM     64  H1  LIG d   1       8.808  -0.279  -7.882  0.00  0.00     0.203 HD
ATOM     65  H2  LIG d   1      10.074   0.154  -8.893  0.00  0.00     0.203 HD
BRANCH  59  66
ATOM     66  C   LIG d   1       8.659  -0.218 -11.203  0.00  0.00     0.090 C 
ATOM     67  O   LIG d   1       7.824  -0.449 -12.045  0.00  0.00    -0.544 OA
ATOM     68  OXT LIG d   1       9.682   0.605 -11.480  0.00  0.00    -0.544 OA
ENDBRANCH  59  66
ENDBRANCH   3  42
TORSDOF 11
ENDMDL
MODEL 3
REMARK VINA RESULT:      -7.3      7.123      9.855
REMARK  11 active torsions:
REMARK  status: ('A' for Active; 'I' for Inactive)
REMARK    1  A    between atoms: C_1  and  C_2 
REMARK    2  A    between atoms: C_4  and  O_12 
REMARK    3  A    between atoms: C_5  and  C_9 
REMARK    4  A    between atoms: C_9  and  C_10 
REMARK    5  A    between atoms: C_9  and  C_11 
REMARK    6  A    between atoms: O_12  and  C_13 
REMARK    7  A    between atoms: C_13  and  C_14 
REMARK    8  A    between atoms: C_16  and  C_22 
REMARK    9  A    between atoms: C_19  and  O_20 
REMARK   10  A    between atoms: O_20  and  C_21 
REMARK   11  A    between atoms: CA_35  and  C_37 
ROOT
ATOM      1  C   LIG d   1       4.569  -4.822  -8.347  0.00  0.00     0.032 A 
ATOM      2  C   LIG d   1       5.422  -4.294  -7.398  0.00  0.00    -0.043 A 
ATOM      3  C   LIG d   1       5.701  -5.005  -6.245  0.00  0.00     0.007 A 
ATOM      4  C   LIG d   1       5.121  -6.243  -6.036  0.00  0.00    -0.049 A 
ATOM      5  C   LIG d   1       4.263  -6.773  -6.980  0.00  0.00    -0.019 A 
ATOM      6  C   LIG d   1       3.982  -6.061  -8.137  0.00  0.00     0.127 A 
ATOM      7  H   LIG d   1       5.878  -3.328  -7.558  0.00  0.00     0.063 H 
ATOM      8  H   LIG d   1       5.340  -6.796  -5.135  0.00  0.00     0.062 H 
ATOM      9  H   LIG d   1       3.809  -7.739  -6.815  0.00  0.00     0.065 H 
ENDROOT
BRANCH   1  10
ATOM     10  C   LIG d   1       4.271  -4.050  -9.606  0.00  0.00     0.118 C 
ATOM     11  H   LIG d   1       5.025  -3.273  -9.743  0.00  0.00     0.075 H 
ATOM     12  H   LIG d   1       4.288  -4.726 -10.459  0.00  0.00     0.075 H 
BRANCH  10  13
ATOM     13  O   LIG d   1       2.980  -3.447  -9.501  0.00  0.00    -0.487 OA
BRANCH  13  14
ATOM     14  C   LIG d   1       2.942  -2.112  -9.242  0.00  0.00     0.125 A 
ATOM     15  C   LIG d   1       3.209  -1.645  -7.964  0.00  0.00    -0.015 A 
ATOM     16  C   LIG d   1       3.174  -0.288  -7.705  0.00  0.00    -0.029 A 
ATOM     17  H   LIG d   1       3.449  -2.340  -7.173  0.00  0.00     0.066 H 
ATOM     18  C   LIG d   1       2.862   0.602  -8.715  0.00  0.00     0.044 A 
ATOM     19  C   LIG d   1       2.589   0.137  -9.990  0.00  0.00    -0.036 A 
ATOM     20 CL   LIG d   1       2.811   2.307  -8.385  0.00  0.00    -0.083 Cl
ATOM     21  C   LIG d   1       2.629  -1.217 -10.255  0.00  0.00    -0.002 A 
ATOM     22  H   LIG d   1       2.345   0.835 -10.778  0.00  0.00     0.064 H 
BRANCH  16  23
ATOM     23  C   LIG d   1       3.471   0.221  -6.317  0.00  0.00    -0.038 C 
ATOM     24  H   LIG d   1       3.623  -0.623  -5.646  0.00  0.00     0.028 H 
ATOM     25  H   LIG d   1       4.372   0.834  -6.340  0.00  0.00     0.028 H 
ATOM     26  H   LIG d   1       2.632   0.821  -5.964  0.00  0.00     0.028 H 
ENDBRANCH  16  23
BRANCH  21  27
ATOM     27  C   LIG d   1       2.332  -1.723 -11.644  0.00  0.00    -0.018 C 
ATOM     28  H   LIG d   1       2.493  -2.800 -11.680  0.00  0.00     0.035 H 
BRANCH  27  29
ATOM     29  C   LIG d   1       0.876  -1.413 -11.999  0.00  0.00    -0.059 C 
ATOM     30  H   LIG d   1       0.421  -2.289 -12.462  0.00  0.00     0.024 H 
ATOM     31  H   LIG d   1       0.328  -1.155 -11.093  0.00  0.00     0.024 H 
ATOM     32  H   LIG d   1       0.843  -0.576 -12.695  0.00  0.00     0.024 H 
ENDBRANCH  27  29
BRANCH  27  33
ATOM     33  C   LIG d   1       3.261  -1.035 -12.646  0.00  0.00    -0.059 C 
ATOM     34  H   LIG d   1       2.718  -0.241 -13.158  0.00  0.00     0.024 H 
ATOM     35  H   LIG d   1       4.114  -0.610 -12.117  0.00  0.00     0.024 H 
ATOM     36  H   LIG d   1       3.613  -1.765 -13.375  0.00  0.00     0.024 H 
ENDBRANCH  27  33
ENDBRANCH  21  27
ENDBRANCH  13  14
ENDBRANCH  10  13
ENDBRANCH   1  10
BRANCH   6  37
ATOM     37  O   LIG d   1       3.138  -6.580  -9.067  0.00  0.00    -0.495 OA
BRANCH  37  38
ATOM     38  C   LIG d   1       3.289  -7.966  -9.379  0.00  0.00     0.079 C 
ATOM     39  H   LIG d   1       2.370  -8.340  -9.832  0.00  0.00     0.066 H 
ATOM     40  H   LIG d   1       3.498  -8.524  -8.466  0.00  0.00     0.066 H 
ATOM     41  H   LIG d   1       4.115  -8.092 -10.079  0.00  0.00     0.066 H 
ENDBRANCH  37  38
ENDBRANCH   6  37
BRANCH   3  42
ATOM     42  C   LIG d   1       6.638  -4.429  -5.215  0.00  0.00     0.045 C 
ATOM     43  H   LIG d   1       6.903  -5.199  -4.490  0.00  0.00     0.097 H 
ATOM     44  C   LIG d   1       5.970  -3.272  -4.511  0.00  0.00     0.074 A 
ATOM     45  N   LIG d   1       4.681  -3.214  -4.054  0.00  0.00    -0.353 N 
ATOM     46  C   LIG d   1       6.602  -2.108  -4.243  0.00  0.00    -0.008 A 
ATOM     47  C   LIG d   1       4.450  -1.998  -3.477  0.00  0.00     0.047 A 
ATOM     48  H   LIG d   1       4.030  -3.930  -4.128  0.00  0.00     0.166 HD
ATOM     49  C   LIG d   1       5.652  -1.249  -3.571  0.00  0.00     0.004 A 
ATOM     50  C   LIG d   1       3.320  -1.452  -2.873  0.00  0.00    -0.038 A 
ATOM     51  C   LIG d   1       5.737   0.052  -3.064  0.00  0.00    -0.052 A 
ATOM     52  C   LIG d   1       4.608   0.564  -2.476  0.00  0.00    -0.061 A 
ATOM     53  H   LIG d   1       6.649   0.626  -3.134  0.00  0.00     0.062 H 
ATOM     54  C   LIG d   1       3.433  -0.163  -2.380  0.00  0.00    -0.060 A 
ATOM     55  H   LIG d   1       4.637   1.565  -2.074  0.00  0.00     0.062 H 
ATOM     56  H   LIG d   1       2.575   0.291  -1.906  0.00  0.00     0.062 H 
ATOM     57  H   LIG d   1       2.398  -2.008  -2.791  0.00  0.00     0.064 H 
ATOM     58  C   LIG d   1       8.039  -1.837  -4.613  0.00  0.00     0.023 C 
ATOM     59  CA  LIG d   1       8.706  -3.181  -4.942  0.00  0.00     0.023 C 
ATOM     60  H   LIG d   1       8.554  -1.367  -3.775  0.00  0.00     0.037 H 
ATOM     61  H   LIG d   1       8.079  -1.184  -5.484  0.00  0.00     0.037 H 
ATOM     62  HA  LIG d   1       9.679  -3.002  -5.398  0.00  0.00     0.092 H 
ATOM     63  N   LIG d   1       7.859  -3.935  -5.889  0.00  0.00     0.243 N 
ATOM     64  H1  LIG d   1       7.590  -3.319  -6.665  0.00  0.00     0.203 HD
ATOM     65  H2  LIG d   1       8.390  -4.734  -6.255  0.00  0.00     0.203 HD
BRANCH  59  66
ATOM     66  C   LIG d   1       8.884  -3.976  -3.674  0.00  0.00     0.090 C 
ATOM     67  O   LIG d   1       8.858  -3.419  -2.603  0.00  0.00    -0.544 OA
ATOM     68  OXT LIG d   1       9.071  -5.304  -3.736  0.00  0.00    -0.544 OA
ENDBRANCH  59  66
ENDBRANCH   3  42
TORSDOF 11
ENDMDL
MODEL 4
REMARK VINA RESULT:      -7.0      1.778      2.443
REMARK  11 active torsions:
REMARK  status: ('A' for Active; 'I' for Inactive)
REMARK    1  A    between atoms: C_1  and  C_2 
REMARK    2  A    between atoms: C_4  and  O_12 
REMARK    3  A    between atoms: C_5  and  C_9 
REMARK    4  A    between atoms: C_9  and  C_10 
REMARK    5  A    between atoms: C_9  and  C_11 
REMARK    6  A    between atoms: O_12  and  C_13 
REMARK    7  A    between atoms: C_13  and  C_14 
REMARK    8  A    between atoms: C_16  and  C_22 
REMARK    9  A    between atoms: C_19  and  O_20 
REMARK   10  A    between atoms: O_20  and  C_21 
REMARK   11  A    between atoms: CA_35  and  C_37 
ROOT
ATOM      1  C   LIG d   1       9.683   5.080  -4.082  0.00  0.00     0.032 A 
ATOM      2  C   LIG d   1       9.142   4.021  -4.785  0.00  0.00    -0.043 A 
ATOM      3  C   LIG d   1       9.363   2.723  -4.361  0.00  0.00     0.007 A 
ATOM      4  C   LIG d   1      10.131   2.482  -3.238  0.00  0.00    -0.049 A 
ATOM      5  C   LIG d   1      10.680   3.537  -2.535  0.00  0.00    -0.019 A 
ATOM      6  C   LIG d   1      10.459   4.840  -2.958  0.00  0.00     0.127 A 
ATOM      7  H   LIG d   1       8.540   4.206  -5.662  0.00  0.00     0.063 H 
ATOM      8  H   LIG d   1      10.304   1.468  -2.909  0.00  0.00     0.062 H 
ATOM      9  H   LIG d   1      11.281   3.348  -1.658  0.00  0.00     0.065 H 
ENDROOT
BRANCH   1  10
ATOM     10  C   LIG d   1       9.436   6.494  -4.541  0.00  0.00     0.118 C 
ATOM     11  H   LIG d   1       8.517   6.530  -5.128  0.00  0.00     0.075 H 
ATOM     12  H   LIG d   1       9.338   7.145  -3.673  0.00  0.00     0.075 H 
BRANCH  10  13
ATOM     13  O   LIG d   1      10.532   6.932  -5.346  0.00  0.00    -0.487 OA
BRANCH  13  14
ATOM     14  C   LIG d   1      10.651   6.377  -6.581  0.00  0.00     0.125 A 
ATOM     15  C   LIG d   1       9.634   6.529  -7.512  0.00  0.00    -0.015 A 
ATOM     16  C   LIG d   1       9.759   5.968  -8.768  0.00  0.00    -0.029 A 
ATOM     17  H   LIG d   1       8.747   7.089  -7.256  0.00  0.00     0.066 H 
ATOM     18  C   LIG d   1      10.892   5.246  -9.094  0.00  0.00     0.044 A 
ATOM     19  C   LIG d   1      11.906   5.088  -8.165  0.00  0.00    -0.036 A 
ATOM     20 CL   LIG d   1      11.045   4.536 -10.672  0.00  0.00    -0.083 Cl
ATOM     21  C   LIG d   1      11.788   5.652  -6.910  0.00  0.00    -0.002 A 
ATOM     22  H   LIG d   1      12.791   4.524  -8.422  0.00  0.00     0.064 H 
BRANCH  16  23
ATOM     23  C   LIG d   1       8.657   6.138  -9.782  0.00  0.00    -0.038 C 
ATOM     24  H   LIG d   1       8.824   7.053 -10.349  0.00  0.00     0.028 H 
ATOM     25  H   LIG d   1       8.652   5.284 -10.460  0.00  0.00     0.028 H 
ATOM     26  H   LIG d   1       7.698   6.199  -9.267  0.00  0.00     0.028 H 
ENDBRANCH  16  23
BRANCH  21  27
ATOM     27  C   LIG d   1      12.893   5.481  -5.899  0.00  0.00    -0.018 C 
ATOM     28  H   LIG d   1      12.663   6.064  -5.008  0.00  0.00     0.035 H 
BRANCH  27  29
ATOM     29  C   LIG d   1      13.015   4.003  -5.523  0.00  0.00    -0.059 C 
ATOM     30  H   LIG d   1      13.765   3.888  -4.741  0.00  0.00     0.024 H 
ATOM     31  H   LIG d   1      12.053   3.640  -5.159  0.00  0.00     0.024 H 
ATOM     32  H   LIG d   1      13.312   3.428  -6.399  0.00  0.00     0.024 H 
ENDBRANCH  27  29
BRANCH  27  33
ATOM     33  C   LIG d   1      14.213   5.966  -6.500  0.00  0.00    -0.059 C 
ATOM     34  H   LIG d   1      14.965   5.183  -6.406  0.00  0.00     0.024 H 
ATOM     35  H   LIG d   1      14.066   6.206  -7.553  0.00  0.00     0.024 H 
ATOM     36  H   LIG d   1      14.548   6.857  -5.968  0.00  0.00     0.024 H 
ENDBRANCH  27  33
ENDBRANCH  21  27
ENDBRANCH  13  14
ENDBRANCH  10  13
ENDBRANCH   1  10
BRANCH   6  37
ATOM     37  O   LIG d   1      10.997   5.879  -2.268  0.00  0.00    -0.495 OA
BRANCH  37  38
ATOM     38  C   LIG d   1      10.529   6.085  -0.934  0.00  0.00     0.079 C 
ATOM     39  H   LIG d   1       9.721   6.815  -0.939  0.00  0.00     0.066 H 
ATOM     40  H   LIG d   1      11.348   6.453  -0.314  0.00  0.00     0.066 H 
ATOM     41  H   LIG d   1      10.163   5.141  -0.529  0.00  0.00     0.066 H 
ENDBRANCH  37  38
ENDBRANCH   6  37
BRANCH   3  42
ATOM     42  C   LIG d   1       8.765   1.570  -5.126  0.00  0.00     0.045 C 
ATOM     43  H   LIG d   1       8.398   1.921  -6.090  0.00  0.00     0.097 H 
ATOM     44  C   LIG d   1       7.628   0.970  -4.333  0.00  0.00     0.074 A 
ATOM     45  N   LIG d   1       6.645   1.642  -3.658  0.00  0.00    -0.353 N 
ATOM     46  C   LIG d   1       7.448  -0.363  -4.195  0.00  0.00    -0.008 A 
ATOM     47  C   LIG d   1       5.801   0.749  -3.062  0.00  0.00     0.047 A 
ATOM     48  H   LIG d   1       6.559   2.607  -3.611  0.00  0.00     0.166 HD
ATOM     49  C   LIG d   1       6.272  -0.553  -3.376  0.00  0.00     0.004 A 
ATOM     50  C   LIG d   1       4.665   0.921  -2.275  0.00  0.00    -0.038 A 
ATOM     51  C   LIG d   1       5.613  -1.695  -2.907  0.00  0.00    -0.052 A 
ATOM     52  C   LIG d   1       4.498  -1.494  -2.133  0.00  0.00    -0.061 A 
ATOM     53  H   LIG d   1       5.967  -2.687  -3.143  0.00  0.00     0.062 H 
ATOM     54  C   LIG d   1       4.034  -0.226  -1.824  0.00  0.00    -0.060 A 
ATOM     55  H   LIG d   1       3.964  -2.352  -1.753  0.00  0.00     0.062 H 
ATOM     56  H   LIG d   1       3.150  -0.128  -1.210  0.00  0.00     0.062 H 
ATOM     57  H   LIG d   1       4.293   1.904  -2.027  0.00  0.00     0.064 H 
ATOM     58  C   LIG d   1       8.357  -1.393  -4.817  0.00  0.00     0.023 C 
ATOM     59  CA  LIG d   1       9.201  -0.694  -5.892  0.00  0.00     0.023 C 
ATOM     60  H   LIG d   1       7.761  -2.183  -5.273  0.00  0.00     0.037 H 
ATOM     61  H   LIG d   1       9.010  -1.817  -4.055  0.00  0.00     0.037 H 
ATOM     62  HA  LIG d   1       9.997  -1.362  -6.220  0.00  0.00     0.092 H 
ATOM     63  N   LIG d   1       9.800   0.533  -5.331  0.00  0.00     0.243 N 
ATOM     64  H1  LIG d   1      10.240   0.313  -4.430  0.00  0.00     0.203 HD
ATOM     65  H2  LIG d   1      10.512   0.890  -5.980  0.00  0.00     0.203 HD
BRANCH  59  66
ATOM     66  C   LIG d   1       8.326  -0.342  -7.067  0.00  0.00     0.090 C 
ATOM     67  O   LIG d   1       8.705   0.465  -7.883  0.00  0.00    -0.544 OA
ATOM     68  OXT LIG d   1       7.125  -0.925  -7.209  0.00  0.00    -0.544 OA
ENDBRANCH  59  66
ENDBRANCH   3  42
TORSDOF 11
ENDMDL
MODEL 5
REMARK VINA RESULT:      -7.0      7.162     10.030
REMARK  11 active torsions:
REMARK  status: ('A' for Active; 'I' for Inactive)
REMARK    1  A    between atoms: C_1  and  C_2 
REMARK    2  A    between atoms: C_4  and  O_12 
REMARK    3  A    between atoms: C_5  and  C_9 
REMARK    4  A    between atoms: C_9  and  C_10 
REMARK    5  A    between atoms: C_9  and  C_11 
REMARK    6  A    between atoms: O_12  and  C_13 
REMARK    7  A    between atoms: C_13  and  C_14 
REMARK    8  A    between atoms: C_16  and  C_22 
REMARK    9  A    between atoms: C_19  and  O_20 
REMARK   10  A    between atoms: O_20  and  C_21 
REMARK   11  A    between atoms: CA_35  and  C_37 
ROOT
ATOM      1  C   LIG d   1       2.745  -1.167  -9.053  0.00  0.00     0.032 A 
ATOM      2  C   LIG d   1       3.009  -1.059  -7.701  0.00  0.00    -0.043 A 
ATOM      3  C   LIG d   1       3.252   0.181  -7.140  0.00  0.00     0.007 A 
ATOM      4  C   LIG d   1       3.238   1.315  -7.931  0.00  0.00    -0.049 A 
ATOM      5  C   LIG d   1       2.980   1.212  -9.284  0.00  0.00    -0.019 A 
ATOM      6  C   LIG d   1       2.735  -0.031  -9.849  0.00  0.00     0.127 A 
ATOM      7  H   LIG d   1       3.020  -1.942  -7.080  0.00  0.00     0.063 H 
ATOM      8  H   LIG d   1       3.428   2.283  -7.491  0.00  0.00     0.062 H 
ATOM      9  H   LIG d   1       2.970   2.098  -9.901  0.00  0.00     0.065 H 
ENDROOT
BRANCH   1  10
ATOM     10  C   LIG d   1       2.474  -2.518  -9.662  0.00  0.00     0.118 C 
ATOM     11  H   LIG d   1       2.024  -3.171  -8.913  0.00  0.00     0.075 H 
ATOM     12  H   LIG d   1       1.791  -2.406 -10.503  0.00  0.00     0.075 H 
BRANCH  10  13
ATOM     13  O   LIG d   1       3.701  -3.091 -10.117  0.00  0.00    -0.487 OA
BRANCH  13  14
ATOM     14  C   LIG d   1       4.529  -3.607  -9.170  0.00  0.00     0.125 A 
ATOM     15  C   LIG d   1       4.041  -4.516  -8.242  0.00  0.00    -0.015 A 
ATOM     16  C   LIG d   1       4.885  -5.043  -7.283  0.00  0.00    -0.029 A 
ATOM     17  H   LIG d   1       3.003  -4.813  -8.271  0.00  0.00     0.066 H 
ATOM     18  C   LIG d   1       6.212  -4.657  -7.242  0.00  0.00     0.044 A 
ATOM     19  C   LIG d   1       6.700  -3.747  -8.163  0.00  0.00    -0.036 A 
ATOM     20 CL   LIG d   1       7.270  -5.316  -6.032  0.00  0.00    -0.083 Cl
ATOM     21  C   LIG d   1       5.861  -3.222  -9.127  0.00  0.00    -0.002 A 
ATOM     22  H   LIG d   1       7.737  -3.448  -8.129  0.00  0.00     0.064 H 
BRANCH  16  23
ATOM     23  C   LIG d   1       4.357  -6.034  -6.279  0.00  0.00    -0.038 C 
ATOM     24  H   LIG d   1       4.208  -6.998  -6.764  0.00  0.00     0.028 H 
ATOM     25  H   LIG d   1       5.074  -6.143  -5.465  0.00  0.00     0.028 H 
ATOM     26  H   LIG d   1       3.407  -5.676  -5.881  0.00  0.00     0.028 H 
ENDBRANCH  16  23
BRANCH  21  27
ATOM     27  C   LIG d   1       6.393  -2.231 -10.131  0.00  0.00    -0.018 C 
ATOM     28  H   LIG d   1       5.760  -2.238 -11.018  0.00  0.00     0.035 H 
BRANCH  27  29
ATOM     29  C   LIG d   1       6.392  -0.831  -9.515  0.00  0.00    -0.059 C 
ATOM     30  H   LIG d   1       6.997  -0.164 -10.128  0.00  0.00     0.024 H 
ATOM     31  H   LIG d   1       5.370  -0.455  -9.470  0.00  0.00     0.024 H 
ATOM     32  H   LIG d   1       6.808  -0.876  -8.509  0.00  0.00     0.024 H 
ENDBRANCH  27  29
BRANCH  27  33
ATOM     33  C   LIG d   1       7.821  -2.617 -10.521  0.00  0.00    -0.059 C 
ATOM     34  H   LIG d   1       7.809  -3.133 -11.481  0.00  0.00     0.024 H 
ATOM     35  H   LIG d   1       8.432  -1.718 -10.598  0.00  0.00     0.024 H 
ATOM     36  H   LIG d   1       8.240  -3.276  -9.759  0.00  0.00     0.024 H 
ENDBRANCH  27  33
ENDBRANCH  21  27
ENDBRANCH  13  14
ENDBRANCH  10  13
ENDBRANCH   1  10
BRANCH   6  37
ATOM     37  O   LIG d   1       2.481  -0.136 -11.180  0.00  0.00    -0.495 OA
BRANCH  37  38
ATOM     38  C   LIG d   1       3.606  -0.101 -12.060  0.00  0.00     0.079 C 
ATOM     39  H   LIG d   1       4.282   0.698 -11.756  0.00  0.00     0.066 H 
ATOM     40  H   LIG d   1       3.265   0.080 -13.080  0.00  0.00     0.066 H 
ATOM     41  H   LIG d   1       4.130  -1.056 -12.016  0.00  0.00     0.066 H 
ENDBRANCH  37  38
ENDBRANCH   6  37
BRANCH   3  42
ATOM     42  C   LIG d   1       3.533   0.297  -5.664  0.00  0.00     0.045 C 
ATOM     43  H   LIG d   1       3.625   1.347  -5.390  0.00  0.00     0.097 H 
ATOM     44  C   LIG d   1       4.813  -0.433  -5.332  0.00  0.00     0.074 A 
ATOM     45  N   LIG d   1       5.987  -0.405  -6.034  0.00  0.00    -0.353 N 
ATOM     46  C   LIG d   1       4.945  -1.235  -4.252  0.00  0.00    -0.008 A 
ATOM     47  C   LIG d   1       6.913  -1.197  -5.418  0.00  0.00     0.047 A 
ATOM     48  H   LIG d   1       6.140   0.103  -6.847  0.00  0.00     0.166 HD
ATOM     49  C   LIG d   1       6.295  -1.754  -4.268  0.00  0.00     0.004 A 
ATOM     50  C   LIG d   1       8.236  -1.501  -5.729  0.00  0.00    -0.038 A 
ATOM     51  C   LIG d   1       6.992  -2.619  -3.417  0.00  0.00    -0.052 A 
ATOM     52  C   LIG d   1       8.294  -2.900  -3.750  0.00  0.00    -0.061 A 
ATOM     53  H   LIG d   1       6.527  -3.045  -2.541  0.00  0.00     0.062 H 
ATOM     54  C   LIG d   1       8.902  -2.359  -4.871  0.00  0.00    -0.060 A 
ATOM     55  H   LIG d   1       8.863  -3.565  -3.117  0.00  0.00     0.062 H 
ATOM     56  H   LIG d   1       9.929  -2.616  -5.083  0.00  0.00     0.062 H 
ATOM     57  H   LIG d   1       8.722  -1.085  -6.599  0.00  0.00     0.064 H 
ATOM     58  C   LIG d   1       3.836  -1.487  -3.262  0.00  0.00     0.023 C 
ATOM     59  CA  LIG d   1       2.760  -0.412  -3.472  0.00  0.00     0.023 C 
ATOM     60  H   LIG d   1       4.226  -1.423  -2.246  0.00  0.00     0.037 H 
ATOM     61  H   LIG d   1       3.408  -2.475  -3.431  0.00  0.00     0.037 H 
ATOM     62  HA  LIG d   1       1.864  -0.681  -2.911  0.00  0.00     0.092 H 
ATOM     63  N   LIG d   1       2.423  -0.323  -4.907  0.00  0.00     0.243 N 
ATOM     64  H1  LIG d   1       2.250  -1.267  -5.273  0.00  0.00     0.203 HD
ATOM     65  H2  LIG d   1       1.576   0.248  -5.020  0.00  0.00     0.203 HD
BRANCH  59  66
ATOM     66  C   LIG d   1       3.276   0.917  -2.986  0.00  0.00     0.090 C 
ATOM     67  O   LIG d   1       3.853   0.991  -1.927  0.00  0.00    -0.544 OA
ATOM     68  OXT LIG d   1       3.096   2.020  -3.730  0.00  0.00    -0.544 OA
ENDBRANCH  59  66
ENDBRANCH   3  42
TORSDOF 11
ENDMDL
MODEL 6
REMARK VINA RESULT:      -6.9      2.601      5.021
REMARK  11 active torsions:
REMARK  status: ('A' for Active; 'I' for Inactive)
REMARK    1  A    between atoms: C_1  and  C_2 
REMARK    2  A    between atoms: C_4  and  O_12 
REMARK    3  A    between atoms: C_5  and  C_9 
REMARK    4  A    between atoms: C_9  and  C_10 
REMARK    5  A    between atoms: C_9  and  C_11 
REMARK    6  A    between atoms: O_12  and  C_13 
REMARK    7  A    between atoms: C_13  and  C_14 
REMARK    8  A    between atoms: C_16  and  C_22 
REMARK    9  A    between atoms: C_19  and  O_20 
REMARK   10  A    between atoms: O_20  and  C_21 
REMARK   11  A    between atoms: CA_35  and  C_37 
ROOT
ATOM      1  C   LIG d   1       9.603   2.689  -4.099  0.00  0.00     0.032 A 
ATOM      2  C   LIG d   1       8.619   1.925  -3.501  0.00  0.00    -0.043 A 
ATOM      3  C   LIG d   1       7.735   1.202  -4.279  0.00  0.00     0.007 A 
ATOM      4  C   LIG d   1       7.827   1.247  -5.658  0.00  0.00    -0.049 A 
ATOM      5  C   LIG d   1       8.805   2.014  -6.262  0.00  0.00    -0.019 A 
ATOM      6  C   LIG d   1       9.694   2.740  -5.482  0.00  0.00     0.127 A 
ATOM      7  H   LIG d   1       8.545   1.887  -2.424  0.00  0.00     0.063 H 
ATOM      8  H   LIG d   1       7.134   0.682  -6.264  0.00  0.00     0.062 H 
ATOM      9  H   LIG d   1       8.875   2.049  -7.338  0.00  0.00     0.065 H 
ENDROOT
BRANCH   1  10
ATOM     10  C   LIG d   1      10.571   3.471  -3.250  0.00  0.00     0.118 C 
ATOM     11  H   LIG d   1      11.120   2.788  -2.602  0.00  0.00     0.075 H 
ATOM     12  H   LIG d   1      11.271   4.003  -3.894  0.00  0.00     0.075 H 
BRANCH  10  13
ATOM     13  O   LIG d   1       9.851   4.411  -2.450  0.00  0.00    -0.487 OA
BRANCH  13  14
ATOM     14  C   LIG d   1       9.986   5.725  -2.769  0.00  0.00     0.125 A 
ATOM     15  C   LIG d   1       9.597   6.179  -4.021  0.00  0.00    -0.015 A 
ATOM     16  C   LIG d   1       9.731   7.517  -4.341  0.00  0.00    -0.029 A 
ATOM     17  H   LIG d   1       9.186   5.489  -4.742  0.00  0.00     0.066 H 
ATOM     18  C   LIG d   1      10.264   8.400  -3.420  0.00  0.00     0.044 A 
ATOM     19  C   LIG d   1      10.658   7.947  -2.173  0.00  0.00    -0.036 A 
ATOM     20 CL   LIG d   1      10.438  10.079  -3.828  0.00  0.00    -0.083 Cl
ATOM     21  C   LIG d   1      10.520   6.613  -1.845  0.00  0.00    -0.002 A 
ATOM     22  H   LIG d   1      11.073   8.639  -1.454  0.00  0.00     0.064 H 
BRANCH  16  23
ATOM     23  C   LIG d   1       9.303   8.012  -5.699  0.00  0.00    -0.038 C 
ATOM     24  H   LIG d   1       9.053   7.162  -6.333  0.00  0.00     0.028 H 
ATOM     25  H   LIG d   1       8.429   8.655  -5.591  0.00  0.00     0.028 H 
ATOM     26  H   LIG d   1      10.117   8.577  -6.152  0.00  0.00     0.028 H 
ENDBRANCH  16  23
BRANCH  21  27
ATOM     27  C   LIG d   1      10.949   6.121  -0.487  0.00  0.00    -0.018 C 
ATOM     28  H   LIG d   1      10.281   5.323  -0.162  0.00  0.00     0.035 H 
BRANCH  27  29
ATOM     29  C   LIG d   1      12.380   5.586  -0.567  0.00  0.00    -0.059 C 
ATOM     30  H   LIG d   1      12.544   5.132  -1.544  0.00  0.00     0.024 H 
ATOM     31  H   LIG d   1      13.083   6.408  -0.426  0.00  0.00     0.024 H 
ATOM     32  H   LIG d   1      12.533   4.839   0.211  0.00  0.00     0.024 H 
ENDBRANCH  27  29
BRANCH  27  33
ATOM     33  C   LIG d   1      10.889   7.275   0.515  0.00  0.00    -0.059 C 
ATOM     34  H   LIG d   1       9.908   7.747   0.468  0.00  0.00     0.024 H 
ATOM     35  H   LIG d   1      11.060   6.892   1.521  0.00  0.00     0.024 H 
ATOM     36  H   LIG d   1      11.658   8.008   0.271  0.00  0.00     0.024 H 
ENDBRANCH  27  33
ENDBRANCH  21  27
ENDBRANCH  13  14
ENDBRANCH  10  13
ENDBRANCH   1  10
BRANCH   6  37
ATOM     37  O   LIG d   1      10.656   3.495  -6.074  0.00  0.00    -0.495 OA
BRANCH  37  38
ATOM     38  C   LIG d   1      10.246   4.349  -7.143  0.00  0.00     0.079 C 
ATOM     39  H   LIG d   1      11.114   4.628  -7.741  0.00  0.00     0.066 H 
ATOM     40  H   LIG d   1       9.783   5.247  -6.734  0.00  0.00     0.066 H 
ATOM     41  H   LIG d   1       9.527   3.823  -7.772  0.00  0.00     0.066 H 
ENDBRANCH  37  38
ENDBRANCH   6  37
BRANCH   3  42
ATOM     42  C   LIG d   1       6.668   0.364  -3.623  0.00  0.00     0.045 C 
ATOM     43  H   LIG d   1       6.746   0.453  -2.540  0.00  0.00     0.097 H 
ATOM     44  C   LIG d   1       6.835  -1.081  -4.031  0.00  0.00     0.074 A 
ATOM     45  N   LIG d   1       8.003  -1.790  -4.108  0.00  0.00    -0.353 N 
ATOM     46  C   LIG d   1       5.797  -1.872  -4.385  0.00  0.00    -0.008 A 
ATOM     47  C   LIG d   1       7.743  -3.066  -4.518  0.00  0.00     0.047 A 
ATOM     48  H   LIG d   1       8.884  -1.439  -3.901  0.00  0.00     0.166 HD
ATOM     49  C   LIG d   1       6.341  -3.172  -4.709  0.00  0.00     0.004 A 
ATOM     50  C   LIG d   1       8.575  -4.160  -4.748  0.00  0.00    -0.038 A 
ATOM     51  C   LIG d   1       5.755  -4.370  -5.132  0.00  0.00    -0.052 A 
ATOM     52  C   LIG d   1       6.600  -5.429  -5.352  0.00  0.00    -0.061 A 
ATOM     53  H   LIG d   1       4.689  -4.456  -5.280  0.00  0.00     0.062 H 
ATOM     54  C   LIG d   1       7.969  -5.332  -5.166  0.00  0.00    -0.060 A 
ATOM     55  H   LIG d   1       6.183  -6.370  -5.680  0.00  0.00     0.062 H 
ATOM     56  H   LIG d   1       8.585  -6.199  -5.355  0.00  0.00     0.062 H 
ATOM     57  H   LIG d   1       9.644  -4.097  -4.606  0.00  0.00     0.064 H 
ATOM     58  C   LIG d   1       4.364  -1.403  -4.408  0.00  0.00     0.023 C 
ATOM     59  CA  LIG d   1       4.281  -0.092  -3.612  0.00  0.00     0.023 C 
ATOM     60  H   LIG d   1       3.722  -2.154  -3.947  0.00  0.00     0.037 H 
ATOM     61  H   LIG d   1       4.049  -1.229  -5.437  0.00  0.00     0.037 H 
ATOM     62  HA  LIG d   1       3.307   0.370  -3.774  0.00  0.00     0.092 H 
ATOM     63  N   LIG d   1       5.337   0.832  -4.070  0.00  0.00     0.243 N 
ATOM     64  H1  LIG d   1       5.323   0.881  -5.096  0.00  0.00     0.203 HD
ATOM     65  H2  LIG d   1       5.160   1.767  -3.682  0.00  0.00     0.203 HD
BRANCH  59  66
ATOM     66  C   LIG d   1       4.460  -0.384  -2.145  0.00  0.00     0.090 C 
ATOM     67  O   LIG d   1       4.660   0.521  -1.369  0.00  0.00    -0.544 OA
ATOM     68  OXT LIG d   1       4.396  -1.648  -1.699  0.00  0.00    -0.544 OA
ENDBRANCH  59  66
ENDBRANCH   3  42
TORSDOF 11
ENDMDL
MODEL 7
REMARK VINA RESULT:      -6.8      3.736      9.360
REMARK  11 active torsions:
REMARK  status: ('A' for Active; 'I' for Inactive)
REMARK    1  A    between atoms: C_1  and  C_2 
REMARK    2  A    between atoms: C_4  and  O_12 
REMARK    3  A    between atoms: C_5  and  C_9 
REMARK    4  A    between atoms: C_9  and  C_10 
REMARK    5  A    between atoms: C_9  and  C_11 
REMARK    6  A    between atoms: O_12  and  C_13 
REMARK    7  A    between atoms: C_13  and  C_14 
REMARK    8  A    between atoms: C_16  and  C_22 
REMARK    9  A    between atoms: C_19  and  O_20 
REMARK   10  A    between atoms: O_20  and  C_21 
REMARK   11  A    between atoms: CA_35  and  C_37 
ROOT
ATOM      1  C   LIG d   1       9.406   1.982  -4.065  0.00  0.00     0.032 A 
ATOM      2  C   LIG d   1       9.455   3.102  -3.257  0.00  0.00    -0.043 A 
ATOM      3  C   LIG d   1      10.673   3.585  -2.816  0.00  0.00     0.007 A 
ATOM      4  C   LIG d   1      11.845   2.946  -3.177  0.00  0.00    -0.049 A 
ATOM      5  C   LIG d   1      11.801   1.823  -3.980  0.00  0.00    -0.019 A 
ATOM      6  C   LIG d   1      10.580   1.336  -4.424  0.00  0.00     0.127 A 
ATOM      7  H   LIG d   1       8.542   3.604  -2.975  0.00  0.00     0.063 H 
ATOM      8  H   LIG d   1      12.795   3.324  -2.830  0.00  0.00     0.062 H 
ATOM      9  H   LIG d   1      12.717   1.323  -4.260  0.00  0.00     0.065 H 
ENDROOT
BRANCH   1  10
ATOM     10  C   LIG d   1       8.079   1.461  -4.552  0.00  0.00     0.118 C 
ATOM     11  H   LIG d   1       7.483   2.288  -4.938  0.00  0.00     0.075 H 
ATOM     12  H   LIG d   1       8.244   0.731  -5.343  0.00  0.00     0.075 H 
BRANCH  10  13
ATOM     13  O   LIG d   1       7.385   0.840  -3.467  0.00  0.00    -0.487 OA
BRANCH  13  14
ATOM     14  C   LIG d   1       6.757  -0.336  -3.730  0.00  0.00     0.125 A 
ATOM     15  C   LIG d   1       7.491  -1.441  -4.134  0.00  0.00    -0.015 A 
ATOM     16  C   LIG d   1       6.851  -2.637  -4.396  0.00  0.00    -0.029 A 
ATOM     17  H   LIG d   1       8.563  -1.367  -4.241  0.00  0.00     0.066 H 
ATOM     18  C   LIG d   1       5.477  -2.730  -4.265  0.00  0.00     0.044 A 
ATOM     19  C   LIG d   1       4.742  -1.627  -3.867  0.00  0.00    -0.036 A 
ATOM     20 CL   LIG d   1       4.674  -4.232  -4.601  0.00  0.00    -0.083 Cl
ATOM     21  C   LIG d   1       5.379  -0.431  -3.599  0.00  0.00    -0.002 A 
ATOM     22  H   LIG d   1       3.669  -1.702  -3.766  0.00  0.00     0.064 H 
BRANCH  16  23
ATOM     23  C   LIG d   1       7.649  -3.839  -4.830  0.00  0.00    -0.038 C 
ATOM     24  H   LIG d   1       7.403  -4.085  -5.862  0.00  0.00     0.028 H 
ATOM     25  H   LIG d   1       8.714  -3.615  -4.753  0.00  0.00     0.028 H 
ATOM     26  H   LIG d   1       7.409  -4.686  -4.187  0.00  0.00     0.028 H 
ENDBRANCH  16  23
BRANCH  21  27
ATOM     27  C   LIG d   1       4.577   0.769  -3.164  0.00  0.00    -0.018 C 
ATOM     28  H   LIG d   1       5.055   1.677  -3.531  0.00  0.00     0.035 H 
BRANCH  27  29
ATOM     29  C   LIG d   1       3.162   0.671  -3.737  0.00  0.00    -0.059 C 
ATOM     30  H   LIG d   1       3.189   0.872  -4.808  0.00  0.00     0.024 H 
ATOM     31  H   LIG d   1       2.769  -0.331  -3.565  0.00  0.00     0.024 H 
ATOM     32  H   LIG d   1       2.520   1.403  -3.247  0.00  0.00     0.024 H 
ENDBRANCH  27  29
BRANCH  27  33
ATOM     33  C   LIG d   1       4.509   0.810  -1.636  0.00  0.00    -0.059 C 
ATOM     34  H   LIG d   1       3.565   1.258  -1.327  0.00  0.00     0.024 H 
ATOM     35  H   LIG d   1       4.576  -0.204  -1.243  0.00  0.00     0.024 H 
ATOM     36  H   LIG d   1       5.338   1.404  -1.252  0.00  0.00     0.024 H 
ENDBRANCH  27  33
ENDBRANCH  21  27
ENDBRANCH  13  14
ENDBRANCH  10  13
ENDBRANCH   1  10
BRANCH   6  37
ATOM     37  O   LIG d   1      10.535   0.232  -5.214  0.00  0.00    -0.495 OA
BRANCH  37  38
ATOM     38  C   LIG d   1      11.051   0.360  -6.540  0.00  0.00     0.079 C 
ATOM     39  H   LIG d   1      12.066  -0.036  -6.576  0.00  0.00     0.066 H 
ATOM     40  H   LIG d   1      11.062   1.413  -6.826  0.00  0.00     0.066 H 
ATOM     41  H   LIG d   1      10.419  -0.197  -7.231  0.00  0.00     0.066 H 
ENDBRANCH  37  38
ENDBRANCH   6  37
BRANCH   3  42
ATOM     42  C   LIG d   1      10.723   4.811  -1.941  0.00  0.00     0.045 C 
ATOM     43  H   LIG d   1       9.918   4.770  -1.208  0.00  0.00     0.097 H 
ATOM     44  C   LIG d   1      10.579   6.050  -2.792  0.00  0.00     0.074 A 
ATOM     45  N   LIG d   1       9.700   6.248  -3.822  0.00  0.00    -0.353 N 
ATOM     46  C   LIG d   1      11.341   7.154  -2.624  0.00  0.00    -0.008 A 
ATOM     47  C   LIG d   1       9.878   7.496  -4.348  0.00  0.00     0.047 A 
ATOM     48  H   LIG d   1       9.047   5.600  -4.132  0.00  0.00     0.166 HD
ATOM     49  C   LIG d   1      10.920   8.120  -3.614  0.00  0.00     0.004 A 
ATOM     50  C   LIG d   1       9.245   8.168  -5.391  0.00  0.00    -0.038 A 
ATOM     51  C   LIG d   1      11.341   9.420  -3.914  0.00  0.00    -0.052 A 
ATOM     52  C   LIG d   1      10.700  10.056  -4.947  0.00  0.00    -0.061 A 
ATOM     53  H   LIG d   1      12.133   9.899  -3.359  0.00  0.00     0.062 H 
ATOM     54  C   LIG d   1       9.681   9.452  -5.667  0.00  0.00    -0.060 A 
ATOM     55  H   LIG d   1      10.999  11.060  -5.208  0.00  0.00     0.062 H 
ATOM     56  H   LIG d   1       9.213  10.002  -6.470  0.00  0.00     0.062 H 
ATOM     57  H   LIG d   1       8.449   7.709  -5.959  0.00  0.00     0.064 H 
ATOM     58  C   LIG d   1      12.413   7.271  -1.570  0.00  0.00     0.023 C 
ATOM     59  CA  LIG d   1      12.195   6.149  -0.544  0.00  0.00     0.023 C 
ATOM     60  H   LIG d   1      12.341   8.239  -1.075  0.00  0.00     0.037 H 
ATOM     61  H   LIG d   1      13.396   7.163  -2.029  0.00  0.00     0.037 H 
ATOM     62  HA  LIG d   1      13.060   6.086   0.116  0.00  0.00     0.092 H 
ATOM     63  N   LIG d   1      12.030   4.861  -1.247  0.00  0.00     0.243 N 
ATOM     64  H1  LIG d   1      12.783   4.754  -1.938  0.00  0.00     0.203 HD
ATOM     65  H2  LIG d   1      12.080   4.094  -0.566  0.00  0.00     0.203 HD
BRANCH  59  66
ATOM     66  C   LIG d   1      10.963   6.446   0.271  0.00  0.00     0.090 C 
ATOM     67  O   LIG d   1      10.332   7.455   0.065  0.00  0.00    -0.544 OA
ATOM     68  OXT LIG d   1      10.566   5.589   1.224  0.00  0.00    -0.544 OA
ENDBRANCH  59  66
ENDBRANCH   3  42
TORSDOF 11
ENDMDL
MODEL 8
REMARK VINA RESULT:      -6.7      5.948      8.579
REMARK  11 active torsions:
REMARK  status: ('A' for Active; 'I' for Inactive)
REMARK    1  A    between atoms: C_1  and  C_2 
REMARK    2  A    between atoms: C_4  and  O_12 
REMARK    3  A    between atoms: C_5  and  C_9 
REMARK    4  A    between atoms: C_9  and  C_10 
REMARK    5  A    between atoms: C_9  and  C_11 
REMARK    6  A    between atoms: O_12  and  C_13 
REMARK    7  A    between atoms: C_13  and  C_14 
REMARK    8  A    between atoms: C_16  and  C_22 
REMARK    9  A    between atoms: C_19  and  O_20 
REMARK   10  A    between atoms: O_20  and  C_21 
REMARK   11  A    between atoms: CA_35  and  C_37 
ROOT
ATOM      1  C   LIG d   1       4.694  -3.387  -9.219  0.00  0.00     0.032 A 
ATOM      2  C   LIG d   1       5.511  -3.138  -8.133  0.00  0.00    -0.043 A 
ATOM      3  C   LIG d   1       5.350  -3.859  -6.965  0.00  0.00     0.007 A 
ATOM      4  C   LIG d   1       4.366  -4.827  -6.877  0.00  0.00    -0.049 A 
ATOM      5  C   LIG d   1       3.543  -5.076  -7.958  0.00  0.00    -0.019 A 
ATOM      6  C   LIG d   1       3.703  -4.354  -9.132  0.00  0.00     0.127 A 
ATOM      7  H   LIG d   1       6.281  -2.383  -8.199  0.00  0.00     0.063 H 
ATOM      8  H   LIG d   1       4.241  -5.388  -5.963  0.00  0.00     0.062 H 
ATOM      9  H   LIG d   1       2.774  -5.831  -7.888  0.00  0.00     0.065 H 
ENDROOT
BRANCH   1  10
ATOM     10  C   LIG d   1       4.875  -2.606 -10.494  0.00  0.00     0.118 C 
ATOM     11  H   LIG d   1       5.938  -2.536 -10.730  0.00  0.00     0.075 H 
ATOM     12  H   LIG d   1       4.356  -3.112 -11.307  0.00  0.00     0.075 H 
BRANCH  10  13
ATOM     13  O   LIG d   1       4.337  -1.292 -10.329  0.00  0.00    -0.487 OA
BRANCH  13  14
ATOM     14  C   LIG d   1       5.200  -0.317  -9.938  0.00  0.00     0.125 A 
ATOM     15  C   LIG d   1       6.513  -0.330 -10.386  0.00  0.00    -0.015 A 
ATOM     16  C   LIG d   1       7.386   0.665  -9.991  0.00  0.00    -0.029 A 
ATOM     17  H   LIG d   1       6.850  -1.115 -11.047  0.00  0.00     0.066 H 
ATOM     18  C   LIG d   1       6.956   1.667  -9.141  0.00  0.00     0.044 A 
ATOM     19  C   LIG d   1       5.648   1.678  -8.687  0.00  0.00    -0.036 A 
ATOM     20 CL   LIG d   1       8.058   2.912  -8.640  0.00  0.00    -0.083 Cl
ATOM     21  C   LIG d   1       4.770   0.689  -9.084  0.00  0.00    -0.002 A 
ATOM     22  H   LIG d   1       5.315   2.461  -8.023  0.00  0.00     0.064 H 
BRANCH  16  23
ATOM     23  C   LIG d   1       8.811   0.655 -10.484  0.00  0.00    -0.038 C 
ATOM     24  H   LIG d   1       9.345  -0.179 -10.030  0.00  0.00     0.028 H 
ATOM     25  H   LIG d   1       8.819   0.545 -11.568  0.00  0.00     0.028 H 
ATOM     26  H   LIG d   1       9.296   1.591 -10.209  0.00  0.00     0.028 H 
ENDBRANCH  16  23
BRANCH  21  27
ATOM     27  C   LIG d   1       3.346   0.703  -8.591  0.00  0.00    -0.018 C 
ATOM     28  H   LIG d   1       2.717   0.143  -9.283  0.00  0.00     0.035 H 
BRANCH  27  29
ATOM     29  C   LIG d   1       3.280   0.055  -7.206  0.00  0.00    -0.059 C 
ATOM     30  H   LIG d   1       4.188   0.293  -6.651  0.00  0.00     0.024 H 
ATOM     31  H   LIG d   1       2.414   0.439  -6.667  0.00  0.00     0.024 H 
ATOM     32  H   LIG d   1       3.193  -1.025  -7.313  0.00  0.00     0.024 H 
ENDBRANCH  27  29
BRANCH  27  33
ATOM     33  C   LIG d   1       2.850   2.147  -8.504  0.00  0.00    -0.059 C 
ATOM     34  H   LIG d   1       2.001   2.200  -7.823  0.00  0.00     0.024 H 
ATOM     35  H   LIG d   1       3.653   2.785  -8.135  0.00  0.00     0.024 H 
ATOM     36  H   LIG d   1       2.544   2.486  -9.494  0.00  0.00     0.024 H 
ENDBRANCH  27  33
ENDBRANCH  21  27
ENDBRANCH  13  14
ENDBRANCH  10  13
ENDBRANCH   1  10
BRANCH   6  37
ATOM     37  O   LIG d   1       2.895  -4.597 -10.196  0.00  0.00    -0.495 OA
BRANCH  37  38
ATOM     38  C   LIG d   1       1.606  -3.981 -10.187  0.00  0.00     0.079 C 
ATOM     39  H   LIG d   1       1.712  -2.918  -9.967  0.00  0.00     0.066 H 
ATOM     40  H   LIG d   1       0.984  -4.449  -9.424  0.00  0.00     0.066 H 
ATOM     41  H   LIG d   1       1.138  -4.104 -11.164  0.00  0.00     0.066 H 
ENDBRANCH  37  38
ENDBRANCH   6  37
BRANCH   3  42
ATOM     42  C   LIG d   1       6.247  -3.589  -5.785  0.00  0.00     0.045 C 
ATOM     43  H   LIG d   1       6.398  -4.510  -5.222  0.00  0.00     0.097 H 
ATOM     44  C   LIG d   1       5.617  -2.543  -4.896  0.00  0.00     0.074 A 
ATOM     45  N   LIG d   1       4.306  -2.464  -4.513  0.00  0.00    -0.353 N 
ATOM     46  C   LIG d   1       6.314  -1.518  -4.356  0.00  0.00    -0.008 A 
ATOM     47  C   LIG d   1       4.124  -1.374  -3.711  0.00  0.00     0.047 A 
ATOM     48  H   LIG d   1       3.610  -3.088  -4.772  0.00  0.00     0.166 HD
ATOM     49  C   LIG d   1       5.383  -0.732  -3.577  0.00  0.00     0.004 A 
ATOM     50  C   LIG d   1       2.996  -0.862  -3.073  0.00  0.00    -0.038 A 
ATOM     51  C   LIG d   1       5.527   0.427  -2.807  0.00  0.00    -0.052 A 
ATOM     52  C   LIG d   1       4.399   0.908  -2.192  0.00  0.00    -0.061 A 
ATOM     53  H   LIG d   1       6.483   0.920  -2.703  0.00  0.00     0.062 H 
ATOM     54  C   LIG d   1       3.168   0.285  -2.318  0.00  0.00    -0.060 A 
ATOM     55  H   LIG d   1       4.473   1.802  -1.590  0.00  0.00     0.062 H 
ATOM     56  H   LIG d   1       2.314   0.709  -1.811  0.00  0.00     0.062 H 
ATOM     57  H   LIG d   1       2.031  -1.339  -3.162  0.00  0.00     0.064 H 
ATOM     58  C   LIG d   1       7.790  -1.308  -4.578  0.00  0.00     0.023 C 
ATOM     59  CA  LIG d   1       8.376  -2.611  -5.139  0.00  0.00     0.023 C 
ATOM     60  H   LIG d   1       8.275  -1.064  -3.632  0.00  0.00     0.037 H 
ATOM     61  H   LIG d   1       7.945  -0.498  -5.290  0.00  0.00     0.037 H 
ATOM     62  HA  LIG d   1       9.392  -2.432  -5.490  0.00  0.00     0.092 H 
ATOM     63  N   LIG d   1       7.549  -3.080  -6.269  0.00  0.00     0.243 N 
ATOM     64  H1  LIG d   1       7.387  -2.298  -6.915  0.00  0.00     0.203 HD
ATOM     65  H2  LIG d   1       8.045  -3.833  -6.761  0.00  0.00     0.203 HD
BRANCH  59  66
ATOM     66  C   LIG d   1       8.398  -3.659  -4.056  0.00  0.00     0.090 C 
ATOM     67  O   LIG d   1       8.399  -4.831  -4.349  0.00  0.00    -0.544 OA
ATOM     68  OXT LIG d   1       8.418  -3.290  -2.765  0.00  0.00    -0.544 OA
ENDBRANCH  59  66
ENDBRANCH   3  42
TORSDOF 11
ENDMDL
MODEL 9
REMARK VINA RESULT:      -6.6      1.558      2.617
REMARK  11 active torsions:
REMARK  status: ('A' for Active; 'I' for Inactive)
REMARK    1  A    between atoms: C_1  and  C_2 
REMARK    2  A    between atoms: C_4  and  O_12 
REMARK    3  A    between atoms: C_5  and  C_9 
REMARK    4  A    between atoms: C_9  and  C_10 
REMARK    5  A    between atoms: C_9  and  C_11 
REMARK    6  A    between atoms: O_12  and  C_13 
REMARK    7  A    between atoms: C_13  and  C_14 
REMARK    8  A    between atoms: C_16  and  C_22 
REMARK    9  A    between atoms: C_19  and  O_20 
REMARK   10  A    between atoms: O_20  and  C_21 
REMARK   11  A    between atoms: CA_35  and  C_37 
ROOT
ATOM      1  C   LIG d   1       9.764   5.007  -3.240  0.00  0.00     0.032 A 
ATOM      2  C   LIG d   1       9.005   4.289  -4.145  0.00  0.00    -0.043 A 
ATOM      3  C   LIG d   1       9.161   2.919  -4.246  0.00  0.00     0.007 A 
ATOM      4  C   LIG d   1      10.082   2.265  -3.449  0.00  0.00    -0.049 A 
ATOM      5  C   LIG d   1      10.847   2.979  -2.547  0.00  0.00    -0.019 A 
ATOM      6  C   LIG d   1      10.692   4.354  -2.443  0.00  0.00     0.127 A 
ATOM      7  H   LIG d   1       8.285   4.797  -4.768  0.00  0.00     0.063 H 
ATOM      8  H   LIG d   1      10.203   1.195  -3.531  0.00  0.00     0.062 H 
ATOM      9  H   LIG d   1      11.567   2.467  -1.925  0.00  0.00     0.065 H 
ENDROOT
BRANCH   1  10
ATOM     10  C   LIG d   1       9.588   6.499  -3.125  0.00  0.00     0.118 C 
ATOM     11  H   LIG d   1       8.683   6.800  -3.654  0.00  0.00     0.075 H 
ATOM     12  H   LIG d   1       9.502   6.774  -2.074  0.00  0.00     0.075 H 
BRANCH  10  13
ATOM     13  O   LIG d   1      10.717   7.158  -3.701  0.00  0.00    -0.487 OA
BRANCH  13  14
ATOM     14  C   LIG d   1      10.464   8.205  -4.530  0.00  0.00     0.125 A 
ATOM     15  C   LIG d   1       9.920   7.981  -5.786  0.00  0.00    -0.015 A 
ATOM     16  C   LIG d   1       9.659   9.047  -6.625  0.00  0.00    -0.029 A 
ATOM     17  H   LIG d   1       9.696   6.974  -6.105  0.00  0.00     0.066 H 
ATOM     18  C   LIG d   1       9.952  10.336  -6.218  0.00  0.00     0.044 A 
ATOM     19  C   LIG d   1      10.501  10.561  -4.968  0.00  0.00    -0.036 A 
ATOM     20 CL   LIG d   1       9.630  11.674  -7.277  0.00  0.00    -0.083 Cl
ATOM     21  C   LIG d   1      10.757   9.499  -4.123  0.00  0.00    -0.002 A 
ATOM     22  H   LIG d   1      10.728  11.569  -4.652  0.00  0.00     0.064 H 
BRANCH  16  23
ATOM     23  C   LIG d   1       9.062   8.804  -7.987  0.00  0.00    -0.038 C 
ATOM     24  H   LIG d   1       8.898   7.736  -8.126  0.00  0.00     0.028 H 
ATOM     25  H   LIG d   1       8.110   9.331  -8.065  0.00  0.00     0.028 H 
ATOM     26  H   LIG d   1       9.745   9.171  -8.753  0.00  0.00     0.028 H 
ENDBRANCH  16  23
BRANCH  21  27
ATOM     27  C   LIG d   1      11.354   9.745  -2.761  0.00  0.00    -0.018 C 
ATOM     28  H   LIG d   1      11.202   8.867  -2.134  0.00  0.00     0.035 H 
BRANCH  27  29
ATOM     29  C   LIG d   1      12.853  10.017  -2.904  0.00  0.00    -0.059 C 
ATOM     30  H   LIG d   1      13.025  11.092  -2.946  0.00  0.00     0.024 H 
ATOM     31  H   LIG d   1      13.381   9.598  -2.046  0.00  0.00     0.024 H 
ATOM     32  H   LIG d   1      13.221   9.555  -3.819  0.00  0.00     0.024 H 
ENDBRANCH  27  29
BRANCH  27  33
ATOM     33  C   LIG d   1      10.674  10.955  -2.118  0.00  0.00    -0.059 C 
ATOM     34  H   LIG d   1       9.826  11.264  -2.730  0.00  0.00     0.024 H 
ATOM     35  H   LIG d   1      10.324  10.687  -1.121  0.00  0.00     0.024 H 
ATOM     36  H   LIG d   1      11.388  11.776  -2.044  0.00  0.00     0.024 H 
ENDBRANCH  27  33
ENDBRANCH  21  27
ENDBRANCH  13  14
ENDBRANCH  10  13
ENDBRANCH   1  10
BRANCH   6  37
ATOM     37  O   LIG d   1      11.443   5.058  -1.556  0.00  0.00    -0.495 OA
BRANCH  37  38
ATOM     38  C   LIG d   1      12.849   5.121  -1.804  0.00  0.00     0.079 C 
ATOM     39  H   LIG d   1      13.110   4.430  -2.605  0.00  0.00     0.066 H 
ATOM     40  H   LIG d   1      13.390   4.848  -0.897  0.00  0.00     0.066 H 
ATOM     41  H   LIG d   1      13.120   6.136  -2.097  0.00  0.00     0.066 H 
ENDBRANCH  37  38
ENDBRANCH   6  37
BRANCH   3  42
ATOM     42  C   LIG d   1       8.327   2.138  -5.229  0.00  0.00     0.045 C 
ATOM     43  H   LIG d   1       7.799   2.826  -5.888  0.00  0.00     0.097 H 
ATOM     44  C   LIG d   1       7.334   1.280  -4.482  0.00  0.00     0.074 A 
ATOM     45  N   LIG d   1       6.569   1.644  -3.407  0.00  0.00    -0.353 N 
ATOM     46  C   LIG d   1       7.079  -0.007  -4.809  0.00  0.00    -0.008 A 
ATOM     47  C   LIG d   1       5.798   0.589  -3.010  0.00  0.00     0.047 A 
ATOM     48  H   LIG d   1       6.574   2.520  -2.989  0.00  0.00     0.166 HD
ATOM     49  C   LIG d   1       6.086  -0.496  -3.878  0.00  0.00     0.004 A 
ATOM     50  C   LIG d   1       4.866   0.448  -1.984  0.00  0.00    -0.038 A 
ATOM     51  C   LIG d   1       5.449  -1.733  -3.729  0.00  0.00    -0.052 A 
ATOM     52  C   LIG d   1       4.538  -1.842  -2.709  0.00  0.00    -0.061 A 
ATOM     53  H   LIG d   1       5.665  -2.562  -4.387  0.00  0.00     0.062 H 
ATOM     54  C   LIG d   1       4.252  -0.786  -1.860  0.00  0.00    -0.060 A 
ATOM     55  H   LIG d   1       4.027  -2.782  -2.564  0.00  0.00     0.062 H 
ATOM     56  H   LIG d   1       3.525  -0.930  -1.073  0.00  0.00     0.062 H 
ATOM     57  H   LIG d   1       4.634   1.264  -1.316  0.00  0.00     0.064 H 
ATOM     58  C   LIG d   1       7.753  -0.724  -5.951  0.00  0.00     0.023 C 
ATOM     59  CA  LIG d   1       8.411   0.331  -6.852  0.00  0.00     0.023 C 
ATOM     60  H   LIG d   1       7.014  -1.286  -6.522  0.00  0.00     0.037 H 
ATOM     61  H   LIG d   1       8.513  -1.402  -5.565  0.00  0.00     0.037 H 
ATOM     62  HA  LIG d   1       9.065  -0.161  -7.571  0.00  0.00     0.092 H 
ATOM     63  N   LIG d   1       9.210   1.258  -6.026  0.00  0.00     0.243 N 
ATOM     64  H1  LIG d   1       9.808   0.715  -5.391  0.00  0.00     0.203 HD
ATOM     65  H2  LIG d   1       9.798   1.836  -6.639  0.00  0.00     0.203 HD
BRANCH  59  66
ATOM     66  C   LIG d   1       7.343   1.098  -7.589  0.00  0.00     0.090 C 
ATOM     67  O   LIG d   1       7.635   2.084  -8.222  0.00  0.00    -0.544 OA
ATOM     68  OXT LIG d   1       6.067   0.685  -7.542  0.00  0.00    -0.544 OA
ENDBRANCH  59  66
ENDBRANCH   3  42
TORSDOF 11
ENDMDL
