MODEL 1
REMARK VINA RESULT:      -6.0      0.000      0.000
REMARK  7 active torsions:
REMARK  status: ('A' for Active; 'I' for Inactive)
REMARK    1  A    between atoms: C_1  and  C_2 
REMARK    2  A    between atoms: C_2  and  O_3 
REMARK    3  A    between atoms: O_3  and  C_4 
REMARK    4  A    between atoms: C_4  and  C_6 
REMARK    5  A    between atoms: C_7  and  C_23 
REMARK    6  A    between atoms: C_11  and  N_15 
REMARK       I    between atoms: N_15  and  C_16 
REMARK    7  A    between atoms: C_16  and  C_18 
ROOT
ATOM      1  C   LIG d   1       5.154  -8.125  -6.228  0.00  0.00     0.215 A 
ATOM      2  C   LIG d   1       6.443  -7.754  -6.014  0.00  0.00     0.010 A 
ATOM      3  C   LIG d   1       6.420  -6.388  -5.632  0.00  0.00     0.024 A 
ATOM      4  C   LIG d   1       7.415  -5.464  -5.288  0.00  0.00    -0.049 A 
ATOM      5  C   LIG d   1       7.070  -4.185  -4.964  0.00  0.00    -0.040 A 
ATOM      6  C   LIG d   1       5.731  -3.793  -4.961  0.00  0.00     0.037 A 
ATOM      7  C   LIG d   1       4.734  -4.694  -5.300  0.00  0.00     0.003 A 
ATOM      8  C   LIG d   1       5.068  -5.998  -5.637  0.00  0.00     0.138 A 
ATOM      9  O   LIG d   1       4.338  -7.072  -6.000  0.00  0.00    -0.448 OA
ATOM     10  H   LIG d   1       8.453  -5.763  -5.284  0.00  0.00     0.062 H 
ATOM     11  H   LIG d   1       7.838  -3.472  -4.704  0.00  0.00     0.064 H 
ATOM     12  H   LIG d   1       3.700  -4.383  -5.299  0.00  0.00     0.067 H 
ENDROOT
BRANCH   6  13
ATOM     13  N   LIG d   1       5.393  -2.482  -4.622  0.00  0.00    -0.281 N 
ATOM     14  C   LIG d   1       4.550  -2.247  -3.598  0.00  0.00     0.255 C 
ATOM     15  O   LIG d   1       4.018  -3.177  -3.021  0.00  0.00    -0.269 OA
ATOM     16  H   LIG d   1       5.765  -1.741  -5.124  0.00  0.00     0.155 HD
BRANCH  14  17
ATOM     17  C   LIG d   1       4.269  -0.870  -3.181  0.00  0.00     0.074 A 
ATOM     18  S   LIG d   1       3.333   0.391  -4.027  0.00  0.00    -0.092 SA
ATOM     19  C   LIG d   1       3.501   1.665  -2.862  0.00  0.00    -0.024 A 
ATOM     20  C   LIG d   1       4.258   1.096  -1.887  0.00  0.00    -0.054 A 
ATOM     21  H   LIG d   1       3.104   2.668  -2.902  0.00  0.00     0.069 H 
ATOM     22  C   LIG d   1       4.666  -0.207  -2.030  0.00  0.00    -0.043 A 
ATOM     23  H   LIG d   1       4.538   1.663  -1.012  0.00  0.00     0.062 H 
ATOM     24  H   LIG d   1       5.269  -0.694  -1.278  0.00  0.00     0.063 H 
ENDBRANCH  14  17
ENDBRANCH   6  13
BRANCH   2  25
ATOM     25  C   LIG d   1       7.664  -8.625  -6.156  0.00  0.00    -0.035 C 
ATOM     26  H   LIG d   1       7.968  -8.658  -7.203  0.00  0.00     0.028 H 
ATOM     27  H   LIG d   1       8.475  -8.213  -5.555  0.00  0.00     0.028 H 
ATOM     28  H   LIG d   1       7.434  -9.633  -5.813  0.00  0.00     0.028 H 
ENDBRANCH   2  25
BRANCH   1  29
ATOM     29  C   LIG d   1       4.715  -9.463  -6.639  0.00  0.00     0.375 C 
ATOM     30  O   LIG d   1       4.985  -9.875  -7.752  0.00  0.00    -0.241 OA
BRANCH  29  31
ATOM     31  O   LIG d   1       4.011 -10.234  -5.786  0.00  0.00    -0.459 OA
BRANCH  31  32
ATOM     32  C   LIG d   1       4.676 -10.634  -4.559  0.00  0.00     0.090 C 
ATOM     33  H   LIG d   1       4.732 -11.722  -4.514  0.00  0.00     0.070 H 
ATOM     34  H   LIG d   1       5.683 -10.216  -4.538  0.00  0.00     0.070 H 
BRANCH  32  35
ATOM     35  C   LIG d   1       3.883 -10.115  -3.357  0.00  0.00    -0.031 C 
ATOM     36  H   LIG d   1       4.366 -10.439  -2.436  0.00  0.00     0.026 H 
ATOM     37  H   LIG d   1       3.850  -9.026  -3.387  0.00  0.00     0.026 H 
ATOM     38  H   LIG d   1       2.867 -10.510  -3.394  0.00  0.00     0.026 H 
ENDBRANCH  32  35
ENDBRANCH  31  32
ENDBRANCH  29  31
ENDBRANCH   1  29
TORSDOF 7
ENDMDL
MODEL 2
REMARK VINA RESULT:      -5.9      6.398      9.258
REMARK  7 active torsions:
REMARK  status: ('A' for Active; 'I' for Inactive)
REMARK    1  A    between atoms: C_1  and  C_2 
REMARK    2  A    between atoms: C_2  and  O_3 
REMARK    3  A    between atoms: O_3  and  C_4 
REMARK    4  A    between atoms: C_4  and  C_6 
REMARK    5  A    between atoms: C_7  and  C_23 
REMARK    6  A    between atoms: C_11  and  N_15 
REMARK       I    between atoms: N_15  and  C_16 
REMARK    7  A    between atoms: C_16  and  C_18 
ROOT
ATOM      1  C   LIG d   1       4.137  -1.134  -5.461  0.00  0.00     0.215 A 
ATOM      2  C   LIG d   1       3.312  -0.106  -5.788  0.00  0.00     0.010 A 
ATOM      3  C   LIG d   1       3.353   0.022  -7.199  0.00  0.00     0.024 A 
ATOM      4  C   LIG d   1       2.728   0.883  -8.111  0.00  0.00    -0.049 A 
ATOM      5  C   LIG d   1       2.980   0.758  -9.446  0.00  0.00    -0.040 A 
ATOM      6  C   LIG d   1       3.848  -0.231  -9.911  0.00  0.00     0.037 A 
ATOM      7  C   LIG d   1       4.475  -1.091  -9.023  0.00  0.00     0.003 A 
ATOM      8  C   LIG d   1       4.234  -0.974  -7.662  0.00  0.00     0.138 A 
ATOM      9  O   LIG d   1       4.684  -1.648  -6.585  0.00  0.00    -0.448 OA
ATOM     10  H   LIG d   1       2.052   1.647  -7.757  0.00  0.00     0.062 H 
ATOM     11  H   LIG d   1       2.502   1.425 -10.146  0.00  0.00     0.064 H 
ATOM     12  H   LIG d   1       5.148  -1.852  -9.391  0.00  0.00     0.067 H 
ENDROOT
BRANCH   6  13
ATOM     13  N   LIG d   1       4.091  -0.350 -11.280  0.00  0.00    -0.281 N 
ATOM     14  C   LIG d   1       3.287  -1.115 -12.043  0.00  0.00     0.255 C 
ATOM     15  O   LIG d   1       2.399  -1.768 -11.528  0.00  0.00    -0.269 OA
ATOM     16  H   LIG d   1       4.841   0.117 -11.681  0.00  0.00     0.155 HD
BRANCH  14  17
ATOM     17  C   LIG d   1       3.486  -1.166 -13.494  0.00  0.00     0.074 A 
ATOM     18  S   LIG d   1       2.611  -2.129 -14.716  0.00  0.00    -0.092 SA
ATOM     19  C   LIG d   1       3.463  -1.594 -16.128  0.00  0.00    -0.024 A 
ATOM     20  C   LIG d   1       4.375  -0.719 -15.628  0.00  0.00    -0.054 A 
ATOM     21  H   LIG d   1       3.310  -1.886 -17.156  0.00  0.00     0.069 H 
ATOM     22  C   LIG d   1       4.406  -0.483 -14.275  0.00  0.00    -0.043 A 
ATOM     23  H   LIG d   1       5.068  -0.216 -16.285  0.00  0.00     0.062 H 
ATOM     24  H   LIG d   1       5.116   0.204 -13.839  0.00  0.00     0.063 H 
ENDBRANCH  14  17
ENDBRANCH   6  13
BRANCH   2  25
ATOM     25  C   LIG d   1       2.507   0.738  -4.834  0.00  0.00    -0.035 C 
ATOM     26  H   LIG d   1       2.339   1.722  -5.272  0.00  0.00     0.028 H 
ATOM     27  H   LIG d   1       1.547   0.256  -4.645  0.00  0.00     0.028 H 
ATOM     28  H   LIG d   1       3.050   0.846  -3.896  0.00  0.00     0.028 H 
ENDBRANCH   2  25
BRANCH   1  29
ATOM     29  C   LIG d   1       4.394  -1.613  -4.099  0.00  0.00     0.375 C 
ATOM     30  O   LIG d   1       3.961  -2.693  -3.744  0.00  0.00    -0.241 OA
BRANCH  29  31
ATOM     31  O   LIG d   1       5.108  -0.857  -3.241  0.00  0.00    -0.459 OA
BRANCH  31  32
ATOM     32  C   LIG d   1       4.503  -0.572  -1.953  0.00  0.00     0.090 C 
ATOM     33  H   LIG d   1       3.474  -0.934  -1.947  0.00  0.00     0.070 H 
ATOM     34  H   LIG d   1       5.068  -1.073  -1.166  0.00  0.00     0.070 H 
BRANCH  32  35
ATOM     35  C   LIG d   1       4.514   0.938  -1.706  0.00  0.00    -0.031 C 
ATOM     36  H   LIG d   1       5.511   1.330  -1.900  0.00  0.00     0.026 H 
ATOM     37  H   LIG d   1       3.797   1.419  -2.372  0.00  0.00     0.026 H 
ATOM     38  H   LIG d   1       4.238   1.138  -0.670  0.00  0.00     0.026 H 
ENDBRANCH  32  35
ENDBRANCH  31  32
ENDBRANCH  29  31
ENDBRANCH   1  29
TORSDOF 7
ENDMDL
MODEL 3
REMARK VINA RESULT:      -5.8     16.067     19.707
REMARK  7 active torsions:
REMARK  status: ('A' for Active; 'I' for Inactive)
REMARK    1  A    between atoms: C_1  and  C_2 
REMARK    2  A    between atoms: C_2  and  O_3 
REMARK    3  A    between atoms: O_3  and  C_4 
REMARK    4  A    between atoms: C_4  and  C_6 
REMARK    5  A    between atoms: C_7  and  C_23 
REMARK    6  A    between atoms: C_11  and  N_15 
REMARK       I    between atoms: N_15  and  C_16 
REMARK    7  A    between atoms: C_16  and  C_18 
ROOT
ATOM      1  C   LIG d   1       0.795  10.260 -16.370  0.00  0.00     0.215 A 
ATOM      2  C   LIG d   1      -0.432  10.841 -16.420  0.00  0.00     0.010 A 
ATOM      3  C   LIG d   1      -1.338   9.944 -15.802  0.00  0.00     0.024 A 
ATOM      4  C   LIG d   1      -2.717   9.980 -15.554  0.00  0.00    -0.049 A 
ATOM      5  C   LIG d   1      -3.320   8.930 -14.926  0.00  0.00    -0.040 A 
ATOM      6  C   LIG d   1      -2.573   7.825 -14.519  0.00  0.00     0.037 A 
ATOM      7  C   LIG d   1      -1.208   7.772 -14.756  0.00  0.00     0.003 A 
ATOM      8  C   LIG d   1      -0.579   8.829 -15.398  0.00  0.00     0.138 A 
ATOM      9  O   LIG d   1       0.700   9.059 -15.758  0.00  0.00    -0.448 OA
ATOM     10  H   LIG d   1      -3.300  10.834 -15.863  0.00  0.00     0.062 H 
ATOM     11  H   LIG d   1      -4.383   8.957 -14.740  0.00  0.00     0.064 H 
ATOM     12  H   LIG d   1      -0.637   6.912 -14.441  0.00  0.00     0.067 H 
ENDROOT
BRANCH   6  13
ATOM     13  N   LIG d   1      -3.204   6.761 -13.872  0.00  0.00    -0.281 N 
ATOM     14  C   LIG d   1      -3.642   5.704 -14.584  0.00  0.00     0.255 C 
ATOM     15  O   LIG d   1      -3.563   5.712 -15.798  0.00  0.00    -0.269 OA
ATOM     16  H   LIG d   1      -3.328   6.784 -12.910  0.00  0.00     0.155 HD
BRANCH  14  17
ATOM     17  C   LIG d   1      -4.221   4.547 -13.896  0.00  0.00     0.074 A 
ATOM     18  S   LIG d   1      -3.526   2.922 -13.651  0.00  0.00    -0.092 SA
ATOM     19  C   LIG d   1      -4.837   2.209 -12.768  0.00  0.00    -0.024 A 
ATOM     20  C   LIG d   1      -5.747   3.215 -12.696  0.00  0.00    -0.054 A 
ATOM     21  H   LIG d   1      -4.913   1.207 -12.372  0.00  0.00     0.069 H 
ATOM     22  C   LIG d   1      -5.452   4.427 -13.270  0.00  0.00    -0.043 A 
ATOM     23  H   LIG d   1      -6.692   3.063 -12.195  0.00  0.00     0.062 H 
ATOM     24  H   LIG d   1      -6.149   5.251 -13.236  0.00  0.00     0.063 H 
ENDBRANCH  14  17
ENDBRANCH   6  13
BRANCH   2  25
ATOM     25  C   LIG d   1      -0.766  12.184 -17.018  0.00  0.00    -0.035 C 
ATOM     26  H   LIG d   1      -1.753  12.497 -16.677  0.00  0.00     0.028 H 
ATOM     27  H   LIG d   1      -0.023  12.917 -16.702  0.00  0.00     0.028 H 
ATOM     28  H   LIG d   1      -0.763  12.109 -18.105  0.00  0.00     0.028 H 
ENDBRANCH   2  25
BRANCH   1  29
ATOM     29  C   LIG d   1       2.032  10.846 -16.897  0.00  0.00     0.375 C 
ATOM     30  O   LIG d   1       2.312  10.718 -18.074  0.00  0.00    -0.241 OA
BRANCH  29  31
ATOM     31  O   LIG d   1       2.860  11.525 -16.076  0.00  0.00    -0.459 OA
BRANCH  31  32
ATOM     32  C   LIG d   1       3.748  12.494 -16.691  0.00  0.00     0.090 C 
ATOM     33  H   LIG d   1       4.106  12.105 -17.645  0.00  0.00     0.070 H 
ATOM     34  H   LIG d   1       3.210  13.427 -16.859  0.00  0.00     0.070 H 
BRANCH  32  35
ATOM     35  C   LIG d   1       4.940  12.752 -15.767  0.00  0.00    -0.031 C 
ATOM     36  H   LIG d   1       5.867  12.562 -16.308  0.00  0.00     0.026 H 
ATOM     37  H   LIG d   1       4.920  13.789 -15.431  0.00  0.00     0.026 H 
ATOM     38  H   LIG d   1       4.880  12.089 -14.904  0.00  0.00     0.026 H 
ENDBRANCH  32  35
ENDBRANCH  31  32
ENDBRANCH  29  31
ENDBRANCH   1  29
TORSDOF 7
ENDMDL
MODEL 4
REMARK VINA RESULT:      -5.6      6.216      7.407
REMARK  7 active torsions:
REMARK  status: ('A' for Active; 'I' for Inactive)
REMARK    1  A    between atoms: C_1  and  C_2 
REMARK    2  A    between atoms: C_2  and  O_3 
REMARK    3  A    between atoms: O_3  and  C_4 
REMARK    4  A    between atoms: C_4  and  C_6 
REMARK    5  A    between atoms: C_7  and  C_23 
REMARK    6  A    between atoms: C_11  and  N_15 
REMARK       I    between atoms: N_15  and  C_16 
REMARK    7  A    between atoms: C_16  and  C_18 
ROOT
ATOM      1  C   LIG d   1       1.690  -1.550 -11.640  0.00  0.00     0.215 A 
ATOM      2  C   LIG d   1       2.870  -0.890 -11.768  0.00  0.00     0.010 A 
ATOM      3  C   LIG d   1       3.213  -0.405 -10.480  0.00  0.00     0.024 A 
ATOM      4  C   LIG d   1       4.293   0.336  -9.982  0.00  0.00    -0.049 A 
ATOM      5  C   LIG d   1       4.338   0.662  -8.658  0.00  0.00    -0.040 A 
ATOM      6  C   LIG d   1       3.322   0.254  -7.794  0.00  0.00     0.037 A 
ATOM      7  C   LIG d   1       2.246  -0.479  -8.270  0.00  0.00     0.003 A 
ATOM      8  C   LIG d   1       2.181  -0.815  -9.615  0.00  0.00     0.138 A 
ATOM      9  O   LIG d   1       1.285  -1.502 -10.351  0.00  0.00    -0.448 OA
ATOM     10  H   LIG d   1       5.084   0.651 -10.645  0.00  0.00     0.062 H 
ATOM     11  H   LIG d   1       5.168   1.237  -8.276  0.00  0.00     0.064 H 
ATOM     12  H   LIG d   1       1.461  -0.789  -7.596  0.00  0.00     0.067 H 
ENDROOT
BRANCH   6  13
ATOM     13  N   LIG d   1       3.386   0.591  -6.441  0.00  0.00    -0.281 N 
ATOM     14  C   LIG d   1       3.943  -0.262  -5.560  0.00  0.00     0.255 C 
ATOM     15  O   LIG d   1       4.317  -1.360  -5.928  0.00  0.00    -0.269 OA
ATOM     16  H   LIG d   1       3.027   1.439  -6.136  0.00  0.00     0.155 HD
BRANCH  14  17
ATOM     17  C   LIG d   1       4.095   0.130  -4.156  0.00  0.00     0.074 A 
ATOM     18  S   LIG d   1       5.071  -0.635  -2.874  0.00  0.00    -0.092 SA
ATOM     19  C   LIG d   1       4.683   0.443  -1.573  0.00  0.00    -0.024 A 
ATOM     20  C   LIG d   1       3.831   1.332  -2.149  0.00  0.00    -0.054 A 
ATOM     21  H   LIG d   1       5.030   0.415  -0.551  0.00  0.00     0.069 H 
ATOM     22  C   LIG d   1       3.513   1.190  -3.477  0.00  0.00    -0.043 A 
ATOM     23  H   LIG d   1       3.407   2.138  -1.569  0.00  0.00     0.062 H 
ATOM     24  H   LIG d   1       2.839   1.875  -3.971  0.00  0.00     0.063 H 
ENDBRANCH  14  17
ENDBRANCH   6  13
BRANCH   2  25
ATOM     25  C   LIG d   1       3.664  -0.707 -13.036  0.00  0.00    -0.035 C 
ATOM     26  H   LIG d   1       3.029  -0.257 -13.800  0.00  0.00     0.028 H 
ATOM     27  H   LIG d   1       4.514  -0.054 -12.840  0.00  0.00     0.028 H 
ATOM     28  H   LIG d   1       4.022  -1.675 -13.384  0.00  0.00     0.028 H 
ENDBRANCH   2  25
BRANCH   1  29
ATOM     29  C   LIG d   1       0.968  -2.214 -12.730  0.00  0.00     0.375 C 
ATOM     30  O   LIG d   1      -0.058  -1.725 -13.165  0.00  0.00    -0.241 OA
BRANCH  29  31
ATOM     31  O   LIG d   1       1.440  -3.366 -13.249  0.00  0.00    -0.459 OA
BRANCH  31  32
ATOM     32  C   LIG d   1       1.717  -4.443 -12.316  0.00  0.00     0.090 C 
ATOM     33  H   LIG d   1       2.299  -5.217 -12.816  0.00  0.00     0.070 H 
ATOM     34  H   LIG d   1       2.282  -4.054 -11.468  0.00  0.00     0.070 H 
BRANCH  32  35
ATOM     35  C   LIG d   1       0.398  -5.039 -11.819  0.00  0.00    -0.031 C 
ATOM     36  H   LIG d   1       0.553  -5.501 -10.845  0.00  0.00     0.026 H 
ATOM     37  H   LIG d   1      -0.348  -4.249 -11.733  0.00  0.00     0.026 H 
ATOM     38  H   LIG d   1       0.050  -5.792 -12.528  0.00  0.00     0.026 H 
ENDBRANCH  32  35
ENDBRANCH  31  32
ENDBRANCH  29  31
ENDBRANCH   1  29
TORSDOF 7
ENDMDL
MODEL 5
REMARK VINA RESULT:      -5.6      5.059      8.352
REMARK  7 active torsions:
REMARK  status: ('A' for Active; 'I' for Inactive)
REMARK    1  A    between atoms: C_1  and  C_2 
REMARK    2  A    between atoms: C_2  and  O_3 
REMARK    3  A    between atoms: O_3  and  C_4 
REMARK    4  A    between atoms: C_4  and  C_6 
REMARK    5  A    between atoms: C_7  and  C_23 
REMARK    6  A    between atoms: C_11  and  N_15 
REMARK       I    between atoms: N_15  and  C_16 
REMARK    7  A    between atoms: C_16  and  C_18 
ROOT
ATOM      1  C   LIG d   1       3.887  -0.085  -6.672  0.00  0.00     0.215 A 
ATOM      2  C   LIG d   1       3.597  -0.163  -5.347  0.00  0.00     0.010 A 
ATOM      3  C   LIG d   1       4.722  -0.747  -4.713  0.00  0.00     0.024 A 
ATOM      4  C   LIG d   1       5.019  -1.079  -3.384  0.00  0.00    -0.049 A 
ATOM      5  C   LIG d   1       6.219  -1.652  -3.081  0.00  0.00    -0.040 A 
ATOM      6  C   LIG d   1       7.159  -1.898  -4.082  0.00  0.00     0.037 A 
ATOM      7  C   LIG d   1       6.882  -1.576  -5.401  0.00  0.00     0.003 A 
ATOM      8  C   LIG d   1       5.664  -0.998  -5.729  0.00  0.00     0.138 A 
ATOM      9  O   LIG d   1       5.123  -0.585  -6.892  0.00  0.00    -0.448 OA
ATOM     10  H   LIG d   1       4.298  -0.887  -2.605  0.00  0.00     0.062 H 
ATOM     11  H   LIG d   1       6.445  -1.912  -2.057  0.00  0.00     0.064 H 
ATOM     12  H   LIG d   1       7.613  -1.773  -6.172  0.00  0.00     0.067 H 
ENDROOT
BRANCH   6  13
ATOM     13  N   LIG d   1       8.385  -2.480  -3.754  0.00  0.00    -0.281 N 
ATOM     14  C   LIG d   1       8.627  -3.766  -4.072  0.00  0.00     0.255 C 
ATOM     15  O   LIG d   1       7.750  -4.446  -4.570  0.00  0.00    -0.269 OA
ATOM     16  H   LIG d   1       9.061  -1.957  -3.296  0.00  0.00     0.155 HD
BRANCH  14  17
ATOM     17  C   LIG d   1       9.947  -4.349  -3.812  0.00  0.00     0.074 A 
ATOM     18  S   LIG d   1      10.366  -6.016  -3.336  0.00  0.00    -0.092 SA
ATOM     19  C   LIG d   1      12.088  -5.837  -3.249  0.00  0.00    -0.024 A 
ATOM     20  C   LIG d   1      12.281  -4.532  -3.574  0.00  0.00    -0.054 A 
ATOM     21  H   LIG d   1      12.828  -6.581  -2.995  0.00  0.00     0.069 H 
ATOM     22  C   LIG d   1      11.194  -3.746  -3.867  0.00  0.00    -0.043 A 
ATOM     23  H   LIG d   1      13.278  -4.117  -3.600  0.00  0.00     0.062 H 
ATOM     24  H   LIG d   1      11.306  -2.704  -4.129  0.00  0.00     0.063 H 
ENDBRANCH  14  17
ENDBRANCH   6  13
BRANCH   2  25
ATOM     25  C   LIG d   1       2.323   0.286  -4.678  0.00  0.00    -0.035 C 
ATOM     26  H   LIG d   1       1.594   0.569  -5.438  0.00  0.00     0.028 H 
ATOM     27  H   LIG d   1       1.922  -0.530  -4.077  0.00  0.00     0.028 H 
ATOM     28  H   LIG d   1       2.530   1.142  -4.037  0.00  0.00     0.028 H 
ENDBRANCH   2  25
BRANCH   1  29
ATOM     29  C   LIG d   1       2.997   0.460  -7.703  0.00  0.00     0.375 C 
ATOM     30  O   LIG d   1       2.185  -0.263  -8.247  0.00  0.00    -0.241 OA
BRANCH  29  31
ATOM     31  O   LIG d   1       3.082   1.761  -8.048  0.00  0.00    -0.459 OA
BRANCH  31  32
ATOM     32  C   LIG d   1       4.157   2.134  -8.949  0.00  0.00     0.090 C 
ATOM     33  H   LIG d   1       4.356   3.202  -8.855  0.00  0.00     0.070 H 
ATOM     34  H   LIG d   1       5.057   1.573  -8.694  0.00  0.00     0.070 H 
BRANCH  32  35
ATOM     35  C   LIG d   1       3.750   1.817 -10.389  0.00  0.00    -0.031 C 
ATOM     36  H   LIG d   1       3.519   0.755 -10.476  0.00  0.00     0.026 H 
ATOM     37  H   LIG d   1       2.870   2.404 -10.655  0.00  0.00     0.026 H 
ATOM     38  H   LIG d   1       4.571   2.066 -11.062  0.00  0.00     0.026 H 
ENDBRANCH  32  35
ENDBRANCH  31  32
ENDBRANCH  29  31
ENDBRANCH   1  29
TORSDOF 7
ENDMDL
MODEL 6
REMARK VINA RESULT:      -5.5      7.174     11.659
REMARK  7 active torsions:
REMARK  status: ('A' for Active; 'I' for Inactive)
REMARK    1  A    between atoms: C_1  and  C_2 
REMARK    2  A    between atoms: C_2  and  O_3 
REMARK    3  A    between atoms: O_3  and  C_4 
REMARK    4  A    between atoms: C_4  and  C_6 
REMARK    5  A    between atoms: C_7  and  C_23 
REMARK    6  A    between atoms: C_11  and  N_15 
REMARK       I    between atoms: N_15  and  C_16 
REMARK    7  A    between atoms: C_16  and  C_18 
ROOT
ATOM      1  C   LIG d   1      11.107   5.252  -3.729  0.00  0.00     0.215 A 
ATOM      2  C   LIG d   1      10.708   5.062  -5.014  0.00  0.00     0.010 A 
ATOM      3  C   LIG d   1       9.870   3.918  -5.020  0.00  0.00     0.024 A 
ATOM      4  C   LIG d   1       9.170   3.238  -6.025  0.00  0.00    -0.049 A 
ATOM      5  C   LIG d   1       8.434   2.133  -5.710  0.00  0.00    -0.040 A 
ATOM      6  C   LIG d   1       8.364   1.682  -4.392  0.00  0.00     0.037 A 
ATOM      7  C   LIG d   1       9.051   2.343  -3.386  0.00  0.00     0.003 A 
ATOM      8  C   LIG d   1       9.809   3.465  -3.689  0.00  0.00     0.138 A 
ATOM      9  O   LIG d   1      10.566   4.295  -2.944  0.00  0.00    -0.448 OA
ATOM     10  H   LIG d   1       9.217   3.585  -7.047  0.00  0.00     0.062 H 
ATOM     11  H   LIG d   1       7.898   1.608  -6.486  0.00  0.00     0.064 H 
ATOM     12  H   LIG d   1       8.995   1.986  -2.368  0.00  0.00     0.067 H 
ENDROOT
BRANCH   6  13
ATOM     13  N   LIG d   1       7.601   0.554  -4.085  0.00  0.00    -0.281 N 
ATOM     14  C   LIG d   1       6.399   0.694  -3.494  0.00  0.00     0.255 C 
ATOM     15  O   LIG d   1       6.013   1.796  -3.152  0.00  0.00    -0.269 OA
ATOM     16  H   LIG d   1       7.939  -0.330  -4.297  0.00  0.00     0.155 HD
BRANCH  14  17
ATOM     17  C   LIG d   1       5.558  -0.483  -3.257  0.00  0.00     0.074 A 
ATOM     18  S   LIG d   1       5.433  -1.985  -4.210  0.00  0.00    -0.092 SA
ATOM     19  C   LIG d   1       4.247  -2.806  -3.247  0.00  0.00    -0.024 A 
ATOM     20  C   LIG d   1       3.987  -1.918  -2.252  0.00  0.00    -0.054 A 
ATOM     21  H   LIG d   1       3.817  -3.784  -3.402  0.00  0.00     0.069 H 
ATOM     22  C   LIG d   1       4.649  -0.716  -2.236  0.00  0.00    -0.043 A 
ATOM     23  H   LIG d   1       3.266  -2.155  -1.483  0.00  0.00     0.062 H 
ATOM     24  H   LIG d   1       4.469   0.016  -1.463  0.00  0.00     0.063 H 
ENDBRANCH  14  17
ENDBRANCH   6  13
BRANCH   2  25
ATOM     25  C   LIG d   1      11.083   5.905  -6.205  0.00  0.00    -0.035 C 
ATOM     26  H   LIG d   1      10.191   6.120  -6.793  0.00  0.00     0.028 H 
ATOM     27  H   LIG d   1      11.526   6.840  -5.862  0.00  0.00     0.028 H 
ATOM     28  H   LIG d   1      11.803   5.366  -6.821  0.00  0.00     0.028 H 
ENDBRANCH   2  25
BRANCH   1  29
ATOM     29  C   LIG d   1      11.987   6.330  -3.267  0.00  0.00     0.375 C 
ATOM     30  O   LIG d   1      13.195   6.186  -3.305  0.00  0.00    -0.241 OA
BRANCH  29  31
ATOM     31  O   LIG d   1      11.458   7.478  -2.797  0.00  0.00    -0.459 OA
BRANCH  31  32
ATOM     32  C   LIG d   1      10.968   7.466  -1.430  0.00  0.00     0.090 C 
ATOM     33  H   LIG d   1      11.291   6.550  -0.936  0.00  0.00     0.070 H 
ATOM     34  H   LIG d   1      11.364   8.328  -0.894  0.00  0.00     0.070 H 
BRANCH  32  35
ATOM     35  C   LIG d   1       9.439   7.529  -1.437  0.00  0.00    -0.031 C 
ATOM     36  H   LIG d   1       9.110   8.314  -2.117  0.00  0.00     0.026 H 
ATOM     37  H   LIG d   1       9.038   6.570  -1.766  0.00  0.00     0.026 H 
ATOM     38  H   LIG d   1       9.080   7.746  -0.430  0.00  0.00     0.026 H 
ENDBRANCH  32  35
ENDBRANCH  31  32
ENDBRANCH  29  31
ENDBRANCH   1  29
TORSDOF 7
ENDMDL
MODEL 7
REMARK VINA RESULT:      -5.5      6.636      9.370
REMARK  7 active torsions:
REMARK  status: ('A' for Active; 'I' for Inactive)
REMARK    1  A    between atoms: C_1  and  C_2 
REMARK    2  A    between atoms: C_2  and  O_3 
REMARK    3  A    between atoms: O_3  and  C_4 
REMARK    4  A    between atoms: C_4  and  C_6 
REMARK    5  A    between atoms: C_7  and  C_23 
REMARK    6  A    between atoms: C_11  and  N_15 
REMARK       I    between atoms: N_15  and  C_16 
REMARK    7  A    between atoms: C_16  and  C_18 
ROOT
ATOM      1  C   LIG d   1       3.142   0.092  -5.742  0.00  0.00     0.215 A 
ATOM      2  C   LIG d   1       4.223  -0.517  -6.294  0.00  0.00     0.010 A 
ATOM      3  C   LIG d   1       3.907  -0.765  -7.654  0.00  0.00     0.024 A 
ATOM      4  C   LIG d   1       4.603  -1.355  -8.717  0.00  0.00    -0.049 A 
ATOM      5  C   LIG d   1       4.012  -1.456  -9.942  0.00  0.00    -0.040 A 
ATOM      6  C   LIG d   1       2.723  -0.964 -10.148  0.00  0.00     0.037 A 
ATOM      7  C   LIG d   1       2.020  -0.378  -9.108  0.00  0.00     0.003 A 
ATOM      8  C   LIG d   1       2.603  -0.271  -7.853  0.00  0.00     0.138 A 
ATOM      9  O   LIG d   1       2.179   0.236  -6.679  0.00  0.00    -0.448 OA
ATOM     10  H   LIG d   1       5.603  -1.733  -8.564  0.00  0.00     0.062 H 
ATOM     11  H   LIG d   1       4.548  -1.915 -10.759  0.00  0.00     0.064 H 
ATOM     12  H   LIG d   1       1.020  -0.003  -9.274  0.00  0.00     0.067 H 
ENDROOT
BRANCH   6  13
ATOM     13  N   LIG d   1       2.134  -1.070 -11.409  0.00  0.00    -0.281 N 
ATOM     14  C   LIG d   1       1.292  -2.087 -11.677  0.00  0.00     0.255 C 
ATOM     15  O   LIG d   1       1.108  -2.959 -10.849  0.00  0.00    -0.269 OA
ATOM     16  H   LIG d   1       2.333  -0.411 -12.093  0.00  0.00     0.155 HD
BRANCH  14  17
ATOM     17  C   LIG d   1       0.602  -2.146 -12.968  0.00  0.00     0.074 A 
ATOM     18  S   LIG d   1       1.253  -2.575 -14.573  0.00  0.00    -0.092 SA
ATOM     19  C   LIG d   1      -0.200  -2.394 -15.501  0.00  0.00    -0.024 A 
ATOM     20  C   LIG d   1      -1.115  -2.012 -14.572  0.00  0.00    -0.054 A 
ATOM     21  H   LIG d   1      -0.343  -2.545 -16.560  0.00  0.00     0.069 H 
ATOM     22  C   LIG d   1      -0.726  -1.876 -13.263  0.00  0.00    -0.043 A 
ATOM     23  H   LIG d   1      -2.137  -1.815 -14.861  0.00  0.00     0.062 H 
ATOM     24  H   LIG d   1      -1.423  -1.574 -12.496  0.00  0.00     0.063 H 
ENDBRANCH  14  17
ENDBRANCH   6  13
BRANCH   2  25
ATOM     25  C   LIG d   1       5.513  -0.865  -5.596  0.00  0.00    -0.035 C 
ATOM     26  H   LIG d   1       5.301  -1.507  -4.740  0.00  0.00     0.028 H 
ATOM     27  H   LIG d   1       6.171  -1.389  -6.289  0.00  0.00     0.028 H 
ATOM     28  H   LIG d   1       5.999   0.048  -5.253  0.00  0.00     0.028 H 
ENDBRANCH   2  25
BRANCH   1  29
ATOM     29  C   LIG d   1       3.037   0.529  -4.346  0.00  0.00     0.375 C 
ATOM     30  O   LIG d   1       3.289   1.681  -4.049  0.00  0.00    -0.241 OA
BRANCH  29  31
ATOM     31  O   LIG d   1       2.662  -0.348  -3.392  0.00  0.00    -0.459 OA
BRANCH  31  32
ATOM     32  C   LIG d   1       3.655  -0.697  -2.392  0.00  0.00     0.090 C 
ATOM     33  H   LIG d   1       4.586  -0.172  -2.605  0.00  0.00     0.070 H 
ATOM     34  H   LIG d   1       3.294  -0.409  -1.404  0.00  0.00     0.070 H 
BRANCH  32  35
ATOM     35  C   LIG d   1       3.902  -2.207  -2.424  0.00  0.00    -0.031 C 
ATOM     36  H   LIG d   1       2.951  -2.728  -2.525  0.00  0.00     0.026 H 
ATOM     37  H   LIG d   1       4.543  -2.451  -3.271  0.00  0.00     0.026 H 
ATOM     38  H   LIG d   1       4.389  -2.514  -1.498  0.00  0.00     0.026 H 
ENDBRANCH  32  35
ENDBRANCH  31  32
ENDBRANCH  29  31
ENDBRANCH   1  29
TORSDOF 7
ENDMDL
MODEL 8
REMARK VINA RESULT:      -5.5      8.056     11.040
REMARK  7 active torsions:
REMARK  status: ('A' for Active; 'I' for Inactive)
REMARK    1  A    between atoms: C_1  and  C_2 
REMARK    2  A    between atoms: C_2  and  O_3 
REMARK    3  A    between atoms: O_3  and  C_4 
REMARK    4  A    between atoms: C_4  and  C_6 
REMARK    5  A    between atoms: C_7  and  C_23 
REMARK    6  A    between atoms: C_11  and  N_15 
REMARK       I    between atoms: N_15  and  C_16 
REMARK    7  A    between atoms: C_16  and  C_18 
ROOT
ATOM      1  C   LIG d   1       8.598   1.701  -4.449  0.00  0.00     0.215 A 
ATOM      2  C   LIG d   1       8.853   2.619  -5.417  0.00  0.00     0.010 A 
ATOM      3  C   LIG d   1       9.412   3.752  -4.774  0.00  0.00     0.024 A 
ATOM      4  C   LIG d   1       9.871   4.995  -5.230  0.00  0.00    -0.049 A 
ATOM      5  C   LIG d   1      10.363   5.904  -4.340  0.00  0.00    -0.040 A 
ATOM      6  C   LIG d   1      10.424   5.601  -2.980  0.00  0.00     0.037 A 
ATOM      7  C   LIG d   1       9.974   4.377  -2.511  0.00  0.00     0.003 A 
ATOM      8  C   LIG d   1       9.466   3.442  -3.402  0.00  0.00     0.138 A 
ATOM      9  O   LIG d   1       8.967   2.199  -3.248  0.00  0.00    -0.448 OA
ATOM     10  H   LIG d   1       9.830   5.233  -6.282  0.00  0.00     0.062 H 
ATOM     11  H   LIG d   1      10.712   6.863  -4.692  0.00  0.00     0.064 H 
ATOM     12  H   LIG d   1      10.021   4.151  -1.456  0.00  0.00     0.067 H 
ENDROOT
BRANCH   6  13
ATOM     13  N   LIG d   1      10.936   6.541  -2.083  0.00  0.00    -0.281 N 
ATOM     14  C   LIG d   1      10.098   7.276  -1.326  0.00  0.00     0.255 C 
ATOM     15  O   LIG d   1       8.895   7.182  -1.482  0.00  0.00    -0.269 OA
ATOM     16  H   LIG d   1      11.895   6.664  -2.006  0.00  0.00     0.155 HD
BRANCH  14  17
ATOM     17  C   LIG d   1      10.636   8.194  -0.319  0.00  0.00     0.074 A 
ATOM     18  S   LIG d   1      10.581   9.976  -0.278  0.00  0.00    -0.092 SA
ATOM     19  C   LIG d   1      11.425  10.229   1.216  0.00  0.00    -0.024 A 
ATOM     20  C   LIG d   1      11.721   8.967   1.622  0.00  0.00    -0.054 A 
ATOM     21  H   LIG d   1      11.661  11.163   1.704  0.00  0.00     0.069 H 
ATOM     22  C   LIG d   1      11.326   7.903   0.849  0.00  0.00    -0.043 A 
ATOM     23  H   LIG d   1      12.262   8.802   2.542  0.00  0.00     0.062 H 
ATOM     24  H   LIG d   1      11.543   6.886   1.137  0.00  0.00     0.063 H 
ENDBRANCH  14  17
ENDBRANCH   6  13
BRANCH   2  25
ATOM     25  C   LIG d   1       8.591   2.464  -6.893  0.00  0.00    -0.035 C 
ATOM     26  H   LIG d   1       7.720   3.058  -7.172  0.00  0.00     0.028 H 
ATOM     27  H   LIG d   1       9.461   2.809  -7.454  0.00  0.00     0.028 H 
ATOM     28  H   LIG d   1       8.404   1.416  -7.122  0.00  0.00     0.028 H 
ENDBRANCH   2  25
BRANCH   1  29
ATOM     29  C   LIG d   1       8.015   0.374  -4.672  0.00  0.00     0.375 C 
ATOM     30  O   LIG d   1       8.727  -0.553  -5.009  0.00  0.00    -0.241 OA
BRANCH  29  31
ATOM     31  O   LIG d   1       6.690   0.183  -4.507  0.00  0.00    -0.459 OA
BRANCH  31  32
ATOM     32  C   LIG d   1       6.219  -0.018  -3.148  0.00  0.00     0.090 C 
ATOM     33  H   LIG d   1       5.664  -0.954  -3.090  0.00  0.00     0.070 H 
ATOM     34  H   LIG d   1       7.071  -0.057  -2.470  0.00  0.00     0.070 H 
BRANCH  32  35
ATOM     35  C   LIG d   1       5.304   1.142  -2.749  0.00  0.00    -0.031 C 
ATOM     36  H   LIG d   1       5.910   1.988  -2.425  0.00  0.00     0.026 H 
ATOM     37  H   LIG d   1       4.697   1.437  -3.606  0.00  0.00     0.026 H 
ATOM     38  H   LIG d   1       4.653   0.827  -1.934  0.00  0.00     0.026 H 
ENDBRANCH  32  35
ENDBRANCH  31  32
ENDBRANCH  29  31
ENDBRANCH   1  29
TORSDOF 7
ENDMDL
MODEL 9
REMARK VINA RESULT:      -5.5      7.407     11.445
REMARK  7 active torsions:
REMARK  status: ('A' for Active; 'I' for Inactive)
REMARK    1  A    between atoms: C_1  and  C_2 
REMARK    2  A    between atoms: C_2  and  O_3 
REMARK    3  A    between atoms: O_3  and  C_4 
REMARK    4  A    between atoms: C_4  and  C_6 
REMARK    5  A    between atoms: C_7  and  C_23 
REMARK    6  A    between atoms: C_11  and  N_15 
REMARK       I    between atoms: N_15  and  C_16 
REMARK    7  A    between atoms: C_16  and  C_18 
ROOT
ATOM      1  C   LIG d   1      10.346   4.985  -6.884  0.00  0.00     0.215 A 
ATOM      2  C   LIG d   1      10.740   4.984  -5.584  0.00  0.00     0.010 A 
ATOM      3  C   LIG d   1      10.071   3.906  -4.951  0.00  0.00     0.024 A 
ATOM      4  C   LIG d   1      10.067   3.405  -3.643  0.00  0.00    -0.049 A 
ATOM      5  C   LIG d   1       9.292   2.326  -3.332  0.00  0.00    -0.040 A 
ATOM      6  C   LIG d   1       8.511   1.711  -4.311  0.00  0.00     0.037 A 
ATOM      7  C   LIG d   1       8.503   2.194  -5.610  0.00  0.00     0.003 A 
ATOM      8  C   LIG d   1       9.281   3.294  -5.943  0.00  0.00     0.138 A 
ATOM      9  O   LIG d   1       9.475   3.973  -7.091  0.00  0.00    -0.448 OA
ATOM     10  H   LIG d   1      10.673   3.874  -2.882  0.00  0.00     0.062 H 
ATOM     11  H   LIG d   1       9.286   1.943  -2.323  0.00  0.00     0.064 H 
ATOM     12  H   LIG d   1       7.893   1.715  -6.362  0.00  0.00     0.067 H 
ENDROOT
BRANCH   6  13
ATOM     13  N   LIG d   1       7.728   0.604  -3.979  0.00  0.00    -0.281 N 
ATOM     14  C   LIG d   1       6.506   0.781  -3.440  0.00  0.00     0.255 C 
ATOM     15  O   LIG d   1       6.117   1.901  -3.167  0.00  0.00    -0.269 OA
ATOM     16  H   LIG d   1       8.065  -0.292  -4.135  0.00  0.00     0.155 HD
BRANCH  14  17
ATOM     17  C   LIG d   1       5.647  -0.377  -3.178  0.00  0.00     0.074 A 
ATOM     18  S   LIG d   1       5.605  -1.956  -4.006  0.00  0.00    -0.092 SA
ATOM     19  C   LIG d   1       4.338  -2.700  -3.085  0.00  0.00    -0.024 A 
ATOM     20  C   LIG d   1       3.991  -1.732  -2.196  0.00  0.00    -0.054 A 
ATOM     21  H   LIG d   1       3.923  -3.690  -3.192  0.00  0.00     0.069 H 
ATOM     22  C   LIG d   1       4.650  -0.528  -2.226  0.00  0.00    -0.043 A 
ATOM     23  H   LIG d   1       3.205  -1.907  -1.477  0.00  0.00     0.062 H 
ATOM     24  H   LIG d   1       4.403   0.267  -1.538  0.00  0.00     0.063 H 
ENDBRANCH  14  17
ENDBRANCH   6  13
BRANCH   2  25
ATOM     25  C   LIG d   1      11.703   5.946  -4.937  0.00  0.00    -0.035 C 
ATOM     26  H   LIG d   1      11.206   6.461  -4.115  0.00  0.00     0.028 H 
ATOM     27  H   LIG d   1      12.562   5.394  -4.553  0.00  0.00     0.028 H 
ATOM     28  H   LIG d   1      12.039   6.675  -5.673  0.00  0.00     0.028 H 
ENDBRANCH   2  25
BRANCH   1  29
ATOM     29  C   LIG d   1      10.797   5.936  -7.905  0.00  0.00     0.375 C 
ATOM     30  O   LIG d   1      11.857   5.758  -8.475  0.00  0.00    -0.241 OA
BRANCH  29  31
ATOM     31  O   LIG d   1      10.038   7.009  -8.211  0.00  0.00    -0.459 OA
BRANCH  31  32
ATOM     32  C   LIG d   1      10.339   8.247  -7.516  0.00  0.00     0.090 C 
ATOM     33  H   LIG d   1      11.306   8.161  -7.020  0.00  0.00     0.070 H 
ATOM     34  H   LIG d   1      10.370   9.068  -8.233  0.00  0.00     0.070 H 
BRANCH  32  35
ATOM     35  C   LIG d   1       9.254   8.523  -6.472  0.00  0.00    -0.031 C 
ATOM     36  H   LIG d   1       9.629   9.238  -5.740  0.00  0.00     0.026 H 
ATOM     37  H   LIG d   1       8.373   8.934  -6.965  0.00  0.00     0.026 H 
ATOM     38  H   LIG d   1       8.989   7.592  -5.969  0.00  0.00     0.026 H 
ENDBRANCH  32  35
ENDBRANCH  31  32
ENDBRANCH  29  31
ENDBRANCH   1  29
TORSDOF 7
ENDMDL
