MODEL 1
REMARK VINA RESULT:      -5.0      0.000      0.000
REMARK  3 active torsions:
REMARK  status: ('A' for Active; 'I' for Inactive)
REMARK    1  A    between atoms: C_1  and  C_2 
REMARK    2  A    between atoms: C_5  and  C_9 
REMARK    3  A    between atoms: C_6  and  C_8 
ROOT
ATOM      1  C   LIG d   1       6.600  -2.403  -4.063  0.00  0.00    -0.050 A 
ATOM      2  C   LIG d   1       7.318  -1.227  -3.933  0.00  0.00    -0.058 A 
ATOM      3  C   LIG d   1       6.720  -0.105  -3.399  0.00  0.00    -0.052 A 
ATOM      4  C   LIG d   1       5.386  -0.157  -2.990  0.00  0.00     0.000 A 
ATOM      5  C   LIG d   1       4.667  -1.346  -3.123  0.00  0.00    -0.041 A 
ATOM      6  C   LIG d   1       5.278  -2.461  -3.659  0.00  0.00    -0.055 A 
ATOM      7  H   LIG d   1       8.350  -1.189  -4.251  0.00  0.00     0.062 H 
ATOM      8  H   LIG d   1       7.280   0.813  -3.302  0.00  0.00     0.062 H 
ATOM      9  H   LIG d   1       4.723  -3.382  -3.765  0.00  0.00     0.062 H 
ENDROOT
BRANCH   1  10
ATOM     10  C   LIG d   1       7.260  -3.625  -4.648  0.00  0.00    -0.040 C 
ATOM     11  H   LIG d   1       8.023  -3.990  -3.959  0.00  0.00     0.028 H 
ATOM     12  H   LIG d   1       6.512  -4.401  -4.805  0.00  0.00     0.028 H 
ATOM     13  H   LIG d   1       7.723  -3.368  -5.600  0.00  0.00     0.028 H 
ENDBRANCH   1  10
BRANCH   5  14
ATOM     14  C   LIG d   1       3.227  -1.412  -2.684  0.00  0.00    -0.039 C 
ATOM     15  H   LIG d   1       2.672  -2.070  -3.354  0.00  0.00     0.028 H 
ATOM     16  H   LIG d   1       3.176  -1.802  -1.667  0.00  0.00     0.028 H 
ATOM     17  H   LIG d   1       2.792  -0.414  -2.713  0.00  0.00     0.028 H 
ENDBRANCH   5  14
BRANCH   4  18
ATOM     18  C   LIG d   1       4.738   1.040  -2.417  0.00  0.00     0.072 C 
ATOM     19  O   LIG d   1       4.793   1.247  -1.221  0.00  0.00    -0.545 OA
ATOM     20  O   LIG d   1       4.086   1.903  -3.220  0.00  0.00    -0.545 OA
ENDBRANCH   4  18
TORSDOF 3
ENDMDL
MODEL 2
REMARK VINA RESULT:      -4.9      2.138      3.397
REMARK  3 active torsions:
REMARK  status: ('A' for Active; 'I' for Inactive)
REMARK    1  A    between atoms: C_1  and  C_2 
REMARK    2  A    between atoms: C_5  and  C_9 
REMARK    3  A    between atoms: C_6  and  C_8 
ROOT
ATOM      1  C   LIG d   1       4.826  -1.121  -2.630  0.00  0.00    -0.050 A 
ATOM      2  C   LIG d   1       4.660   0.225  -2.363  0.00  0.00    -0.058 A 
ATOM      3  C   LIG d   1       5.583   1.142  -2.819  0.00  0.00    -0.052 A 
ATOM      4  C   LIG d   1       6.690   0.708  -3.552  0.00  0.00     0.000 A 
ATOM      5  C   LIG d   1       6.853  -0.653  -3.818  0.00  0.00    -0.041 A 
ATOM      6  C   LIG d   1       5.920  -1.559  -3.355  0.00  0.00    -0.055 A 
ATOM      7  H   LIG d   1       3.803   0.560  -1.795  0.00  0.00     0.062 H 
ATOM      8  H   LIG d   1       5.454   2.193  -2.606  0.00  0.00     0.062 H 
ATOM      9  H   LIG d   1       6.045  -2.612  -3.560  0.00  0.00     0.062 H 
ENDROOT
BRANCH   1  10
ATOM     10  C   LIG d   1       3.813  -2.118  -2.128  0.00  0.00    -0.040 C 
ATOM     11  H   LIG d   1       3.524  -2.783  -2.942  0.00  0.00     0.028 H 
ATOM     12  H   LIG d   1       4.249  -2.703  -1.319  0.00  0.00     0.028 H 
ATOM     13  H   LIG d   1       2.933  -1.589  -1.762  0.00  0.00     0.028 H 
ENDBRANCH   1  10
BRANCH   5  14
ATOM     14  C   LIG d   1       8.043  -1.131  -4.609  0.00  0.00    -0.039 C 
ATOM     15  H   LIG d   1       8.527  -0.279  -5.087  0.00  0.00     0.028 H 
ATOM     16  H   LIG d   1       8.750  -1.621  -3.940  0.00  0.00     0.028 H 
ATOM     17  H   LIG d   1       7.714  -1.836  -5.371  0.00  0.00     0.028 H 
ENDBRANCH   5  14
BRANCH   4  18
ATOM     18  C   LIG d   1       7.684   1.684  -4.043  0.00  0.00     0.072 C 
ATOM     19  O   LIG d   1       8.524   2.128  -3.288  0.00  0.00    -0.545 OA
ATOM     20  O   LIG d   1       7.657   2.082  -5.330  0.00  0.00    -0.545 OA
ENDBRANCH   4  18
TORSDOF 3
ENDMDL
MODEL 3
REMARK VINA RESULT:      -4.7      3.097      4.590
REMARK  3 active torsions:
REMARK  status: ('A' for Active; 'I' for Inactive)
REMARK    1  A    between atoms: C_1  and  C_2 
REMARK    2  A    between atoms: C_5  and  C_9 
REMARK    3  A    between atoms: C_6  and  C_8 
ROOT
ATOM      1  C   LIG d   1       4.639  -0.205  -2.497  0.00  0.00    -0.050 A 
ATOM      2  C   LIG d   1       4.086  -1.409  -2.100  0.00  0.00    -0.058 A 
ATOM      3  C   LIG d   1       4.219  -2.529  -2.895  0.00  0.00    -0.052 A 
ATOM      4  C   LIG d   1       4.912  -2.444  -4.104  0.00  0.00     0.000 A 
ATOM      5  C   LIG d   1       5.468  -1.226  -4.499  0.00  0.00    -0.041 A 
ATOM      6  C   LIG d   1       5.327  -0.114  -3.694  0.00  0.00    -0.055 A 
ATOM      7  H   LIG d   1       3.550  -1.473  -1.164  0.00  0.00     0.062 H 
ATOM      8  H   LIG d   1       3.783  -3.467  -2.585  0.00  0.00     0.062 H 
ATOM      9  H   LIG d   1       5.755   0.830  -3.998  0.00  0.00     0.062 H 
ENDROOT
BRANCH   1  10
ATOM     10  C   LIG d   1       4.490   1.014  -1.623  0.00  0.00    -0.040 C 
ATOM     11  H   LIG d   1       3.903   0.759  -0.741  0.00  0.00     0.028 H 
ATOM     12  H   LIG d   1       5.476   1.361  -1.315  0.00  0.00     0.028 H 
ATOM     13  H   LIG d   1       3.985   1.802  -2.181  0.00  0.00     0.028 H 
ENDBRANCH   1  10
BRANCH   5  14
ATOM     14  C   LIG d   1       6.218  -1.125  -5.802  0.00  0.00    -0.039 C 
ATOM     15  H   LIG d   1       5.867  -0.255  -6.357  0.00  0.00     0.028 H 
ATOM     16  H   LIG d   1       7.284  -1.020  -5.599  0.00  0.00     0.028 H 
ATOM     17  H   LIG d   1       6.046  -2.025  -6.391  0.00  0.00     0.028 H 
ENDBRANCH   5  14
BRANCH   4  18
ATOM     18  C   LIG d   1       5.058  -3.638  -4.961  0.00  0.00     0.072 C 
ATOM     19  O   LIG d   1       4.133  -4.002  -5.659  0.00  0.00    -0.545 OA
ATOM     20  O   LIG d   1       6.217  -4.325  -4.968  0.00  0.00    -0.545 OA
ENDBRANCH   4  18
TORSDOF 3
ENDMDL
MODEL 4
REMARK VINA RESULT:      -4.7      3.255      4.438
REMARK  3 active torsions:
REMARK  status: ('A' for Active; 'I' for Inactive)
REMARK    1  A    between atoms: C_1  and  C_2 
REMARK    2  A    between atoms: C_5  and  C_9 
REMARK    3  A    between atoms: C_6  and  C_8 
ROOT
ATOM      1  C   LIG d   1       3.892  -1.010  -3.328  0.00  0.00    -0.050 A 
ATOM      2  C   LIG d   1       2.729  -0.281  -3.495  0.00  0.00    -0.058 A 
ATOM      3  C   LIG d   1       2.389   0.207  -4.739  0.00  0.00    -0.052 A 
ATOM      4  C   LIG d   1       3.223  -0.035  -5.832  0.00  0.00     0.000 A 
ATOM      5  C   LIG d   1       4.396  -0.772  -5.658  0.00  0.00    -0.041 A 
ATOM      6  C   LIG d   1       4.723  -1.255  -4.407  0.00  0.00    -0.055 A 
ATOM      7  H   LIG d   1       2.085  -0.093  -2.648  0.00  0.00     0.062 H 
ATOM      8  H   LIG d   1       1.483   0.780  -4.866  0.00  0.00     0.062 H 
ATOM      9  H   LIG d   1       5.631  -1.824  -4.269  0.00  0.00     0.062 H 
ENDROOT
BRANCH   1  10
ATOM     10  C   LIG d   1       4.257  -1.541  -1.965  0.00  0.00    -0.040 C 
ATOM     11  H   LIG d   1       5.328  -1.747  -1.930  0.00  0.00     0.028 H 
ATOM     12  H   LIG d   1       4.006  -0.799  -1.208  0.00  0.00     0.028 H 
ATOM     13  H   LIG d   1       3.704  -2.459  -1.772  0.00  0.00     0.028 H 
ENDBRANCH   1  10
BRANCH   5  14
ATOM     14  C   LIG d   1       5.302  -1.040  -6.832  0.00  0.00    -0.039 C 
ATOM     15  H   LIG d   1       5.105  -0.309  -7.616  0.00  0.00     0.028 H 
ATOM     16  H   LIG d   1       6.341  -0.962  -6.513  0.00  0.00     0.028 H 
ATOM     17  H   LIG d   1       5.113  -2.043  -7.215  0.00  0.00     0.028 H 
ENDBRANCH   5  14
BRANCH   4  18
ATOM     18  C   LIG d   1       2.866   0.484  -7.168  0.00  0.00     0.072 C 
ATOM     19  O   LIG d   1       3.142   1.628  -7.469  0.00  0.00    -0.545 OA
ATOM     20  O   LIG d   1       2.233  -0.310  -8.053  0.00  0.00    -0.545 OA
ENDBRANCH   4  18
TORSDOF 3
ENDMDL
MODEL 5
REMARK VINA RESULT:      -4.7      0.517      2.078
REMARK  3 active torsions:
REMARK  status: ('A' for Active; 'I' for Inactive)
REMARK    1  A    between atoms: C_1  and  C_2 
REMARK    2  A    between atoms: C_5  and  C_9 
REMARK    3  A    between atoms: C_6  and  C_8 
ROOT
ATOM      1  C   LIG d   1       6.231  -2.425  -4.119  0.00  0.00    -0.050 A 
ATOM      2  C   LIG d   1       4.984  -2.460  -3.521  0.00  0.00    -0.058 A 
ATOM      3  C   LIG d   1       4.451  -1.318  -2.960  0.00  0.00    -0.052 A 
ATOM      4  C   LIG d   1       5.174  -0.124  -2.996  0.00  0.00     0.000 A 
ATOM      5  C   LIG d   1       6.432  -0.095  -3.602  0.00  0.00    -0.041 A 
ATOM      6  C   LIG d   1       6.952  -1.245  -4.159  0.00  0.00    -0.055 A 
ATOM      7  H   LIG d   1       4.426  -3.385  -3.493  0.00  0.00     0.062 H 
ATOM      8  H   LIG d   1       3.480  -1.349  -2.490  0.00  0.00     0.062 H 
ATOM      9  H   LIG d   1       7.926  -1.225  -4.627  0.00  0.00     0.062 H 
ENDROOT
BRANCH   1  10
ATOM     10  C   LIG d   1       6.806  -3.676  -4.730  0.00  0.00    -0.040 C 
ATOM     11  H   LIG d   1       7.830  -3.485  -5.054  0.00  0.00     0.028 H 
ATOM     12  H   LIG d   1       6.803  -4.476  -3.990  0.00  0.00     0.028 H 
ATOM     13  H   LIG d   1       6.204  -3.973  -5.589  0.00  0.00     0.028 H 
ENDBRANCH   1  10
BRANCH   5  14
ATOM     14  C   LIG d   1       7.219   1.190  -3.647  0.00  0.00    -0.039 C 
ATOM     15  H   LIG d   1       8.115   1.045  -4.250  0.00  0.00     0.028 H 
ATOM     16  H   LIG d   1       6.606   1.975  -4.088  0.00  0.00     0.028 H 
ATOM     17  H   LIG d   1       7.505   1.476  -2.635  0.00  0.00     0.028 H 
ENDBRANCH   5  14
BRANCH   4  18
ATOM     18  C   LIG d   1       4.611   1.103  -2.398  0.00  0.00     0.072 C 
ATOM     19  O   LIG d   1       4.760   1.325  -1.213  0.00  0.00    -0.545 OA
ATOM     20  O   LIG d   1       3.930   1.975  -3.165  0.00  0.00    -0.545 OA
ENDBRANCH   4  18
TORSDOF 3
ENDMDL
MODEL 6
REMARK VINA RESULT:      -4.5      2.643      3.624
REMARK  3 active torsions:
REMARK  status: ('A' for Active; 'I' for Inactive)
REMARK    1  A    between atoms: C_1  and  C_2 
REMARK    2  A    between atoms: C_5  and  C_9 
REMARK    3  A    between atoms: C_6  and  C_8 
ROOT
ATOM      1  C   LIG d   1       3.287  -0.056  -6.282  0.00  0.00    -0.050 A 
ATOM      2  C   LIG d   1       2.416   0.395  -5.308  0.00  0.00    -0.058 A 
ATOM      3  C   LIG d   1       2.814   0.438  -3.988  0.00  0.00    -0.052 A 
ATOM      4  C   LIG d   1       4.099   0.022  -3.636  0.00  0.00     0.000 A 
ATOM      5  C   LIG d   1       4.974  -0.433  -4.624  0.00  0.00    -0.041 A 
ATOM      6  C   LIG d   1       4.563  -0.470  -5.941  0.00  0.00    -0.055 A 
ATOM      7  H   LIG d   1       1.421   0.717  -5.582  0.00  0.00     0.062 H 
ATOM      8  H   LIG d   1       2.130   0.787  -3.228  0.00  0.00     0.062 H 
ATOM      9  H   LIG d   1       5.238  -0.822  -6.707  0.00  0.00     0.062 H 
ENDROOT
BRANCH   1  10
ATOM     10  C   LIG d   1       2.846  -0.099  -7.723  0.00  0.00    -0.040 C 
ATOM     11  H   LIG d   1       2.971  -1.110  -8.111  0.00  0.00     0.028 H 
ATOM     12  H   LIG d   1       1.797   0.188  -7.790  0.00  0.00     0.028 H 
ATOM     13  H   LIG d   1       3.450   0.593  -8.309  0.00  0.00     0.028 H 
ENDBRANCH   1  10
BRANCH   5  14
ATOM     14  C   LIG d   1       6.364  -0.883  -4.254  0.00  0.00    -0.039 C 
ATOM     15  H   LIG d   1       6.449  -0.943  -3.169  0.00  0.00     0.028 H 
ATOM     16  H   LIG d   1       6.555  -1.865  -4.688  0.00  0.00     0.028 H 
ATOM     17  H   LIG d   1       7.091  -0.168  -4.637  0.00  0.00     0.028 H 
ENDBRANCH   5  14
BRANCH   4  18
ATOM     18  C   LIG d   1       4.532   0.063  -2.224  0.00  0.00     0.072 C 
ATOM     19  O   LIG d   1       4.376  -0.908  -1.512  0.00  0.00    -0.545 OA
ATOM     20  O   LIG d   1       5.099   1.179  -1.727  0.00  0.00    -0.545 OA
ENDBRANCH   4  18
TORSDOF 3
ENDMDL
MODEL 7
REMARK VINA RESULT:      -4.0      7.293      7.782
REMARK  3 active torsions:
REMARK  status: ('A' for Active; 'I' for Inactive)
REMARK    1  A    between atoms: C_1  and  C_2 
REMARK    2  A    between atoms: C_5  and  C_9 
REMARK    3  A    between atoms: C_6  and  C_8 
ROOT
ATOM      1  C   LIG d   1       2.239  -0.981 -11.648  0.00  0.00    -0.050 A 
ATOM      2  C   LIG d   1       1.319  -0.972 -10.615  0.00  0.00    -0.058 A 
ATOM      3  C   LIG d   1       1.584  -0.272  -9.456  0.00  0.00    -0.052 A 
ATOM      4  C   LIG d   1       2.785   0.428  -9.327  0.00  0.00     0.000 A 
ATOM      5  C   LIG d   1       3.710   0.416 -10.373  0.00  0.00    -0.041 A 
ATOM      6  C   LIG d   1       3.431  -0.289 -11.526  0.00  0.00    -0.055 A 
ATOM      7  H   LIG d   1       0.390  -1.515 -10.716  0.00  0.00     0.062 H 
ATOM      8  H   LIG d   1       0.867  -0.270  -8.649  0.00  0.00     0.062 H 
ATOM      9  H   LIG d   1       4.146  -0.301 -12.337  0.00  0.00     0.062 H 
ENDROOT
BRANCH   1  10
ATOM     10  C   LIG d   1       1.943  -1.747 -12.911  0.00  0.00    -0.040 C 
ATOM     11  H   LIG d   1       0.887  -2.021 -12.931  0.00  0.00     0.028 H 
ATOM     12  H   LIG d   1       2.172  -1.125 -13.775  0.00  0.00     0.028 H 
ATOM     13  H   LIG d   1       2.553  -2.650 -12.941  0.00  0.00     0.028 H 
ENDBRANCH   1  10
BRANCH   5  14
ATOM     14  C   LIG d   1       5.008   1.169 -10.243  0.00  0.00    -0.039 C 
ATOM     15  H   LIG d   1       5.399   1.047  -9.232  0.00  0.00     0.028 H 
ATOM     16  H   LIG d   1       5.728   0.778 -10.961  0.00  0.00     0.028 H 
ATOM     17  H   LIG d   1       4.836   2.227 -10.440  0.00  0.00     0.028 H 
ENDBRANCH   5  14
BRANCH   4  18
ATOM     18  C   LIG d   1       3.076   1.180  -8.089  0.00  0.00     0.072 C 
ATOM     19  O   LIG d   1       2.796   2.359  -8.014  0.00  0.00    -0.545 OA
ATOM     20  O   LIG d   1       3.654   0.557  -7.043  0.00  0.00    -0.545 OA
ENDBRANCH   4  18
TORSDOF 3
ENDMDL
MODEL 8
REMARK VINA RESULT:      -4.0      8.361      9.116
REMARK  3 active torsions:
REMARK  status: ('A' for Active; 'I' for Inactive)
REMARK    1  A    between atoms: C_1  and  C_2 
REMARK    2  A    between atoms: C_5  and  C_9 
REMARK    3  A    between atoms: C_6  and  C_8 
ROOT
ATOM      1  C   LIG d   1       3.533   1.511  -9.846  0.00  0.00    -0.050 A 
ATOM      2  C   LIG d   1       2.479   0.885  -9.206  0.00  0.00    -0.058 A 
ATOM      3  C   LIG d   1       1.904  -0.241  -9.757  0.00  0.00    -0.052 A 
ATOM      4  C   LIG d   1       2.386  -0.747 -10.965  0.00  0.00     0.000 A 
ATOM      5  C   LIG d   1       3.450  -0.110 -11.607  0.00  0.00    -0.041 A 
ATOM      6  C   LIG d   1       4.016   1.015 -11.043  0.00  0.00    -0.055 A 
ATOM      7  H   LIG d   1       2.107   1.278  -8.270  0.00  0.00     0.062 H 
ATOM      8  H   LIG d   1       1.078  -0.726  -9.257  0.00  0.00     0.062 H 
ATOM      9  H   LIG d   1       4.839   1.510 -11.539  0.00  0.00     0.062 H 
ENDROOT
BRANCH   1  10
ATOM     10  C   LIG d   1       4.158   2.741  -9.237  0.00  0.00    -0.040 C 
ATOM     11  H   LIG d   1       5.164   2.503  -8.892  0.00  0.00     0.028 H 
ATOM     12  H   LIG d   1       4.209   3.530  -9.986  0.00  0.00     0.028 H 
ATOM     13  H   LIG d   1       3.554   3.077  -8.395  0.00  0.00     0.028 H 
ENDBRANCH   1  10
BRANCH   5  14
ATOM     14  C   LIG d   1       3.978  -0.650 -12.911  0.00  0.00    -0.039 C 
ATOM     15  H   LIG d   1       4.283  -1.688 -12.777  0.00  0.00     0.028 H 
ATOM     16  H   LIG d   1       3.197  -0.595 -13.669  0.00  0.00     0.028 H 
ATOM     17  H   LIG d   1       4.836  -0.058 -13.229  0.00  0.00     0.028 H 
ENDBRANCH   5  14
BRANCH   4  18
ATOM     18  C   LIG d   1       1.774  -1.952 -11.562  0.00  0.00     0.072 C 
ATOM     19  O   LIG d   1       0.813  -1.845 -12.297  0.00  0.00    -0.545 OA
ATOM     20  O   LIG d   1       2.282  -3.170 -11.290  0.00  0.00    -0.545 OA
ENDBRANCH   4  18
TORSDOF 3
ENDMDL
MODEL 9
REMARK VINA RESULT:      -4.0      7.868      9.031
REMARK  3 active torsions:
REMARK  status: ('A' for Active; 'I' for Inactive)
REMARK    1  A    between atoms: C_1  and  C_2 
REMARK    2  A    between atoms: C_5  and  C_9 
REMARK    3  A    between atoms: C_6  and  C_8 
ROOT
ATOM      1  C   LIG d   1       9.817   5.398  -3.363  0.00  0.00    -0.050 A 
ATOM      2  C   LIG d   1      10.616   4.482  -2.704  0.00  0.00    -0.058 A 
ATOM      3  C   LIG d   1      11.074   4.750  -1.430  0.00  0.00    -0.052 A 
ATOM      4  C   LIG d   1      10.729   5.952  -0.808  0.00  0.00     0.000 A 
ATOM      5  C   LIG d   1       9.923   6.873  -1.479  0.00  0.00    -0.041 A 
ATOM      6  C   LIG d   1       9.472   6.590  -2.752  0.00  0.00    -0.055 A 
ATOM      7  H   LIG d   1      10.883   3.553  -3.187  0.00  0.00     0.062 H 
ATOM      8  H   LIG d   1      11.701   4.036  -0.919  0.00  0.00     0.062 H 
ATOM      9  H   LIG d   1       8.848   7.302  -3.274  0.00  0.00     0.062 H 
ENDROOT
BRANCH   1  10
ATOM     10  C   LIG d   1       9.321   5.097  -4.754  0.00  0.00    -0.040 C 
ATOM     11  H   LIG d   1       9.632   4.092  -5.042  0.00  0.00     0.028 H 
ATOM     12  H   LIG d   1       8.233   5.159  -4.772  0.00  0.00     0.028 H 
ATOM     13  H   LIG d   1       9.738   5.821  -5.454  0.00  0.00     0.028 H 
ENDBRANCH   1  10
BRANCH   5  14
ATOM     14  C   LIG d   1       9.545   8.172  -0.815  0.00  0.00    -0.039 C 
ATOM     15  H   LIG d   1       9.120   7.967   0.168  0.00  0.00     0.028 H 
ATOM     16  H   LIG d   1      10.433   8.794  -0.705  0.00  0.00     0.028 H 
ATOM     17  H   LIG d   1       8.809   8.692  -1.427  0.00  0.00     0.028 H 
ENDBRANCH   5  14
BRANCH   4  18
ATOM     18  C   LIG d   1      11.216   6.247   0.555  0.00  0.00     0.072 C 
ATOM     19  O   LIG d   1      10.629   5.799   1.520  0.00  0.00    -0.545 OA
ATOM     20  O   LIG d   1      12.309   7.015   0.729  0.00  0.00    -0.545 OA
ENDBRANCH   4  18
TORSDOF 3
ENDMDL
MODEL 10
REMARK VINA RESULT:      -3.9      3.529      4.661
REMARK  3 active torsions:
REMARK  status: ('A' for Active; 'I' for Inactive)
REMARK    1  A    between atoms: C_1  and  C_2 
REMARK    2  A    between atoms: C_5  and  C_9 
REMARK    3  A    between atoms: C_6  and  C_8 
ROOT
ATOM      1  C   LIG d   1       5.099  -1.673  -2.916  0.00  0.00    -0.050 A 
ATOM      2  C   LIG d   1       6.461  -1.438  -2.960  0.00  0.00    -0.058 A 
ATOM      3  C   LIG d   1       7.270  -2.200  -3.777  0.00  0.00    -0.052 A 
ATOM      4  C   LIG d   1       6.711  -3.211  -4.561  0.00  0.00     0.000 A 
ATOM      5  C   LIG d   1       5.335  -3.443  -4.512  0.00  0.00    -0.041 A 
ATOM      6  C   LIG d   1       4.538  -2.673  -3.691  0.00  0.00    -0.055 A 
ATOM      7  H   LIG d   1       6.893  -0.656  -2.353  0.00  0.00     0.062 H 
ATOM      8  H   LIG d   1       8.334  -2.019  -3.806  0.00  0.00     0.062 H 
ATOM      9  H   LIG d   1       3.473  -2.851  -3.651  0.00  0.00     0.062 H 
ENDROOT
BRANCH   1  10
ATOM     10  C   LIG d   1       4.221  -0.836  -2.022  0.00  0.00    -0.040 C 
ATOM     11  H   LIG d   1       4.048   0.135  -2.488  0.00  0.00     0.028 H 
ATOM     12  H   LIG d   1       3.268  -1.342  -1.873  0.00  0.00     0.028 H 
ATOM     13  H   LIG d   1       4.712  -0.694  -1.059  0.00  0.00     0.028 H 
ENDBRANCH   1  10
BRANCH   5  14
ATOM     14  C   LIG d   1       4.722  -4.532  -5.355  0.00  0.00    -0.039 C 
ATOM     15  H   LIG d   1       4.535  -4.151  -6.360  0.00  0.00     0.028 H 
ATOM     16  H   LIG d   1       5.406  -5.378  -5.409  0.00  0.00     0.028 H 
ATOM     17  H   LIG d   1       3.781  -4.852  -4.908  0.00  0.00     0.028 H 
ENDBRANCH   5  14
BRANCH   4  18
ATOM     18  C   LIG d   1       7.570  -4.032  -5.438  0.00  0.00     0.072 C 
ATOM     19  O   LIG d   1       8.096  -5.038  -5.005  0.00  0.00    -0.545 OA
ATOM     20  O   LIG d   1       7.773  -3.664  -6.718  0.00  0.00    -0.545 OA
ENDBRANCH   4  18
TORSDOF 3
ENDMDL
