MODEL 1
REMARK VINA RESULT:      -7.0      0.000      0.000
REMARK  2 active torsions:
REMARK  status: ('A' for Active; 'I' for Inactive)
REMARK    1  A    between atoms: C_5  and  C_7 
REMARK       I    between atoms: C_7  and  N_9 
REMARK    2  A    between atoms: N_9  and  C_10 
ROOT
ATOM      1  C   LIG d   1       3.536  -1.077  -7.859  0.00  0.00     0.090 A 
ATOM      2  C   LIG d   1       3.475  -0.105  -8.847  0.00  0.00     0.084 A 
ATOM      3  C   LIG d   1       3.594  -0.540 -10.227  0.00  0.00    -0.018 A 
ATOM      4  C   LIG d   1       3.754  -1.871 -10.398  0.00  0.00    -0.004 A 
ATOM      5  S   LIG d   1       3.748  -2.542  -8.760  0.00  0.00    -0.077 SA
ATOM      6  C   LIG d   1       3.902  -2.604 -11.696  0.00  0.00    -0.021 C 
ATOM      7  C   LIG d   1       3.471  -1.665 -12.832  0.00  0.00    -0.048 C 
ATOM      8  C   LIG d   1       4.146  -0.304 -12.636  0.00  0.00    -0.049 C 
ATOM      9  C   LIG d   1       3.548   0.405 -11.421  0.00  0.00    -0.026 C 
ATOM     10  C   LIG d   1       3.300   1.278  -8.517  0.00  0.00     0.102 C 
ATOM     11  N   LIG d   1       3.161   2.375  -8.255  0.00  0.00    -0.191 NA
ATOM     12  H   LIG d   1       3.268  -3.491 -11.692  0.00  0.00     0.032 H 
ATOM     13  H   LIG d   1       4.942  -2.896 -11.836  0.00  0.00     0.032 H 
ATOM     14  H   LIG d   1       3.773  -2.088 -13.791  0.00  0.00     0.027 H 
ATOM     15  H   LIG d   1       2.388  -1.541 -12.813  0.00  0.00     0.027 H 
ATOM     16  H   LIG d   1       5.215  -0.451 -12.477  0.00  0.00     0.027 H 
ATOM     17  H   LIG d   1       3.995   0.307 -13.526  0.00  0.00     0.027 H 
ATOM     18  H   LIG d   1       2.514   0.675 -11.633  0.00  0.00     0.031 H 
ATOM     19  H   LIG d   1       4.123   1.303 -11.199  0.00  0.00     0.031 H 
ENDROOT
BRANCH   1  20
ATOM     20  N   LIG d   1       3.449  -0.916  -6.485  0.00  0.00    -0.275 N 
ATOM     21  C   LIG d   1       4.569  -0.749  -5.753  0.00  0.00     0.250 C 
ATOM     22  O   LIG d   1       5.655  -0.739  -6.297  0.00  0.00    -0.270 OA
ATOM     23  H   LIG d   1       2.581  -0.925  -6.049  0.00  0.00     0.156 HD
BRANCH  21  24
ATOM     24  C   LIG d   1       4.475  -0.578  -4.289  0.00  0.00     0.055 A 
ATOM     25  C   LIG d   1       4.566  -1.689  -3.446  0.00  0.00     0.053 A 
ATOM     26  C   LIG d   1       4.478  -1.521  -2.077  0.00  0.00    -0.043 A 
ATOM     27 CL   LIG d   1       4.791  -3.275  -4.116  0.00  0.00    -0.083 Cl
ATOM     28  C   LIG d   1       4.299  -0.259  -1.542  0.00  0.00    -0.060 A 
ATOM     29  H   LIG d   1       4.549  -2.379  -1.424  0.00  0.00     0.063 H 
ATOM     30  C   LIG d   1       4.208   0.845  -2.372  0.00  0.00    -0.061 A 
ATOM     31  H   LIG d   1       4.231  -0.133  -0.472  0.00  0.00     0.062 H 
ATOM     32  C   LIG d   1       4.299   0.693  -3.740  0.00  0.00    -0.048 A 
ATOM     33  H   LIG d   1       4.069   1.828  -1.947  0.00  0.00     0.062 H 
ATOM     34  H   LIG d   1       4.232   1.557  -4.385  0.00  0.00     0.062 H 
ENDBRANCH  21  24
ENDBRANCH   1  20
TORSDOF 2
ENDMDL
MODEL 2
REMARK VINA RESULT:      -6.6      1.229      2.228
REMARK  2 active torsions:
REMARK  status: ('A' for Active; 'I' for Inactive)
REMARK    1  A    between atoms: C_5  and  C_7 
REMARK       I    between atoms: C_7  and  N_9 
REMARK    2  A    between atoms: N_9  and  C_10 
ROOT
ATOM      1  C   LIG d   1       3.595  -0.684  -7.840  0.00  0.00     0.090 A 
ATOM      2  C   LIG d   1       3.711  -1.740  -8.732  0.00  0.00     0.084 A 
ATOM      3  C   LIG d   1       3.770  -1.422 -10.148  0.00  0.00    -0.018 A 
ATOM      4  C   LIG d   1       3.706  -0.106 -10.444  0.00  0.00    -0.004 A 
ATOM      5  S   LIG d   1       3.569   0.705  -8.877  0.00  0.00    -0.077 SA
ATOM      6  C   LIG d   1       3.746   0.517 -11.806  0.00  0.00    -0.021 C 
ATOM      7  C   LIG d   1       4.246  -0.538 -12.804  0.00  0.00    -0.048 C 
ATOM      8  C   LIG d   1       3.477  -1.842 -12.577  0.00  0.00    -0.049 C 
ATOM      9  C   LIG d   1       3.895  -2.470 -11.247  0.00  0.00    -0.026 C 
ATOM     10  C   LIG d   1       3.769  -3.096  -8.272  0.00  0.00     0.102 C 
ATOM     11  N   LIG d   1       3.815  -4.171  -7.907  0.00  0.00    -0.191 NA
ATOM     12  H   LIG d   1       4.425   1.369 -11.801  0.00  0.00     0.032 H 
ATOM     13  H   LIG d   1       2.746   0.844 -12.089  0.00  0.00     0.032 H 
ATOM     14  H   LIG d   1       4.078  -0.186 -13.822  0.00  0.00     0.027 H 
ATOM     15  H   LIG d   1       5.312  -0.710 -12.650  0.00  0.00     0.027 H 
ATOM     16  H   LIG d   1       2.408  -1.632 -12.555  0.00  0.00     0.027 H 
ATOM     17  H   LIG d   1       3.692  -2.536 -13.390  0.00  0.00     0.027 H 
ATOM     18  H   LIG d   1       4.929  -2.806 -11.315  0.00  0.00     0.031 H 
ATOM     19  H   LIG d   1       3.249  -3.317 -11.020  0.00  0.00     0.031 H 
ENDROOT
BRANCH   1  20
ATOM     20  N   LIG d   1       3.520  -0.727  -6.457  0.00  0.00    -0.275 N 
ATOM     21  C   LIG d   1       4.596  -0.402  -5.712  0.00  0.00     0.250 C 
ATOM     22  O   LIG d   1       5.632  -0.070  -6.253  0.00  0.00    -0.270 OA
ATOM     23  H   LIG d   1       2.693  -0.994  -6.024  0.00  0.00     0.156 HD
BRANCH  21  24
ATOM     24  C   LIG d   1       4.515  -0.449  -4.238  0.00  0.00     0.055 A 
ATOM     25  C   LIG d   1       4.584  -1.675  -3.571  0.00  0.00     0.053 A 
ATOM     26  C   LIG d   1       4.508  -1.711  -2.192  0.00  0.00    -0.043 A 
ATOM     27 CL   LIG d   1       4.766  -3.148  -4.471  0.00  0.00    -0.083 Cl
ATOM     28  C   LIG d   1       4.362  -0.539  -1.473  0.00  0.00    -0.060 A 
ATOM     29  H   LIG d   1       4.562  -2.658  -1.674  0.00  0.00     0.063 H 
ATOM     30  C   LIG d   1       4.293   0.678  -2.129  0.00  0.00    -0.061 A 
ATOM     31  H   LIG d   1       4.303  -0.572  -0.395  0.00  0.00     0.062 H 
ATOM     32  C   LIG d   1       4.373   0.730  -3.504  0.00  0.00    -0.048 A 
ATOM     33  H   LIG d   1       4.181   1.590  -1.560  0.00  0.00     0.062 H 
ATOM     34  H   LIG d   1       4.323   1.682  -4.013  0.00  0.00     0.062 H 
ENDBRANCH  21  24
ENDBRANCH   1  20
TORSDOF 2
ENDMDL
MODEL 3
REMARK VINA RESULT:      -6.6      2.523      7.359
REMARK  2 active torsions:
REMARK  status: ('A' for Active; 'I' for Inactive)
REMARK    1  A    between atoms: C_5  and  C_7 
REMARK       I    between atoms: C_7  and  N_9 
REMARK    2  A    between atoms: N_9  and  C_10 
ROOT
ATOM      1  C   LIG d   1       3.443  -0.436  -6.403  0.00  0.00     0.090 A 
ATOM      2  C   LIG d   1       4.668  -0.497  -5.756  0.00  0.00     0.084 A 
ATOM      3  C   LIG d   1       4.746   0.045  -4.411  0.00  0.00    -0.018 A 
ATOM      4  C   LIG d   1       3.592   0.557  -3.930  0.00  0.00    -0.004 A 
ATOM      5  S   LIG d   1       2.417   0.328  -5.234  0.00  0.00    -0.077 SA
ATOM      6  C   LIG d   1       3.370   1.177  -2.585  0.00  0.00    -0.021 C 
ATOM      7  C   LIG d   1       4.557   0.811  -1.682  0.00  0.00    -0.048 C 
ATOM      8  C   LIG d   1       5.860   1.074  -2.445  0.00  0.00    -0.049 C 
ATOM      9  C   LIG d   1       6.018   0.054  -3.573  0.00  0.00    -0.026 C 
ATOM     10  C   LIG d   1       5.815  -1.072  -6.392  0.00  0.00     0.102 C 
ATOM     11  N   LIG d   1       6.725  -1.529  -6.897  0.00  0.00    -0.191 NA
ATOM     12  H   LIG d   1       2.447   0.793  -2.150  0.00  0.00     0.032 H 
ATOM     13  H   LIG d   1       3.305   2.260  -2.686  0.00  0.00     0.032 H 
ATOM     14  H   LIG d   1       4.533   1.423  -0.780  0.00  0.00     0.027 H 
ATOM     15  H   LIG d   1       4.499  -0.243  -1.411  0.00  0.00     0.027 H 
ATOM     16  H   LIG d   1       5.834   2.078  -2.868  0.00  0.00     0.027 H 
ATOM     17  H   LIG d   1       6.703   0.992  -1.759  0.00  0.00     0.027 H 
ATOM     18  H   LIG d   1       6.181  -0.935  -3.146  0.00  0.00     0.031 H 
ATOM     19  H   LIG d   1       6.867   0.326  -4.199  0.00  0.00     0.031 H 
ENDROOT
BRANCH   1  20
ATOM     20  N   LIG d   1       3.117  -0.880  -7.676  0.00  0.00    -0.275 N 
ATOM     21  C   LIG d   1       2.962   0.007  -8.679  0.00  0.00     0.250 C 
ATOM     22  O   LIG d   1       3.108   1.194  -8.470  0.00  0.00    -0.270 OA
ATOM     23  H   LIG d   1       2.999  -1.829  -7.843  0.00  0.00     0.156 HD
BRANCH  21  24
ATOM     24  C   LIG d   1       2.615  -0.467 -10.035  0.00  0.00     0.055 A 
ATOM     25  C   LIG d   1       3.604  -0.574 -11.016  0.00  0.00     0.053 A 
ATOM     26  C   LIG d   1       3.272  -1.018 -12.281  0.00  0.00    -0.043 A 
ATOM     27 CL   LIG d   1       5.247  -0.151 -10.645  0.00  0.00    -0.083 Cl
ATOM     28  C   LIG d   1       1.965  -1.356 -12.577  0.00  0.00    -0.060 A 
ATOM     29  H   LIG d   1       4.036  -1.102 -13.040  0.00  0.00     0.063 H 
ATOM     30  C   LIG d   1       0.980  -1.252 -11.610  0.00  0.00    -0.061 A 
ATOM     31  H   LIG d   1       1.710  -1.702 -13.568  0.00  0.00     0.062 H 
ATOM     32  C   LIG d   1       1.298  -0.815 -10.341  0.00  0.00    -0.048 A 
ATOM     33  H   LIG d   1      -0.040  -1.518 -11.849  0.00  0.00     0.062 H 
ATOM     34  H   LIG d   1       0.529  -0.738  -9.587  0.00  0.00     0.062 H 
ENDBRANCH  21  24
ENDBRANCH   1  20
TORSDOF 2
ENDMDL
MODEL 4
REMARK VINA RESULT:      -6.1      2.436      7.261
REMARK  2 active torsions:
REMARK  status: ('A' for Active; 'I' for Inactive)
REMARK    1  A    between atoms: C_5  and  C_7 
REMARK       I    between atoms: C_7  and  N_9 
REMARK    2  A    between atoms: N_9  and  C_10 
ROOT
ATOM      1  C   LIG d   1       4.572  -1.358  -7.331  0.00  0.00     0.090 A 
ATOM      2  C   LIG d   1       3.890  -0.433  -6.553  0.00  0.00     0.084 A 
ATOM      3  C   LIG d   1       3.763  -0.711  -5.134  0.00  0.00    -0.018 A 
ATOM      4  C   LIG d   1       4.334  -1.864  -4.721  0.00  0.00    -0.004 A 
ATOM      5  S   LIG d   1       5.033  -2.573  -6.184  0.00  0.00    -0.077 SA
ATOM      6  C   LIG d   1       4.364  -2.408  -3.325  0.00  0.00    -0.021 C 
ATOM      7  C   LIG d   1       3.971  -1.281  -2.359  0.00  0.00    -0.048 C 
ATOM      8  C   LIG d   1       2.711  -0.590  -2.888  0.00  0.00    -0.049 C 
ATOM      9  C   LIG d   1       3.043   0.205  -4.152  0.00  0.00    -0.026 C 
ATOM     10  C   LIG d   1       3.333   0.753  -7.131  0.00  0.00     0.102 C 
ATOM     11  N   LIG d   1       2.890   1.695  -7.588  0.00  0.00    -0.191 NA
ATOM     12  H   LIG d   1       5.369  -2.760  -3.089  0.00  0.00     0.032 H 
ATOM     13  H   LIG d   1       3.656  -3.231  -3.237  0.00  0.00     0.032 H 
ATOM     14  H   LIG d   1       3.772  -1.698  -1.372  0.00  0.00     0.027 H 
ATOM     15  H   LIG d   1       4.784  -0.557  -2.292  0.00  0.00     0.027 H 
ATOM     16  H   LIG d   1       1.958  -1.342  -3.123  0.00  0.00     0.027 H 
ATOM     17  H   LIG d   1       2.321   0.085  -2.126  0.00  0.00     0.027 H 
ATOM     18  H   LIG d   1       3.689   1.043  -3.893  0.00  0.00     0.031 H 
ATOM     19  H   LIG d   1       2.124   0.577  -4.605  0.00  0.00     0.031 H 
ENDROOT
BRANCH   1  20
ATOM     20  N   LIG d   1       4.824  -1.320  -8.694  0.00  0.00    -0.275 N 
ATOM     21  C   LIG d   1       3.891  -1.753  -9.564  0.00  0.00     0.250 C 
ATOM     22  O   LIG d   1       2.829  -2.177  -9.155  0.00  0.00    -0.270 OA
ATOM     23  H   LIG d   1       5.674  -0.982  -9.020  0.00  0.00     0.156 HD
BRANCH  21  24
ATOM     24  C   LIG d   1       4.161  -1.713 -11.016  0.00  0.00     0.055 A 
ATOM     25  C   LIG d   1       4.078  -0.503 -11.711  0.00  0.00     0.053 A 
ATOM     26  C   LIG d   1       4.332  -0.473 -13.069  0.00  0.00    -0.043 A 
ATOM     27 CL   LIG d   1       3.658   0.957 -10.872  0.00  0.00    -0.083 Cl
ATOM     28  C   LIG d   1       4.667  -1.635 -13.739  0.00  0.00    -0.060 A 
ATOM     29  H   LIG d   1       4.269   0.461 -13.608  0.00  0.00     0.063 H 
ATOM     30  C   LIG d   1       4.751  -2.836 -13.056  0.00  0.00    -0.061 A 
ATOM     31  H   LIG d   1       4.865  -1.606 -14.800  0.00  0.00     0.062 H 
ATOM     32  C   LIG d   1       4.504  -2.880 -11.700  0.00  0.00    -0.048 A 
ATOM     33  H   LIG d   1       5.014  -3.740 -13.586  0.00  0.00     0.062 H 
ATOM     34  H   LIG d   1       4.574  -3.818 -11.168  0.00  0.00     0.062 H 
ENDBRANCH  21  24
ENDBRANCH   1  20
TORSDOF 2
ENDMDL
MODEL 5
REMARK VINA RESULT:      -6.1      3.548      4.428
REMARK  2 active torsions:
REMARK  status: ('A' for Active; 'I' for Inactive)
REMARK    1  A    between atoms: C_5  and  C_7 
REMARK       I    between atoms: C_7  and  N_9 
REMARK    2  A    between atoms: N_9  and  C_10 
ROOT
ATOM      1  C   LIG d   1       4.329  -4.361  -6.175  0.00  0.00     0.090 A 
ATOM      2  C   LIG d   1       4.253  -4.365  -7.560  0.00  0.00     0.084 A 
ATOM      3  C   LIG d   1       4.708  -5.556  -8.255  0.00  0.00    -0.018 A 
ATOM      4  C   LIG d   1       5.164  -6.547  -7.458  0.00  0.00    -0.004 A 
ATOM      5  S   LIG d   1       4.995  -5.919  -5.812  0.00  0.00    -0.077 SA
ATOM      6  C   LIG d   1       5.692  -7.881  -7.888  0.00  0.00    -0.021 C 
ATOM      7  C   LIG d   1       5.294  -8.108  -9.354  0.00  0.00    -0.048 C 
ATOM      8  C   LIG d   1       5.632  -6.851 -10.161  0.00  0.00    -0.049 C 
ATOM      9  C   LIG d   1       4.690  -5.712  -9.771  0.00  0.00    -0.026 C 
ATOM     10  C   LIG d   1       3.743  -3.235  -8.278  0.00  0.00     0.102 C 
ATOM     11  N   LIG d   1       3.339  -2.339  -8.848  0.00  0.00    -0.191 NA
ATOM     12  H   LIG d   1       5.262  -8.666  -7.265  0.00  0.00     0.032 H 
ATOM     13  H   LIG d   1       6.778  -7.893  -7.796  0.00  0.00     0.032 H 
ATOM     14  H   LIG d   1       5.846  -8.959  -9.755  0.00  0.00     0.027 H 
ATOM     15  H   LIG d   1       4.224  -8.306  -9.415  0.00  0.00     0.027 H 
ATOM     16  H   LIG d   1       6.660  -6.555  -9.954  0.00  0.00     0.027 H 
ATOM     17  H   LIG d   1       5.524  -7.064 -11.225  0.00  0.00     0.027 H 
ATOM     18  H   LIG d   1       3.679  -5.949 -10.101  0.00  0.00     0.031 H 
ATOM     19  H   LIG d   1       5.019  -4.785 -10.238  0.00  0.00     0.031 H 
ENDROOT
BRANCH   1  20
ATOM     20  N   LIG d   1       3.961  -3.355  -5.294  0.00  0.00    -0.275 N 
ATOM     21  C   LIG d   1       4.858  -2.418  -4.928  0.00  0.00     0.250 C 
ATOM     22  O   LIG d   1       5.989  -2.454  -5.370  0.00  0.00    -0.270 OA
ATOM     23  H   LIG d   1       3.058  -3.327  -4.940  0.00  0.00     0.156 HD
BRANCH  21  24
ATOM     24  C   LIG d   1       4.466  -1.347  -3.990  0.00  0.00     0.055 A 
ATOM     25  C   LIG d   1       3.784  -0.220  -4.457  0.00  0.00     0.053 A 
ATOM     26  C   LIG d   1       3.419   0.777  -3.573  0.00  0.00    -0.043 A 
ATOM     27 CL   LIG d   1       3.395  -0.074  -6.142  0.00  0.00    -0.083 Cl
ATOM     28  C   LIG d   1       3.728   0.662  -2.230  0.00  0.00    -0.060 A 
ATOM     29  H   LIG d   1       2.891   1.649  -3.932  0.00  0.00     0.063 H 
ATOM     30  C   LIG d   1       4.404  -0.452  -1.762  0.00  0.00    -0.061 A 
ATOM     31  H   LIG d   1       3.441   1.444  -1.543  0.00  0.00     0.062 H 
ATOM     32  C   LIG d   1       4.769  -1.457  -2.631  0.00  0.00    -0.048 A 
ATOM     33  H   LIG d   1       4.641  -0.535  -0.711  0.00  0.00     0.062 H 
ATOM     34  H   LIG d   1       5.292  -2.327  -2.263  0.00  0.00     0.062 H 
ENDBRANCH  21  24
ENDBRANCH   1  20
TORSDOF 2
ENDMDL
MODEL 6
REMARK VINA RESULT:      -5.6      4.689      7.679
REMARK  2 active torsions:
REMARK  status: ('A' for Active; 'I' for Inactive)
REMARK    1  A    between atoms: C_5  and  C_7 
REMARK       I    between atoms: C_7  and  N_9 
REMARK    2  A    between atoms: N_9  and  C_10 
ROOT
ATOM      1  C   LIG d   1       7.140  -0.113  -5.807  0.00  0.00     0.090 A 
ATOM      2  C   LIG d   1       6.878   0.375  -4.535  0.00  0.00     0.084 A 
ATOM      3  C   LIG d   1       5.831  -0.276  -3.767  0.00  0.00    -0.018 A 
ATOM      4  C   LIG d   1       5.218  -1.306  -4.390  0.00  0.00    -0.004 A 
ATOM      5  S   LIG d   1       6.009  -1.417  -5.970  0.00  0.00    -0.077 SA
ATOM      6  C   LIG d   1       4.112  -2.160  -3.849  0.00  0.00    -0.021 C 
ATOM      7  C   LIG d   1       4.026  -1.934  -2.332  0.00  0.00    -0.048 C 
ATOM      8  C   LIG d   1       4.043  -0.429  -2.052  0.00  0.00    -0.049 C 
ATOM      9  C   LIG d   1       5.427   0.144  -2.359  0.00  0.00    -0.026 C 
ATOM     10  C   LIG d   1       7.614   1.481  -3.999  0.00  0.00     0.102 C 
ATOM     11  N   LIG d   1       8.197   2.358  -3.574  0.00  0.00    -0.191 NA
ATOM     12  H   LIG d   1       4.324  -3.210  -4.053  0.00  0.00     0.032 H 
ATOM     13  H   LIG d   1       3.169  -1.878  -4.316  0.00  0.00     0.032 H 
ATOM     14  H   LIG d   1       3.102  -2.367  -1.951  0.00  0.00     0.027 H 
ATOM     15  H   LIG d   1       4.879  -2.407  -1.844  0.00  0.00     0.027 H 
ATOM     16  H   LIG d   1       3.302   0.064  -2.681  0.00  0.00     0.027 H 
ATOM     17  H   LIG d   1       3.801  -0.253  -1.004  0.00  0.00     0.027 H 
ATOM     18  H   LIG d   1       6.147  -0.245  -1.641  0.00  0.00     0.031 H 
ATOM     19  H   LIG d   1       5.398   1.231  -2.296  0.00  0.00     0.031 H 
ENDROOT
BRANCH   1  20
ATOM     20  N   LIG d   1       8.078   0.333  -6.725  0.00  0.00    -0.275 N 
ATOM     21  C   LIG d   1       7.720   1.214  -7.681  0.00  0.00     0.250 C 
ATOM     22  O   LIG d   1       6.576   1.617  -7.738  0.00  0.00    -0.270 OA
ATOM     23  H   LIG d   1       8.992   0.010  -6.680  0.00  0.00     0.156 HD
BRANCH  21  24
ATOM     24  C   LIG d   1       8.721   1.688  -8.659  0.00  0.00     0.055 A 
ATOM     25  C   LIG d   1       9.578   2.741  -8.331  0.00  0.00     0.053 A 
ATOM     26  C   LIG d   1      10.511   3.179  -9.251  0.00  0.00    -0.043 A 
ATOM     27 CL   LIG d   1       9.471   3.498  -6.772  0.00  0.00    -0.083 Cl
ATOM     28  C   LIG d   1      10.597   2.578 -10.492  0.00  0.00    -0.060 A 
ATOM     29  H   LIG d   1      11.175   3.993  -8.998  0.00  0.00     0.063 H 
ATOM     30  C   LIG d   1       9.751   1.534 -10.824  0.00  0.00    -0.061 A 
ATOM     31  H   LIG d   1      11.329   2.924 -11.208  0.00  0.00     0.062 H 
ATOM     32  C   LIG d   1       8.818   1.083  -9.914  0.00  0.00    -0.048 A 
ATOM     33  H   LIG d   1       9.825   1.068 -11.796  0.00  0.00     0.062 H 
ATOM     34  H   LIG d   1       8.161   0.265 -10.172  0.00  0.00     0.062 H 
ENDBRANCH  21  24
ENDBRANCH   1  20
TORSDOF 2
ENDMDL
MODEL 7
REMARK VINA RESULT:      -5.5     10.316     13.412
REMARK  2 active torsions:
REMARK  status: ('A' for Active; 'I' for Inactive)
REMARK    1  A    between atoms: C_5  and  C_7 
REMARK       I    between atoms: C_7  and  N_9 
REMARK    2  A    between atoms: N_9  and  C_10 
ROOT
ATOM      1  C   LIG d   1      10.105   7.754  -1.235  0.00  0.00     0.090 A 
ATOM      2  C   LIG d   1      10.729   7.890  -0.004  0.00  0.00     0.084 A 
ATOM      3  C   LIG d   1      11.060   9.233   0.439  0.00  0.00    -0.018 A 
ATOM      4  C   LIG d   1      10.715  10.221  -0.416  0.00  0.00    -0.004 A 
ATOM      5  S   LIG d   1       9.964   9.391  -1.788  0.00  0.00    -0.077 SA
ATOM      6  C   LIG d   1      10.926  11.692  -0.230  0.00  0.00    -0.021 C 
ATOM      7  C   LIG d   1      11.259  11.948   1.248  0.00  0.00    -0.048 C 
ATOM      8  C   LIG d   1      12.335  10.954   1.695  0.00  0.00    -0.049 C 
ATOM      9  C   LIG d   1      11.746   9.544   1.763  0.00  0.00    -0.026 C 
ATOM     10  C   LIG d   1      11.036   6.746   0.802  0.00  0.00     0.102 C 
ATOM     11  N   LIG d   1      11.280   5.838   1.441  0.00  0.00    -0.191 NA
ATOM     12  H   LIG d   1      10.018  12.231  -0.501  0.00  0.00     0.032 H 
ATOM     13  H   LIG d   1      11.753  12.026  -0.856  0.00  0.00     0.032 H 
ATOM     14  H   LIG d   1      11.630  12.966   1.367  0.00  0.00     0.027 H 
ATOM     15  H   LIG d   1      10.362  11.813   1.853  0.00  0.00     0.027 H 
ATOM     16  H   LIG d   1      13.157  10.966   0.979  0.00  0.00     0.027 H 
ATOM     17  H   LIG d   1      12.707  11.241   2.678  0.00  0.00     0.027 H 
ATOM     18  H   LIG d   1      11.018   9.495   2.572  0.00  0.00     0.031 H 
ATOM     19  H   LIG d   1      12.541   8.821   1.942  0.00  0.00     0.031 H 
ENDROOT
BRANCH   1  20
ATOM     20  N   LIG d   1       9.694   6.592  -1.870  0.00  0.00    -0.275 N 
ATOM     21  C   LIG d   1      10.517   5.973  -2.741  0.00  0.00     0.250 C 
ATOM     22  O   LIG d   1      11.617   6.433  -2.970  0.00  0.00    -0.270 OA
ATOM     23  H   LIG d   1       8.814   6.226  -1.689  0.00  0.00     0.156 HD
BRANCH  21  24
ATOM     24  C   LIG d   1      10.078   4.736  -3.418  0.00  0.00     0.055 A 
ATOM     25  C   LIG d   1       9.553   4.792  -4.712  0.00  0.00     0.053 A 
ATOM     26  C   LIG d   1       9.146   3.630  -5.339  0.00  0.00    -0.043 A 
ATOM     27 CL   LIG d   1       9.416   6.316  -5.531  0.00  0.00    -0.083 Cl
ATOM     28  C   LIG d   1       9.254   2.415  -4.688  0.00  0.00    -0.060 A 
ATOM     29  H   LIG d   1       8.741   3.671  -6.339  0.00  0.00     0.063 H 
ATOM     30  C   LIG d   1       9.773   2.353  -3.406  0.00  0.00    -0.061 A 
ATOM     31  H   LIG d   1       8.934   1.509  -5.182  0.00  0.00     0.062 H 
ATOM     32  C   LIG d   1      10.189   3.504  -2.770  0.00  0.00    -0.048 A 
ATOM     33  H   LIG d   1       9.856   1.400  -2.904  0.00  0.00     0.062 H 
ATOM     34  H   LIG d   1      10.597   3.453  -1.771  0.00  0.00     0.062 H 
ENDBRANCH  21  24
ENDBRANCH   1  20
TORSDOF 2
ENDMDL
MODEL 8
REMARK VINA RESULT:      -5.5      9.671     10.731
REMARK  2 active torsions:
REMARK  status: ('A' for Active; 'I' for Inactive)
REMARK    1  A    between atoms: C_5  and  C_7 
REMARK       I    between atoms: C_7  and  N_9 
REMARK    2  A    between atoms: N_9  and  C_10 
ROOT
ATOM      1  C   LIG d   1       9.731   6.798  -4.780  0.00  0.00     0.090 A 
ATOM      2  C   LIG d   1       9.572   7.818  -5.707  0.00  0.00     0.084 A 
ATOM      3  C   LIG d   1       9.535   7.450  -7.112  0.00  0.00    -0.018 A 
ATOM      4  C   LIG d   1       9.662   6.129  -7.363  0.00  0.00    -0.004 A 
ATOM      5  S   LIG d   1       9.829   5.378  -5.769  0.00  0.00    -0.077 SA
ATOM      6  C   LIG d   1       9.658   5.460  -8.704  0.00  0.00    -0.021 C 
ATOM      7  C   LIG d   1       9.114   6.456  -9.738  0.00  0.00    -0.048 C 
ATOM      8  C   LIG d   1       9.821   7.802  -9.552  0.00  0.00    -0.049 C 
ATOM      9  C   LIG d   1       9.367   8.454  -8.246  0.00  0.00    -0.026 C 
ATOM     10  C   LIG d   1       9.448   9.183  -5.293  0.00  0.00     0.102 C 
ATOM     11  N   LIG d   1       9.350  10.267  -4.965  0.00  0.00    -0.191 NA
ATOM     12  H   LIG d   1       9.020   4.577  -8.673  0.00  0.00     0.032 H 
ATOM     13  H   LIG d   1      10.674   5.170  -8.972  0.00  0.00     0.032 H 
ATOM     14  H   LIG d   1       9.305   6.079 -10.743  0.00  0.00     0.027 H 
ATOM     15  H   LIG d   1       8.042   6.584  -9.594  0.00  0.00     0.027 H 
ATOM     16  H   LIG d   1      10.899   7.643  -9.519  0.00  0.00     0.027 H 
ATOM     17  H   LIG d   1       9.578   8.457 -10.389  0.00  0.00     0.027 H 
ATOM     18  H   LIG d   1       8.318   8.739  -8.329  0.00  0.00     0.031 H 
ATOM     19  H   LIG d   1       9.972   9.337  -8.045  0.00  0.00     0.031 H 
ENDROOT
BRANCH   1  20
ATOM     20  N   LIG d   1       9.797   6.891  -3.398  0.00  0.00    -0.275 N 
ATOM     21  C   LIG d   1      10.993   6.854  -2.776  0.00  0.00     0.250 C 
ATOM     22  O   LIG d   1      12.013   6.739  -3.426  0.00  0.00    -0.270 OA
ATOM     23  H   LIG d   1       8.982   6.982  -2.879  0.00  0.00     0.156 HD
BRANCH  21  24
ATOM     24  C   LIG d   1      11.062   6.953  -1.304  0.00  0.00     0.055 A 
ATOM     25  C   LIG d   1      11.129   8.206  -0.688  0.00  0.00     0.053 A 
ATOM     26  C   LIG d   1      11.193   8.290   0.690  0.00  0.00    -0.043 A 
ATOM     27 CL   LIG d   1      11.132   9.651  -1.650  0.00  0.00    -0.083 Cl
ATOM     28  C   LIG d   1      11.191   7.141   1.457  0.00  0.00    -0.060 A 
ATOM     29  H   LIG d   1      11.244   9.258   1.168  0.00  0.00     0.063 H 
ATOM     30  C   LIG d   1      11.125   5.897   0.852  0.00  0.00    -0.061 A 
ATOM     31  H   LIG d   1      11.241   7.212   2.534  0.00  0.00     0.062 H 
ATOM     32  C   LIG d   1      11.055   5.797  -0.521  0.00  0.00    -0.048 A 
ATOM     33  H   LIG d   1      11.122   5.003   1.459  0.00  0.00     0.062 H 
ATOM     34  H   LIG d   1      10.999   4.826  -0.991  0.00  0.00     0.062 H 
ENDBRANCH  21  24
ENDBRANCH   1  20
TORSDOF 2
ENDMDL
MODEL 9
REMARK VINA RESULT:      -5.4      9.290     10.434
REMARK  2 active torsions:
REMARK  status: ('A' for Active; 'I' for Inactive)
REMARK    1  A    between atoms: C_5  and  C_7 
REMARK       I    between atoms: C_7  and  N_9 
REMARK    2  A    between atoms: N_9  and  C_10 
ROOT
ATOM      1  C   LIG d   1       9.638   7.274  -4.750  0.00  0.00     0.090 A 
ATOM      2  C   LIG d   1       9.635   6.232  -5.665  0.00  0.00     0.084 A 
ATOM      3  C   LIG d   1       9.560   6.575  -7.075  0.00  0.00    -0.018 A 
ATOM      4  C   LIG d   1       9.502   7.898  -7.342  0.00  0.00    -0.004 A 
ATOM      5  S   LIG d   1       9.544   8.683  -5.755  0.00  0.00    -0.077 SA
ATOM      6  C   LIG d   1       9.422   8.545  -8.690  0.00  0.00    -0.021 C 
ATOM      7  C   LIG d   1       9.791   7.498  -9.751  0.00  0.00    -0.048 C 
ATOM      8  C   LIG d   1       9.014   6.209  -9.468  0.00  0.00    -0.049 C 
ATOM      9  C   LIG d   1       9.547   5.546  -8.198  0.00  0.00    -0.026 C 
ATOM     10  C   LIG d   1       9.702   4.868  -5.236  0.00  0.00     0.102 C 
ATOM     11  N   LIG d   1       9.756   3.785  -4.895  0.00  0.00    -0.191 NA
ATOM     12  H   LIG d   1      10.121   9.381  -8.740  0.00  0.00     0.032 H 
ATOM     13  H   LIG d   1       8.408   8.903  -8.866  0.00  0.00     0.032 H 
ATOM     14  H   LIG d   1       9.531   7.873 -10.741  0.00  0.00     0.027 H 
ATOM     15  H   LIG d   1      10.862   7.296  -9.707  0.00  0.00     0.027 H 
ATOM     16  H   LIG d   1       7.958   6.446  -9.335  0.00  0.00     0.027 H 
ATOM     17  H   LIG d   1       9.128   5.526 -10.310  0.00  0.00     0.027 H 
ATOM     18  H   LIG d   1      10.559   5.185  -8.375  0.00  0.00     0.031 H 
ATOM     19  H   LIG d   1       8.904   4.711  -7.921  0.00  0.00     0.031 H 
ENDROOT
BRANCH   1  20
ATOM     20  N   LIG d   1       9.700   7.207  -3.366  0.00  0.00    -0.275 N 
ATOM     21  C   LIG d   1      10.891   7.294  -2.740  0.00  0.00     0.250 C 
ATOM     22  O   LIG d   1      11.909   7.431  -3.388  0.00  0.00    -0.270 OA
ATOM     23  H   LIG d   1       8.886   7.095  -2.849  0.00  0.00     0.156 HD
BRANCH  21  24
ATOM     24  C   LIG d   1      10.956   7.221  -1.266  0.00  0.00     0.055 A 
ATOM     25  C   LIG d   1      10.982   5.979  -0.626  0.00  0.00     0.053 A 
ATOM     26  C   LIG d   1      11.044   5.919   0.753  0.00  0.00    -0.043 A 
ATOM     27 CL   LIG d   1      10.937   4.516  -1.560  0.00  0.00    -0.083 Cl
ATOM     28  C   LIG d   1      11.080   7.082   1.498  0.00  0.00    -0.060 A 
ATOM     29  H   LIG d   1      11.065   4.960   1.250  0.00  0.00     0.063 H 
ATOM     30  C   LIG d   1      11.054   8.316   0.869  0.00  0.00    -0.061 A 
ATOM     31  H   LIG d   1      11.128   7.030   2.576  0.00  0.00     0.062 H 
ATOM     32  C   LIG d   1      10.998   8.391  -0.506  0.00  0.00    -0.048 A 
ATOM     33  H   LIG d   1      11.084   9.221   1.458  0.00  0.00     0.062 H 
ATOM     34  H   LIG d   1      10.983   9.354  -0.995  0.00  0.00     0.062 H 
ENDBRANCH  21  24
ENDBRANCH   1  20
TORSDOF 2
ENDMDL
MODEL 10
REMARK VINA RESULT:      -5.3      4.349      4.695
REMARK  2 active torsions:
REMARK  status: ('A' for Active; 'I' for Inactive)
REMARK    1  A    between atoms: C_5  and  C_7 
REMARK       I    between atoms: C_7  and  N_9 
REMARK    2  A    between atoms: N_9  and  C_10 
ROOT
ATOM      1  C   LIG d   1       7.667   0.719  -6.750  0.00  0.00     0.090 A 
ATOM      2  C   LIG d   1       7.695   1.223  -8.042  0.00  0.00     0.084 A 
ATOM      3  C   LIG d   1       8.955   1.161  -8.762  0.00  0.00    -0.018 A 
ATOM      4  C   LIG d   1       9.980   0.605  -8.079  0.00  0.00    -0.004 A 
ATOM      5  S   LIG d   1       9.293   0.171  -6.506  0.00  0.00    -0.077 SA
ATOM      6  C   LIG d   1      11.384   0.406  -8.561  0.00  0.00    -0.021 C 
ATOM      7  C   LIG d   1      11.401   0.587 -10.086  0.00  0.00    -0.048 C 
ATOM      8  C   LIG d   1      10.639   1.866 -10.444  0.00  0.00    -0.049 C 
ATOM      9  C   LIG d   1       9.145   1.674 -10.184  0.00  0.00    -0.026 C 
ATOM     10  C   LIG d   1       6.523   1.786  -8.644  0.00  0.00     0.102 C 
ATOM     11  N   LIG d   1       5.593   2.232  -9.121  0.00  0.00    -0.191 NA
ATOM     12  H   LIG d   1      11.721  -0.599  -8.306  0.00  0.00     0.032 H 
ATOM     13  H   LIG d   1      12.039   1.143  -8.097  0.00  0.00     0.032 H 
ATOM     14  H   LIG d   1      12.431   0.665 -10.433  0.00  0.00     0.027 H 
ATOM     15  H   LIG d   1      10.920  -0.269 -10.560  0.00  0.00     0.027 H 
ATOM     16  H   LIG d   1      11.008   2.689  -9.831  0.00  0.00     0.027 H 
ATOM     17  H   LIG d   1      10.798   2.100 -11.496  0.00  0.00     0.027 H 
ATOM     18  H   LIG d   1       8.745   0.947 -10.891  0.00  0.00     0.031 H 
ATOM     19  H   LIG d   1       8.625   2.624 -10.303  0.00  0.00     0.031 H 
ENDROOT
BRANCH   1  20
ATOM     20  N   LIG d   1       6.599   0.665  -5.869  0.00  0.00    -0.275 N 
ATOM     21  C   LIG d   1       5.866  -0.462  -5.765  0.00  0.00     0.250 C 
ATOM     22  O   LIG d   1       6.141  -1.431  -6.445  0.00  0.00    -0.270 OA
ATOM     23  H   LIG d   1       6.378   1.439  -5.326  0.00  0.00     0.156 HD
BRANCH  21  24
ATOM     24  C   LIG d   1       4.727  -0.518  -4.826  0.00  0.00     0.055 A 
ATOM     25  C   LIG d   1       4.898  -1.060  -3.549  0.00  0.00     0.053 A 
ATOM     26  C   LIG d   1       3.828  -1.109  -2.675  0.00  0.00    -0.043 A 
ATOM     27 CL   LIG d   1       6.448  -1.671  -3.062  0.00  0.00    -0.083 Cl
ATOM     28  C   LIG d   1       2.593  -0.624  -3.062  0.00  0.00    -0.060 A 
ATOM     29  H   LIG d   1       3.958  -1.527  -1.688  0.00  0.00     0.063 H 
ATOM     30  C   LIG d   1       2.418  -0.085  -4.325  0.00  0.00    -0.061 A 
ATOM     31  H   LIG d   1       1.760  -0.664  -2.375  0.00  0.00     0.062 H 
ATOM     32  C   LIG d   1       3.477  -0.026  -5.206  0.00  0.00    -0.048 A 
ATOM     33  H   LIG d   1       1.450   0.293  -4.620  0.00  0.00     0.062 H 
ATOM     34  H   LIG d   1       3.340   0.399  -6.190  0.00  0.00     0.062 H 
ENDBRANCH  21  24
ENDBRANCH   1  20
TORSDOF 2
ENDMDL
