MODEL 1
REMARK VINA RESULT:      -5.9      0.000      0.000
REMARK  3 active torsions:
REMARK  status: ('A' for Active; 'I' for Inactive)
REMARK    1  A    between atoms: C_1  and  C_2 
REMARK    2  A    between atoms: C_2  and  O_4 
REMARK    3  A    between atoms: O_4  and  C_5 
ROOT
ATOM      1  C   LIG d   1       2.851  -0.551  -8.674  0.00  0.00     0.133 A 
ATOM      2  C   LIG d   1       3.667  -1.680  -8.712  0.00  0.00    -0.017 A 
ATOM      3  C   LIG d   1       4.309  -2.119  -7.590  0.00  0.00    -0.032 A 
ATOM      4  C   LIG d   1       4.150  -1.435  -6.383  0.00  0.00     0.078 A 
ATOM      5  C   LIG d   1       3.325  -0.289  -6.340  0.00  0.00     0.068 A 
ATOM      6  C   LIG d   1       2.677   0.148  -7.493  0.00  0.00    -0.005 A 
ATOM      7  C   LIG d   1       3.184   0.405  -5.054  0.00  0.00     0.262 A 
ATOM      8  O   LIG d   1       2.488   1.398  -4.951  0.00  0.00    -0.267 OA
ATOM      9  N   LIG d   1       3.854  -0.095  -3.984  0.00  0.00    -0.296 N 
ATOM     10  C   LIG d   1       4.626  -1.209  -4.111  0.00  0.00     0.113 A 
ATOM     11  N   LIG d   1       4.765  -1.839  -5.248  0.00  0.00    -0.234 NA
ATOM     12  C   LIG d   1       5.245  -1.552  -2.767  0.00  0.00     0.007 C 
ATOM     13  C   LIG d   1       4.406  -0.758  -1.743  0.00  0.00    -0.028 C 
ATOM     14  C   LIG d   1       3.881   0.411  -2.602  0.00  0.00     0.028 C 
ATOM     15  H   LIG d   1       3.794  -2.214  -9.642  0.00  0.00     0.066 H 
ATOM     16  H   LIG d   1       4.938  -2.996  -7.635  0.00  0.00     0.064 H 
ATOM     17  H   LIG d   1       2.044   1.022  -7.465  0.00  0.00     0.066 H 
ATOM     18  H   LIG d   1       6.287  -1.232  -2.735  0.00  0.00     0.034 H 
ATOM     19  H   LIG d   1       5.169  -2.621  -2.574  0.00  0.00     0.034 H 
ATOM     20  H   LIG d   1       5.030  -0.393  -0.927  0.00  0.00     0.029 H 
ATOM     21  H   LIG d   1       3.583  -1.362  -1.362  0.00  0.00     0.029 H 
ATOM     22  H   LIG d   1       2.878   0.693  -2.284  0.00  0.00     0.049 H 
ATOM     23  H   LIG d   1       4.555   1.266  -2.527  0.00  0.00     0.049 H 
ENDROOT
BRANCH   1  24
ATOM     24  O   LIG d   1       2.223  -0.134  -9.805  0.00  0.00    -0.426 OA
BRANCH  24  25
ATOM     25  C   LIG d   1       2.998   0.131 -10.870  0.00  0.00     0.309 C 
ATOM     26  O   LIG d   1       2.896  -0.535 -11.872  0.00  0.00    -0.251 OA
BRANCH  25  27
ATOM     27  C   LIG d   1       3.995   1.260 -10.814  0.00  0.00     0.034 C 
ATOM     28  H   LIG d   1       5.004   0.850 -10.754  0.00  0.00     0.034 H 
ATOM     29  H   LIG d   1       3.903   1.871 -11.712  0.00  0.00     0.034 H 
ATOM     30  H   LIG d   1       3.800   1.874  -9.934  0.00  0.00     0.034 H 
ENDBRANCH  25  27
ENDBRANCH  24  25
ENDBRANCH   1  24
TORSDOF 3
ENDMDL
MODEL 2
REMARK VINA RESULT:      -5.8      2.044      2.971
REMARK  3 active torsions:
REMARK  status: ('A' for Active; 'I' for Inactive)
REMARK    1  A    between atoms: C_1  and  C_2 
REMARK    2  A    between atoms: C_2  and  O_4 
REMARK    3  A    between atoms: O_4  and  C_5 
ROOT
ATOM      1  C   LIG d   1       3.725  -1.681  -8.207  0.00  0.00     0.133 A 
ATOM      2  C   LIG d   1       2.956  -0.527  -8.352  0.00  0.00    -0.017 A 
ATOM      3  C   LIG d   1       2.739   0.308  -7.294  0.00  0.00    -0.032 A 
ATOM      4  C   LIG d   1       3.293   0.011  -6.046  0.00  0.00     0.078 A 
ATOM      5  C   LIG d   1       4.070  -1.159  -5.894  0.00  0.00     0.068 A 
ATOM      6  C   LIG d   1       4.283  -2.002  -6.982  0.00  0.00    -0.005 A 
ATOM      7  C   LIG d   1       4.633  -1.439  -4.567  0.00  0.00     0.262 A 
ATOM      8  O   LIG d   1       5.311  -2.430  -4.371  0.00  0.00    -0.267 OA
ATOM      9  N   LIG d   1       4.372  -0.558  -3.567  0.00  0.00    -0.296 N 
ATOM     10  C   LIG d   1       3.616   0.549  -3.800  0.00  0.00     0.113 A 
ATOM     11  N   LIG d   1       3.105   0.814  -4.974  0.00  0.00    -0.234 NA
ATOM     12  C   LIG d   1       3.495   1.359  -2.521  0.00  0.00     0.007 C 
ATOM     13  C   LIG d   1       4.623   0.819  -1.616  0.00  0.00    -0.028 C 
ATOM     14  C   LIG d   1       4.812  -0.611  -2.163  0.00  0.00     0.028 C 
ATOM     15  H   LIG d   1       2.527  -0.291  -9.314  0.00  0.00     0.066 H 
ATOM     16  H   LIG d   1       2.142   1.199  -7.422  0.00  0.00     0.064 H 
ATOM     17  H   LIG d   1       4.877  -2.896  -6.872  0.00  0.00     0.066 H 
ATOM     18  H   LIG d   1       2.523   1.193  -2.056  0.00  0.00     0.034 H 
ATOM     19  H   LIG d   1       3.644   2.418  -2.724  0.00  0.00     0.034 H 
ATOM     20  H   LIG d   1       4.311   0.799  -0.572  0.00  0.00     0.029 H 
ATOM     21  H   LIG d   1       5.534   1.406  -1.737  0.00  0.00     0.029 H 
ATOM     22  H   LIG d   1       5.860  -0.902  -2.106  0.00  0.00     0.049 H 
ATOM     23  H   LIG d   1       4.194  -1.313  -1.601  0.00  0.00     0.049 H 
ENDROOT
BRANCH   1  24
ATOM     24  O   LIG d   1       3.925  -2.497  -9.276  0.00  0.00    -0.426 OA
BRANCH  24  25
ATOM     25  C   LIG d   1       3.047  -3.498  -9.451  0.00  0.00     0.309 C 
ATOM     26  O   LIG d   1       3.244  -4.571  -8.934  0.00  0.00    -0.251 OA
BRANCH  25  27
ATOM     27  C   LIG d   1       1.816  -3.281 -10.292  0.00  0.00     0.034 C 
ATOM     28  H   LIG d   1       1.439  -4.244 -10.639  0.00  0.00     0.034 H 
ATOM     29  H   LIG d   1       1.050  -2.785  -9.696  0.00  0.00     0.034 H 
ATOM     30  H   LIG d   1       2.068  -2.659 -11.152  0.00  0.00     0.034 H 
ENDBRANCH  25  27
ENDBRANCH  24  25
ENDBRANCH   1  24
TORSDOF 3
ENDMDL
MODEL 3
REMARK VINA RESULT:      -5.6      2.233      6.009
REMARK  3 active torsions:
REMARK  status: ('A' for Active; 'I' for Inactive)
REMARK    1  A    between atoms: C_1  and  C_2 
REMARK    2  A    between atoms: C_2  and  O_4 
REMARK    3  A    between atoms: O_4  and  C_5 
ROOT
ATOM      1  C   LIG d   1       5.349  -1.212  -4.294  0.00  0.00     0.133 A 
ATOM      2  C   LIG d   1       5.664  -2.508  -4.698  0.00  0.00    -0.017 A 
ATOM      3  C   LIG d   1       5.227  -2.993  -5.898  0.00  0.00    -0.032 A 
ATOM      4  C   LIG d   1       4.458  -2.185  -6.738  0.00  0.00     0.078 A 
ATOM      5  C   LIG d   1       4.135  -0.872  -6.331  0.00  0.00     0.068 A 
ATOM      6  C   LIG d   1       4.586  -0.390  -5.104  0.00  0.00    -0.005 A 
ATOM      7  C   LIG d   1       3.322  -0.054  -7.240  0.00  0.00     0.262 A 
ATOM      8  O   LIG d   1       3.010   1.086  -6.948  0.00  0.00    -0.267 OA
ATOM      9  N   LIG d   1       2.929  -0.609  -8.415  0.00  0.00    -0.296 N 
ATOM     10  C   LIG d   1       3.287  -1.882  -8.732  0.00  0.00     0.113 A 
ATOM     11  N   LIG d   1       4.009  -2.626  -7.936  0.00  0.00    -0.234 NA
ATOM     12  C   LIG d   1       2.727  -2.242 -10.098  0.00  0.00     0.007 C 
ATOM     13  C   LIG d   1       2.358  -0.883 -10.732  0.00  0.00    -0.028 C 
ATOM     14  C   LIG d   1       2.115  -0.007  -9.485  0.00  0.00     0.028 C 
ATOM     15  H   LIG d   1       6.259  -3.137  -4.054  0.00  0.00     0.066 H 
ATOM     16  H   LIG d   1       5.480  -4.000  -6.198  0.00  0.00     0.064 H 
ATOM     17  H   LIG d   1       4.344   0.613  -4.789  0.00  0.00     0.066 H 
ATOM     18  H   LIG d   1       1.840  -2.866  -9.993  0.00  0.00     0.034 H 
ATOM     19  H   LIG d   1       3.481  -2.749 -10.698  0.00  0.00     0.034 H 
ATOM     20  H   LIG d   1       1.453  -0.965 -11.333  0.00  0.00     0.029 H 
ATOM     21  H   LIG d   1       3.185  -0.493 -11.327  0.00  0.00     0.029 H 
ATOM     22  H   LIG d   1       2.438   1.016  -9.674  0.00  0.00     0.049 H 
ATOM     23  H   LIG d   1       1.060  -0.026  -9.212  0.00  0.00     0.049 H 
ENDROOT
BRANCH   1  24
ATOM     24  O   LIG d   1       5.795  -0.752  -3.094  0.00  0.00    -0.426 OA
BRANCH  24  25
ATOM     25  C   LIG d   1       4.870  -0.528  -2.147  0.00  0.00     0.309 C 
ATOM     26  O   LIG d   1       4.295  -1.456  -1.632  0.00  0.00    -0.251 OA
BRANCH  25  27
ATOM     27  C   LIG d   1       4.552   0.884  -1.724  0.00  0.00     0.034 C 
ATOM     28  H   LIG d   1       5.420   1.319  -1.228  0.00  0.00     0.034 H 
ATOM     29  H   LIG d   1       4.300   1.478  -2.602  0.00  0.00     0.034 H 
ATOM     30  H   LIG d   1       3.706   0.875  -1.036  0.00  0.00     0.034 H 
ENDBRANCH  25  27
ENDBRANCH  24  25
ENDBRANCH   1  24
TORSDOF 3
ENDMDL
MODEL 4
REMARK VINA RESULT:      -5.3      4.876      6.064
REMARK  3 active torsions:
REMARK  status: ('A' for Active; 'I' for Inactive)
REMARK    1  A    between atoms: C_1  and  C_2 
REMARK    2  A    between atoms: C_2  and  O_4 
REMARK    3  A    between atoms: O_4  and  C_5 
ROOT
ATOM      1  C   LIG d   1       7.326  -4.433  -5.369  0.00  0.00     0.133 A 
ATOM      2  C   LIG d   1       6.077  -5.002  -5.612  0.00  0.00    -0.017 A 
ATOM      3  C   LIG d   1       4.935  -4.404  -5.164  0.00  0.00    -0.032 A 
ATOM      4  C   LIG d   1       5.010  -3.204  -4.452  0.00  0.00     0.078 A 
ATOM      5  C   LIG d   1       6.274  -2.625  -4.201  0.00  0.00     0.068 A 
ATOM      6  C   LIG d   1       7.430  -3.247  -4.664  0.00  0.00    -0.005 A 
ATOM      7  C   LIG d   1       6.312  -1.366  -3.447  0.00  0.00     0.262 A 
ATOM      8  O   LIG d   1       7.369  -0.816  -3.198  0.00  0.00    -0.267 OA
ATOM      9  N   LIG d   1       5.131  -0.834  -3.038  0.00  0.00    -0.296 N 
ATOM     10  C   LIG d   1       3.956  -1.455  -3.326  0.00  0.00     0.113 A 
ATOM     11  N   LIG d   1       3.902  -2.577  -3.993  0.00  0.00    -0.234 NA
ATOM     12  C   LIG d   1       2.802  -0.643  -2.763  0.00  0.00     0.007 C 
ATOM     13  C   LIG d   1       3.412   0.748  -2.481  0.00  0.00    -0.028 C 
ATOM     14  C   LIG d   1       4.901   0.404  -2.274  0.00  0.00     0.028 C 
ATOM     15  H   LIG d   1       6.013  -5.929  -6.163  0.00  0.00     0.066 H 
ATOM     16  H   LIG d   1       3.974  -4.856  -5.361  0.00  0.00     0.064 H 
ATOM     17  H   LIG d   1       8.399  -2.808  -4.476  0.00  0.00     0.066 H 
ATOM     18  H   LIG d   1       2.436  -1.091  -1.839  0.00  0.00     0.034 H 
ATOM     19  H   LIG d   1       1.998  -0.564  -3.494  0.00  0.00     0.034 H 
ATOM     20  H   LIG d   1       2.984   1.186  -1.580  0.00  0.00     0.029 H 
ATOM     21  H   LIG d   1       3.280   1.411  -3.336  0.00  0.00     0.029 H 
ATOM     22  H   LIG d   1       5.531   1.207  -2.657  0.00  0.00     0.049 H 
ATOM     23  H   LIG d   1       5.105   0.237  -1.215  0.00  0.00     0.049 H 
ENDROOT
BRANCH   1  24
ATOM     24  O   LIG d   1       8.449  -5.049  -5.825  0.00  0.00    -0.426 OA
BRANCH  24  25
ATOM     25  C   LIG d   1       9.356  -5.420  -4.907  0.00  0.00     0.309 C 
ATOM     26  O   LIG d   1      10.443  -4.894  -4.885  0.00  0.00    -0.251 OA
BRANCH  25  27
ATOM     27  C   LIG d   1       9.017  -6.491  -3.903  0.00  0.00     0.034 C 
ATOM     28  H   LIG d   1       8.844  -7.434  -4.423  0.00  0.00     0.034 H 
ATOM     29  H   LIG d   1       9.844  -6.609  -3.203  0.00  0.00     0.034 H 
ATOM     30  H   LIG d   1       8.117  -6.207  -3.358  0.00  0.00     0.034 H 
ENDBRANCH  25  27
ENDBRANCH  24  25
ENDBRANCH   1  24
TORSDOF 3
ENDMDL
MODEL 5
REMARK VINA RESULT:      -5.3      5.096      6.482
REMARK  3 active torsions:
REMARK  status: ('A' for Active; 'I' for Inactive)
REMARK    1  A    between atoms: C_1  and  C_2 
REMARK    2  A    between atoms: C_2  and  O_4 
REMARK    3  A    between atoms: O_4  and  C_5 
ROOT
ATOM      1  C   LIG d   1       9.091   1.898  -4.553  0.00  0.00     0.133 A 
ATOM      2  C   LIG d   1       9.464   0.751  -5.253  0.00  0.00    -0.017 A 
ATOM      3  C   LIG d   1       8.710  -0.385  -5.190  0.00  0.00    -0.032 A 
ATOM      4  C   LIG d   1       7.545  -0.407  -4.419  0.00  0.00     0.078 A 
ATOM      5  C   LIG d   1       7.165   0.752  -3.706  0.00  0.00     0.068 A 
ATOM      6  C   LIG d   1       7.945   1.904  -3.779  0.00  0.00    -0.005 A 
ATOM      7  C   LIG d   1       5.936   0.689  -2.904  0.00  0.00     0.262 A 
ATOM      8  O   LIG d   1       5.553   1.653  -2.267  0.00  0.00    -0.267 OA
ATOM      9  N   LIG d   1       5.241  -0.477  -2.896  0.00  0.00    -0.296 N 
ATOM     10  C   LIG d   1       5.676  -1.547  -3.615  0.00  0.00     0.113 A 
ATOM     11  N   LIG d   1       6.768  -1.511  -4.333  0.00  0.00    -0.234 NA
ATOM     12  C   LIG d   1       4.711  -2.706  -3.435  0.00  0.00     0.007 C 
ATOM     13  C   LIG d   1       3.431  -2.055  -2.867  0.00  0.00    -0.028 C 
ATOM     14  C   LIG d   1       3.994  -0.795  -2.179  0.00  0.00     0.028 C 
ATOM     15  H   LIG d   1      10.363   0.762  -5.851  0.00  0.00     0.066 H 
ATOM     16  H   LIG d   1       9.012  -1.265  -5.739  0.00  0.00     0.064 H 
ATOM     17  H   LIG d   1       7.657   2.792  -3.238  0.00  0.00     0.066 H 
ATOM     18  H   LIG d   1       5.114  -3.431  -2.729  0.00  0.00     0.034 H 
ATOM     19  H   LIG d   1       4.503  -3.181  -4.393  0.00  0.00     0.034 H 
ATOM     20  H   LIG d   1       2.947  -2.711  -2.144  0.00  0.00     0.029 H 
ATOM     21  H   LIG d   1       2.742  -1.786  -3.669  0.00  0.00     0.029 H 
ATOM     22  H   LIG d   1       3.289   0.030  -2.265  0.00  0.00     0.049 H 
ATOM     23  H   LIG d   1       4.206  -1.003  -1.129  0.00  0.00     0.049 H 
ENDROOT
BRANCH   1  24
ATOM     24  O   LIG d   1       9.860   3.016  -4.631  0.00  0.00    -0.426 OA
BRANCH  24  25
ATOM     25  C   LIG d   1      10.328   3.515  -3.475  0.00  0.00     0.309 C 
ATOM     26  O   LIG d   1      11.065   2.852  -2.785  0.00  0.00    -0.251 OA
BRANCH  25  27
ATOM     27  C   LIG d   1       9.935   4.903  -3.040  0.00  0.00     0.034 C 
ATOM     28  H   LIG d   1      10.601   5.632  -3.504  0.00  0.00     0.034 H 
ATOM     29  H   LIG d   1       8.908   5.103  -3.345  0.00  0.00     0.034 H 
ATOM     30  H   LIG d   1      10.013   4.980  -1.954  0.00  0.00     0.034 H 
ENDBRANCH  25  27
ENDBRANCH  24  25
ENDBRANCH   1  24
TORSDOF 3
ENDMDL
MODEL 6
REMARK VINA RESULT:      -5.1      4.416      5.267
REMARK  3 active torsions:
REMARK  status: ('A' for Active; 'I' for Inactive)
REMARK    1  A    between atoms: C_1  and  C_2 
REMARK    2  A    between atoms: C_2  and  O_4 
REMARK    3  A    between atoms: O_4  and  C_5 
ROOT
ATOM      1  C   LIG d   1       8.734   1.674  -6.054  0.00  0.00     0.133 A 
ATOM      2  C   LIG d   1       8.873   2.374  -4.857  0.00  0.00    -0.017 A 
ATOM      3  C   LIG d   1       8.075   2.095  -3.784  0.00  0.00    -0.032 A 
ATOM      4  C   LIG d   1       7.105   1.095  -3.879  0.00  0.00     0.078 A 
ATOM      5  C   LIG d   1       6.959   0.384  -5.091  0.00  0.00     0.068 A 
ATOM      6  C   LIG d   1       7.779   0.680  -6.177  0.00  0.00    -0.005 A 
ATOM      7  C   LIG d   1       5.926  -0.658  -5.153  0.00  0.00     0.262 A 
ATOM      8  O   LIG d   1       5.750  -1.306  -6.168  0.00  0.00    -0.267 OA
ATOM      9  N   LIG d   1       5.175  -0.876  -4.042  0.00  0.00    -0.296 N 
ATOM     10  C   LIG d   1       5.385  -0.148  -2.912  0.00  0.00     0.113 A 
ATOM     11  N   LIG d   1       6.297   0.785  -2.839  0.00  0.00    -0.234 NA
ATOM     12  C   LIG d   1       4.421  -0.604  -1.830  0.00  0.00     0.007 C 
ATOM     13  C   LIG d   1       3.910  -1.975  -2.323  0.00  0.00    -0.028 C 
ATOM     14  C   LIG d   1       4.087  -1.849  -3.850  0.00  0.00     0.028 C 
ATOM     15  H   LIG d   1       9.622   3.148  -4.777  0.00  0.00     0.066 H 
ATOM     16  H   LIG d   1       8.196   2.646  -2.863  0.00  0.00     0.064 H 
ATOM     17  H   LIG d   1       7.673   0.139  -7.105  0.00  0.00     0.066 H 
ATOM     18  H   LIG d   1       3.593   0.099  -1.737  0.00  0.00     0.034 H 
ATOM     19  H   LIG d   1       4.939  -0.710  -0.878  0.00  0.00     0.034 H 
ATOM     20  H   LIG d   1       2.861  -2.117  -2.062  0.00  0.00     0.029 H 
ATOM     21  H   LIG d   1       4.522  -2.784  -1.924  0.00  0.00     0.029 H 
ATOM     22  H   LIG d   1       4.362  -2.812  -4.278  0.00  0.00     0.049 H 
ATOM     23  H   LIG d   1       3.167  -1.482  -4.306  0.00  0.00     0.049 H 
ENDROOT
BRANCH   1  24
ATOM     24  O   LIG d   1       9.540   1.971  -7.108  0.00  0.00    -0.426 OA
BRANCH  24  25
ATOM     25  C   LIG d   1       9.163   2.993  -7.893  0.00  0.00     0.309 C 
ATOM     26  O   LIG d   1       8.351   2.815  -8.768  0.00  0.00    -0.251 OA
BRANCH  25  27
ATOM     27  C   LIG d   1       9.755   4.363  -7.681  0.00  0.00     0.034 C 
ATOM     28  H   LIG d   1       9.085   4.955  -7.055  0.00  0.00     0.034 H 
ATOM     29  H   LIG d   1      10.722   4.270  -7.189  0.00  0.00     0.034 H 
ATOM     30  H   LIG d   1       9.882   4.857  -8.644  0.00  0.00     0.034 H 
ENDBRANCH  25  27
ENDBRANCH  24  25
ENDBRANCH   1  24
TORSDOF 3
ENDMDL
MODEL 7
REMARK VINA RESULT:      -5.0      5.358      6.785
REMARK  3 active torsions:
REMARK  status: ('A' for Active; 'I' for Inactive)
REMARK    1  A    between atoms: C_1  and  C_2 
REMARK    2  A    between atoms: C_2  and  O_4 
REMARK    3  A    between atoms: O_4  and  C_5 
ROOT
ATOM      1  C   LIG d   1       9.924   1.261  -5.343  0.00  0.00     0.133 A 
ATOM      2  C   LIG d   1       9.480   2.505  -4.898  0.00  0.00    -0.017 A 
ATOM      3  C   LIG d   1       8.317   2.623  -4.192  0.00  0.00    -0.032 A 
ATOM      4  C   LIG d   1       7.557   1.487  -3.906  0.00  0.00     0.078 A 
ATOM      5  C   LIG d   1       8.002   0.224  -4.357  0.00  0.00     0.068 A 
ATOM      6  C   LIG d   1       9.189   0.119  -5.077  0.00  0.00    -0.005 A 
ATOM      7  C   LIG d   1       7.174  -0.946  -4.040  0.00  0.00     0.262 A 
ATOM      8  O   LIG d   1       7.502  -2.062  -4.399  0.00  0.00    -0.267 OA
ATOM      9  N   LIG d   1       6.032  -0.745  -3.332  0.00  0.00    -0.296 N 
ATOM     10  C   LIG d   1       5.678   0.506  -2.932  0.00  0.00     0.113 A 
ATOM     11  N   LIG d   1       6.401   1.560  -3.207  0.00  0.00    -0.234 NA
ATOM     12  C   LIG d   1       4.374   0.440  -2.156  0.00  0.00     0.007 C 
ATOM     13  C   LIG d   1       4.226  -1.050  -1.780  0.00  0.00    -0.028 C 
ATOM     14  C   LIG d   1       5.039  -1.740  -2.894  0.00  0.00     0.028 C 
ATOM     15  H   LIG d   1      10.064   3.387  -5.115  0.00  0.00     0.066 H 
ATOM     16  H   LIG d   1       7.987   3.594  -3.853  0.00  0.00     0.064 H 
ATOM     17  H   LIG d   1       9.535  -0.844  -5.422  0.00  0.00     0.066 H 
ATOM     18  H   LIG d   1       3.542   0.760  -2.782  0.00  0.00     0.034 H 
ATOM     19  H   LIG d   1       4.433   1.055  -1.258  0.00  0.00     0.034 H 
ATOM     20  H   LIG d   1       3.180  -1.358  -1.812  0.00  0.00     0.029 H 
ATOM     21  H   LIG d   1       4.659  -1.250  -0.800  0.00  0.00     0.029 H 
ATOM     22  H   LIG d   1       5.540  -2.625  -2.503  0.00  0.00     0.049 H 
ATOM     23  H   LIG d   1       4.386  -2.012  -3.724  0.00  0.00     0.049 H 
ENDROOT
BRANCH   1  24
ATOM     24  O   LIG d   1      11.085   1.170  -6.045  0.00  0.00    -0.426 OA
BRANCH  24  25
ATOM     25  C   LIG d   1      12.071   0.441  -5.497  0.00  0.00     0.309 C 
ATOM     26  O   LIG d   1      12.508  -0.520  -6.082  0.00  0.00    -0.251 OA
BRANCH  25  27
ATOM     27  C   LIG d   1      12.634   0.825  -4.153  0.00  0.00     0.034 C 
ATOM     28  H   LIG d   1      12.913  -0.076  -3.605  0.00  0.00     0.034 H 
ATOM     29  H   LIG d   1      13.514   1.453  -4.292  0.00  0.00     0.034 H 
ATOM     30  H   LIG d   1      11.881   1.375  -3.587  0.00  0.00     0.034 H 
ENDBRANCH  25  27
ENDBRANCH  24  25
ENDBRANCH   1  24
TORSDOF 3
ENDMDL
MODEL 8
REMARK VINA RESULT:      -5.0      9.981     12.504
REMARK  3 active torsions:
REMARK  status: ('A' for Active; 'I' for Inactive)
REMARK    1  A    between atoms: C_1  and  C_2 
REMARK    2  A    between atoms: C_2  and  O_4 
REMARK    3  A    between atoms: O_4  and  C_5 
ROOT
ATOM      1  C   LIG d   1      10.082   7.046  -1.166  0.00  0.00     0.133 A 
ATOM      2  C   LIG d   1      10.281   8.422  -1.076  0.00  0.00    -0.017 A 
ATOM      3  C   LIG d   1      10.263   9.208  -2.193  0.00  0.00    -0.032 A 
ATOM      4  C   LIG d   1      10.040   8.633  -3.446  0.00  0.00     0.078 A 
ATOM      5  C   LIG d   1       9.839   7.238  -3.542  0.00  0.00     0.068 A 
ATOM      6  C   LIG d   1       9.861   6.449  -2.395  0.00  0.00    -0.005 A 
ATOM      7  C   LIG d   1       9.611   6.670  -4.877  0.00  0.00     0.262 A 
ATOM      8  O   LIG d   1       9.431   5.476  -5.027  0.00  0.00    -0.267 OA
ATOM      9  N   LIG d   1       9.605   7.519  -5.937  0.00  0.00    -0.296 N 
ATOM     10  C   LIG d   1       9.803   8.853  -5.755  0.00  0.00     0.113 A 
ATOM     11  N   LIG d   1      10.010   9.376  -4.576  0.00  0.00    -0.234 NA
ATOM     12  C   LIG d   1       9.736   9.562  -7.097  0.00  0.00     0.007 C 
ATOM     13  C   LIG d   1       9.051   8.545  -8.036  0.00  0.00    -0.028 C 
ATOM     14  C   LIG d   1       9.403   7.204  -7.361  0.00  0.00     0.028 C 
ATOM     15  H   LIG d   1      10.454   8.873  -0.110  0.00  0.00     0.066 H 
ATOM     16  H   LIG d   1      10.418  10.273  -2.106  0.00  0.00     0.064 H 
ATOM     17  H   LIG d   1       9.707   5.382  -2.463  0.00  0.00     0.066 H 
ATOM     18  H   LIG d   1      10.739   9.795  -7.455  0.00  0.00     0.034 H 
ATOM     19  H   LIG d   1       9.139  10.470  -7.019  0.00  0.00     0.034 H 
ATOM     20  H   LIG d   1       9.470   8.599  -9.041  0.00  0.00     0.029 H 
ATOM     21  H   LIG d   1       7.972   8.700  -8.056  0.00  0.00     0.029 H 
ATOM     22  H   LIG d   1       8.584   6.495  -7.478  0.00  0.00     0.049 H 
ATOM     23  H   LIG d   1      10.319   6.796  -7.790  0.00  0.00     0.049 H 
ENDROOT
BRANCH   1  24
ATOM     24  O   LIG d   1      10.106   6.285  -0.040  0.00  0.00    -0.426 OA
BRANCH  24  25
ATOM     25  C   LIG d   1      11.283   6.177   0.597  0.00  0.00     0.309 C 
ATOM     26  O   LIG d   1      11.356   6.421   1.777  0.00  0.00    -0.251 OA
BRANCH  25  27
ATOM     27  C   LIG d   1      12.513   5.749  -0.161  0.00  0.00     0.034 C 
ATOM     28  H   LIG d   1      13.331   6.438   0.055  0.00  0.00     0.034 H 
ATOM     29  H   LIG d   1      12.797   4.742   0.144  0.00  0.00     0.034 H 
ATOM     30  H   LIG d   1      12.303   5.760  -1.231  0.00  0.00     0.034 H 
ENDBRANCH  25  27
ENDBRANCH  24  25
ENDBRANCH   1  24
TORSDOF 3
ENDMDL
MODEL 9
REMARK VINA RESULT:      -5.0      9.060     10.622
REMARK  3 active torsions:
REMARK  status: ('A' for Active; 'I' for Inactive)
REMARK    1  A    between atoms: C_1  and  C_2 
REMARK    2  A    between atoms: C_2  and  O_4 
REMARK    3  A    between atoms: O_4  and  C_5 
ROOT
ATOM      1  C   LIG d   1       9.927   4.215  -3.602  0.00  0.00     0.133 A 
ATOM      2  C   LIG d   1       9.372   5.260  -4.338  0.00  0.00    -0.017 A 
ATOM      3  C   LIG d   1       9.318   6.525  -3.827  0.00  0.00    -0.032 A 
ATOM      4  C   LIG d   1       9.826   6.784  -2.552  0.00  0.00     0.078 A 
ATOM      5  C   LIG d   1      10.388   5.727  -1.802  0.00  0.00     0.068 A 
ATOM      6  C   LIG d   1      10.435   4.442  -2.335  0.00  0.00    -0.005 A 
ATOM      7  C   LIG d   1      10.909   6.039  -0.465  0.00  0.00     0.262 A 
ATOM      8  O   LIG d   1      11.406   5.172   0.231  0.00  0.00    -0.267 OA
ATOM      9  N   LIG d   1      10.819   7.322  -0.030  0.00  0.00    -0.296 N 
ATOM     10  C   LIG d   1      10.266   8.282  -0.819  0.00  0.00     0.113 A 
ATOM     11  N   LIG d   1       9.795   8.024  -2.010  0.00  0.00    -0.234 NA
ATOM     12  C   LIG d   1      10.304   9.617  -0.095  0.00  0.00     0.007 C 
ATOM     13  C   LIG d   1      11.332   9.410   1.038  0.00  0.00    -0.028 C 
ATOM     14  C   LIG d   1      11.260   7.885   1.257  0.00  0.00     0.028 C 
ATOM     15  H   LIG d   1       8.978   5.067  -5.324  0.00  0.00     0.066 H 
ATOM     16  H   LIG d   1       8.885   7.325  -4.409  0.00  0.00     0.064 H 
ATOM     17  H   LIG d   1      10.865   3.631  -1.767  0.00  0.00     0.066 H 
ATOM     18  H   LIG d   1       9.324   9.854   0.319  0.00  0.00     0.034 H 
ATOM     19  H   LIG d   1      10.634  10.407  -0.769  0.00  0.00     0.034 H 
ATOM     20  H   LIG d   1      11.034   9.948   1.938  0.00  0.00     0.029 H 
ATOM     21  H   LIG d   1      12.330   9.712   0.719  0.00  0.00     0.029 H 
ATOM     22  H   LIG d   1      12.242   7.495   1.523  0.00  0.00     0.049 H 
ATOM     23  H   LIG d   1      10.536   7.651   2.039  0.00  0.00     0.049 H 
ENDROOT
BRANCH   1  24
ATOM     24  O   LIG d   1       9.968   2.964  -4.132  0.00  0.00    -0.426 OA
BRANCH  24  25
ATOM     25  C   LIG d   1       8.791   2.364  -4.369  0.00  0.00     0.309 C 
ATOM     26  O   LIG d   1       8.050   2.102  -3.452  0.00  0.00    -0.251 OA
BRANCH  25  27
ATOM     27  C   LIG d   1       8.392   2.018  -5.781  0.00  0.00     0.034 C 
ATOM     28  H   LIG d   1       8.823   2.747  -6.469  0.00  0.00     0.034 H 
ATOM     29  H   LIG d   1       8.760   1.023  -6.030  0.00  0.00     0.034 H 
ATOM     30  H   LIG d   1       7.305   2.037  -5.867  0.00  0.00     0.034 H 
ENDBRANCH  25  27
ENDBRANCH  24  25
ENDBRANCH   1  24
TORSDOF 3
ENDMDL
MODEL 10
REMARK VINA RESULT:      -4.8     12.809     14.580
REMARK  3 active torsions:
REMARK  status: ('A' for Active; 'I' for Inactive)
REMARK    1  A    between atoms: C_1  and  C_2 
REMARK    2  A    between atoms: C_2  and  O_4 
REMARK    3  A    between atoms: O_4  and  C_5 
ROOT
ATOM      1  C   LIG d   1      -3.794   7.078 -14.474  0.00  0.00     0.133 A 
ATOM      2  C   LIG d   1      -4.672   8.070 -14.908  0.00  0.00    -0.017 A 
ATOM      3  C   LIG d   1      -4.203   9.249 -15.412  0.00  0.00    -0.032 A 
ATOM      4  C   LIG d   1      -2.827   9.471 -15.500  0.00  0.00     0.078 A 
ATOM      5  C   LIG d   1      -1.934   8.469 -15.060  0.00  0.00     0.068 A 
ATOM      6  C   LIG d   1      -2.427   7.272 -14.547  0.00  0.00    -0.005 A 
ATOM      7  C   LIG d   1      -0.495   8.741 -15.166  0.00  0.00     0.262 A 
ATOM      8  O   LIG d   1       0.327   7.918 -14.804  0.00  0.00    -0.267 OA
ATOM      9  N   LIG d   1      -0.109   9.937 -15.681  0.00  0.00    -0.296 N 
ATOM     10  C   LIG d   1      -1.037  10.846 -16.086  0.00  0.00     0.113 A 
ATOM     11  N   LIG d   1      -2.321  10.624 -15.997  0.00  0.00    -0.234 NA
ATOM     12  C   LIG d   1      -0.334  12.080 -16.626  0.00  0.00     0.007 C 
ATOM     13  C   LIG d   1       1.115  11.615 -16.885  0.00  0.00    -0.028 C 
ATOM     14  C   LIG d   1       1.256  10.447 -15.888  0.00  0.00     0.028 C 
ATOM     15  H   LIG d   1      -5.737   7.904 -14.843  0.00  0.00     0.066 H 
ATOM     16  H   LIG d   1      -4.896  10.008 -15.745  0.00  0.00     0.064 H 
ATOM     17  H   LIG d   1      -1.748   6.502 -14.211  0.00  0.00     0.066 H 
ATOM     18  H   LIG d   1      -0.350  12.881 -15.886  0.00  0.00     0.034 H 
ATOM     19  H   LIG d   1      -0.800  12.409 -17.554  0.00  0.00     0.034 H 
ATOM     20  H   LIG d   1       1.826  12.409 -16.659  0.00  0.00     0.029 H 
ATOM     21  H   LIG d   1       1.235  11.268 -17.912  0.00  0.00     0.029 H 
ATOM     22  H   LIG d   1       1.891   9.667 -16.307  0.00  0.00     0.049 H 
ATOM     23  H   LIG d   1       1.672  10.806 -14.945  0.00  0.00     0.049 H 
ENDROOT
BRANCH   1  24
ATOM     24  O   LIG d   1      -4.286   5.913 -13.975  0.00  0.00    -0.426 OA
BRANCH  24  25
ATOM     25  C   LIG d   1      -3.996   4.790 -14.652  0.00  0.00     0.309 C 
ATOM     26  O   LIG d   1      -3.332   3.925 -14.132  0.00  0.00    -0.251 OA
BRANCH  25  27
ATOM     27  C   LIG d   1      -4.501   4.607 -16.060  0.00  0.00     0.034 C 
ATOM     28  H   LIG d   1      -4.641   3.545 -16.261  0.00  0.00     0.034 H 
ATOM     29  H   LIG d   1      -5.452   5.127 -16.176  0.00  0.00     0.034 H 
ATOM     30  H   LIG d   1      -3.774   5.017 -16.763  0.00  0.00     0.034 H 
ENDBRANCH  25  27
ENDBRANCH  24  25
ENDBRANCH   1  24
TORSDOF 3
ENDMDL
