MODEL 1
REMARK VINA RESULT:      -7.4      0.000      0.000
REMARK  11 active torsions:
REMARK  status: ('A' for Active; 'I' for Inactive)
REMARK    1  A    between atoms: C_3  and  O_37 
REMARK    2  A    between atoms: C_4  and  O_36 
REMARK    3  A    between atoms: C_6  and  C_7 
REMARK    4  A    between atoms: C_12  and  O_35 
REMARK    5  A    between atoms: C_14  and  O_18 
REMARK    6  A    between atoms: O_18  and  C_19 
REMARK    7  A    between atoms: C_21  and  O_34 
REMARK    8  A    between atoms: C_23  and  O_33 
REMARK    9  A    between atoms: C_25  and  O_32 
REMARK   10  A    between atoms: C_27  and  C_30 
REMARK   11  A    between atoms: C_30  and  O_31 
ROOT
ATOM      1  C   LIG d   1       9.981   4.677  -3.158  0.00  0.00     0.139 A 
ATOM      2  C   LIG d   1      10.274   5.153  -4.399  0.00  0.00     0.029 A 
ATOM      3  C   LIG d   1       9.861   4.425  -5.539  0.00  0.00     0.197 A 
ATOM      4  O   LIG d   1      10.106   4.822  -6.667  0.00  0.00    -0.287 OA
ATOM      5  C   LIG d   1       9.125   3.169  -5.313  0.00  0.00     0.105 A 
ATOM      6  C   LIG d   1       8.680   2.384  -6.383  0.00  0.00     0.135 A 
ATOM      7  C   LIG d   1       7.992   1.212  -6.129  0.00  0.00     0.023 A 
ATOM      8  C   LIG d   1       7.746   0.818  -4.817  0.00  0.00     0.131 A 
ATOM      9  C   LIG d   1       8.184   1.590  -3.753  0.00  0.00     0.024 A 
ATOM     10  C   LIG d   1       8.875   2.768  -3.989  0.00  0.00     0.146 A 
ATOM     11  O   LIG d   1       9.309   3.532  -2.964  0.00  0.00    -0.454 OA
ATOM     12  H   LIG d   1      10.817   6.079  -4.512  0.00  0.00     0.069 H 
ATOM     13  H   LIG d   1       7.645   0.601  -6.950  0.00  0.00     0.069 H 
ATOM     14  H   LIG d   1       7.987   1.273  -2.740  0.00  0.00     0.069 H 
ENDROOT
BRANCH   8  15
ATOM     15  O   LIG d   1       7.069  -0.335  -4.579  0.00  0.00    -0.461 OA
BRANCH  15  16
ATOM     16  C   LIG d   1       6.073  -0.303  -3.555  0.00  0.00     0.231 C 
ATOM     17  H   LIG d   1       6.536  -0.042  -2.604  0.00  0.00     0.108 H 
ATOM     18  O   LIG d   1       5.082   0.670  -3.886  0.00  0.00    -0.331 OA
ATOM     19  C   LIG d   1       4.045   0.802  -2.910  0.00  0.00     0.114 C 
ATOM     20  C   LIG d   1       3.306  -0.531  -2.771  0.00  0.00     0.112 C 
ATOM     21  H   LIG d   1       4.482   1.079  -1.951  0.00  0.00     0.065 H 
ATOM     22  C   LIG d   1       4.307  -1.623  -2.384  0.00  0.00     0.115 C 
ATOM     23  H   LIG d   1       2.543  -0.444  -1.996  0.00  0.00     0.065 H 
ATOM     24  C   LIG d   1       5.415  -1.681  -3.441  0.00  0.00     0.145 C 
ATOM     25  H   LIG d   1       4.742  -1.392  -1.413  0.00  0.00     0.065 H 
ATOM     26  H   LIG d   1       6.161  -2.419  -3.147  0.00  0.00     0.068 H 
BRANCH  19  27
ATOM     27  C   LIG d   1       3.062   1.888  -3.355  0.00  0.00     0.073 C 
ATOM     28  H   LIG d   1       2.140   1.799  -2.782  0.00  0.00     0.058 H 
ATOM     29  H   LIG d   1       3.504   2.870  -3.183  0.00  0.00     0.058 H 
BRANCH  27  30
ATOM     30  O   LIG d   1       2.777   1.732  -4.746  0.00  0.00    -0.392 OA
ATOM     31  H   LIG d   1       3.560   1.756  -5.313  0.00  0.00     0.209 HD
ENDBRANCH  27  30
ENDBRANCH  19  27
BRANCH  20  32
ATOM     32  O   LIG d   1       2.686  -0.868  -4.014  0.00  0.00    -0.387 OA
ATOM     33  H   LIG d   1       2.031  -0.223  -4.313  0.00  0.00     0.210 HD
ENDBRANCH  20  32
BRANCH  22  34
ATOM     34  O   LIG d   1       3.639  -2.884  -2.324  0.00  0.00    -0.386 OA
ATOM     35  H   LIG d   1       3.776  -3.363  -1.495  0.00  0.00     0.210 HD
ENDBRANCH  22  34
BRANCH  24  36
ATOM     36  O   LIG d   1       4.852  -2.047  -4.702  0.00  0.00    -0.383 OA
ATOM     37  H   LIG d   1       5.422  -1.852  -5.459  0.00  0.00     0.210 HD
ENDBRANCH  24  36
ENDBRANCH  15  16
ENDBRANCH   8  15
BRANCH   6  38
ATOM     38  O   LIG d   1       8.915   2.774  -7.662  0.00  0.00    -0.506 OA
ATOM     39  H   LIG d   1       8.196   3.285  -8.057  0.00  0.00     0.292 HD
ENDBRANCH   6  38
BRANCH   1  40
ATOM     40  C   LIG d   1      10.420   5.451  -1.981  0.00  0.00     0.021 A 
ATOM     41  C   LIG d   1      11.407   4.940  -1.135  0.00  0.00    -0.047 A 
ATOM     42  C   LIG d   1      11.816   5.665  -0.035  0.00  0.00    -0.016 A 
ATOM     43  H   LIG d   1      11.851   3.977  -1.342  0.00  0.00     0.063 H 
ATOM     44  C   LIG d   1      11.249   6.902   0.233  0.00  0.00     0.158 A 
ATOM     45  H   LIG d   1      12.579   5.268   0.618  0.00  0.00     0.066 H 
ATOM     46  C   LIG d   1      10.263   7.419  -0.607  0.00  0.00     0.159 A 
ATOM     47  C   LIG d   1       9.853   6.700  -1.713  0.00  0.00    -0.006 A 
ATOM     48  H   LIG d   1       9.092   7.101  -2.367  0.00  0.00     0.066 H 
BRANCH  44  49
ATOM     49  O   LIG d   1      11.654   7.612   1.318  0.00  0.00    -0.503 OA
ATOM     50  H   LIG d   1      11.866   7.066   2.088  0.00  0.00     0.292 HD
ENDBRANCH  44  49
BRANCH  46  51
ATOM     51  O   LIG d   1       9.710   8.632  -0.340  0.00  0.00    -0.503 OA
ATOM     52  H   LIG d   1       9.277   8.685   0.523  0.00  0.00     0.292 HD
ENDBRANCH  46  51
ENDBRANCH   1  40
TORSDOF 11
ENDMDL
MODEL 2
REMARK VINA RESULT:      -7.2      1.742      1.979
REMARK  11 active torsions:
REMARK  status: ('A' for Active; 'I' for Inactive)
REMARK    1  A    between atoms: C_3  and  O_37 
REMARK    2  A    between atoms: C_4  and  O_36 
REMARK    3  A    between atoms: C_6  and  C_7 
REMARK    4  A    between atoms: C_12  and  O_35 
REMARK    5  A    between atoms: C_14  and  O_18 
REMARK    6  A    between atoms: O_18  and  C_19 
REMARK    7  A    between atoms: C_21  and  O_34 
REMARK    8  A    between atoms: C_23  and  O_33 
REMARK    9  A    between atoms: C_25  and  O_32 
REMARK   10  A    between atoms: C_27  and  C_30 
REMARK   11  A    between atoms: C_30  and  O_31 
ROOT
ATOM      1  C   LIG d   1      10.733   4.307  -2.589  0.00  0.00     0.139 A 
ATOM      2  C   LIG d   1      11.932   3.719  -2.845  0.00  0.00     0.029 A 
ATOM      3  C   LIG d   1      11.980   2.549  -3.639  0.00  0.00     0.197 A 
ATOM      4  O   LIG d   1      13.038   1.995  -3.889  0.00  0.00    -0.287 OA
ATOM      5  C   LIG d   1      10.702   2.025  -4.152  0.00  0.00     0.105 A 
ATOM      6  C   LIG d   1      10.655   0.872  -4.944  0.00  0.00     0.135 A 
ATOM      7  C   LIG d   1       9.435   0.411  -5.406  0.00  0.00     0.023 A 
ATOM      8  C   LIG d   1       8.265   1.092  -5.084  0.00  0.00     0.131 A 
ATOM      9  C   LIG d   1       8.305   2.234  -4.299  0.00  0.00     0.024 A 
ATOM     10  C   LIG d   1       9.519   2.710  -3.827  0.00  0.00     0.146 A 
ATOM     11  O   LIG d   1       9.574   3.821  -3.062  0.00  0.00    -0.454 OA
ATOM     12  H   LIG d   1      12.842   4.143  -2.445  0.00  0.00     0.069 H 
ATOM     13  H   LIG d   1       9.391  -0.478  -6.017  0.00  0.00     0.069 H 
ATOM     14  H   LIG d   1       7.390   2.753  -4.056  0.00  0.00     0.069 H 
ENDROOT
BRANCH   8  15
ATOM     15  O   LIG d   1       7.073   0.632  -5.542  0.00  0.00    -0.461 OA
BRANCH  15  16
ATOM     16  C   LIG d   1       6.275  -0.126  -4.630  0.00  0.00     0.231 C 
ATOM     17  H   LIG d   1       6.914  -0.556  -3.859  0.00  0.00     0.108 H 
ATOM     18  O   LIG d   1       5.305   0.729  -4.024  0.00  0.00    -0.331 OA
ATOM     19  C   LIG d   1       4.466   0.074  -3.070  0.00  0.00     0.114 C 
ATOM     20  C   LIG d   1       3.680  -1.041  -3.765  0.00  0.00     0.112 C 
ATOM     21  H   LIG d   1       5.081  -0.354  -2.278  0.00  0.00     0.065 H 
ATOM     22  C   LIG d   1       4.662  -2.019  -4.416  0.00  0.00     0.115 C 
ATOM     23  H   LIG d   1       3.072  -1.570  -3.030  0.00  0.00     0.065 H 
ATOM     24  C   LIG d   1       5.562  -1.249  -5.389  0.00  0.00     0.145 C 
ATOM     25  H   LIG d   1       5.275  -2.487  -3.647  0.00  0.00     0.065 H 
ATOM     26  H   LIG d   1       6.301  -1.927  -5.816  0.00  0.00     0.068 H 
BRANCH  19  27
ATOM     27  C   LIG d   1       3.490   1.088  -2.468  0.00  0.00     0.073 C 
ATOM     28  H   LIG d   1       2.511   0.625  -2.353  0.00  0.00     0.058 H 
ATOM     29  H   LIG d   1       3.857   1.408  -1.492  0.00  0.00     0.058 H 
BRANCH  27  30
ATOM     30  O   LIG d   1       3.385   2.220  -3.333  0.00  0.00    -0.392 OA
ATOM     31  H   LIG d   1       4.231   2.515  -3.699  0.00  0.00     0.209 HD
ENDBRANCH  27  30
ENDBRANCH  19  27
BRANCH  20  32
ATOM     32  O   LIG d   1       2.832  -0.476  -4.768  0.00  0.00    -0.387 OA
ATOM     33  H   LIG d   1       3.306   0.016  -5.452  0.00  0.00     0.210 HD
ENDBRANCH  20  32
BRANCH  22  34
ATOM     34  O   LIG d   1       3.937  -3.022  -5.130  0.00  0.00    -0.386 OA
ATOM     35  H   LIG d   1       4.479  -3.541  -5.739  0.00  0.00     0.210 HD
ENDBRANCH  22  34
BRANCH  24  36
ATOM     36  O   LIG d   1       4.766  -0.688  -6.434  0.00  0.00    -0.383 OA
ATOM     37  H   LIG d   1       3.843  -0.535  -6.186  0.00  0.00     0.210 HD
ENDBRANCH  24  36
ENDBRANCH  15  16
ENDBRANCH   8  15
BRANCH   6  38
ATOM     38  O   LIG d   1      11.798   0.213  -5.262  0.00  0.00    -0.506 OA
ATOM     39  H   LIG d   1      11.675  -0.732  -5.428  0.00  0.00     0.292 HD
ENDBRANCH   6  38
BRANCH   1  40
ATOM     40  C   LIG d   1      10.704   5.527  -1.760  0.00  0.00     0.021 A 
ATOM     41  C   LIG d   1      11.798   5.852  -0.953  0.00  0.00    -0.047 A 
ATOM     42  C   LIG d   1      11.769   6.993  -0.179  0.00  0.00    -0.016 A 
ATOM     43  H   LIG d   1      12.666   5.210  -0.937  0.00  0.00     0.063 H 
ATOM     44  C   LIG d   1      10.655   7.820  -0.199  0.00  0.00     0.158 A 
ATOM     45  H   LIG d   1      12.615   7.241   0.444  0.00  0.00     0.066 H 
ATOM     46  C   LIG d   1       9.560   7.502  -1.001  0.00  0.00     0.159 A 
ATOM     47  C   LIG d   1       9.584   6.363  -1.784  0.00  0.00    -0.006 A 
ATOM     48  H   LIG d   1       8.738   6.119  -2.409  0.00  0.00     0.066 H 
BRANCH  44  49
ATOM     49  O   LIG d   1      10.631   8.942   0.566  0.00  0.00    -0.503 OA
ATOM     50  H   LIG d   1      10.229   9.706   0.130  0.00  0.00     0.292 HD
ENDBRANCH  44  49
BRANCH  46  51
ATOM     51  O   LIG d   1       8.470   8.315  -1.018  0.00  0.00    -0.503 OA
ATOM     52  H   LIG d   1       8.129   8.498  -1.904  0.00  0.00     0.292 HD
ENDBRANCH  46  51
ENDBRANCH   1  40
TORSDOF 11
ENDMDL
MODEL 3
REMARK VINA RESULT:      -6.9      1.920      8.673
REMARK  11 active torsions:
REMARK  status: ('A' for Active; 'I' for Inactive)
REMARK    1  A    between atoms: C_3  and  O_37 
REMARK    2  A    between atoms: C_4  and  O_36 
REMARK    3  A    between atoms: C_6  and  C_7 
REMARK    4  A    between atoms: C_12  and  O_35 
REMARK    5  A    between atoms: C_14  and  O_18 
REMARK    6  A    between atoms: O_18  and  C_19 
REMARK    7  A    between atoms: C_21  and  O_34 
REMARK    8  A    between atoms: C_23  and  O_33 
REMARK    9  A    between atoms: C_25  and  O_32 
REMARK   10  A    between atoms: C_27  and  C_30 
REMARK   11  A    between atoms: C_30  and  O_31 
ROOT
ATOM      1  C   LIG d   1       7.456   0.717  -3.973  0.00  0.00     0.139 A 
ATOM      2  C   LIG d   1       8.207  -0.147  -4.708  0.00  0.00     0.029 A 
ATOM      3  C   LIG d   1       9.531   0.205  -5.061  0.00  0.00     0.197 A 
ATOM      4  O   LIG d   1      10.232  -0.546  -5.720  0.00  0.00    -0.287 OA
ATOM      5  C   LIG d   1      10.029   1.513  -4.605  0.00  0.00     0.105 A 
ATOM      6  C   LIG d   1      11.326   1.944  -4.909  0.00  0.00     0.135 A 
ATOM      7  C   LIG d   1      11.756   3.180  -4.462  0.00  0.00     0.023 A 
ATOM      8  C   LIG d   1      10.904   3.987  -3.714  0.00  0.00     0.131 A 
ATOM      9  C   LIG d   1       9.619   3.567  -3.410  0.00  0.00     0.024 A 
ATOM     10  C   LIG d   1       9.170   2.331  -3.850  0.00  0.00     0.146 A 
ATOM     11  O   LIG d   1       7.922   1.907  -3.562  0.00  0.00    -0.454 OA
ATOM     12  H   LIG d   1       7.795  -1.096  -5.019  0.00  0.00     0.069 H 
ATOM     13  H   LIG d   1      12.755   3.519  -4.694  0.00  0.00     0.069 H 
ATOM     14  H   LIG d   1       8.968   4.203  -2.829  0.00  0.00     0.069 H 
ENDROOT
BRANCH   8  15
ATOM     15  O   LIG d   1      11.337   5.198  -3.280  0.00  0.00    -0.461 OA
BRANCH  15  16
ATOM     16  C   LIG d   1      10.521   5.873  -2.320  0.00  0.00     0.231 C 
ATOM     17  H   LIG d   1       9.546   5.390  -2.268  0.00  0.00     0.108 H 
ATOM     18  O   LIG d   1      11.150   5.818  -1.039  0.00  0.00    -0.331 OA
ATOM     19  C   LIG d   1      10.401   6.445   0.005  0.00  0.00     0.114 C 
ATOM     20  C   LIG d   1      10.221   7.930  -0.320  0.00  0.00     0.112 C 
ATOM     21  H   LIG d   1       9.424   5.969   0.088  0.00  0.00     0.065 H 
ATOM     22  C   LIG d   1       9.521   8.068  -1.675  0.00  0.00     0.115 C 
ATOM     23  H   LIG d   1       9.613   8.401   0.454  0.00  0.00     0.065 H 
ATOM     24  C   LIG d   1      10.346   7.336  -2.739  0.00  0.00     0.145 C 
ATOM     25  H   LIG d   1       8.527   7.627  -1.618  0.00  0.00     0.065 H 
ATOM     26  H   LIG d   1       9.828   7.382  -3.697  0.00  0.00     0.068 H 
BRANCH  19  27
ATOM     27  C   LIG d   1      11.154   6.300   1.330  0.00  0.00     0.073 C 
ATOM     28  H   LIG d   1      12.226   6.277   1.137  0.00  0.00     0.058 H 
ATOM     29  H   LIG d   1      10.919   7.146   1.975  0.00  0.00     0.058 H 
BRANCH  27  30
ATOM     30  O   LIG d   1      10.758   5.086   1.972  0.00  0.00    -0.392 OA
ATOM     31  H   LIG d   1      10.676   5.159   2.933  0.00  0.00     0.209 HD
ENDBRANCH  27  30
ENDBRANCH  19  27
BRANCH  20  32
ATOM     32  O   LIG d   1      11.499   8.567  -0.375  0.00  0.00    -0.387 OA
ATOM     33  H   LIG d   1      12.219   8.037  -0.007  0.00  0.00     0.210 HD
ENDBRANCH  20  32
BRANCH  22  34
ATOM     34  O   LIG d   1       9.415   9.450  -2.020  0.00  0.00    -0.386 OA
ATOM     35  H   LIG d   1      10.265   9.906  -2.086  0.00  0.00     0.210 HD
ENDBRANCH  22  34
BRANCH  24  36
ATOM     36  O   LIG d   1      11.628   7.955  -2.858  0.00  0.00    -0.383 OA
ATOM     37  H   LIG d   1      12.184   7.863  -2.073  0.00  0.00     0.210 HD
ENDBRANCH  24  36
ENDBRANCH  15  16
ENDBRANCH   8  15
BRANCH   6  38
ATOM     38  O   LIG d   1      12.157   1.153  -5.633  0.00  0.00    -0.506 OA
ATOM     39  H   LIG d   1      13.035   1.532  -5.777  0.00  0.00     0.292 HD
ENDBRANCH   6  38
BRANCH   1  40
ATOM     40  C   LIG d   1       6.078   0.331  -3.614  0.00  0.00     0.021 A 
ATOM     41  C   LIG d   1       5.362   1.082  -2.679  0.00  0.00    -0.047 A 
ATOM     42  C   LIG d   1       4.074   0.720  -2.345  0.00  0.00    -0.016 A 
ATOM     43  H   LIG d   1       5.816   1.946  -2.218  0.00  0.00     0.063 H 
ATOM     44  C   LIG d   1       3.487  -0.389  -2.937  0.00  0.00     0.158 A 
ATOM     45  H   LIG d   1       3.522   1.301  -1.621  0.00  0.00     0.066 H 
ATOM     46  C   LIG d   1       4.196  -1.143  -3.871  0.00  0.00     0.159 A 
ATOM     47  C   LIG d   1       5.485  -0.783  -4.214  0.00  0.00    -0.006 A 
ATOM     48  H   LIG d   1       6.033  -1.364  -4.941  0.00  0.00     0.066 H 
BRANCH  44  49
ATOM     49  O   LIG d   1       2.217  -0.742  -2.604  0.00  0.00    -0.503 OA
ATOM     50  H   LIG d   1       2.159  -1.559  -2.088  0.00  0.00     0.292 HD
ENDBRANCH  44  49
BRANCH  46  51
ATOM     51  O   LIG d   1       3.617  -2.230  -4.448  0.00  0.00    -0.503 OA
ATOM     52  H   LIG d   1       2.910  -2.014  -5.071  0.00  0.00     0.292 HD
ENDBRANCH  46  51
ENDBRANCH   1  40
TORSDOF 11
ENDMDL
MODEL 4
REMARK VINA RESULT:      -6.9      1.690      8.755
REMARK  11 active torsions:
REMARK  status: ('A' for Active; 'I' for Inactive)
REMARK    1  A    between atoms: C_3  and  O_37 
REMARK    2  A    between atoms: C_4  and  O_36 
REMARK    3  A    between atoms: C_6  and  C_7 
REMARK    4  A    between atoms: C_12  and  O_35 
REMARK    5  A    between atoms: C_14  and  O_18 
REMARK    6  A    between atoms: O_18  and  C_19 
REMARK    7  A    between atoms: C_21  and  O_34 
REMARK    8  A    between atoms: C_23  and  O_33 
REMARK    9  A    between atoms: C_25  and  O_32 
REMARK   10  A    between atoms: C_27  and  C_30 
REMARK   11  A    between atoms: C_30  and  O_31 
ROOT
ATOM      1  C   LIG d   1       7.863   1.697  -3.988  0.00  0.00     0.139 A 
ATOM      2  C   LIG d   1       8.045   1.834  -5.329  0.00  0.00     0.029 A 
ATOM      3  C   LIG d   1       9.036   2.722  -5.811  0.00  0.00     0.197 A 
ATOM      4  O   LIG d   1       9.226   2.870  -7.007  0.00  0.00    -0.287 OA
ATOM      5  C   LIG d   1       9.827   3.462  -4.813  0.00  0.00     0.105 A 
ATOM      6  C   LIG d   1      10.826   4.362  -5.200  0.00  0.00     0.135 A 
ATOM      7  C   LIG d   1      11.547   5.038  -4.232  0.00  0.00     0.023 A 
ATOM      8  C   LIG d   1      11.279   4.821  -2.884  0.00  0.00     0.131 A 
ATOM      9  C   LIG d   1      10.290   3.932  -2.494  0.00  0.00     0.024 A 
ATOM     10  C   LIG d   1       9.557   3.246  -3.450  0.00  0.00     0.146 A 
ATOM     11  O   LIG d   1       8.591   2.376  -3.087  0.00  0.00    -0.454 OA
ATOM     12  H   LIG d   1       7.438   1.269  -6.020  0.00  0.00     0.069 H 
ATOM     13  H   LIG d   1      12.320   5.734  -4.523  0.00  0.00     0.069 H 
ATOM     14  H   LIG d   1      10.091   3.773  -1.445  0.00  0.00     0.069 H 
ENDROOT
BRANCH   8  15
ATOM     15  O   LIG d   1      11.993   5.489  -1.942  0.00  0.00    -0.461 OA
BRANCH  15  16
ATOM     16  C   LIG d   1      11.849   6.911  -1.905  0.00  0.00     0.231 C 
ATOM     17  H   LIG d   1      11.960   7.314  -2.911  0.00  0.00     0.108 H 
ATOM     18  O   LIG d   1      10.557   7.244  -1.397  0.00  0.00    -0.331 OA
ATOM     19  C   LIG d   1      10.297   8.649  -1.342  0.00  0.00     0.114 C 
ATOM     20  C   LIG d   1      11.309   9.317  -0.408  0.00  0.00     0.112 C 
ATOM     21  H   LIG d   1      10.387   9.075  -2.341  0.00  0.00     0.065 H 
ATOM     22  C   LIG d   1      12.726   9.026  -0.911  0.00  0.00     0.115 C 
ATOM     23  H   LIG d   1      11.140  10.394  -0.398  0.00  0.00     0.065 H 
ATOM     24  C   LIG d   1      12.924   7.508  -0.994  0.00  0.00     0.145 C 
ATOM     25  H   LIG d   1      12.860   9.465  -1.899  0.00  0.00     0.065 H 
ATOM     26  H   LIG d   1      13.911   7.291  -1.402  0.00  0.00     0.068 H 
BRANCH  19  27
ATOM     27  C   LIG d   1       8.880   8.885  -0.812  0.00  0.00     0.073 C 
ATOM     28  H   LIG d   1       8.908   8.967   0.274  0.00  0.00     0.058 H 
ATOM     29  H   LIG d   1       8.484   9.808  -1.236  0.00  0.00     0.058 H 
BRANCH  27  30
ATOM     30  O   LIG d   1       8.043   7.790  -1.187  0.00  0.00    -0.392 OA
ATOM     31  H   LIG d   1       8.209   6.979  -0.686  0.00  0.00     0.209 HD
ENDBRANCH  27  30
ENDBRANCH  19  27
BRANCH  20  32
ATOM     32  O   LIG d   1      11.156   8.798   0.915  0.00  0.00    -0.387 OA
ATOM     33  H   LIG d   1      10.590   9.336   1.485  0.00  0.00     0.210 HD
ENDBRANCH  20  32
BRANCH  22  34
ATOM     34  O   LIG d   1      13.679   9.583  -0.005  0.00  0.00    -0.386 OA
ATOM     35  H   LIG d   1      14.150   8.925   0.525  0.00  0.00     0.210 HD
ENDBRANCH  22  34
BRANCH  24  36
ATOM     36  O   LIG d   1      12.812   6.941   0.313  0.00  0.00    -0.383 OA
ATOM     37  H   LIG d   1      12.941   5.982   0.338  0.00  0.00     0.210 HD
ENDBRANCH  24  36
ENDBRANCH  15  16
ENDBRANCH   8  15
BRANCH   6  38
ATOM     38  O   LIG d   1      11.091   4.567  -6.515  0.00  0.00    -0.506 OA
ATOM     39  H   LIG d   1      10.354   4.350  -7.103  0.00  0.00     0.292 HD
ENDBRANCH   6  38
BRANCH   1  40
ATOM     40  C   LIG d   1       6.826   0.766  -3.504  0.00  0.00     0.021 A 
ATOM     41  C   LIG d   1       7.019  -0.614  -3.610  0.00  0.00    -0.047 A 
ATOM     42  C   LIG d   1       6.049  -1.483  -3.157  0.00  0.00    -0.016 A 
ATOM     43  H   LIG d   1       7.929  -1.000  -4.046  0.00  0.00     0.063 H 
ATOM     44  C   LIG d   1       4.879  -0.990  -2.596  0.00  0.00     0.158 A 
ATOM     45  H   LIG d   1       6.200  -2.549  -3.241  0.00  0.00     0.066 H 
ATOM     46  C   LIG d   1       4.680   0.386  -2.488  0.00  0.00     0.159 A 
ATOM     47  C   LIG d   1       5.651   1.262  -2.934  0.00  0.00    -0.006 A 
ATOM     48  H   LIG d   1       5.499   2.328  -2.846  0.00  0.00     0.066 H 
BRANCH  44  49
ATOM     49  O   LIG d   1       3.926  -1.850  -2.153  0.00  0.00    -0.503 OA
ATOM     50  H   LIG d   1       4.278  -2.676  -1.793  0.00  0.00     0.292 HD
ENDBRANCH  44  49
BRANCH  46  51
ATOM     51  O   LIG d   1       3.532   0.865  -1.937  0.00  0.00    -0.503 OA
ATOM     52  H   LIG d   1       3.675   1.470  -1.196  0.00  0.00     0.292 HD
ENDBRANCH  46  51
ENDBRANCH   1  40
TORSDOF 11
ENDMDL
MODEL 5
REMARK VINA RESULT:      -6.8      7.092     12.161
REMARK  11 active torsions:
REMARK  status: ('A' for Active; 'I' for Inactive)
REMARK    1  A    between atoms: C_3  and  O_37 
REMARK    2  A    between atoms: C_4  and  O_36 
REMARK    3  A    between atoms: C_6  and  C_7 
REMARK    4  A    between atoms: C_12  and  O_35 
REMARK    5  A    between atoms: C_14  and  O_18 
REMARK    6  A    between atoms: O_18  and  C_19 
REMARK    7  A    between atoms: C_21  and  O_34 
REMARK    8  A    between atoms: C_23  and  O_33 
REMARK    9  A    between atoms: C_25  and  O_32 
REMARK   10  A    between atoms: C_27  and  C_30 
REMARK   11  A    between atoms: C_30  and  O_31 
ROOT
ATOM      1  C   LIG d   1       1.039  -3.077 -11.273  0.00  0.00     0.139 A 
ATOM      2  C   LIG d   1       1.647  -2.657 -12.414  0.00  0.00     0.029 A 
ATOM      3  C   LIG d   1       2.523  -1.547 -12.369  0.00  0.00     0.197 A 
ATOM      4  O   LIG d   1       3.085  -1.142 -13.374  0.00  0.00    -0.287 OA
ATOM      5  C   LIG d   1       2.728  -0.897 -11.064  0.00  0.00     0.105 A 
ATOM      6  C   LIG d   1       3.576   0.208 -10.927  0.00  0.00     0.135 A 
ATOM      7  C   LIG d   1       3.742   0.790  -9.683  0.00  0.00     0.023 A 
ATOM      8  C   LIG d   1       3.070   0.278  -8.577  0.00  0.00     0.131 A 
ATOM      9  C   LIG d   1       2.229  -0.816  -8.706  0.00  0.00     0.024 A 
ATOM     10  C   LIG d   1       2.050  -1.412  -9.945  0.00  0.00     0.146 A 
ATOM     11  O   LIG d   1       1.234  -2.478 -10.087  0.00  0.00    -0.454 OA
ATOM     12  H   LIG d   1       1.463  -3.167 -13.348  0.00  0.00     0.069 H 
ATOM     13  H   LIG d   1       4.395   1.643  -9.570  0.00  0.00     0.069 H 
ATOM     14  H   LIG d   1       1.713  -1.204  -7.841  0.00  0.00     0.069 H 
ENDROOT
BRANCH   8  15
ATOM     15  O   LIG d   1       3.241   0.856  -7.361  0.00  0.00    -0.461 OA
BRANCH  15  16
ATOM     16  C   LIG d   1       3.692   0.013  -6.299  0.00  0.00     0.231 C 
ATOM     17  H   LIG d   1       3.617  -1.030  -6.605  0.00  0.00     0.108 H 
ATOM     18  O   LIG d   1       5.052   0.323  -5.991  0.00  0.00    -0.331 OA
ATOM     19  C   LIG d   1       5.613  -0.484  -4.953  0.00  0.00     0.114 C 
ATOM     20  C   LIG d   1       4.822  -0.271  -3.660  0.00  0.00     0.112 C 
ATOM     21  H   LIG d   1       5.564  -1.534  -5.242  0.00  0.00     0.065 H 
ATOM     22  C   LIG d   1       3.351  -0.616  -3.907  0.00  0.00     0.115 C 
ATOM     23  H   LIG d   1       5.222  -0.919  -2.878  0.00  0.00     0.065 H 
ATOM     24  C   LIG d   1       2.823   0.246  -5.060  0.00  0.00     0.145 C 
ATOM     25  H   LIG d   1       3.262  -1.669  -4.171  0.00  0.00     0.065 H 
ATOM     26  H   LIG d   1       1.792  -0.031  -5.279  0.00  0.00     0.068 H 
BRANCH  19  27
ATOM     27  C   LIG d   1       7.074  -0.084  -4.730  0.00  0.00     0.073 C 
ATOM     28  H   LIG d   1       7.710  -0.630  -5.426  0.00  0.00     0.058 H 
ATOM     29  H   LIG d   1       7.186   0.987  -4.899  0.00  0.00     0.058 H 
BRANCH  27  30
ATOM     30  O   LIG d   1       7.454  -0.398  -3.389  0.00  0.00    -0.392 OA
ATOM     31  H   LIG d   1       6.707  -0.568  -2.798  0.00  0.00     0.209 HD
ENDBRANCH  27  30
ENDBRANCH  19  27
BRANCH  20  32
ATOM     32  O   LIG d   1       4.931   1.093  -3.250  0.00  0.00    -0.387 OA
ATOM     33  H   LIG d   1       5.829   1.448  -3.299  0.00  0.00     0.210 HD
ENDBRANCH  20  32
BRANCH  22  34
ATOM     34  O   LIG d   1       2.592  -0.351  -2.727  0.00  0.00    -0.386 OA
ATOM     35  H   LIG d   1       3.126  -0.270  -1.925  0.00  0.00     0.210 HD
ENDBRANCH  22  34
BRANCH  24  36
ATOM     36  O   LIG d   1       2.880   1.624  -4.689  0.00  0.00    -0.383 OA
ATOM     37  H   LIG d   1       3.770   1.937  -4.474  0.00  0.00     0.210 HD
ENDBRANCH  24  36
ENDBRANCH  15  16
ENDBRANCH   8  15
BRANCH   6  38
ATOM     38  O   LIG d   1       4.235   0.703 -12.005  0.00  0.00    -0.506 OA
ATOM     39  H   LIG d   1       4.043   0.238 -12.831  0.00  0.00     0.292 HD
ENDBRANCH   6  38
BRANCH   1  40
ATOM     40  C   LIG d   1       0.130  -4.237 -11.340  0.00  0.00     0.021 A 
ATOM     41  C   LIG d   1      -0.760  -4.369 -12.409  0.00  0.00    -0.047 A 
ATOM     42  C   LIG d   1      -1.609  -5.455 -12.470  0.00  0.00    -0.016 A 
ATOM     43  H   LIG d   1      -0.783  -3.622 -13.187  0.00  0.00     0.063 H 
ATOM     44  C   LIG d   1      -1.581  -6.417 -11.471  0.00  0.00     0.158 A 
ATOM     45  H   LIG d   1      -2.296  -5.554 -13.296  0.00  0.00     0.066 H 
ATOM     46  C   LIG d   1      -0.696  -6.292 -10.401  0.00  0.00     0.159 A 
ATOM     47  C   LIG d   1       0.161  -5.210 -10.337  0.00  0.00    -0.006 A 
ATOM     48  H   LIG d   1       0.851  -5.115  -9.510  0.00  0.00     0.066 H 
BRANCH  44  49
ATOM     49  O   LIG d   1      -2.420  -7.484 -11.535  0.00  0.00    -0.503 OA
ATOM     50  H   LIG d   1      -3.358  -7.248 -11.525  0.00  0.00     0.292 HD
ENDBRANCH  44  49
BRANCH  46  51
ATOM     51  O   LIG d   1      -0.672  -7.238  -9.424  0.00  0.00    -0.503 OA
ATOM     52  H   LIG d   1      -1.457  -7.240  -8.860  0.00  0.00     0.292 HD
ENDBRANCH  46  51
ENDBRANCH   1  40
TORSDOF 11
ENDMDL
MODEL 6
REMARK VINA RESULT:      -6.8      1.265      2.212
REMARK  11 active torsions:
REMARK  status: ('A' for Active; 'I' for Inactive)
REMARK    1  A    between atoms: C_3  and  O_37 
REMARK    2  A    between atoms: C_4  and  O_36 
REMARK    3  A    between atoms: C_6  and  C_7 
REMARK    4  A    between atoms: C_12  and  O_35 
REMARK    5  A    between atoms: C_14  and  O_18 
REMARK    6  A    between atoms: O_18  and  C_19 
REMARK    7  A    between atoms: C_21  and  O_34 
REMARK    8  A    between atoms: C_23  and  O_33 
REMARK    9  A    between atoms: C_25  and  O_32 
REMARK   10  A    between atoms: C_27  and  C_30 
REMARK   11  A    between atoms: C_30  and  O_31 
ROOT
ATOM      1  C   LIG d   1      10.043   5.011  -2.906  0.00  0.00     0.139 A 
ATOM      2  C   LIG d   1      10.194   5.610  -4.118  0.00  0.00     0.029 A 
ATOM      3  C   LIG d   1       9.836   4.908  -5.292  0.00  0.00     0.197 A 
ATOM      4  O   LIG d   1       9.959   5.414  -6.396  0.00  0.00    -0.287 OA
ATOM      5  C   LIG d   1       9.312   3.541  -5.132  0.00  0.00     0.105 A 
ATOM      6  C   LIG d   1       8.935   2.771  -6.239  0.00  0.00     0.135 A 
ATOM      7  C   LIG d   1       8.447   1.492  -6.046  0.00  0.00     0.023 A 
ATOM      8  C   LIG d   1       8.333   0.975  -4.759  0.00  0.00     0.131 A 
ATOM      9  C   LIG d   1       8.705   1.731  -3.658  0.00  0.00     0.024 A 
ATOM     10  C   LIG d   1       9.196   3.015  -3.833  0.00  0.00     0.146 A 
ATOM     11  O   LIG d   1       9.563   3.765  -2.771  0.00  0.00    -0.454 OA
ATOM     12  H   LIG d   1      10.583   6.616  -4.183  0.00  0.00     0.069 H 
ATOM     13  H   LIG d   1       8.155   0.893  -6.896  0.00  0.00     0.069 H 
ATOM     14  H   LIG d   1       8.612   1.319  -2.665  0.00  0.00     0.069 H 
ENDROOT
BRANCH   8  15
ATOM     15  O   LIG d   1       7.853  -0.282  -4.581  0.00  0.00    -0.461 OA
BRANCH  15  16
ATOM     16  C   LIG d   1       6.528  -0.543  -5.048  0.00  0.00     0.231 C 
ATOM     17  H   LIG d   1       6.351   0.012  -5.969  0.00  0.00     0.108 H 
ATOM     18  O   LIG d   1       6.378  -1.941  -5.296  0.00  0.00    -0.331 OA
ATOM     19  C   LIG d   1       5.089  -2.310  -5.794  0.00  0.00     0.114 C 
ATOM     20  C   LIG d   1       4.021  -1.942  -4.761  0.00  0.00     0.112 C 
ATOM     21  H   LIG d   1       4.893  -1.779  -6.725  0.00  0.00     0.065 H 
ATOM     22  C   LIG d   1       4.102  -0.442  -4.466  0.00  0.00     0.115 C 
ATOM     23  H   LIG d   1       3.034  -2.183  -5.157  0.00  0.00     0.065 H 
ATOM     24  C   LIG d   1       5.517  -0.103  -3.984  0.00  0.00     0.145 C 
ATOM     25  H   LIG d   1       3.882   0.121  -5.372  0.00  0.00     0.065 H 
ATOM     26  H   LIG d   1       5.600   0.971  -3.824  0.00  0.00     0.068 H 
BRANCH  19  27
ATOM     27  C   LIG d   1       5.054  -3.819  -6.050  0.00  0.00     0.073 C 
ATOM     28  H   LIG d   1       5.497  -4.032  -7.022  0.00  0.00     0.058 H 
ATOM     29  H   LIG d   1       5.621  -4.332  -5.272  0.00  0.00     0.058 H 
BRANCH  27  30
ATOM     30  O   LIG d   1       3.700  -4.274  -6.031  0.00  0.00    -0.392 OA
ATOM     31  H   LIG d   1       3.374  -4.503  -5.150  0.00  0.00     0.209 HD
ENDBRANCH  27  30
ENDBRANCH  19  27
BRANCH  20  32
ATOM     32  O   LIG d   1       4.244  -2.679  -3.557  0.00  0.00    -0.387 OA
ATOM     33  H   LIG d   1       3.701  -2.389  -2.812  0.00  0.00     0.210 HD
ENDBRANCH  20  32
BRANCH  22  34
ATOM     34  O   LIG d   1       3.158  -0.102  -3.449  0.00  0.00    -0.386 OA
ATOM     35  H   LIG d   1       3.414  -0.389  -2.562  0.00  0.00     0.210 HD
ENDBRANCH  22  34
BRANCH  24  36
ATOM     36  O   LIG d   1       5.782  -0.792  -2.761  0.00  0.00    -0.383 OA
ATOM     37  H   LIG d   1       5.535  -1.727  -2.774  0.00  0.00     0.210 HD
ENDBRANCH  24  36
ENDBRANCH  15  16
ENDBRANCH   8  15
BRANCH   6  38
ATOM     38  O   LIG d   1       9.041   3.279  -7.493  0.00  0.00    -0.506 OA
ATOM     39  H   LIG d   1       8.967   4.243  -7.535  0.00  0.00     0.292 HD
ENDBRANCH   6  38
BRANCH   1  40
ATOM     40  C   LIG d   1      10.420   5.761  -1.693  0.00  0.00     0.021 A 
ATOM     41  C   LIG d   1      11.213   5.156  -0.714  0.00  0.00    -0.047 A 
ATOM     42  C   LIG d   1      11.565   5.859   0.419  0.00  0.00    -0.016 A 
ATOM     43  H   LIG d   1      11.550   4.139  -0.845  0.00  0.00     0.063 H 
ATOM     44  C   LIG d   1      11.134   7.166   0.590  0.00  0.00     0.158 A 
ATOM     45  H   LIG d   1      12.177   5.389   1.175  0.00  0.00     0.066 H 
ATOM     46  C   LIG d   1      10.343   7.777  -0.383  0.00  0.00     0.159 A 
ATOM     47  C   LIG d   1       9.991   7.080  -1.523  0.00  0.00    -0.006 A 
ATOM     48  H   LIG d   1       9.382   7.554  -2.279  0.00  0.00     0.066 H 
BRANCH  44  49
ATOM     49  O   LIG d   1      11.483   7.854   1.709  0.00  0.00    -0.503 OA
ATOM     50  H   LIG d   1      12.009   8.647   1.534  0.00  0.00     0.292 HD
ENDBRANCH  44  49
BRANCH  46  51
ATOM     51  O   LIG d   1       9.923   9.058  -0.211  0.00  0.00    -0.503 OA
ATOM     52  H   LIG d   1       9.398   9.197   0.589  0.00  0.00     0.292 HD
ENDBRANCH  46  51
ENDBRANCH   1  40
TORSDOF 11
ENDMDL
MODEL 7
REMARK VINA RESULT:      -6.4      4.547     11.319
REMARK  11 active torsions:
REMARK  status: ('A' for Active; 'I' for Inactive)
REMARK    1  A    between atoms: C_3  and  O_37 
REMARK    2  A    between atoms: C_4  and  O_36 
REMARK    3  A    between atoms: C_6  and  C_7 
REMARK    4  A    between atoms: C_12  and  O_35 
REMARK    5  A    between atoms: C_14  and  O_18 
REMARK    6  A    between atoms: O_18  and  C_19 
REMARK    7  A    between atoms: C_21  and  O_34 
REMARK    8  A    between atoms: C_23  and  O_33 
REMARK    9  A    between atoms: C_25  and  O_32 
REMARK   10  A    between atoms: C_27  and  C_30 
REMARK   11  A    between atoms: C_30  and  O_31 
ROOT
ATOM      1  C   LIG d   1      10.194   7.395  -1.799  0.00  0.00     0.139 A 
ATOM      2  C   LIG d   1       9.565   8.515  -2.246  0.00  0.00     0.029 A 
ATOM      3  C   LIG d   1       9.687   9.721  -1.518  0.00  0.00     0.197 A 
ATOM      4  O   LIG d   1       9.135  10.745  -1.889  0.00  0.00    -0.287 OA
ATOM      5  C   LIG d   1      10.503   9.693  -0.292  0.00  0.00     0.105 A 
ATOM      6  C   LIG d   1      10.677  10.840   0.492  0.00  0.00     0.135 A 
ATOM      7  C   LIG d   1      11.451  10.772   1.636  0.00  0.00     0.023 A 
ATOM      8  C   LIG d   1      12.052   9.572   2.003  0.00  0.00     0.131 A 
ATOM      9  C   LIG d   1      11.883   8.433   1.231  0.00  0.00     0.024 A 
ATOM     10  C   LIG d   1      11.110   8.482   0.081  0.00  0.00     0.146 A 
ATOM     11  O   LIG d   1      10.936   7.381  -0.681  0.00  0.00    -0.454 OA
ATOM     12  H   LIG d   1       8.976   8.484  -3.152  0.00  0.00     0.069 H 
ATOM     13  H   LIG d   1      11.590  11.653   2.246  0.00  0.00     0.069 H 
ATOM     14  H   LIG d   1      12.354   7.507   1.526  0.00  0.00     0.069 H 
ENDROOT
BRANCH   8  15
ATOM     15  O   LIG d   1      12.810   9.517   3.127  0.00  0.00    -0.461 OA
BRANCH  15  16
ATOM     16  C   LIG d   1      12.129   9.263   4.358  0.00  0.00     0.231 C 
ATOM     17  H   LIG d   1      11.085   9.561   4.263  0.00  0.00     0.108 H 
ATOM     18  O   LIG d   1      12.202   7.870   4.663  0.00  0.00    -0.331 OA
ATOM     19  C   LIG d   1      11.527   7.502   5.868  0.00  0.00     0.114 C 
ATOM     20  C   LIG d   1      12.164   8.234   7.052  0.00  0.00     0.112 C 
ATOM     21  H   LIG d   1      10.474   7.776   5.794  0.00  0.00     0.065 H 
ATOM     22  C   LIG d   1      12.094   9.744   6.807  0.00  0.00     0.115 C 
ATOM     23  H   LIG d   1      11.622   7.987   7.967  0.00  0.00     0.065 H 
ATOM     24  C   LIG d   1      12.790  10.067   5.481  0.00  0.00     0.145 C 
ATOM     25  H   LIG d   1      11.052  10.057   6.756  0.00  0.00     0.065 H 
ATOM     26  H   LIG d   1      12.698  11.132   5.271  0.00  0.00     0.068 H 
BRANCH  19  27
ATOM     27  C   LIG d   1      11.646   5.990   6.078  0.00  0.00     0.073 C 
ATOM     28  H   LIG d   1      10.887   5.481   5.485  0.00  0.00     0.058 H 
ATOM     29  H   LIG d   1      12.636   5.658   5.764  0.00  0.00     0.058 H 
BRANCH  27  30
ATOM     30  O   LIG d   1      11.457   5.685   7.461  0.00  0.00    -0.392 OA
ATOM     31  H   LIG d   1      12.044   6.173   8.055  0.00  0.00     0.209 HD
ENDBRANCH  27  30
ENDBRANCH  19  27
BRANCH  20  32
ATOM     32  O   LIG d   1      13.529   7.834   7.185  0.00  0.00    -0.387 OA
ATOM     33  H   LIG d   1      13.813   7.702   8.100  0.00  0.00     0.210 HD
ENDBRANCH  20  32
BRANCH  22  34
ATOM     34  O   LIG d   1      12.751  10.433   7.872  0.00  0.00    -0.386 OA
ATOM     35  H   LIG d   1      12.969  11.353   7.670  0.00  0.00     0.210 HD
ENDBRANCH  22  34
BRANCH  24  36
ATOM     36  O   LIG d   1      14.172   9.715   5.570  0.00  0.00    -0.383 OA
ATOM     37  H   LIG d   1      14.769  10.357   5.162  0.00  0.00     0.210 HD
ENDBRANCH  24  36
ENDBRANCH  15  16
ENDBRANCH   8  15
BRANCH   6  38
ATOM     38  O   LIG d   1      10.095  12.011   0.130  0.00  0.00    -0.506 OA
ATOM     39  H   LIG d   1       9.131  12.011   0.203  0.00  0.00     0.292 HD
ENDBRANCH   6  38
BRANCH   1  40
ATOM     40  C   LIG d   1      10.055   6.147  -2.574  0.00  0.00     0.021 A 
ATOM     41  C   LIG d   1       9.498   6.176  -3.855  0.00  0.00    -0.047 A 
ATOM     42  C   LIG d   1       9.370   5.008  -4.577  0.00  0.00    -0.016 A 
ATOM     43  H   LIG d   1       9.168   7.112  -4.280  0.00  0.00     0.063 H 
ATOM     44  C   LIG d   1       9.793   3.803  -4.035  0.00  0.00     0.158 A 
ATOM     45  H   LIG d   1       8.939   5.032  -5.567  0.00  0.00     0.066 H 
ATOM     46  C   LIG d   1      10.350   3.767  -2.757  0.00  0.00     0.159 A 
ATOM     47  C   LIG d   1      10.487   4.934  -2.030  0.00  0.00    -0.006 A 
ATOM     48  H   LIG d   1      10.923   4.907  -1.042  0.00  0.00     0.066 H 
BRANCH  44  49
ATOM     49  O   LIG d   1       9.664   2.655  -4.750  0.00  0.00    -0.503 OA
ATOM     50  H   LIG d   1      10.374   2.016  -4.599  0.00  0.00     0.292 HD
ENDBRANCH  44  49
BRANCH  46  51
ATOM     51  O   LIG d   1      10.764   2.584  -2.229  0.00  0.00    -0.503 OA
ATOM     52  H   LIG d   1      10.393   2.391  -1.357  0.00  0.00     0.292 HD
ENDBRANCH  46  51
ENDBRANCH   1  40
TORSDOF 11
ENDMDL
MODEL 8
REMARK VINA RESULT:      -6.4      5.301      9.556
REMARK  11 active torsions:
REMARK  status: ('A' for Active; 'I' for Inactive)
REMARK    1  A    between atoms: C_3  and  O_37 
REMARK    2  A    between atoms: C_4  and  O_36 
REMARK    3  A    between atoms: C_6  and  C_7 
REMARK    4  A    between atoms: C_12  and  O_35 
REMARK    5  A    between atoms: C_14  and  O_18 
REMARK    6  A    between atoms: O_18  and  C_19 
REMARK    7  A    between atoms: C_21  and  O_34 
REMARK    8  A    between atoms: C_23  and  O_33 
REMARK    9  A    between atoms: C_25  and  O_32 
REMARK   10  A    between atoms: C_27  and  C_30 
REMARK   11  A    between atoms: C_30  and  O_31 
ROOT
ATOM      1  C   LIG d   1       9.917   5.307  -6.496  0.00  0.00     0.139 A 
ATOM      2  C   LIG d   1      10.589   4.156  -6.222  0.00  0.00     0.029 A 
ATOM      3  C   LIG d   1      10.888   3.826  -4.879  0.00  0.00     0.197 A 
ATOM      4  O   LIG d   1      11.490   2.802  -4.597  0.00  0.00    -0.287 OA
ATOM      5  C   LIG d   1      10.448   4.767  -3.835  0.00  0.00     0.105 A 
ATOM      6  C   LIG d   1      10.703   4.522  -2.481  0.00  0.00     0.135 A 
ATOM      7  C   LIG d   1      10.273   5.431  -1.531  0.00  0.00     0.023 A 
ATOM      8  C   LIG d   1       9.591   6.579  -1.922  0.00  0.00     0.131 A 
ATOM      9  C   LIG d   1       9.336   6.828  -3.261  0.00  0.00     0.024 A 
ATOM     10  C   LIG d   1       9.760   5.929  -4.227  0.00  0.00     0.146 A 
ATOM     11  O   LIG d   1       9.519   6.157  -5.536  0.00  0.00    -0.454 OA
ATOM     12  H   LIG d   1      10.891   3.499  -7.024  0.00  0.00     0.069 H 
ATOM     13  H   LIG d   1      10.466   5.248  -0.484  0.00  0.00     0.069 H 
ATOM     14  H   LIG d   1       8.807   7.723  -3.551  0.00  0.00     0.069 H 
ENDROOT
BRANCH   8  15
ATOM     15  O   LIG d   1       9.173   7.464  -0.981  0.00  0.00    -0.461 OA
BRANCH  15  16
ATOM     16  C   LIG d   1      10.075   8.517  -0.634  0.00  0.00     0.231 C 
ATOM     17  H   LIG d   1      10.751   8.174   0.149  0.00  0.00     0.108 H 
ATOM     18  O   LIG d   1      10.831   8.895  -1.785  0.00  0.00    -0.331 OA
ATOM     19  C   LIG d   1      11.786   9.930  -1.541  0.00  0.00     0.114 C 
ATOM     20  C   LIG d   1      11.060  11.193  -1.073  0.00  0.00     0.112 C 
ATOM     21  H   LIG d   1      12.485   9.605  -0.770  0.00  0.00     0.065 H 
ATOM     22  C   LIG d   1      10.247  10.870   0.184  0.00  0.00     0.115 C 
ATOM     23  H   LIG d   1      11.791  11.970  -0.845  0.00  0.00     0.065 H 
ATOM     24  C   LIG d   1       9.278   9.724  -0.129  0.00  0.00     0.145 C 
ATOM     25  H   LIG d   1      10.920  10.569   0.985  0.00  0.00     0.065 H 
ATOM     26  H   LIG d   1       8.734   9.450   0.774  0.00  0.00     0.068 H 
BRANCH  19  27
ATOM     27  C   LIG d   1      12.553  10.230  -2.832  0.00  0.00     0.073 C 
ATOM     28  H   LIG d   1      12.831  11.283  -2.852  0.00  0.00     0.058 H 
ATOM     29  H   LIG d   1      13.454   9.616  -2.870  0.00  0.00     0.058 H 
BRANCH  27  30
ATOM     30  O   LIG d   1      11.726   9.932  -3.958  0.00  0.00    -0.392 OA
ATOM     31  H   LIG d   1      10.778  10.009  -3.780  0.00  0.00     0.209 HD
ENDBRANCH  27  30
ENDBRANCH  19  27
BRANCH  20  32
ATOM     32  O   LIG d   1      10.183  11.651  -2.105  0.00  0.00    -0.387 OA
ATOM     33  H   LIG d   1       9.275  11.329  -2.021  0.00  0.00     0.210 HD
ENDBRANCH  20  32
BRANCH  22  34
ATOM     34  O   LIG d   1       9.508  12.024   0.585  0.00  0.00    -0.386 OA
ATOM     35  H   LIG d   1       9.025  11.913   1.416  0.00  0.00     0.210 HD
ENDBRANCH  22  34
BRANCH  24  36
ATOM     36  O   LIG d   1       8.355  10.142  -1.136  0.00  0.00    -0.383 OA
ATOM     37  H   LIG d   1       8.026   9.422  -1.691  0.00  0.00     0.210 HD
ENDBRANCH  24  36
ENDBRANCH  15  16
ENDBRANCH   8  15
BRANCH   6  38
ATOM     38  O   LIG d   1      11.362   3.398  -2.101  0.00  0.00    -0.506 OA
ATOM     39  H   LIG d   1      11.098   3.061  -1.234  0.00  0.00     0.292 HD
ENDBRANCH   6  38
BRANCH   1  40
ATOM     40  C   LIG d   1       9.613   5.633  -7.902  0.00  0.00     0.021 A 
ATOM     41  C   LIG d   1       9.258   4.618  -8.795  0.00  0.00    -0.047 A 
ATOM     42  C   LIG d   1       8.974   4.926 -10.109  0.00  0.00    -0.016 A 
ATOM     43  H   LIG d   1       9.206   3.595  -8.457  0.00  0.00     0.063 H 
ATOM     44  C   LIG d   1       9.040   6.240 -10.547  0.00  0.00     0.158 A 
ATOM     45  H   LIG d   1       8.701   4.140 -10.798  0.00  0.00     0.066 H 
ATOM     46  C   LIG d   1       9.393   7.258  -9.662  0.00  0.00     0.159 A 
ATOM     47  C   LIG d   1       9.673   6.958  -8.342  0.00  0.00    -0.006 A 
ATOM     48  H   LIG d   1       9.943   7.746  -7.654  0.00  0.00     0.066 H 
BRANCH  44  49
ATOM     49  O   LIG d   1       8.760   6.537 -11.843  0.00  0.00    -0.503 OA
ATOM     50  H   LIG d   1       8.502   5.771 -12.375  0.00  0.00     0.292 HD
ENDBRANCH  44  49
BRANCH  46  51
ATOM     51  O   LIG d   1       9.456   8.545 -10.095  0.00  0.00    -0.503 OA
ATOM     52  H   LIG d   1       8.714   9.094  -9.807  0.00  0.00     0.292 HD
ENDBRANCH  46  51
ENDBRANCH   1  40
TORSDOF 11
ENDMDL
MODEL 9
REMARK VINA RESULT:      -6.3      5.271      8.368
REMARK  11 active torsions:
REMARK  status: ('A' for Active; 'I' for Inactive)
REMARK    1  A    between atoms: C_3  and  O_37 
REMARK    2  A    between atoms: C_4  and  O_36 
REMARK    3  A    between atoms: C_6  and  C_7 
REMARK    4  A    between atoms: C_12  and  O_35 
REMARK    5  A    between atoms: C_14  and  O_18 
REMARK    6  A    between atoms: O_18  and  C_19 
REMARK    7  A    between atoms: C_21  and  O_34 
REMARK    8  A    between atoms: C_23  and  O_33 
REMARK    9  A    between atoms: C_25  and  O_32 
REMARK   10  A    between atoms: C_27  and  C_30 
REMARK   11  A    between atoms: C_30  and  O_31 
ROOT
ATOM      1  C   LIG d   1      10.969   7.925  -0.939  0.00  0.00     0.139 A 
ATOM      2  C   LIG d   1      11.110   6.606  -0.639  0.00  0.00     0.029 A 
ATOM      3  C   LIG d   1      10.803   5.632  -1.617  0.00  0.00     0.197 A 
ATOM      4  O   LIG d   1      10.917   4.439  -1.382  0.00  0.00    -0.287 OA
ATOM      5  C   LIG d   1      10.338   6.112  -2.929  0.00  0.00     0.105 A 
ATOM      6  C   LIG d   1      10.009   5.219  -3.956  0.00  0.00     0.135 A 
ATOM      7  C   LIG d   1       9.576   5.710  -5.174  0.00  0.00     0.023 A 
ATOM      8  C   LIG d   1       9.468   7.082  -5.375  0.00  0.00     0.131 A 
ATOM      9  C   LIG d   1       9.791   7.972  -4.363  0.00  0.00     0.024 A 
ATOM     10  C   LIG d   1      10.227   7.498  -3.135  0.00  0.00     0.146 A 
ATOM     11  O   LIG d   1      10.545   8.352  -2.139  0.00  0.00    -0.454 OA
ATOM     12  H   LIG d   1      11.455   6.305   0.340  0.00  0.00     0.069 H 
ATOM     13  H   LIG d   1       9.321   5.026  -5.971  0.00  0.00     0.069 H 
ATOM     14  H   LIG d   1       9.703   9.035  -4.531  0.00  0.00     0.069 H 
ENDROOT
BRANCH   8  15
ATOM     15  O   LIG d   1       9.042   7.554  -6.575  0.00  0.00    -0.461 OA
BRANCH  15  16
ATOM     16  C   LIG d   1      10.000   7.590  -7.635  0.00  0.00     0.231 C 
ATOM     17  H   LIG d   1      10.940   7.162  -7.290  0.00  0.00     0.108 H 
ATOM     18  O   LIG d   1       9.510   6.836  -8.744  0.00  0.00    -0.331 OA
ATOM     19  C   LIG d   1      10.407   6.786  -9.857  0.00  0.00     0.114 C 
ATOM     20  C   LIG d   1      10.651   8.205 -10.378  0.00  0.00     0.112 C 
ATOM     21  H   LIG d   1      11.354   6.347  -9.541  0.00  0.00     0.065 H 
ATOM     22  C   LIG d   1      11.209   9.069  -9.243  0.00  0.00     0.115 C 
ATOM     23  H   LIG d   1      11.368   8.173 -11.198  0.00  0.00     0.065 H 
ATOM     24  C   LIG d   1      10.227   9.042  -8.066  0.00  0.00     0.145 C 
ATOM     25  H   LIG d   1      12.171   8.673  -8.923  0.00  0.00     0.065 H 
ATOM     26  H   LIG d   1      10.641   9.610  -7.233  0.00  0.00     0.068 H 
BRANCH  19  27
ATOM     27  C   LIG d   1       9.793   5.932 -10.969  0.00  0.00     0.073 C 
ATOM     28  H   LIG d   1      10.188   6.252 -11.932  0.00  0.00     0.058 H 
ATOM     29  H   LIG d   1      10.045   4.884 -10.802  0.00  0.00     0.058 H 
BRANCH  27  30
ATOM     30  O   LIG d   1       8.373   6.088 -10.960  0.00  0.00    -0.392 OA
ATOM     31  H   LIG d   1       7.959   5.971 -11.826  0.00  0.00     0.209 HD
ENDBRANCH  27  30
ENDBRANCH  19  27
BRANCH  20  32
ATOM     32  O   LIG d   1       9.419   8.763 -10.842  0.00  0.00    -0.387 OA
ATOM     33  H   LIG d   1       9.286   8.681 -11.796  0.00  0.00     0.210 HD
ENDBRANCH  20  32
BRANCH  22  34
ATOM     34  O   LIG d   1      11.370  10.412  -9.699  0.00  0.00    -0.386 OA
ATOM     35  H   LIG d   1      10.861  11.063  -9.197  0.00  0.00     0.210 HD
ENDBRANCH  22  34
BRANCH  24  36
ATOM     36  O   LIG d   1       8.984   9.621  -8.469  0.00  0.00    -0.383 OA
ATOM     37  H   LIG d   1       9.074  10.330  -9.120  0.00  0.00     0.210 HD
ENDBRANCH  24  36
ENDBRANCH  15  16
ENDBRANCH   8  15
BRANCH   6  38
ATOM     38  O   LIG d   1      10.121   3.881  -3.760  0.00  0.00    -0.506 OA
ATOM     39  H   LIG d   1       9.642   3.346  -4.409  0.00  0.00     0.292 HD
ENDBRANCH   6  38
BRANCH   1  40
ATOM     40  C   LIG d   1      11.296   8.926   0.095  0.00  0.00     0.021 A 
ATOM     41  C   LIG d   1      11.133  10.288  -0.172  0.00  0.00    -0.047 A 
ATOM     42  C   LIG d   1      11.438  11.222   0.796  0.00  0.00    -0.016 A 
ATOM     43  H   LIG d   1      10.767  10.609  -1.136  0.00  0.00     0.063 H 
ATOM     44  C   LIG d   1      11.908  10.812   2.036  0.00  0.00     0.158 A 
ATOM     45  H   LIG d   1      11.312  12.273   0.587  0.00  0.00     0.066 H 
ATOM     46  C   LIG d   1      12.073   9.455   2.309  0.00  0.00     0.159 A 
ATOM     47  C   LIG d   1      11.764   8.513   1.346  0.00  0.00    -0.006 A 
ATOM     48  H   LIG d   1      11.887   7.462   1.559  0.00  0.00     0.066 H 
BRANCH  44  49
ATOM     49  O   LIG d   1      12.208  11.736   2.985  0.00  0.00    -0.503 OA
ATOM     50  H   LIG d   1      13.044  11.571   3.443  0.00  0.00     0.292 HD
ENDBRANCH  44  49
BRANCH  46  51
ATOM     51  O   LIG d   1      12.533   9.057   3.525  0.00  0.00    -0.503 OA
ATOM     52  H   LIG d   1      11.997   9.367   4.269  0.00  0.00     0.292 HD
ENDBRANCH  46  51
ENDBRANCH   1  40
TORSDOF 11
ENDMDL
MODEL 10
REMARK VINA RESULT:      -6.3      6.802     11.693
REMARK  11 active torsions:
REMARK  status: ('A' for Active; 'I' for Inactive)
REMARK    1  A    between atoms: C_3  and  O_37 
REMARK    2  A    between atoms: C_4  and  O_36 
REMARK    3  A    between atoms: C_6  and  C_7 
REMARK    4  A    between atoms: C_12  and  O_35 
REMARK    5  A    between atoms: C_14  and  O_18 
REMARK    6  A    between atoms: O_18  and  C_19 
REMARK    7  A    between atoms: C_21  and  O_34 
REMARK    8  A    between atoms: C_23  and  O_33 
REMARK    9  A    between atoms: C_25  and  O_32 
REMARK   10  A    between atoms: C_27  and  C_30 
REMARK   11  A    between atoms: C_30  and  O_31 
ROOT
ATOM      1  C   LIG d   1       1.497  -2.057 -11.157  0.00  0.00     0.139 A 
ATOM      2  C   LIG d   1       2.326  -1.489 -12.072  0.00  0.00     0.029 A 
ATOM      3  C   LIG d   1       3.260  -0.511 -11.655  0.00  0.00     0.197 A 
ATOM      4  O   LIG d   1       4.019   0.021 -12.449  0.00  0.00    -0.287 OA
ATOM      5  C   LIG d   1       3.278  -0.158 -10.225  0.00  0.00     0.105 A 
ATOM      6  C   LIG d   1       4.168   0.800  -9.724  0.00  0.00     0.135 A 
ATOM      7  C   LIG d   1       4.154   1.104  -8.375  0.00  0.00     0.023 A 
ATOM      8  C   LIG d   1       3.261   0.459  -7.524  0.00  0.00     0.131 A 
ATOM      9  C   LIG d   1       2.377  -0.490  -8.013  0.00  0.00     0.024 A 
ATOM     10  C   LIG d   1       2.377  -0.806  -9.363  0.00  0.00     0.146 A 
ATOM     11  O   LIG d   1       1.523  -1.728  -9.856  0.00  0.00    -0.454 OA
ATOM     12  H   LIG d   1       2.273  -1.781 -13.111  0.00  0.00     0.069 H 
ATOM     13  H   LIG d   1       4.837   1.842  -7.981  0.00  0.00     0.069 H 
ATOM     14  H   LIG d   1       1.690  -0.982  -7.343  0.00  0.00     0.069 H 
ENDROOT
BRANCH   8  15
ATOM     15  O   LIG d   1       3.256   0.765  -6.201  0.00  0.00    -0.461 OA
BRANCH  15  16
ATOM     16  C   LIG d   1       4.083  -0.031  -5.348  0.00  0.00     0.231 C 
ATOM     17  H   LIG d   1       3.978  -1.081  -5.617  0.00  0.00     0.108 H 
ATOM     18  O   LIG d   1       5.445   0.368  -5.501  0.00  0.00    -0.331 OA
ATOM     19  C   LIG d   1       6.365  -0.386  -4.706  0.00  0.00     0.114 C 
ATOM     20  C   LIG d   1       6.028  -0.200  -3.225  0.00  0.00     0.112 C 
ATOM     21  H   LIG d   1       6.291  -1.442  -4.967  0.00  0.00     0.065 H 
ATOM     22  C   LIG d   1       4.582  -0.638  -2.979  0.00  0.00     0.115 C 
ATOM     23  H   LIG d   1       6.702  -0.808  -2.620  0.00  0.00     0.065 H 
ATOM     24  C   LIG d   1       3.653   0.170  -3.892  0.00  0.00     0.145 C 
ATOM     25  H   LIG d   1       4.479  -1.699  -3.203  0.00  0.00     0.065 H 
ATOM     26  H   LIG d   1       2.627  -0.173  -3.763  0.00  0.00     0.068 H 
BRANCH  19  27
ATOM     27  C   LIG d   1       7.790   0.106  -4.972  0.00  0.00     0.073 C 
ATOM     28  H   LIG d   1       7.923   0.274  -6.041  0.00  0.00     0.058 H 
ATOM     29  H   LIG d   1       7.958   1.039  -4.434  0.00  0.00     0.058 H 
BRANCH  27  30
ATOM     30  O   LIG d   1       8.725  -0.877  -4.524  0.00  0.00    -0.392 OA
ATOM     31  H   LIG d   1       8.934  -1.550  -5.186  0.00  0.00     0.209 HD
ENDBRANCH  27  30
ENDBRANCH  19  27
BRANCH  20  32
ATOM     32  O   LIG d   1       6.178   1.176  -2.868  0.00  0.00    -0.387 OA
ATOM     33  H   LIG d   1       6.788   1.327  -2.133  0.00  0.00     0.210 HD
ENDBRANCH  20  32
BRANCH  22  34
ATOM     34  O   LIG d   1       4.235  -0.400  -1.614  0.00  0.00    -0.386 OA
ATOM     35  H   LIG d   1       3.357  -0.721  -1.369  0.00  0.00     0.210 HD
ENDBRANCH  22  34
BRANCH  24  36
ATOM     36  O   LIG d   1       3.741   1.555  -3.555  0.00  0.00    -0.383 OA
ATOM     37  H   LIG d   1       4.603   1.822  -3.208  0.00  0.00     0.210 HD
ENDBRANCH  24  36
ENDBRANCH  15  16
ENDBRANCH   8  15
BRANCH   6  38
ATOM     38  O   LIG d   1       5.042   1.423 -10.555  0.00  0.00    -0.506 OA
ATOM     39  H   LIG d   1       4.721   1.522 -11.462  0.00  0.00     0.292 HD
ENDBRANCH   6  38
BRANCH   1  40
ATOM     40  C   LIG d   1       0.531  -3.076 -11.612  0.00  0.00     0.021 A 
ATOM     41  C   LIG d   1       0.206  -4.153 -10.783  0.00  0.00    -0.047 A 
ATOM     42  C   LIG d   1      -0.697  -5.103 -11.210  0.00  0.00    -0.016 A 
ATOM     43  H   LIG d   1       0.662  -4.241  -9.808  0.00  0.00     0.063 H 
ATOM     44  C   LIG d   1      -1.285  -4.992 -12.462  0.00  0.00     0.158 A 
ATOM     45  H   LIG d   1      -0.946  -5.935 -10.569  0.00  0.00     0.066 H 
ATOM     46  C   LIG d   1      -0.966  -3.920 -13.294  0.00  0.00     0.159 A 
ATOM     47  C   LIG d   1      -0.066  -2.961 -12.870  0.00  0.00    -0.006 A 
ATOM     48  H   LIG d   1       0.178  -2.127 -13.512  0.00  0.00     0.066 H 
BRANCH  44  49
ATOM     49  O   LIG d   1      -2.174  -5.932 -12.878  0.00  0.00    -0.503 OA
ATOM     50  H   LIG d   1      -2.205  -6.719 -12.317  0.00  0.00     0.292 HD
ENDBRANCH  44  49
BRANCH  46  51
ATOM     51  O   LIG d   1      -1.545  -3.815 -14.520  0.00  0.00    -0.503 OA
ATOM     52  H   LIG d   1      -1.377  -2.972 -14.963  0.00  0.00     0.292 HD
ENDBRANCH  46  51
ENDBRANCH   1  40
TORSDOF 11
ENDMDL
