MODEL 1
REMARK VINA RESULT:      -7.6      0.000      0.000
REMARK  4 active torsions:
REMARK  status: ('A' for Active; 'I' for Inactive)
REMARK    1  A    between atoms: C_7  and  N_8 
REMARK       I    between atoms: N_8  and  C_9 
REMARK    2  A    between atoms: C_9  and  C_11 
REMARK    3  A    between atoms: C_22  and  C_23 
REMARK    4  A    between atoms: C_22  and  N_58 
ROOT
ATOM      1  C   LIG d   1       4.710  -2.057  -7.313  0.00  0.00    -0.034 A 
ATOM      2  C   LIG d   1       4.835  -2.458  -5.979  0.00  0.00    -0.040 A 
ATOM      3  C   LIG d   1       4.327  -1.700  -4.975  0.00  0.00     0.030 A 
ATOM      4  N   LIG d   1       3.635  -0.564  -5.250  0.00  0.00    -0.310 N 
ATOM      5  C   LIG d   1       3.562  -0.111  -6.525  0.00  0.00     0.273 A 
ATOM      6  O   LIG d   1       3.041   0.970  -6.755  0.00  0.00    -0.266 OA
ATOM      7  C   LIG d   1       4.082  -0.872  -7.590  0.00  0.00     0.099 A 
ATOM      8  C   LIG d   1       2.930   0.215  -4.231  0.00  0.00     0.034 C 
ATOM      9  C   LIG d   1       3.388  -0.123  -2.823  0.00  0.00     0.018 C 
ATOM     10  H   LIG d   1       2.647   0.272  -2.127  0.00  0.00     0.037 H 
ATOM     11  C   LIG d   1       3.441  -1.644  -2.656  0.00  0.00    -0.031 C 
ATOM     12  C   LIG d   1       4.565  -2.169  -3.556  0.00  0.00     0.040 C 
ATOM     13  H   LIG d   1       4.618  -3.256  -3.508  0.00  0.00     0.042 H 
ATOM     14  C   LIG d   1       5.888  -1.543  -3.081  0.00  0.00    -0.024 C 
ATOM     15  C   LIG d   1       4.734   0.506  -2.497  0.00  0.00    -0.027 C 
ATOM     16  H   LIG d   1       5.101  -2.670  -8.111  0.00  0.00     0.064 H 
ATOM     17  H   LIG d   1       5.341  -3.382  -5.745  0.00  0.00     0.064 H 
ATOM     18  H   LIG d   1       1.861   0.016  -4.311  0.00  0.00     0.050 H 
ATOM     19  H   LIG d   1       3.104   1.275  -4.414  0.00  0.00     0.050 H 
ATOM     20  H   LIG d   1       2.491  -2.083  -2.956  0.00  0.00     0.028 H 
ATOM     21  H   LIG d   1       3.653  -1.895  -1.616  0.00  0.00     0.028 H 
ATOM     22  H   LIG d   1       6.032  -1.747  -2.021  0.00  0.00     0.082 H 
ATOM     23  H   LIG d   1       6.718  -1.956  -3.653  0.00  0.00     0.082 H 
ATOM     24  H   LIG d   1       4.952   0.355  -1.440  0.00  0.00     0.082 H 
ATOM     25  H   LIG d   1       4.686   1.575  -2.702  0.00  0.00     0.082 H 
ATOM     26  N   LIG d   1       5.801  -0.085  -3.329  0.00  0.00     0.236 N 
ATOM     27  H   LIG d   1       5.578   0.071  -4.319  0.00  0.00     0.203 HD
ENDROOT
BRANCH  26  28
ATOM     28  C   LIG d   1       7.095   0.557  -3.022  0.00  0.00    -0.029 C 
ATOM     29  H   LIG d   1       7.010   1.090  -2.075  0.00  0.00     0.082 H 
ATOM     30  H   LIG d   1       7.861  -0.215  -2.938  0.00  0.00     0.082 H 
BRANCH  28  31
ATOM     31  C   LIG d   1       7.482   1.541  -4.128  0.00  0.00    -0.001 C 
ATOM     32  C   LIG d   1       8.754   2.288  -3.723  0.00  0.00    -0.045 C 
ATOM     33  C   LIG d   1       9.142   3.272  -4.829  0.00  0.00    -0.053 C 
ATOM     34  H   LIG d   1       8.574   2.835  -2.797  0.00  0.00     0.027 H 
ATOM     35  H   LIG d   1       9.564   1.574  -3.571  0.00  0.00     0.027 H 
ATOM     36  C   LIG d   1       9.394   2.504  -6.128  0.00  0.00    -0.053 C 
ATOM     37  H   LIG d   1       8.333   3.986  -4.980  0.00  0.00     0.026 H 
ATOM     38  H   LIG d   1      10.048   3.805  -4.540  0.00  0.00     0.026 H 
ATOM     39  C   LIG d   1       8.122   1.756  -6.534  0.00  0.00    -0.053 C 
ATOM     40  H   LIG d   1       9.670   3.204  -6.917  0.00  0.00     0.026 H 
ATOM     41  H   LIG d   1      10.203   1.790  -5.977  0.00  0.00     0.026 H 
ATOM     42  C   LIG d   1       7.734   0.773  -5.427  0.00  0.00    -0.045 C 
ATOM     43  H   LIG d   1       7.313   2.471  -6.685  0.00  0.00     0.026 H 
ATOM     44  H   LIG d   1       8.302   1.209  -7.459  0.00  0.00     0.026 H 
ATOM     45  H   LIG d   1       8.544   0.058  -5.276  0.00  0.00     0.027 H 
ATOM     46  H   LIG d   1       6.829   0.240  -5.716  0.00  0.00     0.027 H 
ATOM     47  H   LIG d   1       6.674   2.255  -4.279  0.00  0.00     0.035 H 
ENDBRANCH  28  31
ENDBRANCH  26  28
BRANCH   7  48
ATOM     48  N   LIG d   1       3.956  -0.425  -8.912  0.00  0.00    -0.281 N 
ATOM     49  C   LIG d   1       2.926  -0.847  -9.672  0.00  0.00     0.220 C 
ATOM     50  O   LIG d   1       2.160  -1.683  -9.243  0.00  0.00    -0.275 OA
ATOM     51  H   LIG d   1       4.611   0.189  -9.280  0.00  0.00     0.155 HD
BRANCH  49  52
ATOM     52  C   LIG d   1       2.727  -0.279 -11.053  0.00  0.00     0.036 A 
ATOM     53  C   LIG d   1       3.940   0.353 -11.739  0.00  0.00    -0.041 A 
ATOM     54  C   LIG d   1       3.409  -0.999 -12.219  0.00  0.00    -0.041 A 
ATOM     55  H   LIG d   1       3.763   1.219 -12.378  0.00  0.00     0.027 H 
ATOM     56  H   LIG d   1       4.881   0.360 -11.190  0.00  0.00     0.027 H 
ATOM     57  H   LIG d   1       4.001  -1.883 -11.985  0.00  0.00     0.027 H 
ATOM     58  H   LIG d   1       2.882  -1.024 -13.172  0.00  0.00     0.027 H 
ATOM     59  H   LIG d   1       1.751   0.171 -11.240  0.00  0.00     0.039 H 
ENDBRANCH  49  52
ENDBRANCH   7  48
TORSDOF 4
ENDMDL
MODEL 2
REMARK VINA RESULT:      -7.0      2.523      5.365
REMARK  4 active torsions:
REMARK  status: ('A' for Active; 'I' for Inactive)
REMARK    1  A    between atoms: C_7  and  N_8 
REMARK       I    between atoms: N_8  and  C_9 
REMARK    2  A    between atoms: C_9  and  C_11 
REMARK    3  A    between atoms: C_22  and  C_23 
REMARK    4  A    between atoms: C_22  and  N_58 
ROOT
ATOM      1  C   LIG d   1       8.081   1.029  -4.407  0.00  0.00    -0.034 A 
ATOM      2  C   LIG d   1       7.014   1.403  -3.583  0.00  0.00    -0.040 A 
ATOM      3  C   LIG d   1       6.080   0.495  -3.202  0.00  0.00     0.030 A 
ATOM      4  N   LIG d   1       6.194  -0.808  -3.565  0.00  0.00    -0.310 N 
ATOM      5  C   LIG d   1       7.174  -1.185  -4.424  0.00  0.00     0.273 A 
ATOM      6  O   LIG d   1       7.204  -2.332  -4.841  0.00  0.00    -0.266 OA
ATOM      7  C   LIG d   1       8.157  -0.267  -4.841  0.00  0.00     0.099 A 
ATOM      8  C   LIG d   1       5.313  -1.863  -3.064  0.00  0.00     0.034 C 
ATOM      9  C   LIG d   1       4.038  -1.312  -2.452  0.00  0.00     0.018 C 
ATOM     10  H   LIG d   1       3.579  -2.107  -1.863  0.00  0.00     0.037 H 
ATOM     11  C   LIG d   1       4.383  -0.156  -1.510  0.00  0.00    -0.031 C 
ATOM     12  C   LIG d   1       4.920   0.995  -2.368  0.00  0.00     0.040 C 
ATOM     13  H   LIG d   1       5.223   1.832  -1.739  0.00  0.00     0.042 H 
ATOM     14  C   LIG d   1       3.807   1.425  -3.339  0.00  0.00    -0.024 C 
ATOM     15  C   LIG d   1       3.044  -0.868  -3.515  0.00  0.00    -0.027 C 
ATOM     16  H   LIG d   1       8.831   1.750  -4.695  0.00  0.00     0.064 H 
ATOM     17  H   LIG d   1       6.933   2.425  -3.245  0.00  0.00     0.064 H 
ATOM     18  H   LIG d   1       5.848  -2.439  -2.307  0.00  0.00     0.050 H 
ATOM     19  H   LIG d   1       5.052  -2.527  -3.888  0.00  0.00     0.050 H 
ATOM     20  H   LIG d   1       5.144  -0.473  -0.798  0.00  0.00     0.028 H 
ATOM     21  H   LIG d   1       3.489   0.168  -0.976  0.00  0.00     0.028 H 
ATOM     22  H   LIG d   1       2.904   1.668  -2.779  0.00  0.00     0.082 H 
ATOM     23  H   LIG d   1       4.132   2.294  -3.911  0.00  0.00     0.082 H 
ATOM     24  H   LIG d   1       2.099  -0.614  -3.035  0.00  0.00     0.082 H 
ATOM     25  H   LIG d   1       2.881  -1.687  -4.214  0.00  0.00     0.082 H 
ATOM     26  N   LIG d   1       3.565   0.293  -4.263  0.00  0.00     0.236 N 
ATOM     27  H   LIG d   1       4.453   0.032  -4.708  0.00  0.00     0.203 HD
ENDROOT
BRANCH  26  28
ATOM     28  C   LIG d   1       2.603   0.693  -5.310  0.00  0.00    -0.029 C 
ATOM     29  H   LIG d   1       1.610   0.340  -5.031  0.00  0.00     0.082 H 
ATOM     30  H   LIG d   1       2.595   1.781  -5.384  0.00  0.00     0.082 H 
BRANCH  28  31
ATOM     31  C   LIG d   1       2.998   0.092  -6.660  0.00  0.00    -0.001 C 
ATOM     32  C   LIG d   1       2.793   1.135  -7.761  0.00  0.00    -0.045 C 
ATOM     33  C   LIG d   1       3.189   0.535  -9.112  0.00  0.00    -0.053 C 
ATOM     34  H   LIG d   1       1.745   1.433  -7.788  0.00  0.00     0.027 H 
ATOM     35  H   LIG d   1       3.414   2.007  -7.555  0.00  0.00     0.027 H 
ATOM     36  C   LIG d   1       4.660   0.116  -9.073  0.00  0.00    -0.053 C 
ATOM     37  H   LIG d   1       2.568  -0.338  -9.317  0.00  0.00     0.026 H 
ATOM     38  H   LIG d   1       3.043   1.277  -9.896  0.00  0.00     0.026 H 
ATOM     39  C   LIG d   1       4.865  -0.927  -7.971  0.00  0.00    -0.053 C 
ATOM     40  H   LIG d   1       4.942  -0.312 -10.034  0.00  0.00     0.026 H 
ATOM     41  H   LIG d   1       5.280   0.987  -8.867  0.00  0.00     0.026 H 
ATOM     42  C   LIG d   1       4.469  -0.327  -6.621  0.00  0.00    -0.045 C 
ATOM     43  H   LIG d   1       4.244  -1.799  -8.177  0.00  0.00     0.026 H 
ATOM     44  H   LIG d   1       5.913  -1.225  -7.944  0.00  0.00     0.026 H 
ATOM     45  H   LIG d   1       5.090   0.546  -6.415  0.00  0.00     0.027 H 
ATOM     46  H   LIG d   1       4.615  -1.069  -5.836  0.00  0.00     0.027 H 
ATOM     47  H   LIG d   1       2.378  -0.780  -6.866  0.00  0.00     0.035 H 
ENDBRANCH  28  31
ENDBRANCH  26  28
BRANCH   7  48
ATOM     48  N   LIG d   1       9.198  -0.675  -5.686  0.00  0.00    -0.281 N 
ATOM     49  C   LIG d   1       9.136  -0.415  -7.006  0.00  0.00     0.220 C 
ATOM     50  O   LIG d   1       8.139   0.089  -7.478  0.00  0.00    -0.275 OA
ATOM     51  H   LIG d   1       9.964  -1.143  -5.319  0.00  0.00     0.155 HD
BRANCH  49  52
ATOM     52  C   LIG d   1      10.305  -0.750  -7.896  0.00  0.00     0.036 A 
ATOM     53  C   LIG d   1      11.300  -1.796  -7.390  0.00  0.00    -0.041 A 
ATOM     54  C   LIG d   1      10.336  -2.145  -8.526  0.00  0.00    -0.041 A 
ATOM     55  H   LIG d   1      12.351  -1.656  -7.647  0.00  0.00     0.027 H 
ATOM     56  H   LIG d   1      11.111  -2.240  -6.413  0.00  0.00     0.027 H 
ATOM     57  H   LIG d   1       9.512  -2.819  -8.296  0.00  0.00     0.027 H 
ATOM     58  H   LIG d   1      10.752  -2.234  -9.529  0.00  0.00     0.027 H 
ATOM     59  H   LIG d   1      10.699   0.078  -8.486  0.00  0.00     0.039 H 
ENDBRANCH  49  52
ENDBRANCH   7  48
TORSDOF 4
ENDMDL
MODEL 3
REMARK VINA RESULT:      -7.0      2.473      5.280
REMARK  4 active torsions:
REMARK  status: ('A' for Active; 'I' for Inactive)
REMARK    1  A    between atoms: C_7  and  N_8 
REMARK       I    between atoms: N_8  and  C_9 
REMARK    2  A    between atoms: C_9  and  C_11 
REMARK    3  A    between atoms: C_22  and  C_23 
REMARK    4  A    between atoms: C_22  and  N_58 
ROOT
ATOM      1  C   LIG d   1       7.927   1.203  -4.313  0.00  0.00    -0.034 A 
ATOM      2  C   LIG d   1       6.847   1.387  -3.443  0.00  0.00    -0.040 A 
ATOM      3  C   LIG d   1       5.999   0.364  -3.162  0.00  0.00     0.030 A 
ATOM      4  N   LIG d   1       6.217  -0.874  -3.675  0.00  0.00    -0.310 N 
ATOM      5  C   LIG d   1       7.210  -1.065  -4.579  0.00  0.00     0.273 A 
ATOM      6  O   LIG d   1       7.330  -2.150  -5.125  0.00  0.00    -0.266 OA
ATOM      7  C   LIG d   1       8.105  -0.024  -4.894  0.00  0.00     0.099 A 
ATOM      8  C   LIG d   1       5.438  -2.052  -3.291  0.00  0.00     0.034 C 
ATOM      9  C   LIG d   1       4.131  -1.686  -2.610  0.00  0.00     0.018 C 
ATOM     10  H   LIG d   1       3.751  -2.580  -2.114  0.00  0.00     0.037 H 
ATOM     11  C   LIG d   1       4.394  -0.620  -1.544  0.00  0.00    -0.031 C 
ATOM     12  C   LIG d   1       4.817   0.664  -2.268  0.00  0.00     0.040 C 
ATOM     13  H   LIG d   1       5.058   1.446  -1.549  0.00  0.00     0.042 H 
ATOM     14  C   LIG d   1       3.654   1.104  -3.174  0.00  0.00    -0.024 C 
ATOM     15  C   LIG d   1       3.085  -1.210  -3.607  0.00  0.00    -0.027 C 
ATOM     16  H   LIG d   1       8.608   2.013  -4.522  0.00  0.00     0.064 H 
ATOM     17  H   LIG d   1       6.685   2.353  -2.989  0.00  0.00     0.064 H 
ATOM     18  H   LIG d   1       6.032  -2.662  -2.610  0.00  0.00     0.050 H 
ATOM     19  H   LIG d   1       5.219  -2.637  -4.185  0.00  0.00     0.050 H 
ATOM     20  H   LIG d   1       5.191  -0.949  -0.879  0.00  0.00     0.028 H 
ATOM     21  H   LIG d   1       3.485  -0.438  -0.970  0.00  0.00     0.028 H 
ATOM     22  H   LIG d   1       2.744   1.203  -2.583  0.00  0.00     0.082 H 
ATOM     23  H   LIG d   1       3.894   2.058  -3.644  0.00  0.00     0.082 H 
ATOM     24  H   LIG d   1       2.130  -1.096  -3.094  0.00  0.00     0.082 H 
ATOM     25  H   LIG d   1       2.980  -1.956  -4.395  0.00  0.00     0.082 H 
ATOM     26  N   LIG d   1       3.493   0.069  -4.221  0.00  0.00     0.236 N 
ATOM     27  H   LIG d   1       4.392  -0.062  -4.700  0.00  0.00     0.203 HD
ENDROOT
BRANCH  26  28
ATOM     28  C   LIG d   1       2.482   0.501  -5.207  0.00  0.00    -0.029 C 
ATOM     29  H   LIG d   1       1.537   0.006  -4.985  0.00  0.00     0.082 H 
ATOM     30  H   LIG d   1       2.354   1.581  -5.130  0.00  0.00     0.082 H 
BRANCH  28  31
ATOM     31  C   LIG d   1       2.927   0.140  -6.626  0.00  0.00    -0.001 C 
ATOM     32  C   LIG d   1       2.778   1.363  -7.532  0.00  0.00    -0.045 C 
ATOM     33  C   LIG d   1       3.224   1.003  -8.951  0.00  0.00    -0.053 C 
ATOM     34  H   LIG d   1       1.735   1.679  -7.548  0.00  0.00     0.027 H 
ATOM     35  H   LIG d   1       3.398   2.175  -7.152  0.00  0.00     0.027 H 
ATOM     36  C   LIG d   1       4.688   0.559  -8.929  0.00  0.00    -0.053 C 
ATOM     37  H   LIG d   1       2.603   0.190  -9.331  0.00  0.00     0.026 H 
ATOM     38  H   LIG d   1       3.118   1.873  -9.598  0.00  0.00     0.026 H 
ATOM     39  C   LIG d   1       4.836  -0.664  -8.021  0.00  0.00    -0.053 C 
ATOM     40  H   LIG d   1       5.005   0.301  -9.939  0.00  0.00     0.026 H 
ATOM     41  H   LIG d   1       5.307   1.370  -8.549  0.00  0.00     0.026 H 
ATOM     42  C   LIG d   1       4.391  -0.304  -6.603  0.00  0.00    -0.045 C 
ATOM     43  H   LIG d   1       4.216  -1.477  -8.402  0.00  0.00     0.026 H 
ATOM     44  H   LIG d   1       5.879  -0.980  -8.006  0.00  0.00     0.026 H 
ATOM     45  H   LIG d   1       5.011   0.508  -6.222  0.00  0.00     0.027 H 
ATOM     46  H   LIG d   1       4.497  -1.175  -5.956  0.00  0.00     0.027 H 
ATOM     47  H   LIG d   1       2.307  -0.671  -7.006  0.00  0.00     0.035 H 
ENDBRANCH  28  31
ENDBRANCH  26  28
BRANCH   7  48
ATOM     48  N   LIG d   1       9.162  -0.241  -5.788  0.00  0.00    -0.281 N 
ATOM     49  C   LIG d   1       9.065   0.184  -7.063  0.00  0.00     0.220 C 
ATOM     50  O   LIG d   1       8.028   0.672  -7.462  0.00  0.00    -0.275 OA
ATOM     51  H   LIG d   1       9.964  -0.697  -5.488  0.00  0.00     0.155 HD
BRANCH  49  52
ATOM     52  C   LIG d   1      10.243   0.053  -7.993  0.00  0.00     0.036 A 
ATOM     53  C   LIG d   1      10.276   0.962  -9.223  0.00  0.00    -0.041 A 
ATOM     54  C   LIG d   1      11.229   1.222  -8.054  0.00  0.00    -0.041 A 
ATOM     55  H   LIG d   1      10.704   0.554 -10.139  0.00  0.00     0.027 H 
ATOM     56  H   LIG d   1       9.445   1.654  -9.361  0.00  0.00     0.027 H 
ATOM     57  H   LIG d   1      11.024   2.086  -7.421  0.00  0.00     0.027 H 
ATOM     58  H   LIG d   1      12.282   0.985  -8.200  0.00  0.00     0.027 H 
ATOM     59  H   LIG d   1      10.649  -0.954  -8.099  0.00  0.00     0.039 H 
ENDBRANCH  49  52
ENDBRANCH   7  48
TORSDOF 4
ENDMDL
MODEL 4
REMARK VINA RESULT:      -6.6      2.580      6.689
REMARK  4 active torsions:
REMARK  status: ('A' for Active; 'I' for Inactive)
REMARK    1  A    between atoms: C_7  and  N_8 
REMARK       I    between atoms: N_8  and  C_9 
REMARK    2  A    between atoms: C_9  and  C_11 
REMARK    3  A    between atoms: C_22  and  C_23 
REMARK    4  A    between atoms: C_22  and  N_58 
ROOT
ATOM      1  C   LIG d   1       4.654  -2.496  -6.266  0.00  0.00    -0.034 A 
ATOM      2  C   LIG d   1       5.369  -2.986  -7.364  0.00  0.00    -0.040 A 
ATOM      3  C   LIG d   1       6.397  -2.277  -7.897  0.00  0.00     0.030 A 
ATOM      4  N   LIG d   1       6.790  -1.104  -7.336  0.00  0.00    -0.310 N 
ATOM      5  C   LIG d   1       6.070  -0.568  -6.320  0.00  0.00     0.273 A 
ATOM      6  O   LIG d   1       6.355   0.541  -5.896  0.00  0.00    -0.266 OA
ATOM      7  C   LIG d   1       4.996  -1.276  -5.747  0.00  0.00     0.099 A 
ATOM      8  C   LIG d   1       7.982  -0.369  -7.760  0.00  0.00     0.034 C 
ATOM      9  C   LIG d   1       8.481  -0.811  -9.125  0.00  0.00     0.018 C 
ATOM     10  H   LIG d   1       9.498  -0.438  -9.246  0.00  0.00     0.037 H 
ATOM     11  C   LIG d   1       8.520  -2.340  -9.182  0.00  0.00    -0.031 C 
ATOM     12  C   LIG d   1       7.073  -2.843  -9.126  0.00  0.00     0.040 C 
ATOM     13  H   LIG d   1       7.047  -3.932  -9.120  0.00  0.00     0.042 H 
ATOM     14  C   LIG d   1       6.330  -2.292 -10.355  0.00  0.00    -0.024 C 
ATOM     15  C   LIG d   1       7.627  -0.248 -10.251  0.00  0.00    -0.027 C 
ATOM     16  H   LIG d   1       3.847  -3.070  -5.836  0.00  0.00     0.064 H 
ATOM     17  H   LIG d   1       5.101  -3.939  -7.794  0.00  0.00     0.064 H 
ATOM     18  H   LIG d   1       8.773  -0.528  -7.027  0.00  0.00     0.050 H 
ATOM     19  H   LIG d   1       7.747   0.694  -7.797  0.00  0.00     0.050 H 
ATOM     20  H   LIG d   1       9.080  -2.729  -8.332  0.00  0.00     0.028 H 
ATOM     21  H   LIG d   1       8.988  -2.665 -10.112  0.00  0.00     0.028 H 
ATOM     22  H   LIG d   1       6.865  -2.569 -11.263  0.00  0.00     0.082 H 
ATOM     23  H   LIG d   1       5.318  -2.695 -10.385  0.00  0.00     0.082 H 
ATOM     24  H   LIG d   1       8.102  -0.474 -11.206  0.00  0.00     0.082 H 
ATOM     25  H   LIG d   1       7.553   0.833 -10.135  0.00  0.00     0.082 H 
ATOM     26  N   LIG d   1       6.266  -0.820 -10.210  0.00  0.00     0.236 N 
ATOM     27  H   LIG d   1       5.837  -0.593  -9.304  0.00  0.00     0.203 HD
ENDROOT
BRANCH  26  28
ATOM     28  C   LIG d   1       5.442  -0.241 -11.290  0.00  0.00    -0.029 C 
ATOM     29  H   LIG d   1       6.070   0.399 -11.909  0.00  0.00     0.082 H 
ATOM     30  H   LIG d   1       5.037  -1.051 -11.897  0.00  0.00     0.082 H 
BRANCH  28  31
ATOM     31  C   LIG d   1       4.292   0.582 -10.705  0.00  0.00    -0.001 C 
ATOM     32  C   LIG d   1       3.407  -0.320  -9.843  0.00  0.00    -0.045 C 
ATOM     33  C   LIG d   1       2.257   0.503  -9.259  0.00  0.00    -0.053 C 
ATOM     34  H   LIG d   1       3.002  -1.125 -10.457  0.00  0.00     0.027 H 
ATOM     35  H   LIG d   1       4.000  -0.744  -9.032  0.00  0.00     0.027 H 
ATOM     36  C   LIG d   1       2.824   1.633  -8.398  0.00  0.00    -0.053 C 
ATOM     37  H   LIG d   1       1.664   0.926 -10.069  0.00  0.00     0.026 H 
ATOM     38  H   LIG d   1       1.626  -0.139  -8.645  0.00  0.00     0.026 H 
ATOM     39  C   LIG d   1       3.710   2.535  -9.260  0.00  0.00    -0.053 C 
ATOM     40  H   LIG d   1       2.006   2.220  -7.982  0.00  0.00     0.026 H 
ATOM     41  H   LIG d   1       3.417   1.210  -7.587  0.00  0.00     0.026 H 
ATOM     42  C   LIG d   1       4.860   1.713  -9.845  0.00  0.00    -0.045 C 
ATOM     43  H   LIG d   1       3.117   2.959 -10.071  0.00  0.00     0.026 H 
ATOM     44  H   LIG d   1       4.115   3.340  -8.646  0.00  0.00     0.026 H 
ATOM     45  H   LIG d   1       5.453   1.289  -9.034  0.00  0.00     0.027 H 
ATOM     46  H   LIG d   1       5.491   2.355 -10.459  0.00  0.00     0.027 H 
ATOM     47  H   LIG d   1       3.699   1.005 -11.516  0.00  0.00     0.035 H 
ENDBRANCH  28  31
ENDBRANCH  26  28
BRANCH   7  48
ATOM     48  N   LIG d   1       4.289  -0.742  -4.661  0.00  0.00    -0.281 N 
ATOM     49  C   LIG d   1       4.686  -1.007  -3.401  0.00  0.00     0.220 C 
ATOM     50  O   LIG d   1       5.598  -1.782  -3.204  0.00  0.00    -0.275 OA
ATOM     51  H   LIG d   1       3.514  -0.180  -4.818  0.00  0.00     0.155 HD
BRANCH  49  52
ATOM     52  C   LIG d   1       3.998  -0.342  -2.238  0.00  0.00     0.036 A 
ATOM     53  C   LIG d   1       4.725   0.818  -1.557  0.00  0.00    -0.041 A 
ATOM     54  C   LIG d   1       3.503   1.092  -2.436  0.00  0.00    -0.041 A 
ATOM     55  H   LIG d   1       4.603   0.926  -0.479  0.00  0.00     0.027 H 
ATOM     56  H   LIG d   1       5.702   1.100  -1.949  0.00  0.00     0.027 H 
ATOM     57  H   LIG d   1       3.676   1.554  -3.407  0.00  0.00     0.027 H 
ATOM     58  H   LIG d   1       2.578   1.378  -1.937  0.00  0.00     0.027 H 
ATOM     59  H   LIG d   1       3.397  -1.000  -1.609  0.00  0.00     0.039 H 
ENDBRANCH  49  52
ENDBRANCH   7  48
TORSDOF 4
ENDMDL
MODEL 5
REMARK VINA RESULT:      -6.5      4.013      6.805
REMARK  4 active torsions:
REMARK  status: ('A' for Active; 'I' for Inactive)
REMARK    1  A    between atoms: C_7  and  N_8 
REMARK       I    between atoms: N_8  and  C_9 
REMARK    2  A    between atoms: C_9  and  C_11 
REMARK    3  A    between atoms: C_22  and  C_23 
REMARK    4  A    between atoms: C_22  and  N_58 
ROOT
ATOM      1  C   LIG d   1       6.955  -1.841  -5.941  0.00  0.00    -0.034 A 
ATOM      2  C   LIG d   1       6.999  -2.888  -6.867  0.00  0.00    -0.040 A 
ATOM      3  C   LIG d   1       6.211  -3.983  -6.716  0.00  0.00     0.030 A 
ATOM      4  N   LIG d   1       5.322  -4.058  -5.693  0.00  0.00    -0.310 N 
ATOM      5  C   LIG d   1       5.309  -3.095  -4.739  0.00  0.00     0.273 A 
ATOM      6  O   LIG d   1       4.592  -3.223  -3.759  0.00  0.00    -0.266 OA
ATOM      7  C   LIG d   1       6.116  -1.947  -4.864  0.00  0.00     0.099 A 
ATOM      8  C   LIG d   1       4.338  -5.133  -5.559  0.00  0.00     0.034 C 
ATOM      9  C   LIG d   1       4.679  -6.341  -6.413  0.00  0.00     0.018 C 
ATOM     10  H   LIG d   1       3.788  -6.965  -6.481  0.00  0.00     0.037 H 
ATOM     11  C   LIG d   1       5.052  -5.880  -7.824  0.00  0.00    -0.031 C 
ATOM     12  C   LIG d   1       6.370  -5.102  -7.723  0.00  0.00     0.040 C 
ATOM     13  H   LIG d   1       6.659  -4.712  -8.698  0.00  0.00     0.042 H 
ATOM     14  C   LIG d   1       7.447  -6.058  -7.183  0.00  0.00    -0.024 C 
ATOM     15  C   LIG d   1       5.798  -7.171  -5.800  0.00  0.00    -0.027 C 
ATOM     16  H   LIG d   1       7.571  -0.964  -6.073  0.00  0.00     0.064 H 
ATOM     17  H   LIG d   1       7.667  -2.826  -7.714  0.00  0.00     0.064 H 
ATOM     18  H   LIG d   1       3.360  -4.755  -5.859  0.00  0.00     0.050 H 
ATOM     19  H   LIG d   1       4.290  -5.440  -4.515  0.00  0.00     0.050 H 
ATOM     20  H   LIG d   1       4.271  -5.233  -8.221  0.00  0.00     0.028 H 
ATOM     21  H   LIG d   1       5.183  -6.744  -8.474  0.00  0.00     0.028 H 
ATOM     22  H   LIG d   1       7.499  -6.946  -7.811  0.00  0.00     0.082 H 
ATOM     23  H   LIG d   1       8.414  -5.555  -7.172  0.00  0.00     0.082 H 
ATOM     24  H   LIG d   1       5.910  -8.094  -6.369  0.00  0.00     0.082 H 
ATOM     25  H   LIG d   1       5.537  -7.415  -4.771  0.00  0.00     0.082 H 
ATOM     26  N   LIG d   1       7.066  -6.415  -5.797  0.00  0.00     0.236 N 
ATOM     27  H   LIG d   1       6.939  -5.553  -5.254  0.00  0.00     0.203 HD
ENDROOT
BRANCH  26  28
ATOM     28  C   LIG d   1       8.134  -7.222  -5.172  0.00  0.00    -0.029 C 
ATOM     29  H   LIG d   1       7.679  -7.953  -4.504  0.00  0.00     0.082 H 
ATOM     30  H   LIG d   1       8.688  -7.740  -5.955  0.00  0.00     0.082 H 
BRANCH  28  31
ATOM     31  C   LIG d   1       9.088  -6.328  -4.377  0.00  0.00    -0.001 C 
ATOM     32  C   LIG d   1       8.436  -4.963  -4.151  0.00  0.00    -0.045 C 
ATOM     33  C   LIG d   1       9.390  -4.068  -3.356  0.00  0.00    -0.053 C 
ATOM     34  H   LIG d   1       8.221  -4.499  -5.114  0.00  0.00     0.027 H 
ATOM     35  H   LIG d   1       7.508  -5.090  -3.594  0.00  0.00     0.027 H 
ATOM     36  C   LIG d   1       9.693  -4.719  -2.005  0.00  0.00    -0.053 C 
ATOM     37  H   LIG d   1      10.318  -3.940  -3.914  0.00  0.00     0.026 H 
ATOM     38  H   LIG d   1       8.926  -3.095  -3.195  0.00  0.00     0.026 H 
ATOM     39  C   LIG d   1      10.344  -6.085  -2.232  0.00  0.00    -0.053 C 
ATOM     40  H   LIG d   1      10.372  -4.083  -1.439  0.00  0.00     0.026 H 
ATOM     41  H   LIG d   1       8.765  -4.847  -1.448  0.00  0.00     0.026 H 
ATOM     42  C   LIG d   1       9.390  -6.980  -3.026  0.00  0.00    -0.045 C 
ATOM     43  H   LIG d   1      11.272  -5.957  -2.789  0.00  0.00     0.026 H 
ATOM     44  H   LIG d   1      10.559  -6.549  -1.269  0.00  0.00     0.026 H 
ATOM     45  H   LIG d   1       8.462  -7.108  -2.469  0.00  0.00     0.027 H 
ATOM     46  H   LIG d   1       9.854  -7.953  -3.188  0.00  0.00     0.027 H 
ATOM     47  H   LIG d   1      10.015  -6.200  -4.935  0.00  0.00     0.035 H 
ENDBRANCH  28  31
ENDBRANCH  26  28
BRANCH   7  48
ATOM     48  N   LIG d   1       6.060  -0.929  -3.903  0.00  0.00    -0.281 N 
ATOM     49  C   LIG d   1       5.168   0.072  -4.032  0.00  0.00     0.220 C 
ATOM     50  O   LIG d   1       4.477   0.143  -5.026  0.00  0.00    -0.275 OA
ATOM     51  H   LIG d   1       6.664  -0.946  -3.144  0.00  0.00     0.155 HD
BRANCH  49  52
ATOM     52  C   LIG d   1       5.029   1.103  -2.943  0.00  0.00     0.036 A 
ATOM     53  C   LIG d   1       3.614   1.460  -2.484  0.00  0.00    -0.041 A 
ATOM     54  C   LIG d   1       4.524   0.627  -1.579  0.00  0.00    -0.041 A 
ATOM     55  H   LIG d   1       3.425   2.494  -2.193  0.00  0.00     0.027 H 
ATOM     56  H   LIG d   1       2.783   0.950  -2.972  0.00  0.00     0.027 H 
ATOM     57  H   LIG d   1       4.292  -0.432  -1.471  0.00  0.00     0.027 H 
ATOM     58  H   LIG d   1       4.934   1.112  -0.693  0.00  0.00     0.027 H 
ATOM     59  H   LIG d   1       5.772   1.902  -2.954  0.00  0.00     0.039 H 
ENDBRANCH  49  52
ENDBRANCH   7  48
TORSDOF 4
ENDMDL
MODEL 6
REMARK VINA RESULT:      -6.3      8.850     12.014
REMARK  4 active torsions:
REMARK  status: ('A' for Active; 'I' for Inactive)
REMARK    1  A    between atoms: C_7  and  N_8 
REMARK       I    between atoms: N_8  and  C_9 
REMARK    2  A    between atoms: C_9  and  C_11 
REMARK    3  A    between atoms: C_22  and  C_23 
REMARK    4  A    between atoms: C_22  and  N_58 
ROOT
ATOM      1  C   LIG d   1       8.720   9.673  -1.080  0.00  0.00    -0.034 A 
ATOM      2  C   LIG d   1       9.018   8.319  -0.892  0.00  0.00    -0.040 A 
ATOM      3  C   LIG d   1      10.204   7.805  -1.304  0.00  0.00     0.030 A 
ATOM      4  N   LIG d   1      11.150   8.608  -1.856  0.00  0.00    -0.310 N 
ATOM      5  C   LIG d   1      10.862   9.907  -2.119  0.00  0.00     0.273 A 
ATOM      6  O   LIG d   1      11.671  10.596  -2.720  0.00  0.00    -0.266 OA
ATOM      7  C   LIG d   1       9.639  10.470  -1.707  0.00  0.00     0.099 A 
ATOM      8  C   LIG d   1      12.503   8.153  -2.178  0.00  0.00     0.034 C 
ATOM      9  C   LIG d   1      12.609   6.639  -2.230  0.00  0.00     0.018 C 
ATOM     10  H   LIG d   1      13.667   6.376  -2.193  0.00  0.00     0.037 H 
ATOM     11  C   LIG d   1      11.922   6.038  -1.001  0.00  0.00    -0.031 C 
ATOM     12  C   LIG d   1      10.420   6.318  -1.128  0.00  0.00     0.040 C 
ATOM     13  H   LIG d   1       9.887   5.947  -0.253  0.00  0.00     0.042 H 
ATOM     14  C   LIG d   1       9.912   5.624  -2.403  0.00  0.00    -0.024 C 
ATOM     15  C   LIG d   1      12.019   6.072  -3.513  0.00  0.00    -0.027 C 
ATOM     16  H   LIG d   1       7.782  10.082  -0.736  0.00  0.00     0.064 H 
ATOM     17  H   LIG d   1       8.296   7.675  -0.413  0.00  0.00     0.064 H 
ATOM     18  H   LIG d   1      13.192   8.529  -1.421  0.00  0.00     0.050 H 
ATOM     19  H   LIG d   1      12.791   8.561  -3.147  0.00  0.00     0.050 H 
ATOM     20  H   LIG d   1      12.310   6.503  -0.095  0.00  0.00     0.028 H 
ATOM     21  H   LIG d   1      12.095   4.962  -0.968  0.00  0.00     0.028 H 
ATOM     22  H   LIG d   1      10.169   4.566  -2.374  0.00  0.00     0.082 H 
ATOM     23  H   LIG d   1       8.831   5.740  -2.480  0.00  0.00     0.082 H 
ATOM     24  H   LIG d   1      12.242   5.007  -3.568  0.00  0.00     0.082 H 
ATOM     25  H   LIG d   1      12.471   6.577  -4.366  0.00  0.00     0.082 H 
ATOM     26  N   LIG d   1      10.559   6.291  -3.557  0.00  0.00     0.236 N 
ATOM     27  H   LIG d   1      10.371   7.300  -3.506  0.00  0.00     0.203 HD
ENDROOT
BRANCH  26  28
ATOM     28  C   LIG d   1      10.007   5.763  -4.820  0.00  0.00    -0.029 C 
ATOM     29  H   LIG d   1      10.550   4.858  -5.092  0.00  0.00     0.082 H 
ATOM     30  H   LIG d   1       8.953   5.525  -4.672  0.00  0.00     0.082 H 
BRANCH  28  31
ATOM     31  C   LIG d   1      10.144   6.797  -5.940  0.00  0.00    -0.001 C 
ATOM     32  C   LIG d   1       9.710   6.170  -7.267  0.00  0.00    -0.045 C 
ATOM     33  C   LIG d   1       9.846   7.204  -8.387  0.00  0.00    -0.053 C 
ATOM     34  H   LIG d   1      10.343   5.310  -7.487  0.00  0.00     0.027 H 
ATOM     35  H   LIG d   1       8.671   5.848  -7.194  0.00  0.00     0.027 H 
ATOM     36  C   LIG d   1       8.958   8.411  -8.078  0.00  0.00    -0.053 C 
ATOM     37  H   LIG d   1      10.885   7.526  -8.459  0.00  0.00     0.026 H 
ATOM     38  H   LIG d   1       9.537   6.758  -9.332  0.00  0.00     0.026 H 
ATOM     39  C   LIG d   1       9.392   9.037  -6.751  0.00  0.00    -0.053 C 
ATOM     40  H   LIG d   1       9.056   9.147  -8.875  0.00  0.00     0.026 H 
ATOM     41  H   LIG d   1       7.920   8.089  -8.005  0.00  0.00     0.026 H 
ATOM     42  C   LIG d   1       9.256   8.003  -5.630  0.00  0.00    -0.045 C 
ATOM     43  H   LIG d   1      10.431   9.359  -6.823  0.00  0.00     0.026 H 
ATOM     44  H   LIG d   1       8.759   9.897  -6.531  0.00  0.00     0.026 H 
ATOM     45  H   LIG d   1       8.217   7.681  -5.558  0.00  0.00     0.027 H 
ATOM     46  H   LIG d   1       9.564   8.449  -4.685  0.00  0.00     0.027 H 
ATOM     47  H   LIG d   1      11.182   7.118  -6.013  0.00  0.00     0.035 H 
ENDBRANCH  28  31
ENDBRANCH  26  28
BRANCH   7  48
ATOM     48  N   LIG d   1       9.368  11.826  -1.933  0.00  0.00    -0.281 N 
ATOM     49  C   LIG d   1       8.685  12.203  -3.032  0.00  0.00     0.220 C 
ATOM     50  O   LIG d   1       8.384  11.380  -3.870  0.00  0.00    -0.275 OA
ATOM     51  H   LIG d   1       9.673  12.493  -1.299  0.00  0.00     0.155 HD
BRANCH  49  52
ATOM     52  C   LIG d   1       8.294  13.646  -3.218  0.00  0.00     0.036 A 
ATOM     53  C   LIG d   1       8.958  14.681  -2.308  0.00  0.00    -0.041 A 
ATOM     54  C   LIG d   1       9.351  14.597  -3.784  0.00  0.00    -0.041 A 
ATOM     55  H   LIG d   1       8.358  15.536  -1.995  0.00  0.00     0.027 H 
ATOM     56  H   LIG d   1       9.677  14.317  -1.573  0.00  0.00     0.027 H 
ATOM     57  H   LIG d   1      10.329  14.178  -4.021  0.00  0.00     0.027 H 
ATOM     58  H   LIG d   1       9.009  15.395  -4.442  0.00  0.00     0.027 H 
ATOM     59  H   LIG d   1       7.256  13.819  -3.504  0.00  0.00     0.039 H 
ENDBRANCH  49  52
ENDBRANCH   7  48
TORSDOF 4
ENDMDL
MODEL 7
REMARK VINA RESULT:      -6.3      2.666      5.327
REMARK  4 active torsions:
REMARK  status: ('A' for Active; 'I' for Inactive)
REMARK    1  A    between atoms: C_7  and  N_8 
REMARK       I    between atoms: N_8  and  C_9 
REMARK    2  A    between atoms: C_9  and  C_11 
REMARK    3  A    between atoms: C_22  and  C_23 
REMARK    4  A    between atoms: C_22  and  N_58 
ROOT
ATOM      1  C   LIG d   1       1.346  -1.629 -10.615  0.00  0.00    -0.034 A 
ATOM      2  C   LIG d   1       1.495  -0.536  -9.754  0.00  0.00    -0.040 A 
ATOM      3  C   LIG d   1       2.718   0.005  -9.524  0.00  0.00     0.030 A 
ATOM      4  N   LIG d   1       3.815  -0.468 -10.169  0.00  0.00    -0.310 N 
ATOM      5  C   LIG d   1       3.714  -1.573 -10.950  0.00  0.00     0.273 A 
ATOM      6  O   LIG d   1       4.721  -2.064 -11.435  0.00  0.00    -0.266 OA
ATOM      7  C   LIG d   1       2.460  -2.160 -11.207  0.00  0.00     0.099 A 
ATOM      8  C   LIG d   1       5.132   0.165 -10.087  0.00  0.00     0.034 C 
ATOM      9  C   LIG d   1       5.244   1.119  -8.912  0.00  0.00     0.018 C 
ATOM     10  H   LIG d   1       6.121   1.747  -9.074  0.00  0.00     0.037 H 
ATOM     11  C   LIG d   1       4.009   2.022  -8.869  0.00  0.00    -0.031 C 
ATOM     12  C   LIG d   1       2.803   1.140  -8.527  0.00  0.00     0.040 C 
ATOM     13  H   LIG d   1       1.886   1.729  -8.526  0.00  0.00     0.042 H 
ATOM     14  C   LIG d   1       3.045   0.518  -7.141  0.00  0.00    -0.024 C 
ATOM     15  C   LIG d   1       5.421   0.379  -7.594  0.00  0.00    -0.027 C 
ATOM     16  H   LIG d   1       0.369  -2.047 -10.808  0.00  0.00     0.064 H 
ATOM     17  H   LIG d   1       0.627  -0.117  -9.268  0.00  0.00     0.064 H 
ATOM     18  H   LIG d   1       5.315   0.717 -11.009  0.00  0.00     0.050 H 
ATOM     19  H   LIG d   1       5.891  -0.611  -9.987  0.00  0.00     0.050 H 
ATOM     20  H   LIG d   1       3.859   2.492  -9.840  0.00  0.00     0.028 H 
ATOM     21  H   LIG d   1       4.135   2.787  -8.103  0.00  0.00     0.028 H 
ATOM     22  H   LIG d   1       3.245   1.305  -6.414  0.00  0.00     0.082 H 
ATOM     23  H   LIG d   1       2.170  -0.055  -6.835  0.00  0.00     0.082 H 
ATOM     24  H   LIG d   1       5.637   1.101  -6.806  0.00  0.00     0.082 H 
ATOM     25  H   LIG d   1       6.259  -0.312  -7.685  0.00  0.00     0.082 H 
ATOM     26  N   LIG d   1       4.207  -0.393  -7.262  0.00  0.00     0.236 N 
ATOM     27  H   LIG d   1       4.024  -1.067  -8.015  0.00  0.00     0.203 HD
ENDROOT
BRANCH  26  28
ATOM     28  C   LIG d   1       4.407  -1.128  -5.997  0.00  0.00    -0.029 C 
ATOM     29  H   LIG d   1       3.644  -1.902  -5.915  0.00  0.00     0.082 H 
ATOM     30  H   LIG d   1       5.395  -1.590  -6.010  0.00  0.00     0.082 H 
BRANCH  28  31
ATOM     31  C   LIG d   1       4.303  -0.179  -4.802  0.00  0.00    -0.001 C 
ATOM     32  C   LIG d   1       3.280  -0.727  -3.804  0.00  0.00    -0.045 C 
ATOM     33  C   LIG d   1       3.176   0.222  -2.608  0.00  0.00    -0.053 C 
ATOM     34  H   LIG d   1       2.307  -0.808  -4.290  0.00  0.00     0.027 H 
ATOM     35  H   LIG d   1       3.598  -1.711  -3.461  0.00  0.00     0.027 H 
ATOM     36  C   LIG d   1       4.541   0.336  -1.927  0.00  0.00    -0.053 C 
ATOM     37  H   LIG d   1       2.858   1.207  -2.952  0.00  0.00     0.026 H 
ATOM     38  H   LIG d   1       2.447  -0.167  -1.898  0.00  0.00     0.026 H 
ATOM     39  C   LIG d   1       5.565   0.884  -2.925  0.00  0.00    -0.053 C 
ATOM     40  H   LIG d   1       4.468   1.012  -1.076  0.00  0.00     0.026 H 
ATOM     41  H   LIG d   1       4.860  -0.647  -1.584  0.00  0.00     0.026 H 
ATOM     42  C   LIG d   1       5.669  -0.065  -4.122  0.00  0.00    -0.045 C 
ATOM     43  H   LIG d   1       5.247   1.868  -3.269  0.00  0.00     0.026 H 
ATOM     44  H   LIG d   1       6.537   0.965  -2.440  0.00  0.00     0.026 H 
ATOM     45  H   LIG d   1       5.987  -1.050  -3.778  0.00  0.00     0.027 H 
ATOM     46  H   LIG d   1       6.397   0.324  -4.832  0.00  0.00     0.027 H 
ATOM     47  H   LIG d   1       3.985   0.805  -5.145  0.00  0.00     0.035 H 
ENDBRANCH  28  31
ENDBRANCH  26  28
BRANCH   7  48
ATOM     48  N   LIG d   1       2.355  -3.269 -12.057  0.00  0.00    -0.281 N 
ATOM     49  C   LIG d   1       2.272  -4.510 -11.539  0.00  0.00     0.220 C 
ATOM     50  O   LIG d   1       2.381  -4.676 -10.343  0.00  0.00    -0.275 OA
ATOM     51  H   LIG d   1       2.341  -3.142 -13.018  0.00  0.00     0.155 HD
BRANCH  49  52
ATOM     52  C   LIG d   1       2.044  -5.691 -12.446  0.00  0.00     0.036 A 
ATOM     53  C   LIG d   1       2.411  -5.529 -13.922  0.00  0.00    -0.041 A 
ATOM     54  C   LIG d   1       3.278  -6.399 -13.009  0.00  0.00    -0.041 A 
ATOM     55  H   LIG d   1       1.785  -6.039 -14.656  0.00  0.00     0.027 H 
ATOM     56  H   LIG d   1       2.817  -4.568 -14.238  0.00  0.00     0.027 H 
ATOM     57  H   LIG d   1       4.255  -6.010 -12.723  0.00  0.00     0.027 H 
ATOM     58  H   LIG d   1       3.222  -7.479 -13.141  0.00  0.00     0.027 H 
ATOM     59  H   LIG d   1       1.175  -6.306 -12.207  0.00  0.00     0.039 H 
ENDBRANCH  49  52
ENDBRANCH   7  48
TORSDOF 4
ENDMDL
MODEL 8
REMARK VINA RESULT:      -6.3      2.368      5.962
REMARK  4 active torsions:
REMARK  status: ('A' for Active; 'I' for Inactive)
REMARK    1  A    between atoms: C_7  and  N_8 
REMARK       I    between atoms: N_8  and  C_9 
REMARK    2  A    between atoms: C_9  and  C_11 
REMARK    3  A    between atoms: C_22  and  C_23 
REMARK    4  A    between atoms: C_22  and  N_58 
ROOT
ATOM      1  C   LIG d   1       7.671   1.842  -3.950  0.00  0.00    -0.034 A 
ATOM      2  C   LIG d   1       6.517   1.247  -3.431  0.00  0.00    -0.040 A 
ATOM      3  C   LIG d   1       6.146  -0.002  -3.814  0.00  0.00     0.030 A 
ATOM      4  N   LIG d   1       6.922  -0.722  -4.665  0.00  0.00    -0.310 N 
ATOM      5  C   LIG d   1       8.004  -0.145  -5.242  0.00  0.00     0.273 A 
ATOM      6  O   LIG d   1       8.632  -0.753  -6.095  0.00  0.00    -0.266 OA
ATOM      7  C   LIG d   1       8.414   1.150  -4.869  0.00  0.00     0.099 A 
ATOM      8  C   LIG d   1       6.666  -2.124  -4.996  0.00  0.00     0.034 C 
ATOM      9  C   LIG d   1       5.254  -2.555  -4.641  0.00  0.00     0.018 C 
ATOM     10  H   LIG d   1       5.225  -3.645  -4.649  0.00  0.00     0.037 H 
ATOM     11  C   LIG d   1       4.916  -2.077  -3.226  0.00  0.00    -0.031 C 
ATOM     12  C   LIG d   1       4.848  -0.546  -3.259  0.00  0.00     0.040 C 
ATOM     13  H   LIG d   1       4.652  -0.150  -2.263  0.00  0.00     0.042 H 
ATOM     14  C   LIG d   1       3.727  -0.140  -4.231  0.00  0.00    -0.024 C 
ATOM     15  C   LIG d   1       4.233  -2.041  -5.645  0.00  0.00    -0.027 C 
ATOM     16  H   LIG d   1       7.971   2.828  -3.632  0.00  0.00     0.064 H 
ATOM     17  H   LIG d   1       5.912   1.786  -2.717  0.00  0.00     0.064 H 
ATOM     18  H   LIG d   1       7.373  -2.750  -4.451  0.00  0.00     0.050 H 
ATOM     19  H   LIG d   1       6.821  -2.268  -6.065  0.00  0.00     0.050 H 
ATOM     20  H   LIG d   1       5.691  -2.398  -2.531  0.00  0.00     0.028 H 
ATOM     21  H   LIG d   1       3.952  -2.483  -2.918  0.00  0.00     0.028 H 
ATOM     22  H   LIG d   1       2.794  -0.623  -3.940  0.00  0.00     0.082 H 
ATOM     23  H   LIG d   1       3.602   0.943  -4.218  0.00  0.00     0.082 H 
ATOM     24  H   LIG d   1       3.263  -2.489  -5.429  0.00  0.00     0.082 H 
ATOM     25  H   LIG d   1       4.545  -2.330  -6.649  0.00  0.00     0.082 H 
ATOM     26  N   LIG d   1       4.140  -0.569  -5.587  0.00  0.00     0.236 N 
ATOM     27  H   LIG d   1       5.063  -0.167  -5.796  0.00  0.00     0.203 HD
ENDROOT
BRANCH  26  28
ATOM     28  C   LIG d   1       3.169  -0.084  -6.588  0.00  0.00    -0.029 C 
ATOM     29  H   LIG d   1       2.587  -0.929  -6.955  0.00  0.00     0.082 H 
ATOM     30  H   LIG d   1       2.503   0.637  -6.114  0.00  0.00     0.082 H 
BRANCH  28  31
ATOM     31  C   LIG d   1       3.892   0.584  -7.760  0.00  0.00    -0.001 C 
ATOM     32  C   LIG d   1       4.078  -0.431  -8.889  0.00  0.00    -0.045 C 
ATOM     33  C   LIG d   1       4.801   0.237 -10.061  0.00  0.00    -0.053 C 
ATOM     34  H   LIG d   1       4.670  -1.272  -8.528  0.00  0.00     0.027 H 
ATOM     35  H   LIG d   1       3.103  -0.789  -9.220  0.00  0.00     0.027 H 
ATOM     36  C   LIG d   1       3.970   1.417 -10.567  0.00  0.00    -0.053 C 
ATOM     37  H   LIG d   1       5.776   0.595  -9.729  0.00  0.00     0.026 H 
ATOM     38  H   LIG d   1       4.934  -0.486 -10.865  0.00  0.00     0.026 H 
ATOM     39  C   LIG d   1       3.784   2.432  -9.437  0.00  0.00    -0.053 C 
ATOM     40  H   LIG d   1       4.485   1.894 -11.401  0.00  0.00     0.026 H 
ATOM     41  H   LIG d   1       2.995   1.060 -10.898  0.00  0.00     0.026 H 
ATOM     42  C   LIG d   1       3.061   1.765  -8.265  0.00  0.00    -0.045 C 
ATOM     43  H   LIG d   1       4.759   2.790  -9.106  0.00  0.00     0.026 H 
ATOM     44  H   LIG d   1       3.192   3.273  -9.798  0.00  0.00     0.026 H 
ATOM     45  H   LIG d   1       2.086   1.407  -8.597  0.00  0.00     0.027 H 
ATOM     46  H   LIG d   1       2.928   2.487  -7.461  0.00  0.00     0.027 H 
ATOM     47  H   LIG d   1       4.867   0.942  -7.429  0.00  0.00     0.035 H 
ENDBRANCH  28  31
ENDBRANCH  26  28
BRANCH   7  48
ATOM     48  N   LIG d   1       9.565   1.722  -5.429  0.00  0.00    -0.281 N 
ATOM     49  C   LIG d   1       9.474   2.451  -6.558  0.00  0.00     0.220 C 
ATOM     50  O   LIG d   1       8.414   2.537  -7.141  0.00  0.00    -0.275 OA
ATOM     51  H   LIG d   1      10.426   1.592  -5.002  0.00  0.00     0.155 HD
BRANCH  49  52
ATOM     52  C   LIG d   1      10.690   3.160  -7.097  0.00  0.00     0.036 A 
ATOM     53  C   LIG d   1      10.475   4.177  -8.218  0.00  0.00    -0.041 A 
ATOM     54  C   LIG d   1      10.823   4.656  -6.808  0.00  0.00    -0.041 A 
ATOM     55  H   LIG d   1      11.250   4.257  -8.982  0.00  0.00     0.027 H 
ATOM     56  H   LIG d   1       9.454   4.334  -8.567  0.00  0.00     0.027 H 
ATOM     57  H   LIG d   1      10.030   5.128  -6.227  0.00  0.00     0.027 H 
ATOM     58  H   LIG d   1      11.825   5.049  -6.642  0.00  0.00     0.027 H 
ATOM     59  H   LIG d   1      11.606   2.568  -7.122  0.00  0.00     0.039 H 
ENDBRANCH  49  52
ENDBRANCH   7  48
TORSDOF 4
ENDMDL
MODEL 9
REMARK VINA RESULT:      -6.2      2.687      8.379
REMARK  4 active torsions:
REMARK  status: ('A' for Active; 'I' for Inactive)
REMARK    1  A    between atoms: C_7  and  N_8 
REMARK       I    between atoms: N_8  and  C_9 
REMARK    2  A    between atoms: C_9  and  C_11 
REMARK    3  A    between atoms: C_22  and  C_23 
REMARK    4  A    between atoms: C_22  and  N_58 
ROOT
ATOM      1  C   LIG d   1       5.051  -1.971  -6.701  0.00  0.00    -0.034 A 
ATOM      2  C   LIG d   1       5.452  -2.053  -8.039  0.00  0.00    -0.040 A 
ATOM      3  C   LIG d   1       4.992  -1.166  -8.958  0.00  0.00     0.030 A 
ATOM      4  N   LIG d   1       4.177  -0.146  -8.585  0.00  0.00    -0.310 N 
ATOM      5  C   LIG d   1       3.711  -0.085  -7.313  0.00  0.00     0.273 A 
ATOM      6  O   LIG d   1       2.888   0.764  -7.010  0.00  0.00    -0.266 OA
ATOM      7  C   LIG d   1       4.167  -0.992  -6.336  0.00  0.00     0.099 A 
ATOM      8  C   LIG d   1       3.771   0.931  -9.489  0.00  0.00     0.034 C 
ATOM      9  C   LIG d   1       3.995   0.578 -10.948  0.00  0.00     0.018 C 
ATOM     10  H   LIG d   1       3.940   1.501 -11.528  0.00  0.00     0.037 H 
ATOM     11  C   LIG d   1       5.396  -0.015 -11.120  0.00  0.00    -0.031 C 
ATOM     12  C   LIG d   1       5.418  -1.365 -10.395  0.00  0.00     0.040 C 
ATOM     13  H   LIG d   1       6.411  -1.812 -10.450  0.00  0.00     0.042 H 
ATOM     14  C   LIG d   1       4.377  -2.281 -11.062  0.00  0.00    -0.024 C 
ATOM     15  C   LIG d   1       2.933  -0.379 -11.471  0.00  0.00    -0.027 C 
ATOM     16  H   LIG d   1       5.431  -2.668  -5.970  0.00  0.00     0.064 H 
ATOM     17  H   LIG d   1       6.136  -2.830  -8.345  0.00  0.00     0.064 H 
ATOM     18  H   LIG d   1       4.345   1.827  -9.250  0.00  0.00     0.050 H 
ATOM     19  H   LIG d   1       2.713   1.141  -9.334  0.00  0.00     0.050 H 
ATOM     20  H   LIG d   1       6.137   0.653 -10.682  0.00  0.00     0.028 H 
ATOM     21  H   LIG d   1       5.609  -0.160 -12.179  0.00  0.00     0.028 H 
ATOM     22  H   LIG d   1       4.573  -2.343 -12.132  0.00  0.00     0.082 H 
ATOM     23  H   LIG d   1       4.423  -3.275 -10.619  0.00  0.00     0.082 H 
ATOM     24  H   LIG d   1       3.053  -0.490 -12.548  0.00  0.00     0.082 H 
ATOM     25  H   LIG d   1       1.947   0.036 -11.261  0.00  0.00     0.082 H 
ATOM     26  N   LIG d   1       3.042  -1.692 -10.806  0.00  0.00     0.236 N 
ATOM     27  H   LIG d   1       2.924  -1.564  -9.793  0.00  0.00     0.203 HD
ENDROOT
BRANCH  26  28
ATOM     28  C   LIG d   1       1.987  -2.599 -11.301  0.00  0.00    -0.029 C 
ATOM     29  H   LIG d   1       2.407  -3.596 -11.426  0.00  0.00     0.082 H 
ATOM     30  H   LIG d   1       1.179  -2.633 -10.570  0.00  0.00     0.082 H 
BRANCH  28  31
ATOM     31  C   LIG d   1       1.440  -2.104 -12.642  0.00  0.00    -0.001 C 
ATOM     32  C   LIG d   1       2.121  -2.863 -13.782  0.00  0.00    -0.045 C 
ATOM     33  C   LIG d   1       1.574  -2.369 -15.122  0.00  0.00    -0.053 C 
ATOM     34  H   LIG d   1       3.197  -2.690 -13.742  0.00  0.00     0.027 H 
ATOM     35  H   LIG d   1       1.921  -3.930 -13.678  0.00  0.00     0.027 H 
ATOM     36  C   LIG d   1       0.065  -2.612 -15.178  0.00  0.00    -0.053 C 
ATOM     37  H   LIG d   1       1.774  -1.302 -15.226  0.00  0.00     0.026 H 
ATOM     38  H   LIG d   1       2.060  -2.910 -15.935  0.00  0.00     0.026 H 
ATOM     39  C   LIG d   1      -0.617  -1.853 -14.038  0.00  0.00    -0.053 C 
ATOM     40  H   LIG d   1      -0.325  -2.260 -16.133  0.00  0.00     0.026 H 
ATOM     41  H   LIG d   1      -0.136  -3.678 -15.075  0.00  0.00     0.026 H 
ATOM     42  C   LIG d   1      -0.070  -2.347 -12.697  0.00  0.00    -0.045 C 
ATOM     43  H   LIG d   1      -0.417  -0.786 -14.141  0.00  0.00     0.026 H 
ATOM     44  H   LIG d   1      -1.692  -2.026 -14.078  0.00  0.00     0.026 H 
ATOM     45  H   LIG d   1      -0.270  -3.414 -12.594  0.00  0.00     0.027 H 
ATOM     46  H   LIG d   1      -0.555  -1.806 -11.885  0.00  0.00     0.027 H 
ATOM     47  H   LIG d   1       1.640  -1.038 -12.745  0.00  0.00     0.035 H 
ENDBRANCH  28  31
ENDBRANCH  26  28
BRANCH   7  48
ATOM     48  N   LIG d   1       3.724  -0.891  -5.010  0.00  0.00    -0.281 N 
ATOM     49  C   LIG d   1       4.425  -0.163  -4.118  0.00  0.00     0.220 C 
ATOM     50  O   LIG d   1       5.486   0.329  -4.438  0.00  0.00    -0.275 OA
ATOM     51  H   LIG d   1       2.913  -1.346  -4.735  0.00  0.00     0.155 HD
BRANCH  49  52
ATOM     52  C   LIG d   1       3.890   0.039  -2.724  0.00  0.00     0.036 A 
ATOM     53  C   LIG d   1       4.749   0.844  -1.748  0.00  0.00    -0.041 A 
ATOM     54  C   LIG d   1       3.472   1.456  -2.326  0.00  0.00    -0.041 A 
ATOM     55  H   LIG d   1       4.734   0.546  -0.699  0.00  0.00     0.027 H 
ATOM     56  H   LIG d   1       5.702   1.227  -2.114  0.00  0.00     0.027 H 
ATOM     57  H   LIG d   1       3.584   2.242  -3.073  0.00  0.00     0.027 H 
ATOM     58  H   LIG d   1       2.616   1.559  -1.659  0.00  0.00     0.027 H 
ATOM     59  H   LIG d   1       3.309  -0.791  -2.319  0.00  0.00     0.039 H 
ENDBRANCH  49  52
ENDBRANCH   7  48
TORSDOF 4
ENDMDL
MODEL 10
REMARK VINA RESULT:      -6.1      2.608      6.224
REMARK  4 active torsions:
REMARK  status: ('A' for Active; 'I' for Inactive)
REMARK    1  A    between atoms: C_7  and  N_8 
REMARK       I    between atoms: N_8  and  C_9 
REMARK    2  A    between atoms: C_9  and  C_11 
REMARK    3  A    between atoms: C_22  and  C_23 
REMARK    4  A    between atoms: C_22  and  N_58 
ROOT
ATOM      1  C   LIG d   1       7.575  -1.026  -8.233  0.00  0.00    -0.034 A 
ATOM      2  C   LIG d   1       6.247  -1.314  -8.565  0.00  0.00    -0.040 A 
ATOM      3  C   LIG d   1       5.364  -0.317  -8.825  0.00  0.00     0.030 A 
ATOM      4  N   LIG d   1       5.768   0.980  -8.826  0.00  0.00    -0.310 N 
ATOM      5  C   LIG d   1       7.027   1.294  -8.435  0.00  0.00     0.273 A 
ATOM      6  O   LIG d   1       7.351   2.466  -8.324  0.00  0.00    -0.266 OA
ATOM      7  C   LIG d   1       7.967   0.283  -8.155  0.00  0.00     0.099 A 
ATOM      8  C   LIG d   1       4.911   2.088  -9.248  0.00  0.00     0.034 C 
ATOM      9  C   LIG d   1       3.442   1.707  -9.278  0.00  0.00     0.018 C 
ATOM     10  H   LIG d   1       2.911   2.466  -9.855  0.00  0.00     0.037 H 
ATOM     11  C   LIG d   1       3.279   0.362  -9.990  0.00  0.00    -0.031 C 
ATOM     12  C   LIG d   1       3.931  -0.710  -9.108  0.00  0.00     0.040 C 
ATOM     13  H   LIG d   1       3.881  -1.685  -9.591  0.00  0.00     0.042 H 
ATOM     14  C   LIG d   1       3.187  -0.736  -7.762  0.00  0.00    -0.024 C 
ATOM     15  C   LIG d   1       2.839   1.659  -7.882  0.00  0.00    -0.027 C 
ATOM     16  H   LIG d   1       8.279  -1.822  -8.042  0.00  0.00     0.064 H 
ATOM     17  H   LIG d   1       5.920  -2.342  -8.615  0.00  0.00     0.064 H 
ATOM     18  H   LIG d   1       5.213   2.407 -10.246  0.00  0.00     0.050 H 
ATOM     19  H   LIG d   1       5.046   2.922  -8.559  0.00  0.00     0.050 H 
ATOM     20  H   LIG d   1       3.773   0.393 -10.960  0.00  0.00     0.028 H 
ATOM     21  H   LIG d   1       2.220   0.137 -10.121  0.00  0.00     0.028 H 
ATOM     22  H   LIG d   1       2.121  -0.885  -7.933  0.00  0.00     0.082 H 
ATOM     23  H   LIG d   1       3.578  -1.541  -7.140  0.00  0.00     0.082 H 
ATOM     24  H   LIG d   1       1.761   1.521  -7.964  0.00  0.00     0.082 H 
ATOM     25  H   LIG d   1       3.042   2.602  -7.374  0.00  0.00     0.082 H 
ATOM     26  N   LIG d   1       3.436   0.563  -7.094  0.00  0.00     0.236 N 
ATOM     27  H   LIG d   1       4.450   0.713  -7.027  0.00  0.00     0.203 HD
ENDROOT
BRANCH  26  28
ATOM     28  C   LIG d   1       2.863   0.549  -5.733  0.00  0.00    -0.029 C 
ATOM     29  H   LIG d   1       3.027   1.521  -5.270  0.00  0.00     0.082 H 
ATOM     30  H   LIG d   1       1.792   0.355  -5.803  0.00  0.00     0.082 H 
BRANCH  28  31
ATOM     31  C   LIG d   1       3.522  -0.540  -4.883  0.00  0.00    -0.001 C 
ATOM     32  C   LIG d   1       4.990  -0.180  -4.646  0.00  0.00    -0.045 C 
ATOM     33  C   LIG d   1       5.650  -1.267  -3.796  0.00  0.00    -0.053 C 
ATOM     34  H   LIG d   1       5.505  -0.105  -5.603  0.00  0.00     0.027 H 
ATOM     35  H   LIG d   1       5.051   0.776  -4.124  0.00  0.00     0.027 H 
ATOM     36  C   LIG d   1       4.927  -1.374  -2.451  0.00  0.00    -0.053 C 
ATOM     37  H   LIG d   1       5.590  -2.223  -4.317  0.00  0.00     0.026 H 
ATOM     38  H   LIG d   1       6.696  -1.012  -3.626  0.00  0.00     0.026 H 
ATOM     39  C   LIG d   1       3.459  -1.733  -2.689  0.00  0.00    -0.053 C 
ATOM     40  H   LIG d   1       5.396  -2.149  -1.846  0.00  0.00     0.026 H 
ATOM     41  H   LIG d   1       4.987  -0.419  -1.930  0.00  0.00     0.026 H 
ATOM     42  C   LIG d   1       2.798  -0.645  -3.539  0.00  0.00    -0.045 C 
ATOM     43  H   LIG d   1       3.398  -2.689  -3.211  0.00  0.00     0.026 H 
ATOM     44  H   LIG d   1       2.944  -1.808  -1.731  0.00  0.00     0.026 H 
ATOM     45  H   LIG d   1       2.859   0.310  -3.018  0.00  0.00     0.027 H 
ATOM     46  H   LIG d   1       1.753  -0.901  -3.709  0.00  0.00     0.027 H 
ATOM     47  H   LIG d   1       3.462  -1.495  -5.404  0.00  0.00     0.035 H 
ENDBRANCH  28  31
ENDBRANCH  26  28
BRANCH   7  48
ATOM     48  N   LIG d   1       9.283   0.612  -7.803  0.00  0.00    -0.281 N 
ATOM     49  C   LIG d   1       9.642   0.662  -6.505  0.00  0.00     0.220 C 
ATOM     50  O   LIG d   1       8.806   0.513  -5.639  0.00  0.00    -0.275 OA
ATOM     51  H   LIG d   1       9.935   0.803  -8.495  0.00  0.00     0.155 HD
BRANCH  49  52
ATOM     52  C   LIG d   1      11.081   0.904  -6.130  0.00  0.00     0.036 A 
ATOM     53  C   LIG d   1      11.962   1.636  -7.143  0.00  0.00    -0.041 A 
ATOM     54  C   LIG d   1      11.510   2.349  -5.867  0.00  0.00    -0.041 A 
ATOM     55  H   LIG d   1      13.008   1.338  -7.210  0.00  0.00     0.027 H 
ATOM     56  H   LIG d   1      11.501   1.943  -8.082  0.00  0.00     0.027 H 
ATOM     57  H   LIG d   1      10.751   3.124  -5.965  0.00  0.00     0.027 H 
ATOM     58  H   LIG d   1      12.259   2.518  -5.093  0.00  0.00     0.027 H 
ATOM     59  H   LIG d   1      11.547   0.122  -5.529  0.00  0.00     0.039 H 
ENDBRANCH  49  52
ENDBRANCH   7  48
TORSDOF 4
ENDMDL
