MODEL 1
REMARK VINA RESULT:      -4.6      0.000      0.000
REMARK  6 active torsions:
REMARK  status: ('A' for Active; 'I' for Inactive)
REMARK    1  A    between atoms: C_1  and  C_2 
REMARK    2  A    between atoms: C_4  and  O_12 
REMARK    3  A    between atoms: C_6  and  O_10 
REMARK    4  A    between atoms: C_7  and  C_8 
REMARK    5  A    between atoms: O_10  and  C_11 
REMARK    6  A    between atoms: O_12  and  C_13 
ROOT
ATOM      1  C   LIG d   1       4.296  -0.980  -3.027  0.00  0.00    -0.033 A 
ATOM      2  C   LIG d   1       5.054  -2.059  -3.382  0.00  0.00    -0.016 A 
ATOM      3  C   LIG d   1       6.405  -1.904  -3.677  0.00  0.00     0.124 A 
ATOM      4  C   LIG d   1       6.998  -0.651  -3.613  0.00  0.00     0.022 A 
ATOM      5  C   LIG d   1       6.243   0.453  -3.256  0.00  0.00     0.134 A 
ATOM      6  C   LIG d   1       4.876   0.294  -2.964  0.00  0.00     0.059 A 
ATOM      7  H   LIG d   1       4.601  -3.038  -3.433  0.00  0.00     0.066 H 
ATOM      8  H   LIG d   1       8.048  -0.536  -3.843  0.00  0.00     0.069 H 
ENDROOT
BRANCH   3   9
ATOM      9  O   LIG d   1       7.148  -2.984  -4.028  0.00  0.00    -0.495 OA
BRANCH   9  10
ATOM     10  C   LIG d   1       6.607  -3.846  -5.032  0.00  0.00     0.079 C 
ATOM     11  H   LIG d   1       6.220  -3.245  -5.856  0.00  0.00     0.066 H 
ATOM     12  H   LIG d   1       7.389  -4.509  -5.401  0.00  0.00     0.066 H 
ATOM     13  H   LIG d   1       5.799  -4.439  -4.604  0.00  0.00     0.066 H 
ENDBRANCH   9  10
ENDBRANCH   3   9
BRANCH   1  14
ATOM     14  C   LIG d   1       2.834  -1.159  -2.710  0.00  0.00    -0.039 C 
ATOM     15  H   LIG d   1       2.728  -1.600  -1.719  0.00  0.00     0.028 H 
ATOM     16  H   LIG d   1       2.336  -0.190  -2.732  0.00  0.00     0.028 H 
ATOM     17  H   LIG d   1       2.380  -1.818  -3.451  0.00  0.00     0.028 H 
ENDBRANCH   1  14
BRANCH   5  18
ATOM     18  O   LIG d   1       6.816   1.679  -3.192  0.00  0.00    -0.494 OA
BRANCH  18  19
ATOM     19  C   LIG d   1       8.082   1.839  -3.836  0.00  0.00     0.079 C 
ATOM     20  H   LIG d   1       8.528   2.785  -3.529  0.00  0.00     0.066 H 
ATOM     21  H   LIG d   1       8.739   1.017  -3.553  0.00  0.00     0.066 H 
ATOM     22  H   LIG d   1       7.941   1.837  -4.917  0.00  0.00     0.066 H 
ENDBRANCH  18  19
ENDBRANCH   5  18
BRANCH   6  23
ATOM     23  C   LIG d   1       4.064   1.454  -2.590  0.00  0.00     0.154 C 
ATOM     24  O   LIG d   1       3.619   2.185  -3.450  0.00  0.00    -0.296 OA
ATOM     25  H   LIG d   1       3.861   1.659  -1.549  0.00  0.00     0.108 H 
ENDBRANCH   6  23
TORSDOF 6
ENDMDL
MODEL 2
REMARK VINA RESULT:      -4.4      1.714      3.743
REMARK  6 active torsions:
REMARK  status: ('A' for Active; 'I' for Inactive)
REMARK    1  A    between atoms: C_1  and  C_2 
REMARK    2  A    between atoms: C_4  and  O_12 
REMARK    3  A    between atoms: C_6  and  O_10 
REMARK    4  A    between atoms: C_7  and  C_8 
REMARK    5  A    between atoms: O_10  and  C_11 
REMARK    6  A    between atoms: O_12  and  C_13 
ROOT
ATOM      1  C   LIG d   1       5.231   0.522  -2.682  0.00  0.00    -0.033 A 
ATOM      2  C   LIG d   1       6.125   1.413  -3.201  0.00  0.00    -0.016 A 
ATOM      3  C   LIG d   1       7.229   0.963  -3.920  0.00  0.00     0.124 A 
ATOM      4  C   LIG d   1       7.432  -0.395  -4.120  0.00  0.00     0.022 A 
ATOM      5  C   LIG d   1       6.533  -1.310  -3.599  0.00  0.00     0.134 A 
ATOM      6  C   LIG d   1       5.422  -0.854  -2.867  0.00  0.00     0.059 A 
ATOM      7  H   LIG d   1       5.976   2.472  -3.052  0.00  0.00     0.066 H 
ATOM      8  H   LIG d   1       8.289  -0.739  -4.679  0.00  0.00     0.069 H 
ENDROOT
BRANCH   3   9
ATOM      9  O   LIG d   1       8.112   1.859  -4.432  0.00  0.00    -0.495 OA
BRANCH   9  10
ATOM     10  C   LIG d   1       9.241   2.192  -3.622  0.00  0.00     0.079 C 
ATOM     11  H   LIG d   1       9.058   1.876  -2.595  0.00  0.00     0.066 H 
ATOM     12  H   LIG d   1      10.126   1.684  -4.007  0.00  0.00     0.066 H 
ATOM     13  H   LIG d   1       9.401   3.270  -3.649  0.00  0.00     0.066 H 
ENDBRANCH   9  10
ENDBRANCH   3   9
BRANCH   1  14
ATOM     14  C   LIG d   1       4.039   1.019  -1.904  0.00  0.00    -0.039 C 
ATOM     15  H   LIG d   1       3.979   0.490  -0.954  0.00  0.00     0.028 H 
ATOM     16  H   LIG d   1       4.147   2.088  -1.719  0.00  0.00     0.028 H 
ATOM     17  H   LIG d   1       3.130   0.840  -2.479  0.00  0.00     0.028 H 
ENDBRANCH   1  14
BRANCH   5  18
ATOM     18  O   LIG d   1       6.726  -2.639  -3.790  0.00  0.00    -0.494 OA
BRANCH  18  19
ATOM     19  C   LIG d   1       8.078  -3.096  -3.857  0.00  0.00     0.079 C 
ATOM     20  H   LIG d   1       8.213  -3.930  -3.168  0.00  0.00     0.066 H 
ATOM     21  H   LIG d   1       8.300  -3.423  -4.873  0.00  0.00     0.066 H 
ATOM     22  H   LIG d   1       8.749  -2.283  -3.581  0.00  0.00     0.066 H 
ENDBRANCH  18  19
ENDBRANCH   5  18
BRANCH   6  23
ATOM     23  C   LIG d   1       4.467  -1.811  -2.305  0.00  0.00     0.154 C 
ATOM     24  O   LIG d   1       3.597  -2.283  -3.007  0.00  0.00    -0.296 OA
ATOM     25  H   LIG d   1       4.535  -2.096  -1.265  0.00  0.00     0.108 H 
ENDBRANCH   6  23
TORSDOF 6
ENDMDL
MODEL 3
REMARK VINA RESULT:      -4.2      2.315      2.979
REMARK  6 active torsions:
REMARK  status: ('A' for Active; 'I' for Inactive)
REMARK    1  A    between atoms: C_1  and  C_2 
REMARK    2  A    between atoms: C_4  and  O_12 
REMARK    3  A    between atoms: C_6  and  O_10 
REMARK    4  A    between atoms: C_7  and  C_8 
REMARK    5  A    between atoms: O_10  and  C_11 
REMARK    6  A    between atoms: O_12  and  C_13 
ROOT
ATOM      1  C   LIG d   1       4.361  -1.601  -3.422  0.00  0.00    -0.033 A 
ATOM      2  C   LIG d   1       4.884  -2.684  -4.066  0.00  0.00    -0.016 A 
ATOM      3  C   LIG d   1       4.948  -2.715  -5.456  0.00  0.00     0.124 A 
ATOM      4  C   LIG d   1       4.481  -1.643  -6.203  0.00  0.00     0.022 A 
ATOM      5  C   LIG d   1       3.947  -0.537  -5.565  0.00  0.00     0.134 A 
ATOM      6  C   LIG d   1       3.878  -0.511  -4.160  0.00  0.00     0.059 A 
ATOM      7  H   LIG d   1       5.251  -3.523  -3.493  0.00  0.00     0.066 H 
ATOM      8  H   LIG d   1       4.533  -1.671  -7.282  0.00  0.00     0.069 H 
ENDROOT
BRANCH   3   9
ATOM      9  O   LIG d   1       5.471  -3.798  -6.085  0.00  0.00    -0.495 OA
BRANCH   9  10
ATOM     10  C   LIG d   1       6.461  -4.545  -5.375  0.00  0.00     0.079 C 
ATOM     11  H   LIG d   1       7.145  -5.009  -6.086  0.00  0.00     0.066 H 
ATOM     12  H   LIG d   1       7.018  -3.876  -4.718  0.00  0.00     0.066 H 
ATOM     13  H   LIG d   1       5.975  -5.317  -4.779  0.00  0.00     0.066 H 
ENDBRANCH   9  10
ENDBRANCH   3   9
BRANCH   1  14
ATOM     14  C   LIG d   1       4.296  -1.578  -1.916  0.00  0.00    -0.039 C 
ATOM     15  H   LIG d   1       4.163  -2.593  -1.543  0.00  0.00     0.028 H 
ATOM     16  H   LIG d   1       5.223  -1.164  -1.519  0.00  0.00     0.028 H 
ATOM     17  H   LIG d   1       3.456  -0.961  -1.599  0.00  0.00     0.028 H 
ENDBRANCH   1  14
BRANCH   5  18
ATOM     18  O   LIG d   1       3.489   0.514  -6.289  0.00  0.00    -0.494 OA
BRANCH  18  19
ATOM     19  C   LIG d   1       2.877   0.218  -7.547  0.00  0.00     0.079 C 
ATOM     20  H   LIG d   1       3.271  -0.725  -7.929  0.00  0.00     0.066 H 
ATOM     21  H   LIG d   1       1.798   0.134  -7.414  0.00  0.00     0.066 H 
ATOM     22  H   LIG d   1       3.096   1.017  -8.254  0.00  0.00     0.066 H 
ENDBRANCH  18  19
ENDBRANCH   5  18
BRANCH   6  23
ATOM     23  C   LIG d   1       3.310   0.650  -3.472  0.00  0.00     0.154 C 
ATOM     24  O   LIG d   1       3.998   1.627  -3.263  0.00  0.00    -0.296 OA
ATOM     25  H   LIG d   1       2.279   0.636  -3.148  0.00  0.00     0.108 H 
ENDBRANCH   6  23
TORSDOF 6
ENDMDL
MODEL 4
REMARK VINA RESULT:      -4.0      1.849      2.678
REMARK  6 active torsions:
REMARK  status: ('A' for Active; 'I' for Inactive)
REMARK    1  A    between atoms: C_1  and  C_2 
REMARK    2  A    between atoms: C_4  and  O_12 
REMARK    3  A    between atoms: C_6  and  O_10 
REMARK    4  A    between atoms: C_7  and  C_8 
REMARK    5  A    between atoms: O_10  and  C_11 
REMARK    6  A    between atoms: O_12  and  C_13 
ROOT
ATOM      1  C   LIG d   1       4.941  -1.401  -2.983  0.00  0.00    -0.033 A 
ATOM      2  C   LIG d   1       4.387  -2.586  -3.371  0.00  0.00    -0.016 A 
ATOM      3  C   LIG d   1       4.932  -3.303  -4.433  0.00  0.00     0.124 A 
ATOM      4  C   LIG d   1       6.045  -2.822  -5.107  0.00  0.00     0.022 A 
ATOM      5  C   LIG d   1       6.617  -1.621  -4.725  0.00  0.00     0.134 A 
ATOM      6  C   LIG d   1       6.061  -0.895  -3.657  0.00  0.00     0.059 A 
ATOM      7  H   LIG d   1       3.521  -2.969  -2.852  0.00  0.00     0.066 H 
ATOM      8  H   LIG d   1       6.464  -3.383  -5.930  0.00  0.00     0.069 H 
ENDROOT
BRANCH   3   9
ATOM      9  O   LIG d   1       4.372  -4.481  -4.809  0.00  0.00    -0.495 OA
BRANCH   9  10
ATOM     10  C   LIG d   1       4.304  -4.749  -6.211  0.00  0.00     0.079 C 
ATOM     11  H   LIG d   1       5.300  -4.989  -6.584  0.00  0.00     0.066 H 
ATOM     12  H   LIG d   1       3.636  -5.592  -6.387  0.00  0.00     0.066 H 
ATOM     13  H   LIG d   1       3.922  -3.869  -6.730  0.00  0.00     0.066 H 
ENDBRANCH   9  10
ENDBRANCH   3   9
BRANCH   1  14
ATOM     14  C   LIG d   1       4.343  -0.632  -1.833  0.00  0.00    -0.039 C 
ATOM     15  H   LIG d   1       3.313  -0.366  -2.070  0.00  0.00     0.028 H 
ATOM     16  H   LIG d   1       4.362  -1.248  -0.934  0.00  0.00     0.028 H 
ATOM     17  H   LIG d   1       4.923   0.276  -1.663  0.00  0.00     0.028 H 
ENDBRANCH   1  14
BRANCH   5  18
ATOM     18  O   LIG d   1       7.704  -1.145  -5.381  0.00  0.00    -0.494 OA
BRANCH  18  19
ATOM     19  C   LIG d   1       7.663  -1.168  -6.809  0.00  0.00     0.079 C 
ATOM     20  H   LIG d   1       6.771  -0.645  -7.154  0.00  0.00     0.066 H 
ATOM     21  H   LIG d   1       8.551  -0.675  -7.205  0.00  0.00     0.066 H 
ATOM     22  H   LIG d   1       7.635  -2.201  -7.154  0.00  0.00     0.066 H 
ENDBRANCH  18  19
ENDBRANCH   5  18
BRANCH   6  23
ATOM     23  C   LIG d   1       6.652   0.381  -3.246  0.00  0.00     0.154 C 
ATOM     24  O   LIG d   1       6.348   1.404  -3.823  0.00  0.00    -0.296 OA
ATOM     25  H   LIG d   1       7.360   0.411  -2.430  0.00  0.00     0.108 H 
ENDBRANCH   6  23
TORSDOF 6
ENDMDL
MODEL 5
REMARK VINA RESULT:      -4.0      1.691      3.608
REMARK  6 active torsions:
REMARK  status: ('A' for Active; 'I' for Inactive)
REMARK    1  A    between atoms: C_1  and  C_2 
REMARK    2  A    between atoms: C_4  and  O_12 
REMARK    3  A    between atoms: C_6  and  O_10 
REMARK    4  A    between atoms: C_7  and  C_8 
REMARK    5  A    between atoms: O_10  and  C_11 
REMARK    6  A    between atoms: O_12  and  C_13 
ROOT
ATOM      1  C   LIG d   1       6.432  -1.749  -4.032  0.00  0.00    -0.033 A 
ATOM      2  C   LIG d   1       7.445  -0.965  -4.501  0.00  0.00    -0.016 A 
ATOM      3  C   LIG d   1       7.539   0.370  -4.117  0.00  0.00     0.124 A 
ATOM      4  C   LIG d   1       6.604   0.919  -3.251  0.00  0.00     0.022 A 
ATOM      5  C   LIG d   1       5.569   0.136  -2.767  0.00  0.00     0.134 A 
ATOM      6  C   LIG d   1       5.473  -1.210  -3.162  0.00  0.00     0.059 A 
ATOM      7  H   LIG d   1       8.179  -1.383  -5.175  0.00  0.00     0.066 H 
ATOM      8  H   LIG d   1       6.681   1.955  -2.955  0.00  0.00     0.069 H 
ENDROOT
BRANCH   3   9
ATOM      9  O   LIG d   1       8.553   1.139  -4.590  0.00  0.00    -0.495 OA
BRANCH   9  10
ATOM     10  C   LIG d   1       8.341   2.552  -4.607  0.00  0.00     0.079 C 
ATOM     11  H   LIG d   1       8.891   3.012  -3.785  0.00  0.00     0.066 H 
ATOM     12  H   LIG d   1       8.695   2.961  -5.554  0.00  0.00     0.066 H 
ATOM     13  H   LIG d   1       7.277   2.762  -4.496  0.00  0.00     0.066 H 
ENDBRANCH   9  10
ENDBRANCH   3   9
BRANCH   1  14
ATOM     14  C   LIG d   1       6.339  -3.192  -4.454  0.00  0.00    -0.039 C 
ATOM     15  H   LIG d   1       6.146  -3.815  -3.582  0.00  0.00     0.028 H 
ATOM     16  H   LIG d   1       5.527  -3.309  -5.172  0.00  0.00     0.028 H 
ATOM     17  H   LIG d   1       7.279  -3.496  -4.917  0.00  0.00     0.028 H 
ENDBRANCH   1  14
BRANCH   5  18
ATOM     18  O   LIG d   1       4.652   0.666  -1.921  0.00  0.00    -0.494 OA
BRANCH  18  19
ATOM     19  C   LIG d   1       3.634   1.487  -2.499  0.00  0.00     0.079 C 
ATOM     20  H   LIG d   1       2.972   0.870  -3.107  0.00  0.00     0.066 H 
ATOM     21  H   LIG d   1       3.060   1.965  -1.705  0.00  0.00     0.066 H 
ATOM     22  H   LIG d   1       4.096   2.251  -3.124  0.00  0.00     0.066 H 
ENDBRANCH  18  19
ENDBRANCH   5  18
BRANCH   6  23
ATOM     23  C   LIG d   1       4.381  -2.048  -2.663  0.00  0.00     0.154 C 
ATOM     24  O   LIG d   1       3.296  -2.016  -3.205  0.00  0.00    -0.296 OA
ATOM     25  H   LIG d   1       4.539  -2.693  -1.811  0.00  0.00     0.108 H 
ENDBRANCH   6  23
TORSDOF 6
ENDMDL
MODEL 6
REMARK VINA RESULT:      -3.9      3.175      4.622
REMARK  6 active torsions:
REMARK  status: ('A' for Active; 'I' for Inactive)
REMARK    1  A    between atoms: C_1  and  C_2 
REMARK    2  A    between atoms: C_4  and  O_12 
REMARK    3  A    between atoms: C_6  and  O_10 
REMARK    4  A    between atoms: C_7  and  C_8 
REMARK    5  A    between atoms: O_10  and  C_11 
REMARK    6  A    between atoms: O_12  and  C_13 
ROOT
ATOM      1  C   LIG d   1       4.533  -1.680  -5.753  0.00  0.00    -0.033 A 
ATOM      2  C   LIG d   1       4.069  -0.978  -6.827  0.00  0.00    -0.016 A 
ATOM      3  C   LIG d   1       3.208   0.101  -6.645  0.00  0.00     0.124 A 
ATOM      4  C   LIG d   1       2.812   0.475  -5.369  0.00  0.00     0.022 A 
ATOM      5  C   LIG d   1       3.273  -0.228  -4.269  0.00  0.00     0.134 A 
ATOM      6  C   LIG d   1       4.138  -1.321  -4.457  0.00  0.00     0.059 A 
ATOM      7  H   LIG d   1       4.373  -1.260  -7.824  0.00  0.00     0.066 H 
ATOM      8  H   LIG d   1       2.144   1.313  -5.233  0.00  0.00     0.069 H 
ENDROOT
BRANCH   3   9
ATOM      9  O   LIG d   1       2.755   0.792  -7.722  0.00  0.00    -0.495 OA
BRANCH   9  10
ATOM     10  C   LIG d   1       2.434   0.035  -8.891  0.00  0.00     0.079 C 
ATOM     11  H   LIG d   1       2.725   0.597  -9.778  0.00  0.00     0.066 H 
ATOM     12  H   LIG d   1       2.971  -0.913  -8.868  0.00  0.00     0.066 H 
ATOM     13  H   LIG d   1       1.361  -0.156  -8.916  0.00  0.00     0.066 H 
ENDBRANCH   9  10
ENDBRANCH   3   9
BRANCH   1  14
ATOM     14  C   LIG d   1       5.465  -2.846  -5.961  0.00  0.00    -0.039 C 
ATOM     15  H   LIG d   1       5.201  -3.649  -5.274  0.00  0.00     0.028 H 
ATOM     16  H   LIG d   1       5.377  -3.202  -6.987  0.00  0.00     0.028 H 
ATOM     17  H   LIG d   1       6.491  -2.528  -5.773  0.00  0.00     0.028 H 
ENDBRANCH   1  14
BRANCH   5  18
ATOM     18  O   LIG d   1       2.889   0.132  -3.020  0.00  0.00    -0.494 OA
BRANCH  18  19
ATOM     19  C   LIG d   1       3.571   1.238  -2.425  0.00  0.00     0.079 C 
ATOM     20  H   LIG d   1       4.203   0.879  -1.612  0.00  0.00     0.066 H 
ATOM     21  H   LIG d   1       4.189   1.730  -3.176  0.00  0.00     0.066 H 
ATOM     22  H   LIG d   1       2.841   1.945  -2.032  0.00  0.00     0.066 H 
ENDBRANCH  18  19
ENDBRANCH   5  18
BRANCH   6  23
ATOM     23  C   LIG d   1       4.629  -2.078  -3.303  0.00  0.00     0.154 C 
ATOM     24  O   LIG d   1       3.911  -2.895  -2.763  0.00  0.00    -0.296 OA
ATOM     25  H   LIG d   1       5.629  -1.909  -2.931  0.00  0.00     0.108 H 
ENDBRANCH   6  23
TORSDOF 6
ENDMDL
MODEL 7
REMARK VINA RESULT:      -3.9      3.151      4.912
REMARK  6 active torsions:
REMARK  status: ('A' for Active; 'I' for Inactive)
REMARK    1  A    between atoms: C_1  and  C_2 
REMARK    2  A    between atoms: C_4  and  O_12 
REMARK    3  A    between atoms: C_6  and  O_10 
REMARK    4  A    between atoms: C_7  and  C_8 
REMARK    5  A    between atoms: O_10  and  C_11 
REMARK    6  A    between atoms: O_12  and  C_13 
ROOT
ATOM      1  C   LIG d   1       3.257  -0.638  -4.229  0.00  0.00    -0.033 A 
ATOM      2  C   LIG d   1       2.777   0.369  -5.016  0.00  0.00    -0.016 A 
ATOM      3  C   LIG d   1       3.209   0.500  -6.333  0.00  0.00     0.124 A 
ATOM      4  C   LIG d   1       4.132  -0.391  -6.861  0.00  0.00     0.022 A 
ATOM      5  C   LIG d   1       4.628  -1.417  -6.074  0.00  0.00     0.134 A 
ATOM      6  C   LIG d   1       4.194  -1.544  -4.743  0.00  0.00     0.059 A 
ATOM      7  H   LIG d   1       2.057   1.067  -4.614  0.00  0.00     0.066 H 
ATOM      8  H   LIG d   1       4.464  -0.286  -7.883  0.00  0.00     0.069 H 
ENDROOT
BRANCH   3   9
ATOM      9  O   LIG d   1       2.724   1.505  -7.105  0.00  0.00    -0.495 OA
BRANCH   9  10
ATOM     10  C   LIG d   1       3.026   1.454  -8.501  0.00  0.00     0.079 C 
ATOM     11  H   LIG d   1       4.046   1.094  -8.639  0.00  0.00     0.066 H 
ATOM     12  H   LIG d   1       2.331   0.777  -8.998  0.00  0.00     0.066 H 
ATOM     13  H   LIG d   1       2.930   2.452  -8.929  0.00  0.00     0.066 H 
ENDBRANCH   9  10
ENDBRANCH   3   9
BRANCH   1  14
ATOM     14  C   LIG d   1       2.782  -0.771  -2.805  0.00  0.00    -0.039 C 
ATOM     15  H   LIG d   1       2.355  -1.762  -2.655  0.00  0.00     0.028 H 
ATOM     16  H   LIG d   1       3.624  -0.632  -2.127  0.00  0.00     0.028 H 
ATOM     17  H   LIG d   1       2.025  -0.013  -2.603  0.00  0.00     0.028 H 
ENDBRANCH   1  14
BRANCH   5  18
ATOM     18  O   LIG d   1       5.530  -2.291  -6.585  0.00  0.00    -0.494 OA
BRANCH  18  19
ATOM     19  C   LIG d   1       5.067  -3.185  -7.599  0.00  0.00     0.079 C 
ATOM     20  H   LIG d   1       4.536  -4.017  -7.135  0.00  0.00     0.066 H 
ATOM     21  H   LIG d   1       4.394  -2.653  -8.271  0.00  0.00     0.066 H 
ATOM     22  H   LIG d   1       5.918  -3.567  -8.162  0.00  0.00     0.066 H 
ENDBRANCH  18  19
ENDBRANCH   5  18
BRANCH   6  23
ATOM     23  C   LIG d   1       4.716  -2.621  -3.898  0.00  0.00     0.154 C 
ATOM     24  O   LIG d   1       4.265  -3.743  -3.998  0.00  0.00    -0.296 OA
ATOM     25  H   LIG d   1       5.501  -2.417  -3.185  0.00  0.00     0.108 H 
ENDBRANCH   6  23
TORSDOF 6
ENDMDL
MODEL 8
REMARK VINA RESULT:      -3.8      2.126      2.718
REMARK  6 active torsions:
REMARK  status: ('A' for Active; 'I' for Inactive)
REMARK    1  A    between atoms: C_1  and  C_2 
REMARK    2  A    between atoms: C_4  and  O_12 
REMARK    3  A    between atoms: C_6  and  O_10 
REMARK    4  A    between atoms: C_7  and  C_8 
REMARK    5  A    between atoms: O_10  and  C_11 
REMARK    6  A    between atoms: O_12  and  C_13 
ROOT
ATOM      1  C   LIG d   1       4.177  -0.843  -5.938  0.00  0.00    -0.033 A 
ATOM      2  C   LIG d   1       5.280  -1.645  -5.910  0.00  0.00    -0.016 A 
ATOM      3  C   LIG d   1       5.883  -1.971  -4.698  0.00  0.00     0.124 A 
ATOM      4  C   LIG d   1       5.368  -1.484  -3.505  0.00  0.00     0.022 A 
ATOM      5  C   LIG d   1       4.249  -0.668  -3.518  0.00  0.00     0.134 A 
ATOM      6  C   LIG d   1       3.646  -0.336  -4.744  0.00  0.00     0.059 A 
ATOM      7  H   LIG d   1       5.688  -2.030  -6.833  0.00  0.00     0.066 H 
ATOM      8  H   LIG d   1       5.838  -1.740  -2.567  0.00  0.00     0.069 H 
ENDROOT
BRANCH   3   9
ATOM      9  O   LIG d   1       6.980  -2.770  -4.682  0.00  0.00    -0.495 OA
BRANCH   9  10
ATOM     10  C   LIG d   1       6.803  -4.123  -5.108  0.00  0.00     0.079 C 
ATOM     11  H   LIG d   1       6.250  -4.139  -6.047  0.00  0.00     0.066 H 
ATOM     12  H   LIG d   1       7.778  -4.588  -5.253  0.00  0.00     0.066 H 
ATOM     13  H   LIG d   1       6.247  -4.673  -4.349  0.00  0.00     0.066 H 
ENDBRANCH   9  10
ENDBRANCH   3   9
BRANCH   1  14
ATOM     14  C   LIG d   1       3.533  -0.496  -7.256  0.00  0.00    -0.039 C 
ATOM     15  H   LIG d   1       4.106  -0.940  -8.069  0.00  0.00     0.028 H 
ATOM     16  H   LIG d   1       2.514  -0.884  -7.276  0.00  0.00     0.028 H 
ATOM     17  H   LIG d   1       3.511   0.587  -7.375  0.00  0.00     0.028 H 
ENDBRANCH   1  14
BRANCH   5  18
ATOM     18  O   LIG d   1       3.741  -0.190  -2.356  0.00  0.00    -0.494 OA
BRANCH  18  19
ATOM     19  C   LIG d   1       4.479   0.845  -1.702  0.00  0.00     0.079 C 
ATOM     20  H   LIG d   1       4.798   1.584  -2.438  0.00  0.00     0.066 H 
ATOM     21  H   LIG d   1       3.847   1.325  -0.955  0.00  0.00     0.066 H 
ATOM     22  H   LIG d   1       5.354   0.415  -1.216  0.00  0.00     0.066 H 
ENDBRANCH  18  19
ENDBRANCH   5  18
BRANCH   6  23
ATOM     23  C   LIG d   1       2.466   0.531  -4.774  0.00  0.00     0.154 C 
ATOM     24  O   LIG d   1       2.599   1.732  -4.886  0.00  0.00    -0.296 OA
ATOM     25  H   LIG d   1       1.478   0.102  -4.694  0.00  0.00     0.108 H 
ENDBRANCH   6  23
TORSDOF 6
ENDMDL
MODEL 9
REMARK VINA RESULT:      -3.7      8.867     11.551
REMARK  6 active torsions:
REMARK  status: ('A' for Active; 'I' for Inactive)
REMARK    1  A    between atoms: C_1  and  C_2 
REMARK    2  A    between atoms: C_4  and  O_12 
REMARK    3  A    between atoms: C_6  and  O_10 
REMARK    4  A    between atoms: C_7  and  C_8 
REMARK    5  A    between atoms: O_10  and  C_11 
REMARK    6  A    between atoms: O_12  and  C_13 
ROOT
ATOM      1  C   LIG d   1      10.290   7.468  -0.752  0.00  0.00    -0.033 A 
ATOM      2  C   LIG d   1       9.935   8.691  -1.243  0.00  0.00    -0.016 A 
ATOM      3  C   LIG d   1      10.242   9.850  -0.534  0.00  0.00     0.124 A 
ATOM      4  C   LIG d   1      10.912   9.774   0.679  0.00  0.00     0.022 A 
ATOM      5  C   LIG d   1      11.277   8.540   1.189  0.00  0.00     0.134 A 
ATOM      6  C   LIG d   1      10.961   7.371   0.475  0.00  0.00     0.059 A 
ATOM      7  H   LIG d   1       9.415   8.760  -2.186  0.00  0.00     0.066 H 
ATOM      8  H   LIG d   1      11.148  10.676   1.224  0.00  0.00     0.069 H 
ENDROOT
BRANCH   3   9
ATOM      9  O   LIG d   1       9.884  11.060  -1.033  0.00  0.00    -0.495 OA
BRANCH   9  10
ATOM     10  C   LIG d   1       9.326  11.081  -2.349  0.00  0.00     0.079 C 
ATOM     11  H   LIG d   1       9.544  12.040  -2.820  0.00  0.00     0.066 H 
ATOM     12  H   LIG d   1       9.763  10.277  -2.941  0.00  0.00     0.066 H 
ATOM     13  H   LIG d   1       8.247  10.942  -2.287  0.00  0.00     0.066 H 
ENDBRANCH   9  10
ENDBRANCH   3   9
BRANCH   1  14
ATOM     14  C   LIG d   1       9.953   6.220  -1.527  0.00  0.00    -0.039 C 
ATOM     15  H   LIG d   1       9.858   5.380  -0.840  0.00  0.00     0.028 H 
ATOM     16  H   LIG d   1       9.012   6.364  -2.057  0.00  0.00     0.028 H 
ATOM     17  H   LIG d   1      10.747   6.014  -2.245  0.00  0.00     0.028 H 
ENDBRANCH   1  14
BRANCH   5  18
ATOM     18  O   LIG d   1      11.931   8.460   2.374  0.00  0.00    -0.494 OA
BRANCH  18  19
ATOM     19  C   LIG d   1      12.364   9.689   2.962  0.00  0.00     0.079 C 
ATOM     20  H   LIG d   1      11.549  10.413   2.929  0.00  0.00     0.066 H 
ATOM     21  H   LIG d   1      12.654   9.513   3.997  0.00  0.00     0.066 H 
ATOM     22  H   LIG d   1      13.216  10.077   2.405  0.00  0.00     0.066 H 
ENDBRANCH  18  19
ENDBRANCH   5  18
BRANCH   6  23
ATOM     23  C   LIG d   1      11.336   6.059   1.006  0.00  0.00     0.154 C 
ATOM     24  O   LIG d   1      10.675   5.551   1.888  0.00  0.00    -0.296 OA
ATOM     25  H   LIG d   1      12.201   5.544   0.615  0.00  0.00     0.108 H 
ENDBRANCH   6  23
TORSDOF 6
ENDMDL
MODEL 10
REMARK VINA RESULT:      -3.6      8.100      9.369
REMARK  6 active torsions:
REMARK  status: ('A' for Active; 'I' for Inactive)
REMARK    1  A    between atoms: C_1  and  C_2 
REMARK    2  A    between atoms: C_4  and  O_12 
REMARK    3  A    between atoms: C_6  and  O_10 
REMARK    4  A    between atoms: C_7  and  C_8 
REMARK    5  A    between atoms: O_10  and  C_11 
REMARK    6  A    between atoms: O_12  and  C_13 
ROOT
ATOM      1  C   LIG d   1       6.011 -10.089  -2.775  0.00  0.00    -0.033 A 
ATOM      2  C   LIG d   1       7.240  -9.523  -2.949  0.00  0.00    -0.016 A 
ATOM      3  C   LIG d   1       7.481  -8.680  -4.031  0.00  0.00     0.124 A 
ATOM      4  C   LIG d   1       6.472  -8.404  -4.944  0.00  0.00     0.022 A 
ATOM      5  C   LIG d   1       5.220  -8.972  -4.781  0.00  0.00     0.134 A 
ATOM      6  C   LIG d   1       4.982  -9.828  -3.691  0.00  0.00     0.059 A 
ATOM      7  H   LIG d   1       8.031  -9.730  -2.243  0.00  0.00     0.066 H 
ATOM      8  H   LIG d   1       6.663  -7.749  -5.781  0.00  0.00     0.069 H 
ENDROOT
BRANCH   3   9
ATOM      9  O   LIG d   1       8.707  -8.122  -4.192  0.00  0.00    -0.495 OA
BRANCH   9  10
ATOM     10  C   LIG d   1       8.825  -7.085  -5.168  0.00  0.00     0.079 C 
ATOM     11  H   LIG d   1       9.540  -6.339  -4.821  0.00  0.00     0.066 H 
ATOM     12  H   LIG d   1       9.172  -7.510  -6.110  0.00  0.00     0.066 H 
ATOM     13  H   LIG d   1       7.853  -6.616  -5.319  0.00  0.00     0.066 H 
ENDBRANCH   9  10
ENDBRANCH   3   9
BRANCH   1  14
ATOM     14  C   LIG d   1       5.761 -11.001  -1.601  0.00  0.00    -0.039 C 
ATOM     15  H   LIG d   1       5.209 -10.461  -0.833  0.00  0.00     0.028 H 
ATOM     16  H   LIG d   1       5.182 -11.864  -1.928  0.00  0.00     0.028 H 
ATOM     17  H   LIG d   1       6.716 -11.337  -1.194  0.00  0.00     0.028 H 
ENDBRANCH   1  14
BRANCH   5  18
ATOM     18  O   LIG d   1       4.231  -8.707  -5.669  0.00  0.00    -0.494 OA
BRANCH  18  19
ATOM     19  C   LIG d   1       4.602  -8.620  -7.047  0.00  0.00     0.079 C 
ATOM     20  H   LIG d   1       4.082  -9.395  -7.612  0.00  0.00     0.066 H 
ATOM     21  H   LIG d   1       4.327  -7.640  -7.435  0.00  0.00     0.066 H 
ATOM     22  H   LIG d   1       5.678  -8.761  -7.142  0.00  0.00     0.066 H 
ENDBRANCH  18  19
ENDBRANCH   5  18
BRANCH   6  23
ATOM     23  C   LIG d   1       3.664 -10.441  -3.510  0.00  0.00     0.154 C 
ATOM     24  O   LIG d   1       2.735  -9.772  -3.105  0.00  0.00    -0.296 OA
ATOM     25  H   LIG d   1       3.518 -11.487  -3.735  0.00  0.00     0.108 H 
ENDBRANCH   6  23
TORSDOF 6
ENDMDL
