MODEL 1
REMARK VINA RESULT:      -7.4      0.000      0.000
REMARK  8 active torsions:
REMARK  status: ('A' for Active; 'I' for Inactive)
REMARK    1  A    between atoms: C_1  and  C_2 
REMARK    2  A    between atoms: C_5  and  S_8 
REMARK    3  A    between atoms: S_8  and  N_11 
REMARK    4  A    between atoms: N_11  and  N_12 
REMARK    5  A    between atoms: C_19  and  O_35 
REMARK    6  A    between atoms: C_20  and  O_33 
REMARK    7  A    between atoms: O_33  and  C_34 
REMARK    8  A    between atoms: O_35  and  C_36 
ROOT
ATOM      1  N   LIG d   1       4.619   0.564  -6.626  0.00  0.00    -0.170 NA
ATOM      2  C   LIG d   1       4.475  -0.677  -6.279  0.00  0.00     0.074 C 
ATOM      3  C   LIG d   1       4.628  -1.766  -7.313  0.00  0.00     0.015 C 
ATOM      4  C   LIG d   1       4.293  -3.121  -6.687  0.00  0.00     0.054 C 
ATOM      5  H   LIG d   1       3.210  -3.163  -6.576  0.00  0.00     0.055 H 
ATOM      6  C   LIG d   1       4.706  -4.243  -7.586  0.00  0.00    -0.020 A 
ATOM      7  C   LIG d   1       4.348  -4.176  -8.928  0.00  0.00    -0.011 A 
ATOM      8  C   LIG d   1       4.728  -5.170  -9.809  0.00  0.00     0.162 A 
ATOM      9  C   LIG d   1       5.472  -6.252  -9.348  0.00  0.00     0.162 A 
ATOM     10  C   LIG d   1       5.826  -6.318  -8.014  0.00  0.00    -0.013 A 
ATOM     11  C   LIG d   1       5.438  -5.319  -7.132  0.00  0.00    -0.037 A 
ATOM     12  C   LIG d   1       5.823  -5.458  -5.687  0.00  0.00    -0.011 C 
ATOM     13  C   LIG d   1       5.941  -4.116  -4.992  0.00  0.00     0.017 C 
ATOM     14  N   LIG d   1       4.882  -3.197  -5.356  0.00  0.00    -0.325 N 
ATOM     15  C   LIG d   1       4.398  -2.304  -4.434  0.00  0.00     0.019 C 
ATOM     16  C   LIG d   1       4.163  -1.017  -4.876  0.00  0.00     0.057 C 
ATOM     17  C   LIG d   1       3.639  -0.041  -4.001  0.00  0.00     0.166 C 
ATOM     18  O   LIG d   1       3.430   1.084  -4.407  0.00  0.00    -0.292 OA
ATOM     19  C   LIG d   1       3.338  -0.388  -2.566  0.00  0.00     0.011 C 
ATOM     20  C   LIG d   1       4.293  -1.491  -2.099  0.00  0.00    -0.041 C 
ATOM     21  C   LIG d   1       4.135  -2.710  -3.015  0.00  0.00    -0.013 C 
ATOM     22  H   LIG d   1       3.951  -1.574  -8.146  0.00  0.00     0.035 H 
ATOM     23  H   LIG d   1       5.655  -1.780  -7.677  0.00  0.00     0.035 H 
ATOM     24  H   LIG d   1       3.766  -3.340  -9.284  0.00  0.00     0.066 H 
ATOM     25  H   LIG d   1       6.407  -7.154  -7.653  0.00  0.00     0.066 H 
ATOM     26  H   LIG d   1       5.068  -6.056  -5.176  0.00  0.00     0.033 H 
ATOM     27  H   LIG d   1       6.781  -5.974  -5.624  0.00  0.00     0.033 H 
ATOM     28  H   LIG d   1       5.913  -4.276  -3.915  0.00  0.00     0.047 H 
ATOM     29  H   LIG d   1       6.899  -3.669  -5.256  0.00  0.00     0.047 H 
ATOM     30  H   LIG d   1       3.459   0.423  -1.994  0.00  0.00     0.035 H 
ATOM     31  H   LIG d   1       2.310  -0.740  -2.485  0.00  0.00     0.035 H 
ATOM     32  H   LIG d   1       5.320  -1.128  -2.148  0.00  0.00     0.027 H 
ATOM     33  H   LIG d   1       4.054  -1.771  -1.074  0.00  0.00     0.027 H 
ATOM     34  H   LIG d   1       3.121  -3.099  -2.930  0.00  0.00     0.033 H 
ATOM     35  H   LIG d   1       4.847  -3.481  -2.720  0.00  0.00     0.033 H 
ENDROOT
BRANCH   1  36
ATOM     36  N   LIG d   1       4.916   0.891  -7.955  0.00  0.00    -0.137 N 
ATOM     37  H   LIG d   1       5.776   0.654  -8.332  0.00  0.00     0.197 HD
BRANCH  36  38
ATOM     38  S   LIG d   1       3.794   1.682  -8.883  0.00  0.00     0.086 S 
ATOM     39  O   LIG d   1       2.798   2.165  -7.992  0.00  0.00    -0.149 OA
ATOM     40  O   LIG d   1       4.519   2.540  -9.753  0.00  0.00    -0.149 OA
BRANCH  38  41
ATOM     41  C   LIG d   1       3.016   0.473  -9.901  0.00  0.00     0.110 A 
ATOM     42  C   LIG d   1       3.517   0.204 -11.161  0.00  0.00    -0.035 A 
ATOM     43  C   LIG d   1       2.907  -0.745 -11.960  0.00  0.00    -0.057 A 
ATOM     44  H   LIG d   1       4.385   0.736 -11.522  0.00  0.00     0.064 H 
ATOM     45  C   LIG d   1       1.797  -1.427 -11.498  0.00  0.00    -0.050 A 
ATOM     46  H   LIG d   1       3.299  -0.955 -12.945  0.00  0.00     0.062 H 
ATOM     47  C   LIG d   1       1.296  -1.159 -10.237  0.00  0.00    -0.057 A 
ATOM     48  C   LIG d   1       1.909  -0.213  -9.437  0.00  0.00    -0.035 A 
ATOM     49  H   LIG d   1       0.429  -1.691  -9.877  0.00  0.00     0.062 H 
ATOM     50  H   LIG d   1       1.521  -0.007  -8.451  0.00  0.00     0.064 H 
BRANCH  45  51
ATOM     51  C   LIG d   1       1.132  -2.461 -12.368  0.00  0.00    -0.040 C 
ATOM     52  H   LIG d   1       1.806  -2.742 -13.178  0.00  0.00     0.028 H 
ATOM     53  H   LIG d   1       0.897  -3.343 -11.771  0.00  0.00     0.028 H 
ATOM     54  H   LIG d   1       0.213  -2.050 -12.786  0.00  0.00     0.028 H 
ENDBRANCH  45  51
ENDBRANCH  38  41
ENDBRANCH  36  38
ENDBRANCH   1  36
BRANCH   8  55
ATOM     55  O   LIG d   1       4.372  -5.095 -11.120  0.00  0.00    -0.491 OA
BRANCH  55  56
ATOM     56  C   LIG d   1       4.802  -3.939 -11.842  0.00  0.00     0.079 C 
ATOM     57  H   LIG d   1       5.572  -3.420 -11.273  0.00  0.00     0.066 H 
ATOM     58  H   LIG d   1       5.205  -4.243 -12.808  0.00  0.00     0.066 H 
ATOM     59  H   LIG d   1       3.953  -3.272 -11.998  0.00  0.00     0.066 H 
ENDBRANCH  55  56
ENDBRANCH   8  55
BRANCH   9  60
ATOM     60  O   LIG d   1       5.853  -7.237 -10.206  0.00  0.00    -0.491 OA
BRANCH  60  61
ATOM     61  C   LIG d   1       5.171  -8.488 -10.101  0.00  0.00     0.079 C 
ATOM     62  H   LIG d   1       4.865  -8.819 -11.093  0.00  0.00     0.066 H 
ATOM     63  H   LIG d   1       5.839  -9.230  -9.661  0.00  0.00     0.066 H 
ATOM     64  H   LIG d   1       4.292  -8.371  -9.469  0.00  0.00     0.066 H 
ENDBRANCH  60  61
ENDBRANCH   9  60
TORSDOF 8
ENDMDL
MODEL 2
REMARK VINA RESULT:      -7.1      1.834      2.484
REMARK  8 active torsions:
REMARK  status: ('A' for Active; 'I' for Inactive)
REMARK    1  A    between atoms: C_1  and  C_2 
REMARK    2  A    between atoms: C_5  and  S_8 
REMARK    3  A    between atoms: S_8  and  N_11 
REMARK    4  A    between atoms: N_11  and  N_12 
REMARK    5  A    between atoms: C_19  and  O_35 
REMARK    6  A    between atoms: C_20  and  O_33 
REMARK    7  A    between atoms: O_33  and  C_34 
REMARK    8  A    between atoms: O_35  and  C_36 
ROOT
ATOM      1  N   LIG d   1       4.625   0.508  -6.700  0.00  0.00    -0.170 NA
ATOM      2  C   LIG d   1       4.980  -0.529  -6.007  0.00  0.00     0.074 C 
ATOM      3  C   LIG d   1       5.807  -1.614  -6.653  0.00  0.00     0.015 C 
ATOM      4  C   LIG d   1       5.988  -2.775  -5.674  0.00  0.00     0.054 C 
ATOM      5  H   LIG d   1       5.039  -3.309  -5.630  0.00  0.00     0.055 H 
ATOM      6  C   LIG d   1       7.030  -3.731  -6.163  0.00  0.00    -0.020 A 
ATOM      7  C   LIG d   1       6.960  -4.159  -7.485  0.00  0.00    -0.011 A 
ATOM      8  C   LIG d   1       7.912  -5.018  -7.998  0.00  0.00     0.162 A 
ATOM      9  C   LIG d   1       8.949  -5.465  -7.183  0.00  0.00     0.162 A 
ATOM     10  C   LIG d   1       9.015  -5.040  -5.869  0.00  0.00    -0.013 A 
ATOM     11  C   LIG d   1       8.053  -4.180  -5.357  0.00  0.00    -0.037 A 
ATOM     12  C   LIG d   1       8.157  -3.777  -3.915  0.00  0.00    -0.011 C 
ATOM     13  C   LIG d   1       7.524  -2.426  -3.649  0.00  0.00     0.017 C 
ATOM     14  N   LIG d   1       6.265  -2.246  -4.344  0.00  0.00    -0.325 N 
ATOM     15  C   LIG d   1       5.259  -1.513  -3.769  0.00  0.00     0.019 C 
ATOM     16  C   LIG d   1       4.573  -0.642  -4.592  0.00  0.00     0.057 C 
ATOM     17  C   LIG d   1       3.505   0.131  -4.089  0.00  0.00     0.166 C 
ATOM     18  O   LIG d   1       2.906   0.886  -4.828  0.00  0.00    -0.292 OA
ATOM     19  C   LIG d   1       3.104   0.025  -2.640  0.00  0.00     0.011 C 
ATOM     20  C   LIG d   1       4.332  -0.336  -1.799  0.00  0.00    -0.041 C 
ATOM     21  C   LIG d   1       4.921  -1.654  -2.315  0.00  0.00    -0.013 C 
ATOM     22  H   LIG d   1       5.300  -1.972  -7.550  0.00  0.00     0.035 H 
ATOM     23  H   LIG d   1       6.783  -1.214  -6.925  0.00  0.00     0.035 H 
ATOM     24  H   LIG d   1       6.153  -3.816  -8.115  0.00  0.00     0.066 H 
ATOM     25  H   LIG d   1       9.819  -5.382  -5.235  0.00  0.00     0.066 H 
ATOM     26  H   LIG d   1       7.660  -4.528  -3.301  0.00  0.00     0.033 H 
ATOM     27  H   LIG d   1       9.210  -3.735  -3.634  0.00  0.00     0.033 H 
ATOM     28  H   LIG d   1       7.350  -2.325  -2.578  0.00  0.00     0.047 H 
ATOM     29  H   LIG d   1       8.215  -1.647  -3.968  0.00  0.00     0.047 H 
ATOM     30  H   LIG d   1       2.733   0.901  -2.332  0.00  0.00     0.035 H 
ATOM     31  H   LIG d   1       2.346  -0.750  -2.528  0.00  0.00     0.035 H 
ATOM     32  H   LIG d   1       5.077   0.455  -1.884  0.00  0.00     0.027 H 
ATOM     33  H   LIG d   1       4.038  -0.451  -0.756  0.00  0.00     0.027 H 
ATOM     34  H   LIG d   1       4.191  -2.453  -2.187  0.00  0.00     0.033 H 
ATOM     35  H   LIG d   1       5.824  -1.893  -1.753  0.00  0.00     0.033 H 
ENDROOT
BRANCH   1  36
ATOM     36  N   LIG d   1       5.009   0.619  -8.042  0.00  0.00    -0.137 N 
ATOM     37  H   LIG d   1       5.794   0.150  -8.363  0.00  0.00     0.197 HD
BRANCH  36  38
ATOM     38  S   LIG d   1       4.121   1.554  -9.083  0.00  0.00     0.086 S 
ATOM     39  O   LIG d   1       3.196   2.281  -8.287  0.00  0.00    -0.149 OA
ATOM     40  O   LIG d   1       5.050   2.193  -9.947  0.00  0.00    -0.149 OA
BRANCH  38  41
ATOM     41  C   LIG d   1       3.172   0.458 -10.084  0.00  0.00     0.110 A 
ATOM     42  C   LIG d   1       1.983  -0.061  -9.607  0.00  0.00    -0.035 A 
ATOM     43  C   LIG d   1       1.238  -0.920 -10.393  0.00  0.00    -0.057 A 
ATOM     44  H   LIG d   1       1.637   0.206  -8.619  0.00  0.00     0.064 H 
ATOM     45  C   LIG d   1       1.682  -1.260 -11.657  0.00  0.00    -0.050 A 
ATOM     46  H   LIG d   1       0.309  -1.325 -10.019  0.00  0.00     0.062 H 
ATOM     47  C   LIG d   1       2.871  -0.741 -12.135  0.00  0.00    -0.057 A 
ATOM     48  C   LIG d   1       3.613   0.122 -11.351  0.00  0.00    -0.035 A 
ATOM     49  H   LIG d   1       3.217  -1.007 -13.123  0.00  0.00     0.062 H 
ATOM     50  H   LIG d   1       4.540   0.531 -11.726  0.00  0.00     0.064 H 
BRANCH  45  51
ATOM     51  C   LIG d   1       0.870  -2.196 -12.514  0.00  0.00    -0.040 C 
ATOM     52  H   LIG d   1       1.418  -3.128 -12.653  0.00  0.00     0.028 H 
ATOM     53  H   LIG d   1      -0.081  -2.405 -12.024  0.00  0.00     0.028 H 
ATOM     54  H   LIG d   1       0.686  -1.734 -13.484  0.00  0.00     0.028 H 
ENDBRANCH  45  51
ENDBRANCH  38  41
ENDBRANCH  36  38
ENDBRANCH   1  36
BRANCH   8  55
ATOM     55  O   LIG d   1       7.835  -5.430  -9.292  0.00  0.00    -0.491 OA
BRANCH  55  56
ATOM     56  C   LIG d   1       6.638  -6.101  -9.689  0.00  0.00     0.079 C 
ATOM     57  H   LIG d   1       6.735  -6.438 -10.720  0.00  0.00     0.066 H 
ATOM     58  H   LIG d   1       6.471  -6.960  -9.038  0.00  0.00     0.066 H 
ATOM     59  H   LIG d   1       5.793  -5.416  -9.608  0.00  0.00     0.066 H 
ENDBRANCH  55  56
ENDBRANCH   8  55
BRANCH   9  60
ATOM     60  O   LIG d   1       9.892  -6.311  -7.677  0.00  0.00    -0.491 OA
BRANCH  60  61
ATOM     61  C   LIG d   1       9.776  -7.690  -7.323  0.00  0.00     0.079 C 
ATOM     62  H   LIG d   1      10.708  -8.205  -7.558  0.00  0.00     0.066 H 
ATOM     63  H   LIG d   1       9.573  -7.776  -6.256  0.00  0.00     0.066 H 
ATOM     64  H   LIG d   1       8.960  -8.142  -7.886  0.00  0.00     0.066 H 
ENDBRANCH  60  61
ENDBRANCH   9  60
TORSDOF 8
ENDMDL
MODEL 3
REMARK VINA RESULT:      -7.0      1.713      2.432
REMARK  8 active torsions:
REMARK  status: ('A' for Active; 'I' for Inactive)
REMARK    1  A    between atoms: C_1  and  C_2 
REMARK    2  A    between atoms: C_5  and  S_8 
REMARK    3  A    between atoms: S_8  and  N_11 
REMARK    4  A    between atoms: N_11  and  N_12 
REMARK    5  A    between atoms: C_19  and  O_35 
REMARK    6  A    between atoms: C_20  and  O_33 
REMARK    7  A    between atoms: O_33  and  C_34 
REMARK    8  A    between atoms: O_35  and  C_36 
ROOT
ATOM      1  N   LIG d   1       3.292   0.315  -6.675  0.00  0.00    -0.170 NA
ATOM      2  C   LIG d   1       3.883  -0.499  -5.856  0.00  0.00     0.074 C 
ATOM      3  C   LIG d   1       4.393  -1.828  -6.358  0.00  0.00     0.015 C 
ATOM      4  C   LIG d   1       4.933  -2.648  -5.186  0.00  0.00     0.054 C 
ATOM      5  H   LIG d   1       4.072  -3.013  -4.626  0.00  0.00     0.055 H 
ATOM      6  C   LIG d   1       5.702  -3.836  -5.672  0.00  0.00    -0.020 A 
ATOM      7  C   LIG d   1       5.126  -4.633  -6.655  0.00  0.00    -0.011 A 
ATOM      8  C   LIG d   1       5.803  -5.726  -7.161  0.00  0.00     0.162 A 
ATOM      9  C   LIG d   1       7.072  -6.035  -6.679  0.00  0.00     0.162 A 
ATOM     10  C   LIG d   1       7.642  -5.242  -5.701  0.00  0.00    -0.013 A 
ATOM     11  C   LIG d   1       6.955  -4.148  -5.192  0.00  0.00    -0.037 A 
ATOM     12  C   LIG d   1       7.609  -3.341  -4.107  0.00  0.00    -0.011 C 
ATOM     13  C   LIG d   1       7.132  -1.902  -4.095  0.00  0.00     0.017 C 
ATOM     14  N   LIG d   1       5.704  -1.779  -4.303  0.00  0.00    -0.325 N 
ATOM     15  C   LIG d   1       5.000  -0.780  -3.682  0.00  0.00     0.019 C 
ATOM     16  C   LIG d   1       4.053  -0.120  -4.439  0.00  0.00     0.057 C 
ATOM     17  C   LIG d   1       3.264   0.904  -3.871  0.00  0.00     0.166 C 
ATOM     18  O   LIG d   1       2.429   1.469  -4.547  0.00  0.00    -0.292 OA
ATOM     19  C   LIG d   1       3.453   1.298  -2.428  0.00  0.00     0.011 C 
ATOM     20  C   LIG d   1       4.909   1.053  -2.021  0.00  0.00    -0.041 C 
ATOM     21  C   LIG d   1       5.248  -0.425  -2.247  0.00  0.00    -0.013 C 
ATOM     22  H   LIG d   1       3.577  -2.372  -6.836  0.00  0.00     0.035 H 
ATOM     23  H   LIG d   1       5.190  -1.661  -7.082  0.00  0.00     0.035 H 
ATOM     24  H   LIG d   1       4.140  -4.396  -7.025  0.00  0.00     0.066 H 
ATOM     25  H   LIG d   1       8.627  -5.477  -5.326  0.00  0.00     0.066 H 
ATOM     26  H   LIG d   1       7.384  -3.797  -3.142  0.00  0.00     0.033 H 
ATOM     27  H   LIG d   1       8.689  -3.354  -4.258  0.00  0.00     0.033 H 
ATOM     28  H   LIG d   1       7.386  -1.457  -3.133  0.00  0.00     0.047 H 
ATOM     29  H   LIG d   1       7.650  -1.356  -4.882  0.00  0.00     0.047 H 
ATOM     30  H   LIG d   1       3.233   2.267  -2.317  0.00  0.00     0.035 H 
ATOM     31  H   LIG d   1       2.794   0.701  -1.799  0.00  0.00     0.035 H 
ATOM     32  H   LIG d   1       5.566   1.675  -2.628  0.00  0.00     0.027 H 
ATOM     33  H   LIG d   1       5.039   1.302  -0.969  0.00  0.00     0.027 H 
ATOM     34  H   LIG d   1       4.621  -1.044  -1.605  0.00  0.00     0.033 H 
ATOM     35  H   LIG d   1       6.297  -0.598  -2.006  0.00  0.00     0.033 H 
ENDROOT
BRANCH   1  36
ATOM     36  N   LIG d   1       3.130  -0.040  -8.020  0.00  0.00    -0.137 N 
ATOM     37  H   LIG d   1       2.681  -0.867  -8.253  0.00  0.00     0.197 HD
BRANCH  36  38
ATOM     38  S   LIG d   1       3.703   0.954  -9.215  0.00  0.00     0.086 S 
ATOM     39  O   LIG d   1       2.846   2.087  -9.246  0.00  0.00    -0.149 OA
ATOM     40  O   LIG d   1       5.105   1.065  -9.013  0.00  0.00    -0.149 OA
BRANCH  38  41
ATOM     41  C   LIG d   1       3.479   0.111 -10.745  0.00  0.00     0.110 A 
ATOM     42  C   LIG d   1       4.456   0.176 -11.720  0.00  0.00    -0.035 A 
ATOM     43  C   LIG d   1       4.281  -0.486 -12.921  0.00  0.00    -0.057 A 
ATOM     44  H   LIG d   1       5.358   0.746 -11.544  0.00  0.00     0.064 H 
ATOM     45  C   LIG d   1       3.129  -1.215 -13.146  0.00  0.00    -0.050 A 
ATOM     46  H   LIG d   1       5.045  -0.435 -13.683  0.00  0.00     0.062 H 
ATOM     47  C   LIG d   1       2.151  -1.281 -12.171  0.00  0.00    -0.057 A 
ATOM     48  C   LIG d   1       2.329  -0.623 -10.968  0.00  0.00    -0.035 A 
ATOM     49  H   LIG d   1       1.251  -1.851 -12.347  0.00  0.00     0.062 H 
ATOM     50  H   LIG d   1       1.567  -0.678 -10.205  0.00  0.00     0.064 H 
BRANCH  45  51
ATOM     51  C   LIG d   1       2.938  -1.937 -14.454  0.00  0.00    -0.040 C 
ATOM     52  H   LIG d   1       1.957  -2.414 -14.466  0.00  0.00     0.028 H 
ATOM     53  H   LIG d   1       3.005  -1.225 -15.277  0.00  0.00     0.028 H 
ATOM     54  H   LIG d   1       3.712  -2.697 -14.567  0.00  0.00     0.028 H 
ENDBRANCH  45  51
ENDBRANCH  38  41
ENDBRANCH  36  38
ENDBRANCH   1  36
BRANCH   8  55
ATOM     55  O   LIG d   1       5.232  -6.499  -8.124  0.00  0.00    -0.491 OA
BRANCH  55  56
ATOM     56  C   LIG d   1       4.342  -7.527  -7.685  0.00  0.00     0.079 C 
ATOM     57  H   LIG d   1       4.671  -7.903  -6.717  0.00  0.00     0.066 H 
ATOM     58  H   LIG d   1       3.334  -7.122  -7.596  0.00  0.00     0.066 H 
ATOM     59  H   LIG d   1       4.342  -8.341  -8.410  0.00  0.00     0.066 H 
ENDBRANCH  55  56
ENDBRANCH   8  55
BRANCH   9  60
ATOM     60  O   LIG d   1       7.749  -7.107  -7.170  0.00  0.00    -0.491 OA
BRANCH  60  61
ATOM     61  C   LIG d   1       7.816  -8.268  -6.340  0.00  0.00     0.079 C 
ATOM     62  H   LIG d   1       8.065  -7.972  -5.320  0.00  0.00     0.066 H 
ATOM     63  H   LIG d   1       6.851  -8.775  -6.345  0.00  0.00     0.066 H 
ATOM     64  H   LIG d   1       8.583  -8.943  -6.719  0.00  0.00     0.066 H 
ENDBRANCH  60  61
ENDBRANCH   9  60
TORSDOF 8
ENDMDL
MODEL 4
REMARK VINA RESULT:      -6.9      2.974      6.771
REMARK  8 active torsions:
REMARK  status: ('A' for Active; 'I' for Inactive)
REMARK    1  A    between atoms: C_1  and  C_2 
REMARK    2  A    between atoms: C_5  and  S_8 
REMARK    3  A    between atoms: S_8  and  N_11 
REMARK    4  A    between atoms: N_11  and  N_12 
REMARK    5  A    between atoms: C_19  and  O_35 
REMARK    6  A    between atoms: C_20  and  O_33 
REMARK    7  A    between atoms: O_33  and  C_34 
REMARK    8  A    between atoms: O_35  and  C_36 
ROOT
ATOM      1  N   LIG d   1       4.572  -2.060  -7.114  0.00  0.00    -0.170 NA
ATOM      2  C   LIG d   1       4.118  -1.787  -8.298  0.00  0.00     0.074 C 
ATOM      3  C   LIG d   1       3.350  -2.836  -9.066  0.00  0.00     0.015 C 
ATOM      4  C   LIG d   1       3.033  -2.317 -10.469  0.00  0.00     0.054 C 
ATOM      5  H   LIG d   1       3.959  -2.352 -11.041  0.00  0.00     0.055 H 
ATOM      6  C   LIG d   1       2.036  -3.198 -11.153  0.00  0.00    -0.020 A 
ATOM      7  C   LIG d   1       2.252  -4.573 -11.133  0.00  0.00    -0.011 A 
ATOM      8  C   LIG d   1       1.349  -5.435 -11.724  0.00  0.00     0.162 A 
ATOM      9  C   LIG d   1       0.216  -4.925 -12.350  0.00  0.00     0.162 A 
ATOM     10  C   LIG d   1       0.004  -3.559 -12.371  0.00  0.00    -0.013 A 
ATOM     11  C   LIG d   1       0.917  -2.696 -11.780  0.00  0.00    -0.037 A 
ATOM     12  C   LIG d   1       0.653  -1.220 -11.860  0.00  0.00    -0.011 C 
ATOM     13  C   LIG d   1       1.278  -0.461 -10.707  0.00  0.00     0.017 C 
ATOM     14  N   LIG d   1       2.612  -0.923 -10.384  0.00  0.00    -0.325 N 
ATOM     15  C   LIG d   1       3.559  -0.038  -9.936  0.00  0.00     0.019 C 
ATOM     16  C   LIG d   1       4.354  -0.453  -8.886  0.00  0.00     0.057 C 
ATOM     17  C   LIG d   1       5.371   0.384  -8.380  0.00  0.00     0.166 C 
ATOM     18  O   LIG d   1       6.068   0.001  -7.462  0.00  0.00    -0.292 OA
ATOM     19  C   LIG d   1       5.597   1.751  -8.972  0.00  0.00     0.011 C 
ATOM     20  C   LIG d   1       4.272   2.295  -9.516  0.00  0.00    -0.041 C 
ATOM     21  C   LIG d   1       3.721   1.316 -10.559  0.00  0.00    -0.013 C 
ATOM     22  H   LIG d   1       3.952  -3.743  -9.142  0.00  0.00     0.035 H 
ATOM     23  H   LIG d   1       2.421  -3.061  -8.544  0.00  0.00     0.035 H 
ATOM     24  H   LIG d   1       3.134  -4.968 -10.652  0.00  0.00     0.066 H 
ATOM     25  H   LIG d   1      -0.875  -3.160 -12.853  0.00  0.00     0.066 H 
ATOM     26  H   LIG d   1       1.060  -0.838 -12.797  0.00  0.00     0.033 H 
ATOM     27  H   LIG d   1      -0.424  -1.052 -11.852  0.00  0.00     0.033 H 
ATOM     28  H   LIG d   1       1.326   0.596 -10.968  0.00  0.00     0.047 H 
ATOM     29  H   LIG d   1       0.645  -0.577  -9.828  0.00  0.00     0.047 H 
ATOM     30  H   LIG d   1       5.947   2.367  -8.267  0.00  0.00     0.035 H 
ATOM     31  H   LIG d   1       6.321   1.681  -9.784  0.00  0.00     0.035 H 
ATOM     32  H   LIG d   1       3.558   2.397  -8.699  0.00  0.00     0.027 H 
ATOM     33  H   LIG d   1       4.439   3.266  -9.978  0.00  0.00     0.027 H 
ATOM     34  H   LIG d   1       4.415   1.249 -11.397  0.00  0.00     0.033 H 
ATOM     35  H   LIG d   1       2.754   1.671 -10.915  0.00  0.00     0.033 H 
ENDROOT
BRANCH   1  36
ATOM     36  N   LIG d   1       4.351  -3.323  -6.552  0.00  0.00    -0.137 N 
ATOM     37  H   LIG d   1       3.768  -3.957  -6.998  0.00  0.00     0.197 HD
BRANCH  36  38
ATOM     38  S   LIG d   1       5.084  -3.736  -5.125  0.00  0.00     0.086 S 
ATOM     39  O   LIG d   1       4.293  -4.763  -4.545  0.00  0.00    -0.149 OA
ATOM     40  O   LIG d   1       6.464  -3.908  -5.413  0.00  0.00    -0.149 OA
BRANCH  38  41
ATOM     41  C   LIG d   1       4.962  -2.341  -4.056  0.00  0.00     0.110 A 
ATOM     42  C   LIG d   1       3.919  -2.250  -3.153  0.00  0.00    -0.035 A 
ATOM     43  C   LIG d   1       3.823  -1.156  -2.314  0.00  0.00    -0.057 A 
ATOM     44  H   LIG d   1       3.179  -3.036  -3.104  0.00  0.00     0.064 H 
ATOM     45  C   LIG d   1       4.772  -0.152  -2.376  0.00  0.00    -0.050 A 
ATOM     46  H   LIG d   1       3.008  -1.086  -1.608  0.00  0.00     0.062 H 
ATOM     47  C   LIG d   1       5.815  -0.243  -3.279  0.00  0.00    -0.057 A 
ATOM     48  C   LIG d   1       5.913  -1.340  -4.115  0.00  0.00    -0.035 A 
ATOM     49  H   LIG d   1       6.556   0.542  -3.328  0.00  0.00     0.062 H 
ATOM     50  H   LIG d   1       6.731  -1.412  -4.816  0.00  0.00     0.064 H 
BRANCH  45  51
ATOM     51  C   LIG d   1       4.668   1.040  -1.461  0.00  0.00    -0.040 C 
ATOM     52  H   LIG d   1       4.277   0.722  -0.494  0.00  0.00     0.028 H 
ATOM     53  H   LIG d   1       5.655   1.482  -1.326  0.00  0.00     0.028 H 
ATOM     54  H   LIG d   1       3.996   1.778  -1.900  0.00  0.00     0.028 H 
ENDBRANCH  45  51
ENDBRANCH  38  41
ENDBRANCH  36  38
ENDBRANCH   1  36
BRANCH   8  55
ATOM     55  O   LIG d   1       1.569  -6.777 -11.698  0.00  0.00    -0.491 OA
BRANCH  55  56
ATOM     56  C   LIG d   1       1.316  -7.452 -10.464  0.00  0.00     0.079 C 
ATOM     57  H   LIG d   1       2.158  -7.304  -9.789  0.00  0.00     0.066 H 
ATOM     58  H   LIG d   1       0.410  -7.049 -10.009  0.00  0.00     0.066 H 
ATOM     59  H   LIG d   1       1.183  -8.517 -10.653  0.00  0.00     0.066 H 
ENDBRANCH  55  56
ENDBRANCH   8  55
BRANCH   9  60
ATOM     60  O   LIG d   1      -0.680  -5.764 -12.935  0.00  0.00    -0.491 OA
BRANCH  60  61
ATOM     61  C   LIG d   1      -1.884  -6.034 -12.213  0.00  0.00     0.079 C 
ATOM     62  H   LIG d   1      -2.414  -6.860 -12.686  0.00  0.00     0.066 H 
ATOM     63  H   LIG d   1      -1.638  -6.301 -11.185  0.00  0.00     0.066 H 
ATOM     64  H   LIG d   1      -2.516  -5.147 -12.217  0.00  0.00     0.066 H 
ENDBRANCH  60  61
ENDBRANCH   9  60
TORSDOF 8
ENDMDL
MODEL 5
REMARK VINA RESULT:      -6.9      4.040      5.954
REMARK  8 active torsions:
REMARK  status: ('A' for Active; 'I' for Inactive)
REMARK    1  A    between atoms: C_1  and  C_2 
REMARK    2  A    between atoms: C_5  and  S_8 
REMARK    3  A    between atoms: S_8  and  N_11 
REMARK    4  A    between atoms: N_11  and  N_12 
REMARK    5  A    between atoms: C_19  and  O_35 
REMARK    6  A    between atoms: C_20  and  O_33 
REMARK    7  A    between atoms: O_33  and  C_34 
REMARK    8  A    between atoms: O_35  and  C_36 
ROOT
ATOM      1  N   LIG d   1       6.913   0.989  -5.305  0.00  0.00    -0.170 NA
ATOM      2  C   LIG d   1       6.008   0.062  -5.374  0.00  0.00     0.074 C 
ATOM      3  C   LIG d   1       5.718  -0.603  -6.699  0.00  0.00     0.015 C 
ATOM      4  C   LIG d   1       4.538  -1.563  -6.544  0.00  0.00     0.054 C 
ATOM      5  H   LIG d   1       3.636  -0.955  -6.474  0.00  0.00     0.055 H 
ATOM      6  C   LIG d   1       4.405  -2.445  -7.745  0.00  0.00    -0.020 A 
ATOM      7  C   LIG d   1       4.444  -1.853  -9.003  0.00  0.00    -0.011 A 
ATOM      8  C   LIG d   1       4.355  -2.623 -10.147  0.00  0.00     0.162 A 
ATOM      9  C   LIG d   1       4.219  -4.004 -10.039  0.00  0.00     0.162 A 
ATOM     10  C   LIG d   1       4.178  -4.590  -8.789  0.00  0.00    -0.013 A 
ATOM     11  C   LIG d   1       4.263  -3.812  -7.642  0.00  0.00    -0.037 A 
ATOM     12  C   LIG d   1       4.181  -4.500  -6.310  0.00  0.00    -0.011 C 
ATOM     13  C   LIG d   1       4.903  -3.731  -5.221  0.00  0.00     0.017 C 
ATOM     14  N   LIG d   1       4.677  -2.302  -5.294  0.00  0.00    -0.325 N 
ATOM     15  C   LIG d   1       4.617  -1.554  -4.147  0.00  0.00     0.019 C 
ATOM     16  C   LIG d   1       5.270  -0.337  -4.160  0.00  0.00     0.057 C 
ATOM     17  C   LIG d   1       5.236   0.509  -3.031  0.00  0.00     0.166 C 
ATOM     18  O   LIG d   1       5.808   1.580  -3.061  0.00  0.00    -0.292 OA
ATOM     19  C   LIG d   1       4.495   0.090  -1.787  0.00  0.00     0.011 C 
ATOM     20  C   LIG d   1       4.511  -1.438  -1.676  0.00  0.00    -0.041 C 
ATOM     21  C   LIG d   1       3.875  -2.037  -2.937  0.00  0.00    -0.013 C 
ATOM     22  H   LIG d   1       5.471   0.159  -7.440  0.00  0.00     0.035 H 
ATOM     23  H   LIG d   1       6.596  -1.157  -7.027  0.00  0.00     0.035 H 
ATOM     24  H   LIG d   1       4.545  -0.781  -9.085  0.00  0.00     0.066 H 
ATOM     25  H   LIG d   1       4.075  -5.662  -8.702  0.00  0.00     0.066 H 
ATOM     26  H   LIG d   1       3.132  -4.606  -6.031  0.00  0.00     0.033 H 
ATOM     27  H   LIG d   1       4.624  -5.492  -6.395  0.00  0.00     0.033 H 
ATOM     28  H   LIG d   1       4.561  -4.091  -4.252  0.00  0.00     0.047 H 
ATOM     29  H   LIG d   1       5.972  -3.921  -5.310  0.00  0.00     0.047 H 
ATOM     30  H   LIG d   1       4.939   0.488  -0.984  0.00  0.00     0.035 H 
ATOM     31  H   LIG d   1       3.464   0.439  -1.843  0.00  0.00     0.035 H 
ATOM     32  H   LIG d   1       5.540  -1.785  -1.587  0.00  0.00     0.027 H 
ATOM     33  H   LIG d   1       3.944  -1.746  -0.799  0.00  0.00     0.027 H 
ATOM     34  H   LIG d   1       2.833  -1.725  -3.001  0.00  0.00     0.033 H 
ATOM     35  H   LIG d   1       3.928  -3.124  -2.888  0.00  0.00     0.033 H 
ENDROOT
BRANCH   1  36
ATOM     36  N   LIG d   1       7.616   1.370  -6.454  0.00  0.00    -0.137 N 
ATOM     37  H   LIG d   1       7.142   1.518  -7.286  0.00  0.00     0.197 HD
BRANCH  36  38
ATOM     38  S   LIG d   1       9.260   1.568  -6.392  0.00  0.00     0.086 S 
ATOM     39  O   LIG d   1       9.808   0.305  -6.040  0.00  0.00    -0.149 OA
ATOM     40  O   LIG d   1       9.632   2.256  -7.578  0.00  0.00    -0.149 OA
BRANCH  38  41
ATOM     41  C   LIG d   1       9.602   2.657  -5.049  0.00  0.00     0.110 A 
ATOM     42  C   LIG d   1       9.377   4.014  -5.186  0.00  0.00    -0.035 A 
ATOM     43  C   LIG d   1       9.645   4.869  -4.133  0.00  0.00    -0.057 A 
ATOM     44  H   LIG d   1       8.993   4.407  -6.116  0.00  0.00     0.064 H 
ATOM     45  C   LIG d   1      10.135   4.366  -2.942  0.00  0.00    -0.050 A 
ATOM     46  H   LIG d   1       9.469   5.930  -4.240  0.00  0.00     0.062 H 
ATOM     47  C   LIG d   1      10.359   3.008  -2.805  0.00  0.00    -0.057 A 
ATOM     48  C   LIG d   1      10.087   2.154  -3.857  0.00  0.00    -0.035 A 
ATOM     49  H   LIG d   1      10.742   2.616  -1.875  0.00  0.00     0.062 H 
ATOM     50  H   LIG d   1      10.258   1.093  -3.748  0.00  0.00     0.064 H 
BRANCH  45  51
ATOM     51  C   LIG d   1      10.426   5.297  -1.794  0.00  0.00    -0.040 C 
ATOM     52  H   LIG d   1      10.518   6.317  -2.168  0.00  0.00     0.028 H 
ATOM     53  H   LIG d   1       9.613   5.248  -1.070  0.00  0.00     0.028 H 
ATOM     54  H   LIG d   1      11.359   5.002  -1.314  0.00  0.00     0.028 H 
ENDBRANCH  45  51
ENDBRANCH  38  41
ENDBRANCH  36  38
ENDBRANCH   1  36
BRANCH   8  55
ATOM     55  O   LIG d   1       4.396  -2.033 -11.372  0.00  0.00    -0.491 OA
BRANCH  55  56
ATOM     56  C   LIG d   1       4.026  -0.655 -11.441  0.00  0.00     0.079 C 
ATOM     57  H   LIG d   1       4.353  -0.145 -10.535  0.00  0.00     0.066 H 
ATOM     58  H   LIG d   1       4.499  -0.195 -12.309  0.00  0.00     0.066 H 
ATOM     59  H   LIG d   1       2.942  -0.574 -11.533  0.00  0.00     0.066 H 
ENDBRANCH  55  56
ENDBRANCH   8  55
BRANCH   9  60
ATOM     60  O   LIG d   1       4.131  -4.772 -11.158  0.00  0.00    -0.491 OA
BRANCH  60  61
ATOM     61  C   LIG d   1       2.870  -5.390 -11.423  0.00  0.00     0.079 C 
ATOM     62  H   LIG d   1       2.449  -4.978 -12.341  0.00  0.00     0.066 H 
ATOM     63  H   LIG d   1       3.010  -6.465 -11.539  0.00  0.00     0.066 H 
ATOM     64  H   LIG d   1       2.190  -5.199 -10.594  0.00  0.00     0.066 H 
ENDBRANCH  60  61
ENDBRANCH   9  60
TORSDOF 8
ENDMDL
MODEL 6
REMARK VINA RESULT:      -6.6      4.433      5.948
REMARK  8 active torsions:
REMARK  status: ('A' for Active; 'I' for Inactive)
REMARK    1  A    between atoms: C_1  and  C_2 
REMARK    2  A    between atoms: C_5  and  S_8 
REMARK    3  A    between atoms: S_8  and  N_11 
REMARK    4  A    between atoms: N_11  and  N_12 
REMARK    5  A    between atoms: C_19  and  O_35 
REMARK    6  A    between atoms: C_20  and  O_33 
REMARK    7  A    between atoms: O_33  and  C_34 
REMARK    8  A    between atoms: O_35  and  C_36 
ROOT
ATOM      1  N   LIG d   1       7.135   1.091  -4.980  0.00  0.00    -0.170 NA
ATOM      2  C   LIG d   1       6.197   0.226  -5.210  0.00  0.00     0.074 C 
ATOM      3  C   LIG d   1       5.969  -0.275  -6.616  0.00  0.00     0.015 C 
ATOM      4  C   LIG d   1       4.739  -1.184  -6.644  0.00  0.00     0.054 C 
ATOM      5  H   LIG d   1       3.863  -0.541  -6.565  0.00  0.00     0.055 H 
ATOM      6  C   LIG d   1       4.649  -1.923  -7.942  0.00  0.00    -0.020 A 
ATOM      7  C   LIG d   1       4.802  -1.200  -9.121  0.00  0.00    -0.011 A 
ATOM      8  C   LIG d   1       4.757  -1.836 -10.347  0.00  0.00     0.162 A 
ATOM      9  C   LIG d   1       4.552  -3.212 -10.403  0.00  0.00     0.162 A 
ATOM     10  C   LIG d   1       4.399  -3.927  -9.231  0.00  0.00    -0.013 A 
ATOM     11  C   LIG d   1       4.440  -3.283  -8.002  0.00  0.00    -0.037 A 
ATOM     12  C   LIG d   1       4.235  -4.106  -6.762  0.00  0.00    -0.011 C 
ATOM     13  C   LIG d   1       4.914  -3.499  -5.551  0.00  0.00     0.017 C 
ATOM     14  N   LIG d   1       4.758  -2.060  -5.479  0.00  0.00    -0.325 N 
ATOM     15  C   LIG d   1       4.653  -1.439  -4.261  0.00  0.00     0.019 C 
ATOM     16  C   LIG d   1       5.359  -0.263  -4.097  0.00  0.00     0.057 C 
ATOM     17  C   LIG d   1       5.286   0.456  -2.884  0.00  0.00     0.166 C 
ATOM     18  O   LIG d   1       5.906   1.492  -2.758  0.00  0.00    -0.292 OA
ATOM     19  C   LIG d   1       4.442  -0.056  -1.745  0.00  0.00     0.011 C 
ATOM     20  C   LIG d   1       4.382  -1.585  -1.805  0.00  0.00    -0.041 C 
ATOM     21  C   LIG d   1       3.809  -2.010  -3.162  0.00  0.00    -0.013 C 
ATOM     22  H   LIG d   1       5.808   0.574  -7.281  0.00  0.00     0.035 H 
ATOM     23  H   LIG d   1       6.842  -0.836  -6.947  0.00  0.00     0.035 H 
ATOM     24  H   LIG d   1       4.956  -0.133  -9.077  0.00  0.00     0.066 H 
ATOM     25  H   LIG d   1       4.242  -4.995  -9.271  0.00  0.00     0.066 H 
ATOM     26  H   LIG d   1       3.166  -4.187  -6.564  0.00  0.00     0.033 H 
ATOM     27  H   LIG d   1       4.638  -5.105  -6.930  0.00  0.00     0.033 H 
ATOM     28  H   LIG d   1       4.490  -3.943  -4.652  0.00  0.00     0.047 H 
ATOM     29  H   LIG d   1       5.977  -3.734  -5.592  0.00  0.00     0.047 H 
ATOM     30  H   LIG d   1       4.847   0.229  -0.876  0.00  0.00     0.035 H 
ATOM     31  H   LIG d   1       3.435   0.350  -1.827  0.00  0.00     0.035 H 
ATOM     32  H   LIG d   1       5.386  -1.994  -1.689  0.00  0.00     0.027 H 
ATOM     33  H   LIG d   1       3.743  -1.956  -1.005  0.00  0.00     0.027 H 
ATOM     34  H   LIG d   1       2.788  -1.639  -3.257  0.00  0.00     0.033 H 
ATOM     35  H   LIG d   1       3.808  -3.098  -3.232  0.00  0.00     0.033 H 
ENDROOT
BRANCH   1  36
ATOM     36  N   LIG d   1       7.932   1.557  -6.032  0.00  0.00    -0.137 N 
ATOM     37  H   LIG d   1       7.567   1.617  -6.928  0.00  0.00     0.197 HD
BRANCH  36  38
ATOM     38  S   LIG d   1       9.501   2.007  -5.747  0.00  0.00     0.086 S 
ATOM     39  O   LIG d   1       9.807   1.595  -4.422  0.00  0.00    -0.149 OA
ATOM     40  O   LIG d   1      10.257   1.580  -6.871  0.00  0.00    -0.149 OA
BRANCH  38  41
ATOM     41  C   LIG d   1       9.545   3.768  -5.749  0.00  0.00     0.110 A 
ATOM     42  C   LIG d   1       9.292   4.468  -4.584  0.00  0.00    -0.035 A 
ATOM     43  C   LIG d   1       9.327   5.850  -4.586  0.00  0.00    -0.057 A 
ATOM     44  H   LIG d   1       9.066   3.934  -3.672  0.00  0.00     0.064 H 
ATOM     45  C   LIG d   1       9.617   6.533  -5.752  0.00  0.00    -0.050 A 
ATOM     46  H   LIG d   1       9.129   6.397  -3.675  0.00  0.00     0.062 H 
ATOM     47  C   LIG d   1       9.871   5.833  -6.918  0.00  0.00    -0.057 A 
ATOM     48  C   LIG d   1       9.841   4.451  -6.914  0.00  0.00    -0.035 A 
ATOM     49  H   LIG d   1      10.098   6.366  -7.829  0.00  0.00     0.062 H 
ATOM     50  H   LIG d   1      10.044   3.905  -7.824  0.00  0.00     0.064 H 
BRANCH  45  51
ATOM     51  C   LIG d   1       9.656   8.038  -5.754  0.00  0.00    -0.040 C 
ATOM     52  H   LIG d   1       8.907   8.422  -5.061  0.00  0.00     0.028 H 
ATOM     53  H   LIG d   1      10.644   8.378  -5.443  0.00  0.00     0.028 H 
ATOM     54  H   LIG d   1       9.444   8.407  -6.759  0.00  0.00     0.028 H 
ENDBRANCH  45  51
ENDBRANCH  38  41
ENDBRANCH  36  38
ENDBRANCH   1  36
BRANCH   8  55
ATOM     55  O   LIG d   1       4.909  -1.121 -11.494  0.00  0.00    -0.491 OA
BRANCH  55  56
ATOM     56  C   LIG d   1       3.866  -0.202 -11.827  0.00  0.00     0.079 C 
ATOM     57  H   LIG d   1       3.036  -0.743 -12.280  0.00  0.00     0.066 H 
ATOM     58  H   LIG d   1       3.523   0.302 -10.923  0.00  0.00     0.066 H 
ATOM     59  H   LIG d   1       4.246   0.538 -12.532  0.00  0.00     0.066 H 
ENDBRANCH  55  56
ENDBRANCH   8  55
BRANCH   9  60
ATOM     60  O   LIG d   1       4.507  -3.849 -11.604  0.00  0.00    -0.491 OA
BRANCH  60  61
ATOM     61  C   LIG d   1       5.426  -4.925 -11.803  0.00  0.00     0.079 C 
ATOM     62  H   LIG d   1       5.850  -5.223 -10.843  0.00  0.00     0.066 H 
ATOM     63  H   LIG d   1       4.903  -5.772 -12.247  0.00  0.00     0.066 H 
ATOM     64  H   LIG d   1       6.226  -4.602 -12.468  0.00  0.00     0.066 H 
ENDBRANCH  60  61
ENDBRANCH   9  60
TORSDOF 8
ENDMDL
MODEL 7
REMARK VINA RESULT:      -6.5      2.547      3.687
REMARK  8 active torsions:
REMARK  status: ('A' for Active; 'I' for Inactive)
REMARK    1  A    between atoms: C_1  and  C_2 
REMARK    2  A    between atoms: C_5  and  S_8 
REMARK    3  A    between atoms: S_8  and  N_11 
REMARK    4  A    between atoms: N_11  and  N_12 
REMARK    5  A    between atoms: C_19  and  O_35 
REMARK    6  A    between atoms: C_20  and  O_33 
REMARK    7  A    between atoms: O_33  and  C_34 
REMARK    8  A    between atoms: O_35  and  C_36 
ROOT
ATOM      1  N   LIG d   1       3.528   0.353  -6.745  0.00  0.00    -0.170 NA
ATOM      2  C   LIG d   1       4.056  -0.460  -5.884  0.00  0.00     0.074 C 
ATOM      3  C   LIG d   1       4.655  -1.764  -6.355  0.00  0.00     0.015 C 
ATOM      4  C   LIG d   1       5.097  -2.592  -5.147  0.00  0.00     0.054 C 
ATOM      5  H   LIG d   1       4.195  -2.993  -4.686  0.00  0.00     0.055 H 
ATOM      6  C   LIG d   1       5.947  -3.748  -5.573  0.00  0.00    -0.020 A 
ATOM      7  C   LIG d   1       5.499  -4.541  -6.624  0.00  0.00    -0.011 A 
ATOM      8  C   LIG d   1       6.257  -5.603  -7.077  0.00  0.00     0.162 A 
ATOM      9  C   LIG d   1       7.479  -5.886  -6.473  0.00  0.00     0.162 A 
ATOM     10  C   LIG d   1       7.921  -5.098  -5.427  0.00  0.00    -0.013 A 
ATOM     11  C   LIG d   1       7.153  -4.034  -4.972  0.00  0.00    -0.037 A 
ATOM     12  C   LIG d   1       7.669  -3.232  -3.812  0.00  0.00    -0.011 C 
ATOM     13  C   LIG d   1       7.150  -1.808  -3.823  0.00  0.00     0.017 C 
ATOM     14  N   LIG d   1       5.747  -1.721  -4.175  0.00  0.00    -0.325 N 
ATOM     15  C   LIG d   1       4.953  -0.755  -3.612  0.00  0.00     0.019 C 
ATOM     16  C   LIG d   1       4.069  -0.106  -4.451  0.00  0.00     0.057 C 
ATOM     17  C   LIG d   1       3.196   0.882  -3.948  0.00  0.00     0.166 C 
ATOM     18  O   LIG d   1       2.418   1.438  -4.697  0.00  0.00    -0.292 OA
ATOM     19  C   LIG d   1       3.224   1.253  -2.487  0.00  0.00     0.011 C 
ATOM     20  C   LIG d   1       4.637   1.040  -1.937  0.00  0.00    -0.041 C 
ATOM     21  C   LIG d   1       5.043  -0.423  -2.153  0.00  0.00    -0.013 C 
ATOM     22  H   LIG d   1       3.909  -2.321  -6.923  0.00  0.00     0.035 H 
ATOM     23  H   LIG d   1       5.516  -1.560  -6.989  0.00  0.00     0.035 H 
ATOM     24  H   LIG d   1       4.549  -4.324  -7.089  0.00  0.00     0.066 H 
ATOM     25  H   LIG d   1       8.870  -5.313  -4.958  0.00  0.00     0.066 H 
ATOM     26  H   LIG d   1       7.360  -3.714  -2.884  0.00  0.00     0.033 H 
ATOM     27  H   LIG d   1       8.758  -3.212  -3.851  0.00  0.00     0.033 H 
ATOM     28  H   LIG d   1       7.290  -1.376  -2.833  0.00  0.00     0.047 H 
ATOM     29  H   LIG d   1       7.728  -1.231  -4.543  0.00  0.00     0.047 H 
ATOM     30  H   LIG d   1       2.965   2.212  -2.382  0.00  0.00     0.035 H 
ATOM     31  H   LIG d   1       2.523   0.624  -1.940  0.00  0.00     0.035 H 
ATOM     32  H   LIG d   1       5.335   1.693  -2.462  0.00  0.00     0.027 H 
ATOM     33  H   LIG d   1       4.652   1.270  -0.873  0.00  0.00     0.027 H 
ATOM     34  H   LIG d   1       4.372  -1.073  -1.590  0.00  0.00     0.033 H 
ATOM     35  H   LIG d   1       6.066  -0.571  -1.808  0.00  0.00     0.033 H 
ENDROOT
BRANCH   1  36
ATOM     36  N   LIG d   1       3.515   0.022  -8.106  0.00  0.00    -0.137 N 
ATOM     37  H   LIG d   1       2.793  -0.515  -8.467  0.00  0.00     0.197 HD
BRANCH  36  38
ATOM     38  S   LIG d   1       4.732   0.547  -9.099  0.00  0.00     0.086 S 
ATOM     39  O   LIG d   1       4.311   0.285 -10.430  0.00  0.00    -0.149 OA
ATOM     40  O   LIG d   1       5.085   1.849  -8.654  0.00  0.00    -0.149 OA
BRANCH  38  41
ATOM     41  C   LIG d   1       6.129  -0.484  -8.799  0.00  0.00     0.110 A 
ATOM     42  C   LIG d   1       6.240  -1.702  -9.442  0.00  0.00    -0.035 A 
ATOM     43  C   LIG d   1       7.336  -2.511  -9.208  0.00  0.00    -0.057 A 
ATOM     44  H   LIG d   1       5.469  -2.022 -10.128  0.00  0.00     0.064 H 
ATOM     45  C   LIG d   1       8.323  -2.100  -8.331  0.00  0.00    -0.050 A 
ATOM     46  H   LIG d   1       7.423  -3.463  -9.711  0.00  0.00     0.062 H 
ATOM     47  C   LIG d   1       8.213  -0.881  -7.688  0.00  0.00    -0.057 A 
ATOM     48  C   LIG d   1       7.118  -0.071  -7.926  0.00  0.00    -0.035 A 
ATOM     49  H   LIG d   1       8.983  -0.561  -7.003  0.00  0.00     0.062 H 
ATOM     50  H   LIG d   1       7.035   0.883  -7.427  0.00  0.00     0.064 H 
BRANCH  45  51
ATOM     51  C   LIG d   1       9.518  -2.981  -8.076  0.00  0.00    -0.040 C 
ATOM     52  H   LIG d   1       9.951  -3.292  -9.027  0.00  0.00     0.028 H 
ATOM     53  H   LIG d   1      10.262  -2.428  -7.502  0.00  0.00     0.028 H 
ATOM     54  H   LIG d   1       9.207  -3.862  -7.514  0.00  0.00     0.028 H 
ENDBRANCH  45  51
ENDBRANCH  38  41
ENDBRANCH  36  38
ENDBRANCH   1  36
BRANCH   8  55
ATOM     55  O   LIG d   1       5.810  -6.372  -8.107  0.00  0.00    -0.491 OA
BRANCH  55  56
ATOM     56  C   LIG d   1       5.319  -5.687  -9.261  0.00  0.00     0.079 C 
ATOM     57  H   LIG d   1       5.949  -5.921 -10.118  0.00  0.00     0.066 H 
ATOM     58  H   LIG d   1       4.296  -6.005  -9.463  0.00  0.00     0.066 H 
ATOM     59  H   LIG d   1       5.335  -4.612  -9.080  0.00  0.00     0.066 H 
ENDBRANCH  55  56
ENDBRANCH   8  55
BRANCH   9  60
ATOM     60  O   LIG d   1       8.234  -6.928  -6.911  0.00  0.00    -0.491 OA
BRANCH  60  61
ATOM     61  C   LIG d   1       8.257  -8.101  -6.095  0.00  0.00     0.079 C 
ATOM     62  H   LIG d   1       9.057  -8.017  -5.359  0.00  0.00     0.066 H 
ATOM     63  H   LIG d   1       7.301  -8.205  -5.581  0.00  0.00     0.066 H 
ATOM     64  H   LIG d   1       8.430  -8.976  -6.720  0.00  0.00     0.066 H 
ENDBRANCH  60  61
ENDBRANCH   9  60
TORSDOF 8
ENDMDL
MODEL 8
REMARK VINA RESULT:      -6.2      2.576      6.104
REMARK  8 active torsions:
REMARK  status: ('A' for Active; 'I' for Inactive)
REMARK    1  A    between atoms: C_1  and  C_2 
REMARK    2  A    between atoms: C_5  and  S_8 
REMARK    3  A    between atoms: S_8  and  N_11 
REMARK    4  A    between atoms: N_11  and  N_12 
REMARK    5  A    between atoms: C_19  and  O_35 
REMARK    6  A    between atoms: C_20  and  O_33 
REMARK    7  A    between atoms: O_33  and  C_34 
REMARK    8  A    between atoms: O_35  and  C_36 
ROOT
ATOM      1  N   LIG d   1       1.892  -4.533 -10.037  0.00  0.00    -0.170 NA
ATOM      2  C   LIG d   1       2.941  -4.709  -9.295  0.00  0.00     0.074 C 
ATOM      3  C   LIG d   1       3.555  -3.533  -8.574  0.00  0.00     0.015 C 
ATOM      4  C   LIG d   1       4.840  -3.973  -7.872  0.00  0.00     0.054 C 
ATOM      5  H   LIG d   1       5.600  -4.098  -8.643  0.00  0.00     0.055 H 
ATOM      6  C   LIG d   1       5.318  -2.922  -6.921  0.00  0.00    -0.020 A 
ATOM      7  C   LIG d   1       5.386  -1.608  -7.374  0.00  0.00    -0.011 A 
ATOM      8  C   LIG d   1       5.793  -0.593  -6.531  0.00  0.00     0.162 A 
ATOM      9  C   LIG d   1       6.144  -0.887  -5.216  0.00  0.00     0.162 A 
ATOM     10  C   LIG d   1       6.078  -2.193  -4.768  0.00  0.00    -0.013 A 
ATOM     11  C   LIG d   1       5.673  -3.211  -5.622  0.00  0.00    -0.037 A 
ATOM     12  C   LIG d   1       5.650  -4.615  -5.090  0.00  0.00    -0.011 C 
ATOM     13  C   LIG d   1       4.638  -5.485  -5.809  0.00  0.00     0.017 C 
ATOM     14  N   LIG d   1       4.626  -5.271  -7.242  0.00  0.00    -0.325 N 
ATOM     15  C   LIG d   1       4.367  -6.315  -8.092  0.00  0.00     0.019 C 
ATOM     16  C   LIG d   1       3.527  -6.058  -9.158  0.00  0.00     0.057 C 
ATOM     17  C   LIG d   1       3.228  -7.068 -10.098  0.00  0.00     0.166 C 
ATOM     18  O   LIG d   1       2.495  -6.824 -11.034  0.00  0.00    -0.292 OA
ATOM     19  C   LIG d   1       3.815  -8.448  -9.945  0.00  0.00     0.011 C 
ATOM     20  C   LIG d   1       4.042  -8.741  -8.459  0.00  0.00    -0.041 C 
ATOM     21  C   LIG d   1       4.970  -7.669  -7.874  0.00  0.00    -0.013 C 
ATOM     22  H   LIG d   1       3.787  -2.747  -9.295  0.00  0.00     0.035 H 
ATOM     23  H   LIG d   1       2.851  -3.151  -7.836  0.00  0.00     0.035 H 
ATOM     24  H   LIG d   1       5.119  -1.381  -8.395  0.00  0.00     0.066 H 
ATOM     25  H   LIG d   1       6.346  -2.425  -3.748  0.00  0.00     0.066 H 
ATOM     26  H   LIG d   1       6.642  -5.054  -5.210  0.00  0.00     0.033 H 
ATOM     27  H   LIG d   1       5.404  -4.589  -4.029  0.00  0.00     0.033 H 
ATOM     28  H   LIG d   1       4.872  -6.531  -5.613  0.00  0.00     0.047 H 
ATOM     29  H   LIG d   1       3.647  -5.267  -5.413  0.00  0.00     0.047 H 
ATOM     30  H   LIG d   1       3.184  -9.122 -10.326  0.00  0.00     0.035 H 
ATOM     31  H   LIG d   1       4.766  -8.499 -10.474  0.00  0.00     0.035 H 
ATOM     32  H   LIG d   1       3.087  -8.723  -7.934  0.00  0.00     0.027 H 
ATOM     33  H   LIG d   1       4.501  -9.722  -8.347  0.00  0.00     0.027 H 
ATOM     34  H   LIG d   1       5.940  -7.719  -8.369  0.00  0.00     0.033 H 
ATOM     35  H   LIG d   1       5.097  -7.843  -6.805  0.00  0.00     0.033 H 
ENDROOT
BRANCH   1  36
ATOM     36  N   LIG d   1       1.333  -3.256 -10.169  0.00  0.00    -0.137 N 
ATOM     37  H   LIG d   1       0.713  -2.926  -9.501  0.00  0.00     0.197 HD
BRANCH  36  38
ATOM     38  S   LIG d   1       1.733  -2.307 -11.467  0.00  0.00     0.086 S 
ATOM     39  O   LIG d   1       2.782  -2.977 -12.152  0.00  0.00    -0.149 OA
ATOM     40  O   LIG d   1       0.512  -1.953 -12.102  0.00  0.00    -0.149 OA
BRANCH  38  41
ATOM     41  C   LIG d   1       2.419  -0.815 -10.829  0.00  0.00     0.110 A 
ATOM     42  C   LIG d   1       1.975  -0.311  -9.621  0.00  0.00    -0.035 A 
ATOM     43  C   LIG d   1       2.514   0.859  -9.120  0.00  0.00    -0.057 A 
ATOM     44  H   LIG d   1       1.206  -0.831  -9.069  0.00  0.00     0.064 H 
ATOM     45  C   LIG d   1       3.499   1.525  -9.826  0.00  0.00    -0.050 A 
ATOM     46  H   LIG d   1       2.167   1.253  -8.175  0.00  0.00     0.062 H 
ATOM     47  C   LIG d   1       3.944   1.020 -11.034  0.00  0.00    -0.057 A 
ATOM     48  C   LIG d   1       3.408  -0.153 -11.532  0.00  0.00    -0.035 A 
ATOM     49  H   LIG d   1       4.713   1.540 -11.585  0.00  0.00     0.062 H 
ATOM     50  H   LIG d   1       3.759  -0.549 -12.473  0.00  0.00     0.064 H 
BRANCH  45  51
ATOM     51  C   LIG d   1       4.086   2.799  -9.280  0.00  0.00    -0.040 C 
ATOM     52  H   LIG d   1       4.157   3.539 -10.078  0.00  0.00     0.028 H 
ATOM     53  H   LIG d   1       3.447   3.184  -8.485  0.00  0.00     0.028 H 
ATOM     54  H   LIG d   1       5.081   2.600  -8.881  0.00  0.00     0.028 H 
ENDBRANCH  45  51
ENDBRANCH  38  41
ENDBRANCH  36  38
ENDBRANCH   1  36
BRANCH   8  55
ATOM     55  O   LIG d   1       5.854   0.688  -6.983  0.00  0.00    -0.491 OA
BRANCH  55  56
ATOM     56  C   LIG d   1       6.815   0.970  -8.003  0.00  0.00     0.079 C 
ATOM     57  H   LIG d   1       6.310   1.059  -8.964  0.00  0.00     0.066 H 
ATOM     58  H   LIG d   1       7.326   1.905  -7.772  0.00  0.00     0.066 H 
ATOM     59  H   LIG d   1       7.545   0.160  -8.048  0.00  0.00     0.066 H 
ENDBRANCH  55  56
ENDBRANCH   8  55
BRANCH   9  60
ATOM     60  O   LIG d   1       6.545   0.104  -4.376  0.00  0.00    -0.491 OA
BRANCH  60  61
ATOM     61  C   LIG d   1       5.828   0.243  -3.147  0.00  0.00     0.079 C 
ATOM     62  H   LIG d   1       5.065   1.014  -3.256  0.00  0.00     0.066 H 
ATOM     63  H   LIG d   1       5.353  -0.705  -2.895  0.00  0.00     0.066 H 
ATOM     64  H   LIG d   1       6.519   0.525  -2.353  0.00  0.00     0.066 H 
ENDBRANCH  60  61
ENDBRANCH   9  60
TORSDOF 8
ENDMDL
MODEL 9
REMARK VINA RESULT:      -6.2      7.744     10.719
REMARK  8 active torsions:
REMARK  status: ('A' for Active; 'I' for Inactive)
REMARK    1  A    between atoms: C_1  and  C_2 
REMARK    2  A    between atoms: C_5  and  S_8 
REMARK    3  A    between atoms: S_8  and  N_11 
REMARK    4  A    between atoms: N_11  and  N_12 
REMARK    5  A    between atoms: C_19  and  O_35 
REMARK    6  A    between atoms: C_20  and  O_33 
REMARK    7  A    between atoms: O_33  and  C_34 
REMARK    8  A    between atoms: O_35  and  C_36 
ROOT
ATOM      1  N   LIG d   1       8.883   3.244  -4.664  0.00  0.00    -0.170 NA
ATOM      2  C   LIG d   1       9.409   4.374  -5.021  0.00  0.00     0.074 C 
ATOM      3  C   LIG d   1       9.586   4.689  -6.487  0.00  0.00     0.015 C 
ATOM      4  C   LIG d   1      10.332   6.015  -6.642  0.00  0.00     0.054 C 
ATOM      5  H   LIG d   1      11.377   5.825  -6.396  0.00  0.00     0.055 H 
ATOM      6  C   LIG d   1      10.274   6.500  -8.056  0.00  0.00    -0.020 A 
ATOM      7  C   LIG d   1      10.576   5.600  -9.072  0.00  0.00    -0.011 A 
ATOM      8  C   LIG d   1      10.510   5.985 -10.397  0.00  0.00     0.162 A 
ATOM      9  C   LIG d   1      10.143   7.289 -10.718  0.00  0.00     0.162 A 
ATOM     10  C   LIG d   1       9.845   8.183  -9.707  0.00  0.00    -0.013 A 
ATOM     11  C   LIG d   1       9.917   7.791  -8.377  0.00  0.00    -0.037 A 
ATOM     12  C   LIG d   1       9.613   8.813  -7.319  0.00  0.00    -0.011 C 
ATOM     13  C   LIG d   1       9.095   8.181  -6.042  0.00  0.00     0.017 C 
ATOM     14  N   LIG d   1       9.813   6.977  -5.677  0.00  0.00    -0.325 N 
ATOM     15  C   LIG d   1      10.010   6.666  -4.356  0.00  0.00     0.019 C 
ATOM     16  C   LIG d   1       9.829   5.346  -3.992  0.00  0.00     0.057 C 
ATOM     17  C   LIG d   1      10.038   4.934  -2.658  0.00  0.00     0.166 C 
ATOM     18  O   LIG d   1       9.883   3.768  -2.355  0.00  0.00    -0.292 OA
ATOM     19  C   LIG d   1      10.451   5.933  -1.607  0.00  0.00     0.011 C 
ATOM     20  C   LIG d   1       9.890   7.311  -1.969  0.00  0.00    -0.041 C 
ATOM     21  C   LIG d   1      10.405   7.712  -3.357  0.00  0.00    -0.013 C 
ATOM     22  H   LIG d   1      10.160   3.892  -6.962  0.00  0.00     0.035 H 
ATOM     23  H   LIG d   1       8.609   4.765  -6.962  0.00  0.00     0.035 H 
ATOM     24  H   LIG d   1      10.866   4.590  -8.822  0.00  0.00     0.066 H 
ATOM     25  H   LIG d   1       9.556   9.194  -9.952  0.00  0.00     0.066 H 
ATOM     26  H   LIG d   1      10.523   9.370  -7.094  0.00  0.00     0.033 H 
ATOM     27  H   LIG d   1       8.863   9.505  -7.700  0.00  0.00     0.033 H 
ATOM     28  H   LIG d   1       9.186   8.903  -5.232  0.00  0.00     0.047 H 
ATOM     29  H   LIG d   1       8.043   7.934  -6.176  0.00  0.00     0.047 H 
ATOM     30  H   LIG d   1      10.092   5.649  -0.719  0.00  0.00     0.035 H 
ATOM     31  H   LIG d   1      11.538   5.984  -1.562  0.00  0.00     0.035 H 
ATOM     32  H   LIG d   1       8.801   7.269  -1.982  0.00  0.00     0.027 H 
ATOM     33  H   LIG d   1      10.218   8.043  -1.232  0.00  0.00     0.027 H 
ATOM     34  H   LIG d   1      11.491   7.798  -3.330  0.00  0.00     0.033 H 
ATOM     35  H   LIG d   1       9.970   8.670  -3.642  0.00  0.00     0.033 H 
ENDROOT
BRANCH   1  36
ATOM     36  N   LIG d   1       8.483   2.319  -5.637  0.00  0.00    -0.137 N 
ATOM     37  H   LIG d   1       8.033   2.624  -6.439  0.00  0.00     0.197 HD
BRANCH  36  38
ATOM     38  S   LIG d   1       8.778   0.704  -5.416  0.00  0.00     0.086 S 
ATOM     39  O   LIG d   1       8.623   0.086  -6.686  0.00  0.00    -0.149 OA
ATOM     40  O   LIG d   1       9.980   0.610  -4.665  0.00  0.00    -0.149 OA
BRANCH  38  41
ATOM     41  C   LIG d   1       7.491   0.076  -4.389  0.00  0.00     0.110 A 
ATOM     42  C   LIG d   1       7.278  -1.287  -4.304  0.00  0.00    -0.035 A 
ATOM     43  C   LIG d   1       6.269  -1.780  -3.498  0.00  0.00    -0.057 A 
ATOM     44  H   LIG d   1       7.900  -1.967  -4.867  0.00  0.00     0.064 H 
ATOM     45  C   LIG d   1       5.473  -0.910  -2.776  0.00  0.00    -0.050 A 
ATOM     46  H   LIG d   1       6.102  -2.845  -3.431  0.00  0.00     0.062 H 
ATOM     47  C   LIG d   1       5.687   0.454  -2.861  0.00  0.00    -0.057 A 
ATOM     48  C   LIG d   1       6.700   0.946  -3.663  0.00  0.00    -0.035 A 
ATOM     49  H   LIG d   1       5.066   1.134  -2.297  0.00  0.00     0.062 H 
ATOM     50  H   LIG d   1       6.869   2.011  -3.726  0.00  0.00     0.064 H 
BRANCH  45  51
ATOM     51  C   LIG d   1       4.374  -1.446  -1.897  0.00  0.00    -0.040 C 
ATOM     52  H   LIG d   1       3.766  -2.151  -2.465  0.00  0.00     0.028 H 
ATOM     53  H   LIG d   1       4.811  -1.956  -1.038  0.00  0.00     0.028 H 
ATOM     54  H   LIG d   1       3.748  -0.623  -1.553  0.00  0.00     0.028 H 
ENDBRANCH  45  51
ENDBRANCH  38  41
ENDBRANCH  36  38
ENDBRANCH   1  36
BRANCH   8  55
ATOM     55  O   LIG d   1      10.807   5.097 -11.383  0.00  0.00    -0.491 OA
BRANCH  55  56
ATOM     56  C   LIG d   1      10.471   3.729 -11.145  0.00  0.00     0.079 C 
ATOM     57  H   LIG d   1      10.924   3.401 -10.211  0.00  0.00     0.066 H 
ATOM     58  H   LIG d   1       9.388   3.626 -11.081  0.00  0.00     0.066 H 
ATOM     59  H   LIG d   1      10.845   3.115 -11.966  0.00  0.00     0.066 H 
ENDBRANCH  55  56
ENDBRANCH   8  55
BRANCH   9  60
ATOM     60  O   LIG d   1      10.073   7.680 -12.019  0.00  0.00    -0.491 OA
BRANCH  60  61
ATOM     61  C   LIG d   1      10.608   8.966 -12.339  0.00  0.00     0.079 C 
ATOM     62  H   LIG d   1      10.639   9.088 -13.422  0.00  0.00     0.066 H 
ATOM     63  H   LIG d   1       9.976   9.741 -11.905  0.00  0.00     0.066 H 
ATOM     64  H   LIG d   1      11.617   9.052 -11.935  0.00  0.00     0.066 H 
ENDBRANCH  60  61
ENDBRANCH   9  60
TORSDOF 8
ENDMDL
