MODEL 1
REMARK VINA RESULT:      -7.9      0.000      0.000
REMARK  7 active torsions:
REMARK  status: ('A' for Active; 'I' for Inactive)
REMARK    1  A    between atoms: C_1  and  C_2 
REMARK    2  A    between atoms: C_2  and  C_4 
REMARK    3  A    between atoms: C_2  and  N_14 
REMARK    4  A    between atoms: C_15  and  C_19 
REMARK    5  A    between atoms: C_26  and  O_27 
REMARK    6  A    between atoms: O_27  and  C_28 
REMARK    7  A    between atoms: N_34  and  C_35 
ROOT
ATOM      1  N   LIG d   1       5.402  -2.949  -5.673  0.00  0.00    -0.224 N 
ATOM      2  C   LIG d   1       5.478  -3.315  -6.966  0.00  0.00     0.173 A 
ATOM      3  N   LIG d   1       4.658  -4.324  -7.120  0.00  0.00    -0.111 NA
ATOM      4  N   LIG d   1       4.107  -4.567  -5.982  0.00  0.00    -0.023 NA
ATOM      5  N   LIG d   1       4.558  -3.741  -5.103  0.00  0.00    -0.044 NA
ENDROOT
BRANCH   1   6
ATOM      6  C   LIG d   1       6.142  -1.860  -5.031  0.00  0.00     0.059 C 
ATOM      7  H   LIG d   1       6.568  -1.209  -5.795  0.00  0.00     0.055 H 
BRANCH   6   8
ATOM      8  C   LIG d   1       7.268  -2.444  -4.174  0.00  0.00    -0.042 C 
ATOM      9  H   LIG d   1       6.932  -3.374  -3.717  0.00  0.00     0.025 H 
ATOM     10  H   LIG d   1       8.137  -2.642  -4.803  0.00  0.00     0.025 H 
ATOM     11  H   LIG d   1       7.538  -1.732  -3.395  0.00  0.00     0.025 H 
ENDBRANCH   6   8
BRANCH   6  12
ATOM     12  C   LIG d   1       5.194  -1.052  -4.143  0.00  0.00    -0.006 C 
ATOM     13  C   LIG d   1       4.859  -1.860  -2.887  0.00  0.00    -0.043 C 
ATOM     14  C   LIG d   1       3.911  -1.052  -1.999  0.00  0.00    -0.040 C 
ATOM     15  H   LIG d   1       4.379  -2.796  -3.175  0.00  0.00     0.027 H 
ATOM     16  H   LIG d   1       5.776  -2.075  -2.338  0.00  0.00     0.027 H 
ATOM     17  C   LIG d   1       4.584   0.261  -1.597  0.00  0.00    -0.047 C 
ATOM     18  C   LIG d   1       2.624  -0.750  -2.768  0.00  0.00    -0.047 C 
ATOM     19  H   LIG d   1       3.673  -1.628  -1.105  0.00  0.00     0.030 H 
ATOM     20  C   LIG d   1       4.919   1.069  -2.852  0.00  0.00    -0.040 C 
ATOM     21  H   LIG d   1       5.501   0.047  -1.048  0.00  0.00     0.027 H 
ATOM     22  H   LIG d   1       3.909   0.837  -0.963  0.00  0.00     0.027 H 
ATOM     23  C   LIG d   1       5.867   0.261  -3.740  0.00  0.00    -0.043 C 
ATOM     24  C   LIG d   1       3.631   1.370  -3.621  0.00  0.00    -0.047 C 
ATOM     25  H   LIG d   1       5.399   2.005  -2.565  0.00  0.00     0.030 H 
ATOM     26  H   LIG d   1       6.784   0.046  -3.191  0.00  0.00     0.027 H 
ATOM     27  H   LIG d   1       6.106   0.837  -4.635  0.00  0.00     0.027 H 
ATOM     28  C   LIG d   1       2.958   0.058  -4.025  0.00  0.00    -0.040 C 
ATOM     29  H   LIG d   1       2.956   1.946  -2.989  0.00  0.00     0.027 H 
ATOM     30  H   LIG d   1       3.870   1.946  -4.517  0.00  0.00     0.027 H 
ATOM     31  C   LIG d   1       3.906  -0.751  -4.913  0.00  0.00    -0.043 C 
ATOM     32  H   LIG d   1       2.042   0.272  -4.573  0.00  0.00     0.030 H 
ATOM     33  H   LIG d   1       4.144  -0.175  -5.807  0.00  0.00     0.027 H 
ATOM     34  H   LIG d   1       3.426  -1.687  -5.200  0.00  0.00     0.027 H 
ATOM     35  H   LIG d   1       2.144  -1.686  -3.056  0.00  0.00     0.027 H 
ATOM     36  H   LIG d   1       1.948  -0.175  -2.136  0.00  0.00     0.027 H 
ENDBRANCH   6  12
ENDBRANCH   1   6
BRANCH   2  37
ATOM     37  C   LIG d   1       6.339  -2.683  -8.029  0.00  0.00     0.101 C 
ATOM     38  H   LIG d   1       6.244  -3.253  -8.954  0.00  0.00     0.060 H 
ATOM     39  N   LIG d   1       7.739  -2.699  -7.593  0.00  0.00    -0.292 N 
ATOM     40  C   LIG d   1       8.576  -1.944  -8.538  0.00  0.00     0.004 C 
ATOM     41  C   LIG d   1       8.265  -0.457  -8.374  0.00  0.00    -0.014 C 
ATOM     42  H   LIG d   1       8.352  -2.255  -9.558  0.00  0.00     0.043 H 
ATOM     43  H   LIG d   1       9.628  -2.124  -8.321  0.00  0.00     0.043 H 
ATOM     44  C   LIG d   1       6.776  -0.232  -8.433  0.00  0.00    -0.034 A 
ATOM     45  H   LIG d   1       8.747   0.104  -9.176  0.00  0.00     0.033 H 
ATOM     46  H   LIG d   1       8.645  -0.111  -7.413  0.00  0.00     0.033 H 
ATOM     47  C   LIG d   1       5.880  -1.269  -8.267  0.00  0.00     0.026 A 
ATOM     48  C   LIG d   1       6.310   1.055  -8.657  0.00  0.00    -0.012 A 
ATOM     49  C   LIG d   1       4.514  -1.016  -8.316  0.00  0.00     0.171 A 
ATOM     50  C   LIG d   1       4.046   0.271  -8.536  0.00  0.00     0.208 A 
ATOM     51  C   LIG d   1       4.951   1.313  -8.708  0.00  0.00     0.170 A 
ATOM     52  O   LIG d   1       2.779   0.774  -8.626  0.00  0.00    -0.449 OA
ATOM     53  O   LIG d   1       4.254   2.469  -8.909  0.00  0.00    -0.453 OA
ATOM     54  C   LIG d   1       2.917   2.197  -8.450  0.00  0.00     0.233 C 
ATOM     55  H   LIG d   1       2.187   2.731  -9.058  0.00  0.00     0.117 H 
ATOM     56  H   LIG d   1       2.810   2.464  -7.399  0.00  0.00     0.117 H 
ATOM     57  H   LIG d   1       7.015   1.863  -8.791  0.00  0.00     0.066 H 
BRANCH  39  58
ATOM     58  C   LIG d   1       8.229  -4.076  -7.445  0.00  0.00    -0.012 C 
ATOM     59  H   LIG d   1       7.576  -4.755  -7.995  0.00  0.00     0.039 H 
ATOM     60  H   LIG d   1       9.242  -4.146  -7.842  0.00  0.00     0.039 H 
ATOM     61  H   LIG d   1       8.232  -4.350  -6.391  0.00  0.00     0.039 H 
ENDBRANCH  39  58
BRANCH  49  62
ATOM     62  O   LIG d   1       3.631  -2.037  -8.149  0.00  0.00    -0.491 OA
BRANCH  62  63
ATOM     63  C   LIG d   1       2.836  -2.400  -9.280  0.00  0.00     0.079 C 
ATOM     64  H   LIG d   1       3.287  -3.255  -9.782  0.00  0.00     0.066 H 
ATOM     65  H   LIG d   1       1.831  -2.661  -8.948  0.00  0.00     0.066 H 
ATOM     66  H   LIG d   1       2.784  -1.558  -9.971  0.00  0.00     0.066 H 
ENDBRANCH  62  63
ENDBRANCH  49  62
ENDBRANCH   2  37
TORSDOF 7
ENDMDL
MODEL 2
REMARK VINA RESULT:      -6.9      2.533      5.031
REMARK  7 active torsions:
REMARK  status: ('A' for Active; 'I' for Inactive)
REMARK    1  A    between atoms: C_1  and  C_2 
REMARK    2  A    between atoms: C_2  and  C_4 
REMARK    3  A    between atoms: C_2  and  N_14 
REMARK    4  A    between atoms: C_15  and  C_19 
REMARK    5  A    between atoms: C_26  and  O_27 
REMARK    6  A    between atoms: O_27  and  C_28 
REMARK    7  A    between atoms: N_34  and  C_35 
ROOT
ATOM      1  N   LIG d   1       4.766  -0.359  -7.298  0.00  0.00    -0.224 N 
ATOM      2  C   LIG d   1       5.384  -1.150  -8.195  0.00  0.00     0.173 A 
ATOM      3  N   LIG d   1       6.169  -0.374  -8.901  0.00  0.00    -0.111 NA
ATOM      4  N   LIG d   1       6.040   0.830  -8.462  0.00  0.00    -0.023 NA
ATOM      5  N   LIG d   1       5.188   0.843  -7.496  0.00  0.00    -0.044 NA
ENDROOT
BRANCH   1   6
ATOM      6  C   LIG d   1       3.792  -0.784  -6.289  0.00  0.00     0.059 C 
ATOM      7  H   LIG d   1       3.481  -1.809  -6.492  0.00  0.00     0.055 H 
BRANCH   6   8
ATOM      8  C   LIG d   1       2.571   0.138  -6.340  0.00  0.00    -0.042 C 
ATOM      9  H   LIG d   1       2.166   0.150  -7.351  0.00  0.00     0.025 H 
ATOM     10  H   LIG d   1       1.812  -0.227  -5.648  0.00  0.00     0.025 H 
ATOM     11  H   LIG d   1       2.866   1.148  -6.055  0.00  0.00     0.025 H 
ENDBRANCH   6   8
BRANCH   6  12
ATOM     12  C   LIG d   1       4.430  -0.708  -4.901  0.00  0.00    -0.006 C 
ATOM     13  C   LIG d   1       3.678   0.317  -4.049  0.00  0.00    -0.043 C 
ATOM     14  C   LIG d   1       4.315   0.391  -2.660  0.00  0.00    -0.040 C 
ATOM     15  H   LIG d   1       3.732   1.295  -4.527  0.00  0.00     0.027 H 
ATOM     16  H   LIG d   1       2.634   0.015  -3.954  0.00  0.00     0.027 H 
ATOM     17  C   LIG d   1       4.240  -0.981  -1.990  0.00  0.00    -0.047 C 
ATOM     18  C   LIG d   1       5.779   0.815  -2.793  0.00  0.00    -0.047 C 
ATOM     19  H   LIG d   1       3.779   1.122  -2.054  0.00  0.00     0.030 H 
ATOM     20  C   LIG d   1       4.992  -2.007  -2.841  0.00  0.00    -0.040 C 
ATOM     21  H   LIG d   1       3.197  -1.283  -1.895  0.00  0.00     0.027 H 
ATOM     22  H   LIG d   1       4.694  -0.928  -1.000  0.00  0.00     0.027 H 
ATOM     23  C   LIG d   1       4.354  -2.082  -4.230  0.00  0.00    -0.043 C 
ATOM     24  C   LIG d   1       6.456  -1.583  -2.974  0.00  0.00    -0.047 C 
ATOM     25  H   LIG d   1       4.938  -2.985  -2.364  0.00  0.00     0.030 H 
ATOM     26  H   LIG d   1       3.311  -2.383  -4.135  0.00  0.00     0.027 H 
ATOM     27  H   LIG d   1       4.890  -2.812  -4.837  0.00  0.00     0.027 H 
ATOM     28  C   LIG d   1       6.531  -0.210  -3.645  0.00  0.00    -0.040 C 
ATOM     29  H   LIG d   1       6.910  -1.530  -1.985  0.00  0.00     0.027 H 
ATOM     30  H   LIG d   1       6.991  -2.313  -3.581  0.00  0.00     0.027 H 
ATOM     31  C   LIG d   1       5.894  -0.285  -5.034  0.00  0.00    -0.043 C 
ATOM     32  H   LIG d   1       7.574   0.092  -3.740  0.00  0.00     0.030 H 
ATOM     33  H   LIG d   1       6.429  -1.015  -5.640  0.00  0.00     0.027 H 
ATOM     34  H   LIG d   1       5.947   0.694  -5.511  0.00  0.00     0.027 H 
ATOM     35  H   LIG d   1       5.832   1.793  -3.271  0.00  0.00     0.027 H 
ATOM     36  H   LIG d   1       6.233   0.869  -1.804  0.00  0.00     0.027 H 
ENDBRANCH   6  12
ENDBRANCH   1   6
BRANCH   2  37
ATOM     37  C   LIG d   1       5.209  -2.638  -8.353  0.00  0.00     0.101 C 
ATOM     38  H   LIG d   1       5.628  -2.950  -9.310  0.00  0.00     0.060 H 
ATOM     39  N   LIG d   1       3.779  -2.964  -8.321  0.00  0.00    -0.292 N 
ATOM     40  C   LIG d   1       3.590  -4.422  -8.310  0.00  0.00     0.004 C 
ATOM     41  C   LIG d   1       4.012  -4.952  -6.940  0.00  0.00    -0.014 C 
ATOM     42  H   LIG d   1       4.204  -4.880  -9.086  0.00  0.00     0.043 H 
ATOM     43  H   LIG d   1       2.540  -4.657  -8.486  0.00  0.00     0.043 H 
ATOM     44  C   LIG d   1       5.380  -4.428  -6.584  0.00  0.00    -0.034 A 
ATOM     45  H   LIG d   1       4.039  -6.042  -6.966  0.00  0.00     0.033 H 
ATOM     46  H   LIG d   1       3.293  -4.627  -6.189  0.00  0.00     0.033 H 
ATOM     47  C   LIG d   1       5.933  -3.346  -7.239  0.00  0.00     0.026 A 
ATOM     48  C   LIG d   1       6.084  -5.056  -5.568  0.00  0.00    -0.012 A 
ATOM     49  C   LIG d   1       7.192  -2.886  -6.871  0.00  0.00     0.171 A 
ATOM     50  C   LIG d   1       7.897  -3.510  -5.852  0.00  0.00     0.208 A 
ATOM     51  C   LIG d   1       7.338  -4.602  -5.197  0.00  0.00     0.170 A 
ATOM     52  O   LIG d   1       9.126  -3.258  -5.310  0.00  0.00    -0.449 OA
ATOM     53  O   LIG d   1       8.216  -5.038  -4.246  0.00  0.00    -0.453 OA
ATOM     54  C   LIG d   1       9.139  -3.952  -4.049  0.00  0.00     0.233 C 
ATOM     55  H   LIG d   1      10.137  -4.332  -3.831  0.00  0.00     0.117 H 
ATOM     56  H   LIG d   1       8.794  -3.297  -3.248  0.00  0.00     0.117 H 
ATOM     57  H   LIG d   1       5.649  -5.905  -5.061  0.00  0.00     0.066 H 
BRANCH  39  58
ATOM     58  C   LIG d   1       3.075  -2.354  -9.456  0.00  0.00    -0.012 C 
ATOM     59  H   LIG d   1       3.757  -1.698  -9.998  0.00  0.00     0.039 H 
ATOM     60  H   LIG d   1       2.715  -3.137 -10.125  0.00  0.00     0.039 H 
ATOM     61  H   LIG d   1       2.229  -1.773  -9.090  0.00  0.00     0.039 H 
ENDBRANCH  39  58
BRANCH  49  62
ATOM     62  O   LIG d   1       7.737  -1.819  -7.514  0.00  0.00    -0.491 OA
BRANCH  62  63
ATOM     63  C   LIG d   1       8.933  -2.051  -8.260  0.00  0.00     0.079 C 
ATOM     64  H   LIG d   1       8.685  -2.182  -9.313  0.00  0.00     0.066 H 
ATOM     65  H   LIG d   1       9.603  -1.199  -8.146  0.00  0.00     0.066 H 
ATOM     66  H   LIG d   1       9.423  -2.951  -7.888  0.00  0.00     0.066 H 
ENDBRANCH  62  63
ENDBRANCH  49  62
ENDBRANCH   2  37
TORSDOF 7
ENDMDL
MODEL 3
REMARK VINA RESULT:      -6.8      2.455      3.446
REMARK  7 active torsions:
REMARK  status: ('A' for Active; 'I' for Inactive)
REMARK    1  A    between atoms: C_1  and  C_2 
REMARK    2  A    between atoms: C_2  and  C_4 
REMARK    3  A    between atoms: C_2  and  N_14 
REMARK    4  A    between atoms: C_15  and  C_19 
REMARK    5  A    between atoms: C_26  and  O_27 
REMARK    6  A    between atoms: O_27  and  C_28 
REMARK    7  A    between atoms: N_34  and  C_35 
ROOT
ATOM      1  N   LIG d   1       5.189  -1.980  -6.924  0.00  0.00    -0.224 N 
ATOM      2  C   LIG d   1       5.954  -1.680  -7.991  0.00  0.00     0.173 A 
ATOM      3  N   LIG d   1       5.142  -1.264  -8.931  0.00  0.00    -0.111 NA
ATOM      4  N   LIG d   1       3.941  -1.306  -8.468  0.00  0.00    -0.023 NA
ATOM      5  N   LIG d   1       3.965  -1.743  -7.257  0.00  0.00    -0.044 NA
ENDROOT
BRANCH   1   6
ATOM      6  C   LIG d   1       5.658  -2.485  -5.632  0.00  0.00     0.059 C 
ATOM      7  H   LIG d   1       6.743  -2.398  -5.579  0.00  0.00     0.055 H 
BRANCH   6   8
ATOM      8  C   LIG d   1       5.257  -3.954  -5.483  0.00  0.00    -0.042 C 
ATOM      9  H   LIG d   1       4.197  -4.066  -5.710  0.00  0.00     0.025 H 
ATOM     10  H   LIG d   1       5.842  -4.562  -6.173  0.00  0.00     0.025 H 
ATOM     11  H   LIG d   1       5.446  -4.280  -4.460  0.00  0.00     0.025 H 
ENDBRANCH   6   8
BRANCH   6  12
ATOM     12  C   LIG d   1       5.025  -1.667  -4.505  0.00  0.00    -0.006 C 
ATOM     13  C   LIG d   1       4.122  -2.572  -3.663  0.00  0.00    -0.043 C 
ATOM     14  C   LIG d   1       3.490  -1.754  -2.535  0.00  0.00    -0.040 C 
ATOM     15  H   LIG d   1       3.338  -2.990  -4.294  0.00  0.00     0.027 H 
ATOM     16  H   LIG d   1       4.716  -3.381  -3.236  0.00  0.00     0.027 H 
ATOM     17  C   LIG d   1       4.591  -1.167  -1.651  0.00  0.00    -0.047 C 
ATOM     18  C   LIG d   1       2.657  -0.620  -3.134  0.00  0.00    -0.047 C 
ATOM     19  H   LIG d   1       2.847  -2.400  -1.936  0.00  0.00     0.030 H 
ATOM     20  C   LIG d   1       5.493  -0.262  -2.492  0.00  0.00    -0.040 C 
ATOM     21  H   LIG d   1       5.185  -1.976  -1.224  0.00  0.00     0.027 H 
ATOM     22  H   LIG d   1       4.140  -0.584  -0.847  0.00  0.00     0.027 H 
ATOM     23  C   LIG d   1       6.126  -1.080  -3.620  0.00  0.00    -0.043 C 
ATOM     24  C   LIG d   1       4.660   0.873  -3.091  0.00  0.00    -0.047 C 
ATOM     25  H   LIG d   1       6.278   0.156  -1.862  0.00  0.00     0.030 H 
ATOM     26  H   LIG d   1       6.719  -1.888  -3.193  0.00  0.00     0.027 H 
ATOM     27  H   LIG d   1       6.769  -0.435  -4.220  0.00  0.00     0.027 H 
ATOM     28  C   LIG d   1       3.559   0.286  -3.976  0.00  0.00    -0.040 C 
ATOM     29  H   LIG d   1       4.209   1.456  -2.288  0.00  0.00     0.027 H 
ATOM     30  H   LIG d   1       5.302   1.518  -3.691  0.00  0.00     0.027 H 
ATOM     31  C   LIG d   1       4.191  -0.532  -5.104  0.00  0.00    -0.043 C 
ATOM     32  H   LIG d   1       2.965   1.094  -4.403  0.00  0.00     0.030 H 
ATOM     33  H   LIG d   1       4.834   0.113  -5.703  0.00  0.00     0.027 H 
ATOM     34  H   LIG d   1       3.406  -0.951  -5.734  0.00  0.00     0.027 H 
ATOM     35  H   LIG d   1       1.872  -1.038  -3.765  0.00  0.00     0.027 H 
ATOM     36  H   LIG d   1       2.206  -0.037  -2.331  0.00  0.00     0.027 H 
ENDBRANCH   6  12
ENDBRANCH   1   6
BRANCH   2  37
ATOM     37  C   LIG d   1       7.453  -1.798  -8.084  0.00  0.00     0.101 C 
ATOM     38  H   LIG d   1       7.784  -1.427  -9.055  0.00  0.00     0.060 H 
ATOM     39  N   LIG d   1       7.838  -3.207  -7.948  0.00  0.00    -0.292 N 
ATOM     40  C   LIG d   1       9.301  -3.331  -7.872  0.00  0.00     0.004 C 
ATOM     41  C   LIG d   1       9.759  -2.799  -6.514  0.00  0.00    -0.014 C 
ATOM     42  H   LIG d   1       9.762  -2.747  -8.668  0.00  0.00     0.043 H 
ATOM     43  H   LIG d   1       9.587  -4.378  -7.971  0.00  0.00     0.043 H 
ATOM     44  C   LIG d   1       9.164  -1.437  -6.266  0.00  0.00    -0.034 A 
ATOM     45  H   LIG d   1      10.847  -2.726  -6.502  0.00  0.00     0.033 H 
ATOM     46  H   LIG d   1       9.436  -3.484  -5.730  0.00  0.00     0.033 H 
ATOM     47  C   LIG d   1       8.087  -0.975  -6.994  0.00  0.00     0.026 A 
ATOM     48  C   LIG d   1       9.722  -0.643  -5.276  0.00  0.00    -0.012 A 
ATOM     49  C   LIG d   1       7.560   0.283  -6.725  0.00  0.00     0.171 A 
ATOM     50  C   LIG d   1       8.113   1.078  -5.732  0.00  0.00     0.208 A 
ATOM     51  C   LIG d   1       9.202   0.611  -5.003  0.00  0.00     0.170 A 
ATOM     52  O   LIG d   1       7.789   2.326  -5.280  0.00  0.00    -0.449 OA
ATOM     53  O   LIG d   1       9.563   1.565  -4.096  0.00  0.00    -0.453 OA
ATOM     54  C   LIG d   1       8.432   2.449  -3.998  0.00  0.00     0.233 C 
ATOM     55  H   LIG d   1       8.760   3.475  -3.831  0.00  0.00     0.117 H 
ATOM     56  H   LIG d   1       7.761   2.127  -3.201  0.00  0.00     0.117 H 
ATOM     57  H   LIG d   1      10.568  -1.007  -4.711  0.00  0.00     0.066 H 
BRANCH  39  58
ATOM     58  C   LIG d   1       7.302  -4.009  -9.056  0.00  0.00    -0.012 C 
ATOM     59  H   LIG d   1       7.697  -5.023  -8.995  0.00  0.00     0.039 H 
ATOM     60  H   LIG d   1       6.214  -4.037  -8.992  0.00  0.00     0.039 H 
ATOM     61  H   LIG d   1       7.599  -3.561 -10.005  0.00  0.00     0.039 H 
ENDBRANCH  39  58
BRANCH  49  62
ATOM     62  O   LIG d   1       6.496   0.738  -7.440  0.00  0.00    -0.491 OA
BRANCH  62  63
ATOM     63  C   LIG d   1       6.755   1.746  -8.420  0.00  0.00     0.079 C 
ATOM     64  H   LIG d   1       7.338   1.318  -9.236  0.00  0.00     0.066 H 
ATOM     65  H   LIG d   1       5.810   2.127  -8.807  0.00  0.00     0.066 H 
ATOM     66  H   LIG d   1       7.315   2.561  -7.962  0.00  0.00     0.066 H 
ENDBRANCH  62  63
ENDBRANCH  49  62
ENDBRANCH   2  37
TORSDOF 7
ENDMDL
MODEL 4
REMARK VINA RESULT:      -6.8      1.723      2.639
REMARK  7 active torsions:
REMARK  status: ('A' for Active; 'I' for Inactive)
REMARK    1  A    between atoms: C_1  and  C_2 
REMARK    2  A    between atoms: C_2  and  C_4 
REMARK    3  A    between atoms: C_2  and  N_14 
REMARK    4  A    between atoms: C_15  and  C_19 
REMARK    5  A    between atoms: C_26  and  O_27 
REMARK    6  A    between atoms: O_27  and  C_28 
REMARK    7  A    between atoms: N_34  and  C_35 
ROOT
ATOM      1  N   LIG d   1       7.495  -1.252  -5.325  0.00  0.00    -0.224 N 
ATOM      2  C   LIG d   1       7.947  -1.598  -6.544  0.00  0.00     0.173 A 
ATOM      3  N   LIG d   1       8.243  -2.872  -6.488  0.00  0.00    -0.111 NA
ATOM      4  N   LIG d   1       7.988  -3.289  -5.297  0.00  0.00    -0.023 NA
ATOM      5  N   LIG d   1       7.541  -2.310  -4.589  0.00  0.00    -0.044 NA
ENDROOT
BRANCH   1   6
ATOM      6  C   LIG d   1       7.044   0.078  -4.909  0.00  0.00     0.059 C 
ATOM      7  H   LIG d   1       6.817   0.677  -5.791  0.00  0.00     0.055 H 
BRANCH   6   8
ATOM      8  C   LIG d   1       8.147   0.761  -4.098  0.00  0.00    -0.042 C 
ATOM      9  H   LIG d   1       7.722   1.181  -3.186  0.00  0.00     0.025 H 
ATOM     10  H   LIG d   1       8.912   0.029  -3.837  0.00  0.00     0.025 H 
ATOM     11  H   LIG d   1       8.594   1.559  -4.691  0.00  0.00     0.025 H 
ENDBRANCH   6   8
BRANCH   6  12
ATOM     12  C   LIG d   1       5.787  -0.057  -4.046  0.00  0.00    -0.006 C 
ATOM     13  C   LIG d   1       4.572  -0.289  -4.947  0.00  0.00    -0.043 C 
ATOM     14  C   LIG d   1       3.316  -0.426  -4.085  0.00  0.00    -0.040 C 
ATOM     15  H   LIG d   1       4.458   0.555  -5.627  0.00  0.00     0.027 H 
ATOM     16  H   LIG d   1       4.717  -1.203  -5.524  0.00  0.00     0.027 H 
ATOM     17  C   LIG d   1       3.478  -1.610  -3.131  0.00  0.00    -0.047 C 
ATOM     18  C   LIG d   1       3.112   0.856  -3.276  0.00  0.00    -0.047 C 
ATOM     19  H   LIG d   1       2.451  -0.591  -4.728  0.00  0.00     0.030 H 
ATOM     20  C   LIG d   1       4.692  -1.378  -2.230  0.00  0.00    -0.040 C 
ATOM     21  H   LIG d   1       3.623  -2.524  -3.708  0.00  0.00     0.027 H 
ATOM     22  H   LIG d   1       2.582  -1.708  -2.517  0.00  0.00     0.027 H 
ATOM     23  C   LIG d   1       5.948  -1.243  -3.093  0.00  0.00    -0.043 C 
ATOM     24  C   LIG d   1       4.488  -0.096  -1.421  0.00  0.00    -0.047 C 
ATOM     25  H   LIG d   1       4.807  -2.223  -1.551  0.00  0.00     0.030 H 
ATOM     26  H   LIG d   1       6.093  -2.156  -3.669  0.00  0.00     0.027 H 
ATOM     27  H   LIG d   1       6.814  -1.077  -2.451  0.00  0.00     0.027 H 
ATOM     28  C   LIG d   1       4.327   1.089  -2.374  0.00  0.00    -0.040 C 
ATOM     29  H   LIG d   1       3.593  -0.193  -0.806  0.00  0.00     0.027 H 
ATOM     30  H   LIG d   1       5.353   0.070  -0.779  0.00  0.00     0.027 H 
ATOM     31  C   LIG d   1       5.583   1.225  -3.237  0.00  0.00    -0.043 C 
ATOM     32  H   LIG d   1       4.182   2.003  -1.798  0.00  0.00     0.030 H 
ATOM     33  H   LIG d   1       6.448   1.391  -2.595  0.00  0.00     0.027 H 
ATOM     34  H   LIG d   1       5.467   2.070  -3.916  0.00  0.00     0.027 H 
ATOM     35  H   LIG d   1       2.997   1.701  -3.955  0.00  0.00     0.027 H 
ATOM     36  H   LIG d   1       2.217   0.760  -2.662  0.00  0.00     0.027 H 
ENDBRANCH   6  12
ENDBRANCH   1   6
BRANCH   2  37
ATOM     37  C   LIG d   1       8.084  -0.694  -7.742  0.00  0.00     0.101 C 
ATOM     38  H   LIG d   1       8.530  -1.252  -8.566  0.00  0.00     0.060 H 
ATOM     39  N   LIG d   1       8.951   0.438  -7.399  0.00  0.00    -0.292 N 
ATOM     40  C   LIG d   1       8.969   1.417  -8.497  0.00  0.00     0.004 C 
ATOM     41  C   LIG d   1       7.614   2.124  -8.533  0.00  0.00    -0.014 C 
ATOM     42  H   LIG d   1       9.141   0.906  -9.444  0.00  0.00     0.043 H 
ATOM     43  H   LIG d   1       9.759   2.148  -8.323  0.00  0.00     0.043 H 
ATOM     44  C   LIG d   1       6.502   1.107  -8.528  0.00  0.00    -0.034 A 
ATOM     45  H   LIG d   1       7.546   2.730  -9.437  0.00  0.00     0.033 H 
ATOM     46  H   LIG d   1       7.519   2.769  -7.659  0.00  0.00     0.033 H 
ATOM     47  C   LIG d   1       6.721  -0.203  -8.154  0.00  0.00     0.026 A 
ATOM     48  C   LIG d   1       5.232   1.515  -8.907  0.00  0.00    -0.012 A 
ATOM     49  C   LIG d   1       5.664  -1.107  -8.151  0.00  0.00     0.171 A 
ATOM     50  C   LIG d   1       4.392  -0.700  -8.527  0.00  0.00     0.208 A 
ATOM     51  C   LIG d   1       4.176   0.620  -8.907  0.00  0.00     0.170 A 
ATOM     52  O   LIG d   1       3.208  -1.378  -8.608  0.00  0.00    -0.449 OA
ATOM     53  O   LIG d   1       2.858   0.771  -9.230  0.00  0.00    -0.453 OA
ATOM     54  C   LIG d   1       2.188  -0.363  -8.652  0.00  0.00     0.233 C 
ATOM     55  H   LIG d   1       1.358  -0.681  -9.283  0.00  0.00     0.117 H 
ATOM     56  H   LIG d   1       1.837  -0.130  -7.646  0.00  0.00     0.117 H 
ATOM     57  H   LIG d   1       5.066   2.541  -9.203  0.00  0.00     0.066 H 
BRANCH  39  58
ATOM     58  C   LIG d   1      10.311  -0.018  -7.084  0.00  0.00    -0.012 C 
ATOM     59  H   LIG d   1      10.290  -1.078  -6.831  0.00  0.00     0.039 H 
ATOM     60  H   LIG d   1      10.956   0.137  -7.949  0.00  0.00     0.039 H 
ATOM     61  H   LIG d   1      10.698   0.549  -6.237  0.00  0.00     0.039 H 
ENDBRANCH  39  58
BRANCH  49  62
ATOM     62  O   LIG d   1       5.879  -2.398  -7.780  0.00  0.00    -0.491 OA
BRANCH  62  63
ATOM     63  C   LIG d   1       5.725  -3.398  -8.789  0.00  0.00     0.079 C 
ATOM     64  H   LIG d   1       5.024  -3.045  -9.546  0.00  0.00     0.066 H 
ATOM     65  H   LIG d   1       6.691  -3.598  -9.253  0.00  0.00     0.066 H 
ATOM     66  H   LIG d   1       5.342  -4.313  -8.337  0.00  0.00     0.066 H 
ENDBRANCH  62  63
ENDBRANCH  49  62
ENDBRANCH   2  37
TORSDOF 7
ENDMDL
MODEL 5
REMARK VINA RESULT:      -6.7      1.813      2.820
REMARK  7 active torsions:
REMARK  status: ('A' for Active; 'I' for Inactive)
REMARK    1  A    between atoms: C_1  and  C_2 
REMARK    2  A    between atoms: C_2  and  C_4 
REMARK    3  A    between atoms: C_2  and  N_14 
REMARK    4  A    between atoms: C_15  and  C_19 
REMARK    5  A    between atoms: C_26  and  O_27 
REMARK    6  A    between atoms: O_27  and  C_28 
REMARK    7  A    between atoms: N_34  and  C_35 
ROOT
ATOM      1  N   LIG d   1       7.667  -1.102  -5.177  0.00  0.00    -0.224 N 
ATOM      2  C   LIG d   1       8.174  -1.448  -6.375  0.00  0.00     0.173 A 
ATOM      3  N   LIG d   1       8.563  -2.695  -6.272  0.00  0.00    -0.111 NA
ATOM      4  N   LIG d   1       8.309  -3.095  -5.075  0.00  0.00    -0.023 NA
ATOM      5  N   LIG d   1       7.772  -2.133  -4.408  0.00  0.00    -0.044 NA
ENDROOT
BRANCH   1   6
ATOM      6  C   LIG d   1       7.106   0.201  -4.813  0.00  0.00     0.059 C 
ATOM      7  H   LIG d   1       6.868   0.761  -5.718  0.00  0.00     0.055 H 
BRANCH   6   8
ATOM      8  C   LIG d   1       8.128   0.982  -3.984  0.00  0.00    -0.042 C 
ATOM      9  H   LIG d   1       8.666   0.297  -3.330  0.00  0.00     0.025 H 
ATOM     10  H   LIG d   1       8.835   1.477  -4.651  0.00  0.00     0.025 H 
ATOM     11  H   LIG d   1       7.612   1.731  -3.383  0.00  0.00     0.025 H 
ENDBRANCH   6   8
BRANCH   6  12
ATOM     12  C   LIG d   1       5.833  -0.003  -3.990  0.00  0.00    -0.006 C 
ATOM     13  C   LIG d   1       5.611   1.209  -3.082  0.00  0.00    -0.043 C 
ATOM     14  C   LIG d   1       4.338   1.005  -2.260  0.00  0.00    -0.040 C 
ATOM     15  H   LIG d   1       6.464   1.321  -2.412  0.00  0.00     0.027 H 
ATOM     16  H   LIG d   1       5.509   2.106  -3.694  0.00  0.00     0.027 H 
ATOM     17  C   LIG d   1       3.143   0.847  -3.202  0.00  0.00    -0.047 C 
ATOM     18  C   LIG d   1       4.481  -0.253  -1.403  0.00  0.00    -0.047 C 
ATOM     19  H   LIG d   1       4.181   1.869  -1.614  0.00  0.00     0.030 H 
ATOM     20  C   LIG d   1       3.363  -0.365  -4.108  0.00  0.00    -0.040 C 
ATOM     21  H   LIG d   1       3.040   1.744  -3.813  0.00  0.00     0.027 H 
ATOM     22  H   LIG d   1       2.234   0.702  -2.616  0.00  0.00     0.027 H 
ATOM     23  C   LIG d   1       4.637  -0.160  -4.932  0.00  0.00    -0.043 C 
ATOM     24  C   LIG d   1       3.506  -1.623  -3.251  0.00  0.00    -0.047 C 
ATOM     25  H   LIG d   1       2.511  -0.477  -4.780  0.00  0.00     0.030 H 
ATOM     26  H   LIG d   1       4.535   0.736  -5.542  0.00  0.00     0.027 H 
ATOM     27  H   LIG d   1       4.795  -1.024  -5.578  0.00  0.00     0.027 H 
ATOM     28  C   LIG d   1       4.702  -1.467  -2.310  0.00  0.00    -0.040 C 
ATOM     29  H   LIG d   1       2.599  -1.769  -2.665  0.00  0.00     0.027 H 
ATOM     30  H   LIG d   1       3.664  -2.487  -3.897  0.00  0.00     0.027 H 
ATOM     31  C   LIG d   1       5.976  -1.262  -3.132  0.00  0.00    -0.043 C 
ATOM     32  H   LIG d   1       4.805  -2.363  -1.699  0.00  0.00     0.030 H 
ATOM     33  H   LIG d   1       6.133  -2.126  -3.778  0.00  0.00     0.027 H 
ATOM     34  H   LIG d   1       6.828  -1.150  -2.461  0.00  0.00     0.027 H 
ATOM     35  H   LIG d   1       5.333  -0.142  -0.732  0.00  0.00     0.027 H 
ATOM     36  H   LIG d   1       3.574  -0.399  -0.817  0.00  0.00     0.027 H 
ENDBRANCH   6  12
ENDBRANCH   1   6
BRANCH   2  37
ATOM     37  C   LIG d   1       8.273  -0.571  -7.596  0.00  0.00     0.101 C 
ATOM     38  H   LIG d   1       8.744  -1.132  -8.405  0.00  0.00     0.060 H 
ATOM     39  N   LIG d   1       9.092   0.605  -7.284  0.00  0.00    -0.292 N 
ATOM     40  C   LIG d   1       9.069   1.554  -8.407  0.00  0.00     0.004 C 
ATOM     41  C   LIG d   1       7.686   2.202  -8.461  0.00  0.00    -0.014 C 
ATOM     42  H   LIG d   1       9.264   1.026  -9.340  0.00  0.00     0.043 H 
ATOM     43  H   LIG d   1       9.827   2.322  -8.253  0.00  0.00     0.043 H 
ATOM     44  C   LIG d   1       6.617   1.139  -8.430  0.00  0.00    -0.034 A 
ATOM     45  H   LIG d   1       7.593   2.780  -9.382  0.00  0.00     0.033 H 
ATOM     46  H   LIG d   1       7.563   2.865  -7.605  0.00  0.00     0.033 H 
ATOM     47  C   LIG d   1       6.892  -0.150  -8.021  0.00  0.00     0.026 A 
ATOM     48  C   LIG d   1       5.332   1.483  -8.819  0.00  0.00    -0.012 A 
ATOM     49  C   LIG d   1       5.874  -1.097  -7.994  0.00  0.00     0.171 A 
ATOM     50  C   LIG d   1       4.586  -0.755  -8.380  0.00  0.00     0.208 A 
ATOM     51  C   LIG d   1       4.315   0.544  -8.796  0.00  0.00     0.170 A 
ATOM     52  O   LIG d   1       3.432  -1.484  -8.443  0.00  0.00    -0.449 OA
ATOM     53  O   LIG d   1       2.992   0.631  -9.122  0.00  0.00    -0.453 OA
ATOM     54  C   LIG d   1       2.370  -0.515  -8.514  0.00  0.00     0.233 C 
ATOM     55  H   LIG d   1       1.555  -0.885  -9.136  0.00  0.00     0.117 H 
ATOM     56  H   LIG d   1       2.008  -0.270  -7.515  0.00  0.00     0.117 H 
ATOM     57  H   LIG d   1       5.123   2.492  -9.143  0.00  0.00     0.066 H 
BRANCH  39  58
ATOM     58  C   LIG d   1      10.470   0.216  -6.956  0.00  0.00    -0.012 C 
ATOM     59  H   LIG d   1      11.075   1.110  -6.807  0.00  0.00     0.039 H 
ATOM     60  H   LIG d   1      10.472  -0.381  -6.043  0.00  0.00     0.039 H 
ATOM     61  H   LIG d   1      10.886  -0.372  -7.774  0.00  0.00     0.039 H 
ENDBRANCH  39  58
BRANCH  49  62
ATOM     62  O   LIG d   1       6.143  -2.368  -7.589  0.00  0.00    -0.491 OA
BRANCH  62  63
ATOM     63  C   LIG d   1       6.025  -3.401  -8.569  0.00  0.00     0.079 C 
ATOM     64  H   LIG d   1       6.578  -4.280  -8.239  0.00  0.00     0.066 H 
ATOM     65  H   LIG d   1       4.973  -3.659  -8.698  0.00  0.00     0.066 H 
ATOM     66  H   LIG d   1       6.432  -3.049  -9.517  0.00  0.00     0.066 H 
ENDBRANCH  62  63
ENDBRANCH  49  62
ENDBRANCH   2  37
TORSDOF 7
ENDMDL
MODEL 6
REMARK VINA RESULT:      -6.6      2.342      5.406
REMARK  7 active torsions:
REMARK  status: ('A' for Active; 'I' for Inactive)
REMARK    1  A    between atoms: C_1  and  C_2 
REMARK    2  A    between atoms: C_2  and  C_4 
REMARK    3  A    between atoms: C_2  and  N_14 
REMARK    4  A    between atoms: C_15  and  C_19 
REMARK    5  A    between atoms: C_26  and  O_27 
REMARK    6  A    between atoms: O_27  and  C_28 
REMARK    7  A    between atoms: N_34  and  C_35 
ROOT
ATOM      1  N   LIG d   1       7.298  -0.621  -8.132  0.00  0.00    -0.224 N 
ATOM      2  C   LIG d   1       8.093  -0.771  -7.056  0.00  0.00     0.173 A 
ATOM      3  N   LIG d   1       8.997   0.174  -7.122  0.00  0.00    -0.111 NA
ATOM      4  N   LIG d   1       8.771   0.869  -8.182  0.00  0.00    -0.023 NA
ATOM      5  N   LIG d   1       7.747   0.388  -8.798  0.00  0.00    -0.044 NA
ENDROOT
BRANCH   1   6
ATOM      6  C   LIG d   1       6.143  -1.451  -8.483  0.00  0.00     0.059 C 
ATOM      7  H   LIG d   1       5.890  -2.097  -7.643  0.00  0.00     0.055 H 
BRANCH   6   8
ATOM      8  C   LIG d   1       6.485  -2.310  -9.703  0.00  0.00    -0.042 C 
ATOM      9  H   LIG d   1       7.181  -1.771 -10.344  0.00  0.00     0.025 H 
ATOM     10  H   LIG d   1       6.942  -3.243  -9.373  0.00  0.00     0.025 H 
ATOM     11  H   LIG d   1       5.573  -2.529 -10.260  0.00  0.00     0.025 H 
ENDBRANCH   6   8
BRANCH   6  12
ATOM     12  C   LIG d   1       4.950  -0.551  -8.812  0.00  0.00    -0.006 C 
ATOM     13  C   LIG d   1       5.307   0.904  -8.501  0.00  0.00    -0.043 C 
ATOM     14  C   LIG d   1       4.115   1.804  -8.831  0.00  0.00    -0.040 C 
ATOM     15  H   LIG d   1       5.553   0.999  -7.443  0.00  0.00     0.027 H 
ATOM     16  H   LIG d   1       6.166   1.204  -9.102  0.00  0.00     0.027 H 
ATOM     17  C   LIG d   1       3.770   1.670 -10.315  0.00  0.00    -0.047 C 
ATOM     18  C   LIG d   1       2.910   1.384  -7.987  0.00  0.00    -0.047 C 
ATOM     19  H   LIG d   1       4.370   2.840  -8.608  0.00  0.00     0.030 H 
ATOM     20  C   LIG d   1       3.413   0.216 -10.627  0.00  0.00    -0.040 C 
ATOM     21  H   LIG d   1       4.628   1.970 -10.916  0.00  0.00     0.027 H 
ATOM     22  H   LIG d   1       2.920   2.311 -10.550  0.00  0.00     0.027 H 
ATOM     23  C   LIG d   1       4.605  -0.684 -10.297  0.00  0.00    -0.043 C 
ATOM     24  C   LIG d   1       2.208  -0.205  -9.783  0.00  0.00    -0.047 C 
ATOM     25  H   LIG d   1       3.167   0.120 -11.685  0.00  0.00     0.030 H 
ATOM     26  H   LIG d   1       5.463  -0.384 -10.898  0.00  0.00     0.027 H 
ATOM     27  H   LIG d   1       4.351  -1.721 -10.519  0.00  0.00     0.027 H 
ATOM     28  C   LIG d   1       2.552  -0.072  -8.299  0.00  0.00    -0.040 C 
ATOM     29  H   LIG d   1       1.358   0.436 -10.018  0.00  0.00     0.027 H 
ATOM     30  H   LIG d   1       1.953  -1.242 -10.005  0.00  0.00     0.027 H 
ATOM     31  C   LIG d   1       3.745  -0.971  -7.969  0.00  0.00    -0.043 C 
ATOM     32  H   LIG d   1       1.694  -0.372  -7.698  0.00  0.00     0.030 H 
ATOM     33  H   LIG d   1       3.490  -2.008  -8.191  0.00  0.00     0.027 H 
ATOM     34  H   LIG d   1       3.991  -0.876  -6.911  0.00  0.00     0.027 H 
ATOM     35  H   LIG d   1       3.156   1.478  -6.929  0.00  0.00     0.027 H 
ATOM     36  H   LIG d   1       2.061   2.024  -8.222  0.00  0.00     0.027 H 
ENDBRANCH   6  12
ENDBRANCH   1   6
BRANCH   2  37
ATOM     37  C   LIG d   1       7.965  -1.822  -5.983  0.00  0.00     0.101 C 
ATOM     38  H   LIG d   1       8.736  -1.662  -5.229  0.00  0.00     0.060 H 
ATOM     39  N   LIG d   1       8.141  -3.149  -6.582  0.00  0.00    -0.292 N 
ATOM     40  C   LIG d   1       7.860  -4.197  -5.589  0.00  0.00     0.004 C 
ATOM     41  C   LIG d   1       6.354  -4.223  -5.329  0.00  0.00    -0.014 C 
ATOM     42  H   LIG d   1       8.389  -3.977  -4.662  0.00  0.00     0.043 H 
ATOM     43  H   LIG d   1       8.182  -5.164  -5.975  0.00  0.00     0.043 H 
ATOM     44  C   LIG d   1       5.859  -2.831  -5.028  0.00  0.00    -0.034 A 
ATOM     45  H   LIG d   1       6.145  -4.872  -4.479  0.00  0.00     0.033 H 
ATOM     46  H   LIG d   1       5.842  -4.606  -6.211  0.00  0.00     0.033 H 
ATOM     47  C   LIG d   1       6.608  -1.714  -5.339  0.00  0.00     0.026 A 
ATOM     48  C   LIG d   1       4.618  -2.687  -4.429  0.00  0.00    -0.012 A 
ATOM     49  C   LIG d   1       6.109  -0.448  -5.056  0.00  0.00     0.171 A 
ATOM     50  C   LIG d   1       4.866  -0.300  -4.460  0.00  0.00     0.208 A 
ATOM     51  C   LIG d   1       4.116  -1.428  -4.144  0.00  0.00     0.170 A 
ATOM     52  O   LIG d   1       4.162   0.810  -4.086  0.00  0.00    -0.449 OA
ATOM     53  O   LIG d   1       2.944  -1.028  -3.570  0.00  0.00    -0.453 OA
ATOM     54  C   LIG d   1       2.805   0.364  -3.911  0.00  0.00     0.233 C 
ATOM     55  H   LIG d   1       2.323   0.911  -3.101  0.00  0.00     0.117 H 
ATOM     56  H   LIG d   1       2.242   0.477  -4.838  0.00  0.00     0.117 H 
ATOM     57  H   LIG d   1       4.037  -3.564  -4.184  0.00  0.00     0.066 H 
BRANCH  39  58
ATOM     58  C   LIG d   1       9.494  -3.302  -7.135  0.00  0.00    -0.012 C 
ATOM     59  H   LIG d   1       9.828  -4.331  -6.999  0.00  0.00     0.039 H 
ATOM     60  H   LIG d   1       9.481  -3.061  -8.198  0.00  0.00     0.039 H 
ATOM     61  H   LIG d   1      10.176  -2.628  -6.618  0.00  0.00     0.039 H 
ENDBRANCH  39  58
BRANCH  49  62
ATOM     62  O   LIG d   1       6.846   0.654  -5.365  0.00  0.00    -0.491 OA
BRANCH  62  63
ATOM     63  C   LIG d   1       7.436   1.366  -4.276  0.00  0.00     0.079 C 
ATOM     64  H   LIG d   1       6.661   1.644  -3.561  0.00  0.00     0.066 H 
ATOM     65  H   LIG d   1       8.173   0.731  -3.784  0.00  0.00     0.066 H 
ATOM     66  H   LIG d   1       7.923   2.265  -4.652  0.00  0.00     0.066 H 
ENDBRANCH  62  63
ENDBRANCH  49  62
ENDBRANCH   2  37
TORSDOF 7
ENDMDL
MODEL 7
REMARK VINA RESULT:      -6.6      2.329      4.224
REMARK  7 active torsions:
REMARK  status: ('A' for Active; 'I' for Inactive)
REMARK    1  A    between atoms: C_1  and  C_2 
REMARK    2  A    between atoms: C_2  and  C_4 
REMARK    3  A    between atoms: C_2  and  N_14 
REMARK    4  A    between atoms: C_15  and  C_19 
REMARK    5  A    between atoms: C_26  and  O_27 
REMARK    6  A    between atoms: O_27  and  C_28 
REMARK    7  A    between atoms: N_34  and  C_35 
ROOT
ATOM      1  N   LIG d   1       4.286  -0.475  -7.085  0.00  0.00    -0.224 N 
ATOM      2  C   LIG d   1       4.652  -1.495  -7.883  0.00  0.00     0.173 A 
ATOM      3  N   LIG d   1       5.466  -0.998  -8.780  0.00  0.00    -0.111 NA
ATOM      4  N   LIG d   1       5.595   0.262  -8.547  0.00  0.00    -0.023 NA
ATOM      5  N   LIG d   1       4.878   0.583  -7.526  0.00  0.00    -0.044 NA
ENDROOT
BRANCH   1   6
ATOM      6  C   LIG d   1       3.381  -0.550  -5.935  0.00  0.00     0.059 C 
ATOM      7  H   LIG d   1       2.815  -1.480  -5.979  0.00  0.00     0.055 H 
BRANCH   6   8
ATOM      8  C   LIG d   1       2.416   0.637  -5.968  0.00  0.00    -0.042 C 
ATOM      9  H   LIG d   1       2.405   1.069  -6.967  0.00  0.00     0.025 H 
ATOM     10  H   LIG d   1       1.413   0.296  -5.708  0.00  0.00     0.025 H 
ATOM     11  H   LIG d   1       2.742   1.390  -5.250  0.00  0.00     0.025 H 
ENDBRANCH   6   8
BRANCH   6  12
ATOM     12  C   LIG d   1       4.197  -0.508  -4.641  0.00  0.00    -0.006 C 
ATOM     13  C   LIG d   1       3.653   0.595  -3.731  0.00  0.00    -0.043 C 
ATOM     14  C   LIG d   1       4.467   0.636  -2.436  0.00  0.00    -0.040 C 
ATOM     15  H   LIG d   1       3.729   1.556  -4.240  0.00  0.00     0.027 H 
ATOM     16  H   LIG d   1       2.608   0.390  -3.496  0.00  0.00     0.027 H 
ATOM     17  C   LIG d   1       4.360  -0.713  -1.723  0.00  0.00    -0.047 C 
ATOM     18  C   LIG d   1       5.933   0.924  -2.765  0.00  0.00    -0.047 C 
ATOM     19  H   LIG d   1       4.079   1.423  -1.789  0.00  0.00     0.030 H 
ATOM     20  C   LIG d   1       4.904  -1.816  -2.633  0.00  0.00    -0.040 C 
ATOM     21  H   LIG d   1       3.315  -0.918  -1.488  0.00  0.00     0.027 H 
ATOM     22  H   LIG d   1       4.940  -0.683  -0.801  0.00  0.00     0.027 H 
ATOM     23  C   LIG d   1       4.089  -1.857  -3.927  0.00  0.00    -0.043 C 
ATOM     24  C   LIG d   1       6.370  -1.528  -2.962  0.00  0.00    -0.047 C 
ATOM     25  H   LIG d   1       4.827  -2.777  -2.124  0.00  0.00     0.030 H 
ATOM     26  H   LIG d   1       3.045  -2.062  -3.692  0.00  0.00     0.027 H 
ATOM     27  H   LIG d   1       4.476  -2.644  -4.576  0.00  0.00     0.027 H 
ATOM     28  C   LIG d   1       6.478  -0.180  -3.676  0.00  0.00    -0.040 C 
ATOM     29  H   LIG d   1       6.950  -1.499  -2.040  0.00  0.00     0.027 H 
ATOM     30  H   LIG d   1       6.758  -2.314  -3.611  0.00  0.00     0.027 H 
ATOM     31  C   LIG d   1       5.663  -0.220  -4.970  0.00  0.00    -0.043 C 
ATOM     32  H   LIG d   1       7.522   0.026  -3.911  0.00  0.00     0.030 H 
ATOM     33  H   LIG d   1       6.051  -1.006  -5.618  0.00  0.00     0.027 H 
ATOM     34  H   LIG d   1       5.739   0.741  -5.478  0.00  0.00     0.027 H 
ATOM     35  H   LIG d   1       6.009   1.885  -3.275  0.00  0.00     0.027 H 
ATOM     36  H   LIG d   1       6.513   0.954  -1.844  0.00  0.00     0.027 H 
ENDBRANCH   6  12
ENDBRANCH   1   6
BRANCH   2  37
ATOM     37  C   LIG d   1       4.212  -2.932  -7.765  0.00  0.00     0.101 C 
ATOM     38  H   LIG d   1       3.557  -3.037  -6.899  0.00  0.00     0.060 H 
ATOM     39  N   LIG d   1       5.390  -3.787  -7.588  0.00  0.00    -0.292 N 
ATOM     40  C   LIG d   1       5.001  -5.204  -7.633  0.00  0.00     0.004 C 
ATOM     41  C   LIG d   1       4.633  -5.557  -9.074  0.00  0.00    -0.014 C 
ATOM     42  H   LIG d   1       4.142  -5.372  -6.983  0.00  0.00     0.043 H 
ATOM     43  H   LIG d   1       5.836  -5.824  -7.306  0.00  0.00     0.043 H 
ATOM     44  C   LIG d   1       3.650  -4.551  -9.615  0.00  0.00    -0.034 A 
ATOM     45  H   LIG d   1       4.184  -6.551  -9.100  0.00  0.00     0.033 H 
ATOM     46  H   LIG d   1       5.533  -5.552  -9.689  0.00  0.00     0.033 H 
ATOM     47  C   LIG d   1       3.460  -3.326  -9.008  0.00  0.00     0.026 A 
ATOM     48  C   LIG d   1       2.932  -4.877 -10.755  0.00  0.00    -0.012 A 
ATOM     49  C   LIG d   1       2.552  -2.421  -9.547  0.00  0.00     0.171 A 
ATOM     50  C   LIG d   1       1.835  -2.744 -10.690  0.00  0.00     0.208 A 
ATOM     51  C   LIG d   1       2.026  -3.980 -11.297  0.00  0.00     0.170 A 
ATOM     52  O   LIG d   1       0.903  -2.046 -11.405  0.00  0.00    -0.449 OA
ATOM     53  O   LIG d   1       1.213  -4.061 -12.391  0.00  0.00    -0.453 OA
ATOM     54  C   LIG d   1       0.826  -2.706 -12.682  0.00  0.00     0.233 C 
ATOM     55  H   LIG d   1      -0.192  -2.673 -13.070  0.00  0.00     0.117 H 
ATOM     56  H   LIG d   1       1.520  -2.252 -13.390  0.00  0.00     0.117 H 
ATOM     57  H   LIG d   1       3.081  -5.838 -11.225  0.00  0.00     0.066 H 
BRANCH  39  58
ATOM     58  C   LIG d   1       6.083  -3.475  -6.331  0.00  0.00    -0.012 C 
ATOM     59  H   LIG d   1       7.161  -3.531  -6.486  0.00  0.00     0.039 H 
ATOM     60  H   LIG d   1       5.815  -2.468  -6.008  0.00  0.00     0.039 H 
ATOM     61  H   LIG d   1       5.789  -4.192  -5.565  0.00  0.00     0.039 H 
ENDBRANCH  39  58
BRANCH  49  62
ATOM     62  O   LIG d   1       2.366  -1.213  -8.950  0.00  0.00    -0.491 OA
BRANCH  62  63
ATOM     63  C   LIG d   1       2.110  -0.099  -9.807  0.00  0.00     0.079 C 
ATOM     64  H   LIG d   1       1.061  -0.099 -10.100  0.00  0.00     0.066 H 
ATOM     65  H   LIG d   1       2.340   0.826  -9.277  0.00  0.00     0.066 H 
ATOM     66  H   LIG d   1       2.737  -0.173 -10.696  0.00  0.00     0.066 H 
ENDBRANCH  62  63
ENDBRANCH  49  62
ENDBRANCH   2  37
TORSDOF 7
ENDMDL
MODEL 8
REMARK VINA RESULT:      -6.4      2.563      4.020
REMARK  7 active torsions:
REMARK  status: ('A' for Active; 'I' for Inactive)
REMARK    1  A    between atoms: C_1  and  C_2 
REMARK    2  A    between atoms: C_2  and  C_4 
REMARK    3  A    between atoms: C_2  and  N_14 
REMARK    4  A    between atoms: C_15  and  C_19 
REMARK    5  A    between atoms: C_26  and  O_27 
REMARK    6  A    between atoms: O_27  and  C_28 
REMARK    7  A    between atoms: N_34  and  C_35 
ROOT
ATOM      1  N   LIG d   1       5.528  -1.740  -6.443  0.00  0.00    -0.224 N 
ATOM      2  C   LIG d   1       4.999  -1.746  -7.681  0.00  0.00     0.173 A 
ATOM      3  N   LIG d   1       4.790  -3.001  -7.994  0.00  0.00    -0.111 NA
ATOM      4  N   LIG d   1       5.170  -3.728  -7.002  0.00  0.00    -0.023 NA
ATOM      5  N   LIG d   1       5.622  -2.970  -6.064  0.00  0.00    -0.044 NA
ENDROOT
BRANCH   1   6
ATOM      6  C   LIG d   1       5.928  -0.560  -5.673  0.00  0.00     0.059 C 
ATOM      7  H   LIG d   1       5.807   0.333  -6.287  0.00  0.00     0.055 H 
BRANCH   6   8
ATOM      8  C   LIG d   1       7.393  -0.696  -5.254  0.00  0.00    -0.042 C 
ATOM      9  H   LIG d   1       7.946   0.188  -5.571  0.00  0.00     0.025 H 
ATOM     10  H   LIG d   1       7.453  -0.793  -4.170  0.00  0.00     0.025 H 
ATOM     11  H   LIG d   1       7.824  -1.581  -5.723  0.00  0.00     0.025 H 
ENDBRANCH   6   8
BRANCH   6  12
ATOM     12  C   LIG d   1       5.050  -0.444  -4.425  0.00  0.00    -0.006 C 
ATOM     13  C   LIG d   1       3.789   0.355  -4.760  0.00  0.00    -0.043 C 
ATOM     14  C   LIG d   1       2.911   0.469  -3.513  0.00  0.00    -0.040 C 
ATOM     15  H   LIG d   1       4.070   1.351  -5.101  0.00  0.00     0.027 H 
ATOM     16  H   LIG d   1       3.234  -0.156  -5.548  0.00  0.00     0.027 H 
ATOM     17  C   LIG d   1       2.517  -0.929  -3.035  0.00  0.00    -0.047 C 
ATOM     18  C   LIG d   1       3.688   1.186  -2.407  0.00  0.00    -0.047 C 
ATOM     19  H   LIG d   1       2.012   1.039  -3.752  0.00  0.00     0.030 H 
ATOM     20  C   LIG d   1       3.778  -1.728  -2.700  0.00  0.00    -0.040 C 
ATOM     21  H   LIG d   1       1.963  -1.440  -3.823  0.00  0.00     0.027 H 
ATOM     22  H   LIG d   1       1.892  -0.848  -2.146  0.00  0.00     0.027 H 
ATOM     23  C   LIG d   1       4.656  -1.843  -3.948  0.00  0.00    -0.043 C 
ATOM     24  C   LIG d   1       4.555  -1.011  -1.594  0.00  0.00    -0.047 C 
ATOM     25  H   LIG d   1       3.498  -2.725  -2.359  0.00  0.00     0.030 H 
ATOM     26  H   LIG d   1       4.102  -2.353  -4.735  0.00  0.00     0.027 H 
ATOM     27  H   LIG d   1       5.555  -2.412  -3.709  0.00  0.00     0.027 H 
ATOM     28  C   LIG d   1       4.950   0.387  -2.071  0.00  0.00    -0.040 C 
ATOM     29  H   LIG d   1       3.931  -0.930  -0.705  0.00  0.00     0.027 H 
ATOM     30  H   LIG d   1       5.455  -1.580  -1.355  0.00  0.00     0.027 H 
ATOM     31  C   LIG d   1       5.827   0.273  -3.319  0.00  0.00    -0.043 C 
ATOM     32  H   LIG d   1       5.504   0.898  -1.284  0.00  0.00     0.030 H 
ATOM     33  H   LIG d   1       6.726  -0.296  -3.080  0.00  0.00     0.027 H 
ATOM     34  H   LIG d   1       6.108   1.270  -3.659  0.00  0.00     0.027 H 
ATOM     35  H   LIG d   1       3.969   2.183  -2.747  0.00  0.00     0.027 H 
ATOM     36  H   LIG d   1       3.063   1.268  -1.518  0.00  0.00     0.027 H 
ENDBRANCH   6  12
ENDBRANCH   1   6
BRANCH   2  37
ATOM     37  C   LIG d   1       4.704  -0.543  -8.538  0.00  0.00     0.101 C 
ATOM     38  H   LIG d   1       5.102   0.350  -8.055  0.00  0.00     0.060 H 
ATOM     39  N   LIG d   1       3.252  -0.402  -8.693  0.00  0.00    -0.292 N 
ATOM     40  C   LIG d   1       2.943   0.666  -9.655  0.00  0.00     0.004 C 
ATOM     41  C   LIG d   1       3.311   0.173 -11.055  0.00  0.00    -0.014 C 
ATOM     42  H   LIG d   1       3.523   1.557  -9.416  0.00  0.00     0.043 H 
ATOM     43  H   LIG d   1       1.879   0.898  -9.617  0.00  0.00     0.043 H 
ATOM     44  C   LIG d   1       4.715  -0.377 -11.055  0.00  0.00    -0.034 A 
ATOM     45  H   LIG d   1       3.249   1.003 -11.759  0.00  0.00     0.033 H 
ATOM     46  H   LIG d   1       2.616  -0.610 -11.357  0.00  0.00     0.033 H 
ATOM     47  C   LIG d   1       5.359  -0.715  -9.882  0.00  0.00     0.026 A 
ATOM     48  C   LIG d   1       5.358  -0.545 -12.271  0.00  0.00    -0.012 A 
ATOM     49  C   LIG d   1       6.649  -1.231  -9.928  0.00  0.00     0.171 A 
ATOM     50  C   LIG d   1       7.294  -1.404 -11.144  0.00  0.00     0.208 A 
ATOM     51  C   LIG d   1       6.643  -1.058 -12.323  0.00  0.00     0.170 A 
ATOM     52  O   LIG d   1       8.535  -1.883 -11.455  0.00  0.00    -0.449 OA
ATOM     53  O   LIG d   1       7.475  -1.316 -13.374  0.00  0.00    -0.453 OA
ATOM     54  C   LIG d   1       8.483  -2.205 -12.857  0.00  0.00     0.233 C 
ATOM     55  H   LIG d   1       9.445  -2.010 -13.331  0.00  0.00     0.117 H 
ATOM     56  H   LIG d   1       8.188  -3.244 -13.000  0.00  0.00     0.117 H 
ATOM     57  H   LIG d   1       4.851  -0.275 -13.187  0.00  0.00     0.066 H 
BRANCH  39  58
ATOM     58  C   LIG d   1       2.607  -0.141  -7.399  0.00  0.00    -0.012 C 
ATOM     59  H   LIG d   1       2.693  -1.025  -6.765  0.00  0.00     0.039 H 
ATOM     60  H   LIG d   1       3.097   0.703  -6.912  0.00  0.00     0.039 H 
ATOM     61  H   LIG d   1       1.555   0.091  -7.556  0.00  0.00     0.039 H 
ENDBRANCH  39  58
BRANCH  49  62
ATOM     62  O   LIG d   1       7.284  -1.567  -8.772  0.00  0.00    -0.491 OA
BRANCH  62  63
ATOM     63  C   LIG d   1       8.479  -0.850  -8.456  0.00  0.00     0.079 C 
ATOM     64  H   LIG d   1       8.548  -0.718  -7.376  0.00  0.00     0.066 H 
ATOM     65  H   LIG d   1       9.344  -1.412  -8.810  0.00  0.00     0.066 H 
ATOM     66  H   LIG d   1       8.456   0.126  -8.941  0.00  0.00     0.066 H 
ENDBRANCH  62  63
ENDBRANCH  49  62
ENDBRANCH   2  37
TORSDOF 7
ENDMDL
MODEL 9
REMARK VINA RESULT:      -6.4      3.316      4.967
REMARK  7 active torsions:
REMARK  status: ('A' for Active; 'I' for Inactive)
REMARK    1  A    between atoms: C_1  and  C_2 
REMARK    2  A    between atoms: C_2  and  C_4 
REMARK    3  A    between atoms: C_2  and  N_14 
REMARK    4  A    between atoms: C_15  and  C_19 
REMARK    5  A    between atoms: C_26  and  O_27 
REMARK    6  A    between atoms: O_27  and  C_28 
REMARK    7  A    between atoms: N_34  and  C_35 
ROOT
ATOM      1  N   LIG d   1       6.167  -0.197  -6.493  0.00  0.00    -0.224 N 
ATOM      2  C   LIG d   1       7.240   0.589  -6.703  0.00  0.00     0.173 A 
ATOM      3  N   LIG d   1       6.895   1.458  -7.620  0.00  0.00    -0.111 NA
ATOM      4  N   LIG d   1       5.675   1.220  -7.958  0.00  0.00    -0.023 NA
ATOM      5  N   LIG d   1       5.234   0.216  -7.282  0.00  0.00    -0.044 NA
ENDROOT
BRANCH   1   6
ATOM      6  C   LIG d   1       6.079  -1.315  -5.551  0.00  0.00     0.059 C 
ATOM      7  H   LIG d   1       7.072  -1.548  -5.168  0.00  0.00     0.055 H 
BRANCH   6   8
ATOM      8  C   LIG d   1       5.507  -2.541  -6.267  0.00  0.00    -0.042 C 
ATOM      9  H   LIG d   1       4.926  -3.135  -5.562  0.00  0.00     0.025 H 
ATOM     10  H   LIG d   1       4.864  -2.216  -7.085  0.00  0.00     0.025 H 
ATOM     11  H   LIG d   1       6.324  -3.144  -6.663  0.00  0.00     0.025 H 
ENDBRANCH   6   8
BRANCH   6  12
ATOM     12  C   LIG d   1       5.161  -0.930  -4.388  0.00  0.00    -0.006 C 
ATOM     13  C   LIG d   1       4.038  -0.027  -4.902  0.00  0.00    -0.043 C 
ATOM     14  C   LIG d   1       3.120   0.357  -3.740  0.00  0.00    -0.040 C 
ATOM     15  H   LIG d   1       4.469   0.875  -5.339  0.00  0.00     0.027 H 
ATOM     16  H   LIG d   1       3.461  -0.559  -5.660  0.00  0.00     0.027 H 
ATOM     17  C   LIG d   1       2.517  -0.908  -3.127  0.00  0.00    -0.047 C 
ATOM     18  C   LIG d   1       3.928   1.103  -2.677  0.00  0.00    -0.047 C 
ATOM     19  H   LIG d   1       2.320   1.001  -4.107  0.00  0.00     0.030 H 
ATOM     20  C   LIG d   1       3.639  -1.811  -2.613  0.00  0.00    -0.040 C 
ATOM     21  H   LIG d   1       1.941  -1.440  -3.885  0.00  0.00     0.027 H 
ATOM     22  H   LIG d   1       1.863  -0.635  -2.299  0.00  0.00     0.027 H 
ATOM     23  C   LIG d   1       4.557  -2.196  -3.776  0.00  0.00    -0.043 C 
ATOM     24  C   LIG d   1       4.447  -1.065  -1.550  0.00  0.00    -0.047 C 
ATOM     25  H   LIG d   1       3.210  -2.713  -2.177  0.00  0.00     0.030 H 
ATOM     26  H   LIG d   1       3.981  -2.727  -4.533  0.00  0.00     0.027 H 
ATOM     27  H   LIG d   1       5.358  -2.839  -3.410  0.00  0.00     0.027 H 
ATOM     28  C   LIG d   1       5.051   0.200  -2.163  0.00  0.00    -0.040 C 
ATOM     29  H   LIG d   1       3.794  -0.792  -0.722  0.00  0.00     0.027 H 
ATOM     30  H   LIG d   1       5.248  -1.708  -1.184  0.00  0.00     0.027 H 
ATOM     31  C   LIG d   1       5.969  -0.184  -3.325  0.00  0.00    -0.043 C 
ATOM     32  H   LIG d   1       5.627   0.732  -1.406  0.00  0.00     0.030 H 
ATOM     33  H   LIG d   1       6.769  -0.827  -2.959  0.00  0.00     0.027 H 
ATOM     34  H   LIG d   1       6.399   0.718  -3.762  0.00  0.00     0.027 H 
ATOM     35  H   LIG d   1       4.358   2.005  -3.114  0.00  0.00     0.027 H 
ATOM     36  H   LIG d   1       3.275   1.377  -1.850  0.00  0.00     0.027 H 
ENDBRANCH   6  12
ENDBRANCH   1   6
BRANCH   2  37
ATOM     37  C   LIG d   1       8.576   0.489  -6.014  0.00  0.00     0.101 C 
ATOM     38  H   LIG d   1       8.571  -0.369  -5.341  0.00  0.00     0.060 H 
ATOM     39  N   LIG d   1       8.814   1.711  -5.239  0.00  0.00    -0.292 N 
ATOM     40  C   LIG d   1      10.178   1.708  -4.689  0.00  0.00     0.004 C 
ATOM     41  C   LIG d   1      11.161   1.930  -5.840  0.00  0.00    -0.014 C 
ATOM     42  H   LIG d   1      10.382   0.749  -4.213  0.00  0.00     0.043 H 
ATOM     43  H   LIG d   1      10.282   2.511  -3.960  0.00  0.00     0.043 H 
ATOM     44  C   LIG d   1      10.863   0.970  -6.963  0.00  0.00    -0.034 A 
ATOM     45  H   LIG d   1      12.178   1.764  -5.484  0.00  0.00     0.033 H 
ATOM     46  H   LIG d   1      11.068   2.953  -6.203  0.00  0.00     0.033 H 
ATOM     47  C   LIG d   1       9.657   0.305  -7.046  0.00  0.00     0.026 A 
ATOM     48  C   LIG d   1      11.833   0.766  -7.932  0.00  0.00    -0.012 A 
ATOM     49  C   LIG d   1       9.417  -0.562  -8.107  0.00  0.00     0.171 A 
ATOM     50  C   LIG d   1      10.385  -0.765  -9.079  0.00  0.00     0.208 A 
ATOM     51  C   LIG d   1      11.601  -0.096  -8.990  0.00  0.00     0.170 A 
ATOM     52  O   LIG d   1      10.398  -1.547 -10.199  0.00  0.00    -0.449 OA
ATOM     53  O   LIG d   1      12.379  -0.460 -10.052  0.00  0.00    -0.453 OA
ATOM     54  C   LIG d   1      11.475  -1.040 -11.009  0.00  0.00     0.233 C 
ATOM     55  H   LIG d   1      11.961  -1.851 -11.552  0.00  0.00     0.117 H 
ATOM     56  H   LIG d   1      11.109  -0.281 -11.701  0.00  0.00     0.117 H 
ATOM     57  H   LIG d   1      12.778   1.286  -7.861  0.00  0.00     0.066 H 
BRANCH  39  58
ATOM     58  C   LIG d   1       7.820   1.857  -4.167  0.00  0.00    -0.012 C 
ATOM     59  H   LIG d   1       7.367   2.847  -4.223  0.00  0.00     0.039 H 
ATOM     60  H   LIG d   1       7.047   1.097  -4.283  0.00  0.00     0.039 H 
ATOM     61  H   LIG d   1       8.307   1.735  -3.200  0.00  0.00     0.039 H 
ENDBRANCH  39  58
BRANCH  49  62
ATOM     62  O   LIG d   1       8.227  -1.216  -8.190  0.00  0.00    -0.491 OA
BRANCH  62  63
ATOM     63  C   LIG d   1       8.274  -2.643  -8.249  0.00  0.00     0.079 C 
ATOM     64  H   LIG d   1       7.801  -3.059  -7.360  0.00  0.00     0.066 H 
ATOM     65  H   LIG d   1       7.743  -2.986  -9.138  0.00  0.00     0.066 H 
ATOM     66  H   LIG d   1       9.312  -2.970  -8.297  0.00  0.00     0.066 H 
ENDBRANCH  62  63
ENDBRANCH  49  62
ENDBRANCH   2  37
TORSDOF 7
ENDMDL
