MODEL 1
REMARK VINA RESULT:      -5.4      0.000      0.000
REMARK  5 active torsions:
REMARK  status: ('A' for Active; 'I' for Inactive)
REMARK    1  A    between atoms: C_1  and  C_2 
REMARK    2  A    between atoms: C_3  and  C_12 
REMARK    3  A    between atoms: C_12  and  N_13 
REMARK    4  A    between atoms: N_13  and  C_14 
REMARK    5  A    between atoms: N_13  and  C_15 
ROOT
ATOM      1  C   LIG d   1       6.894  -2.156  -3.782  0.00  0.00     0.022 A 
ATOM      2  C   LIG d   1       5.608  -2.498  -3.955  0.00  0.00     0.025 A 
ATOM      3  C   LIG d   1       4.797  -1.409  -3.407  0.00  0.00     0.008 A 
ATOM      4  C   LIG d   1       3.423  -1.183  -3.294  0.00  0.00    -0.052 A 
ATOM      5  C   LIG d   1       2.970  -0.032  -2.716  0.00  0.00    -0.061 A 
ATOM      6  C   LIG d   1       3.865   0.916  -2.237  0.00  0.00    -0.060 A 
ATOM      7  C   LIG d   1       5.224   0.715  -2.338  0.00  0.00    -0.038 A 
ATOM      8  C   LIG d   1       5.708  -0.452  -2.924  0.00  0.00     0.047 A 
ATOM      9  N   LIG d   1       6.973  -0.938  -3.163  0.00  0.00    -0.358 N 
ATOM     10  H   LIG d   1       7.798  -0.484  -2.929  0.00  0.00     0.166 HD
ATOM     11  H   LIG d   1       2.721  -1.917  -3.664  0.00  0.00     0.062 H 
ATOM     12  H   LIG d   1       1.908   0.142  -2.628  0.00  0.00     0.062 H 
ATOM     13  H   LIG d   1       3.491   1.821  -1.783  0.00  0.00     0.062 H 
ATOM     14  H   LIG d   1       5.911   1.458  -1.964  0.00  0.00     0.064 H 
ENDROOT
BRANCH   2  15
ATOM     15  C   LIG d   1       5.095  -3.765  -4.592  0.00  0.00    -0.004 C 
ATOM     16  H   LIG d   1       5.937  -4.400  -4.866  0.00  0.00     0.087 H 
ATOM     17  H   LIG d   1       4.457  -4.295  -3.883  0.00  0.00     0.087 H 
BRANCH  15  18
ATOM     18  N   LIG d   1       4.321  -3.431  -5.794  0.00  0.00     0.234 N 
ATOM     19  H   LIG d   1       3.482  -2.938  -5.527  0.00  0.00     0.203 HD
BRANCH  18  20
ATOM     20  C   LIG d   1       5.130  -2.581  -6.678  0.00  0.00    -0.043 C 
ATOM     21  H   LIG d   1       6.009  -3.133  -7.008  0.00  0.00     0.078 H 
ATOM     22  H   LIG d   1       4.536  -2.290  -7.545  0.00  0.00     0.078 H 
ATOM     23  H   LIG d   1       5.443  -1.688  -6.136  0.00  0.00     0.078 H 
ENDBRANCH  18  20
BRANCH  18  24
ATOM     24  C   LIG d   1       3.958  -4.667  -6.501  0.00  0.00    -0.043 C 
ATOM     25  H   LIG d   1       4.321  -5.527  -5.939  0.00  0.00     0.078 H 
ATOM     26  H   LIG d   1       2.873  -4.726  -6.595  0.00  0.00     0.078 H 
ATOM     27  H   LIG d   1       4.409  -4.663  -7.494  0.00  0.00     0.078 H 
ENDBRANCH  18  24
ENDBRANCH  15  18
ENDBRANCH   2  15
BRANCH   1  28
ATOM     28  C   LIG d   1       8.076  -2.992  -4.201  0.00  0.00    -0.024 C 
ATOM     29  H   LIG d   1       7.847  -4.046  -4.049  0.00  0.00     0.029 H 
ATOM     30  H   LIG d   1       8.292  -2.814  -5.254  0.00  0.00     0.029 H 
ATOM     31  H   LIG d   1       8.944  -2.718  -3.601  0.00  0.00     0.029 H 
ENDBRANCH   1  28
TORSDOF 5
ENDMDL
MODEL 2
REMARK VINA RESULT:      -5.3      1.354      2.900
REMARK  5 active torsions:
REMARK  status: ('A' for Active; 'I' for Inactive)
REMARK    1  A    between atoms: C_1  and  C_2 
REMARK    2  A    between atoms: C_3  and  C_12 
REMARK    3  A    between atoms: C_12  and  N_13 
REMARK    4  A    between atoms: N_13  and  C_14 
REMARK    5  A    between atoms: N_13  and  C_15 
ROOT
ATOM      1  C   LIG d   1       4.848  -2.934  -4.383  0.00  0.00     0.022 A 
ATOM      2  C   LIG d   1       5.858  -2.133  -4.009  0.00  0.00     0.025 A 
ATOM      3  C   LIG d   1       5.259  -0.955  -3.377  0.00  0.00     0.008 A 
ATOM      4  C   LIG d   1       5.778   0.205  -2.798  0.00  0.00    -0.052 A 
ATOM      5  C   LIG d   1       4.930   1.142  -2.281  0.00  0.00    -0.061 A 
ATOM      6  C   LIG d   1       3.556   0.951  -2.326  0.00  0.00    -0.060 A 
ATOM      7  C   LIG d   1       3.022  -0.185  -2.892  0.00  0.00    -0.038 A 
ATOM      8  C   LIG d   1       3.867  -1.154  -3.426  0.00  0.00     0.047 A 
ATOM      9  N   LIG d   1       3.651  -2.363  -4.048  0.00  0.00    -0.358 N 
ATOM     10  H   LIG d   1       2.780  -2.753  -4.221  0.00  0.00     0.166 HD
ATOM     11  H   LIG d   1       6.847   0.360  -2.759  0.00  0.00     0.062 H 
ATOM     12  H   LIG d   1       5.331   2.039  -1.833  0.00  0.00     0.062 H 
ATOM     13  H   LIG d   1       2.898   1.701  -1.913  0.00  0.00     0.062 H 
ATOM     14  H   LIG d   1       1.952  -0.325  -2.923  0.00  0.00     0.064 H 
ENDROOT
BRANCH   2  15
ATOM     15  C   LIG d   1       7.329  -2.396  -4.203  0.00  0.00    -0.004 C 
ATOM     16  H   LIG d   1       7.887  -1.975  -3.366  0.00  0.00     0.087 H 
ATOM     17  H   LIG d   1       7.503  -3.472  -4.249  0.00  0.00     0.087 H 
BRANCH  15  18
ATOM     18  N   LIG d   1       7.779  -1.773  -5.455  0.00  0.00     0.234 N 
ATOM     19  H   LIG d   1       7.011  -1.269  -5.873  0.00  0.00     0.203 HD
BRANCH  18  20
ATOM     20  C   LIG d   1       8.880  -0.843  -5.171  0.00  0.00    -0.043 C 
ATOM     21  H   LIG d   1       9.800  -1.406  -5.018  0.00  0.00     0.078 H 
ATOM     22  H   LIG d   1       9.006  -0.162  -6.014  0.00  0.00     0.078 H 
ATOM     23  H   LIG d   1       8.650  -0.270  -4.273  0.00  0.00     0.078 H 
ENDBRANCH  18  20
BRANCH  18  24
ATOM     24  C   LIG d   1       8.242  -2.815  -6.381  0.00  0.00    -0.043 C 
ATOM     25  H   LIG d   1       9.105  -3.324  -5.952  0.00  0.00     0.078 H 
ATOM     26  H   LIG d   1       7.442  -3.535  -6.548  0.00  0.00     0.078 H 
ATOM     27  H   LIG d   1       8.524  -2.357  -7.330  0.00  0.00     0.078 H 
ENDBRANCH  18  24
ENDBRANCH  15  18
ENDBRANCH   2  15
BRANCH   1  28
ATOM     28  C   LIG d   1       5.009  -4.263  -5.077  0.00  0.00    -0.024 C 
ATOM     29  H   LIG d   1       5.138  -4.101  -6.147  0.00  0.00     0.029 H 
ATOM     30  H   LIG d   1       5.883  -4.777  -4.679  0.00  0.00     0.029 H 
ATOM     31  H   LIG d   1       4.120  -4.871  -4.906  0.00  0.00     0.029 H 
ENDBRANCH   1  28
TORSDOF 5
ENDMDL
MODEL 3
REMARK VINA RESULT:      -5.3      1.932      2.950
REMARK  5 active torsions:
REMARK  status: ('A' for Active; 'I' for Inactive)
REMARK    1  A    between atoms: C_1  and  C_2 
REMARK    2  A    between atoms: C_3  and  C_12 
REMARK    3  A    between atoms: C_12  and  N_13 
REMARK    4  A    between atoms: N_13  and  C_14 
REMARK    5  A    between atoms: N_13  and  C_15 
ROOT
ATOM      1  C   LIG d   1       3.616  -0.436  -6.384  0.00  0.00     0.022 A 
ATOM      2  C   LIG d   1       4.339  -1.350  -5.717  0.00  0.00     0.025 A 
ATOM      3  C   LIG d   1       4.360  -0.937  -4.312  0.00  0.00     0.008 A 
ATOM      4  C   LIG d   1       4.934  -1.465  -3.154  0.00  0.00    -0.052 A 
ATOM      5  C   LIG d   1       4.766  -0.823  -1.960  0.00  0.00    -0.061 A 
ATOM      6  C   LIG d   1       4.028   0.350  -1.888  0.00  0.00    -0.060 A 
ATOM      7  C   LIG d   1       3.451   0.889  -3.018  0.00  0.00    -0.038 A 
ATOM      8  C   LIG d   1       3.611   0.252  -4.245  0.00  0.00     0.047 A 
ATOM      9  N   LIG d   1       3.177   0.531  -5.522  0.00  0.00    -0.358 N 
ATOM     10  H   LIG d   1       2.640   1.299  -5.772  0.00  0.00     0.166 HD
ATOM     11  H   LIG d   1       5.511  -2.378  -3.203  0.00  0.00     0.062 H 
ATOM     12  H   LIG d   1       5.210  -1.231  -1.065  0.00  0.00     0.062 H 
ATOM     13  H   LIG d   1       3.902   0.846  -0.937  0.00  0.00     0.062 H 
ATOM     14  H   LIG d   1       2.879   1.801  -2.952  0.00  0.00     0.064 H 
ENDROOT
BRANCH   2  15
ATOM     15  C   LIG d   1       5.003  -2.569  -6.304  0.00  0.00    -0.004 C 
ATOM     16  H   LIG d   1       5.182  -2.409  -7.367  0.00  0.00     0.087 H 
ATOM     17  H   LIG d   1       5.954  -2.742  -5.798  0.00  0.00     0.087 H 
BRANCH  15  18
ATOM     18  N   LIG d   1       4.132  -3.738  -6.123  0.00  0.00     0.234 N 
ATOM     19  H   LIG d   1       3.266  -3.447  -5.695  0.00  0.00     0.203 HD
BRANCH  18  20
ATOM     20  C   LIG d   1       3.853  -4.348  -7.430  0.00  0.00    -0.043 C 
ATOM     21  H   LIG d   1       4.382  -5.297  -7.507  0.00  0.00     0.078 H 
ATOM     22  H   LIG d   1       2.781  -4.519  -7.528  0.00  0.00     0.078 H 
ATOM     23  H   LIG d   1       4.189  -3.678  -8.222  0.00  0.00     0.078 H 
ENDBRANCH  18  20
BRANCH  18  24
ATOM     24  C   LIG d   1       4.801  -4.718  -5.257  0.00  0.00    -0.043 C 
ATOM     25  H   LIG d   1       5.851  -4.795  -5.539  0.00  0.00     0.078 H 
ATOM     26  H   LIG d   1       4.728  -4.395  -4.218  0.00  0.00     0.078 H 
ATOM     27  H   LIG d   1       4.321  -5.690  -5.370  0.00  0.00     0.078 H 
ENDBRANCH  18  24
ENDBRANCH  15  18
ENDBRANCH   2  15
BRANCH   1  28
ATOM     28  C   LIG d   1       3.336  -0.467  -7.865  0.00  0.00    -0.024 C 
ATOM     29  H   LIG d   1       4.277  -0.447  -8.413  0.00  0.00     0.029 H 
ATOM     30  H   LIG d   1       2.790  -1.377  -8.112  0.00  0.00     0.029 H 
ATOM     31  H   LIG d   1       2.737   0.402  -8.139  0.00  0.00     0.029 H 
ENDBRANCH   1  28
TORSDOF 5
ENDMDL
MODEL 4
REMARK VINA RESULT:      -5.2      2.884      4.306
REMARK  5 active torsions:
REMARK  status: ('A' for Active; 'I' for Inactive)
REMARK    1  A    between atoms: C_1  and  C_2 
REMARK    2  A    between atoms: C_3  and  C_12 
REMARK    3  A    between atoms: C_12  and  N_13 
REMARK    4  A    between atoms: N_13  and  C_14 
REMARK    5  A    between atoms: N_13  and  C_15 
ROOT
ATOM      1  C   LIG d   1       3.288   0.029  -6.492  0.00  0.00     0.022 A 
ATOM      2  C   LIG d   1       4.533  -0.397  -6.226  0.00  0.00     0.025 A 
ATOM      3  C   LIG d   1       4.550  -0.828  -4.827  0.00  0.00     0.008 A 
ATOM      4  C   LIG d   1       5.531  -1.356  -3.985  0.00  0.00    -0.052 A 
ATOM      5  C   LIG d   1       5.221  -1.664  -2.692  0.00  0.00    -0.061 A 
ATOM      6  C   LIG d   1       3.937  -1.457  -2.206  0.00  0.00    -0.060 A 
ATOM      7  C   LIG d   1       2.953  -0.938  -3.018  0.00  0.00    -0.038 A 
ATOM      8  C   LIG d   1       3.247  -0.616  -4.340  0.00  0.00     0.047 A 
ATOM      9  N   LIG d   1       2.507  -0.090  -5.375  0.00  0.00    -0.358 N 
ATOM     10  H   LIG d   1       1.571   0.158  -5.320  0.00  0.00     0.166 HD
ATOM     11  H   LIG d   1       6.533  -1.520  -4.357  0.00  0.00     0.062 H 
ATOM     12  H   LIG d   1       5.980  -2.073  -2.041  0.00  0.00     0.062 H 
ATOM     13  H   LIG d   1       3.707  -1.707  -1.181  0.00  0.00     0.062 H 
ATOM     14  H   LIG d   1       1.958  -0.781  -2.631  0.00  0.00     0.064 H 
ENDROOT
BRANCH   2  15
ATOM     15  C   LIG d   1       5.695  -0.424  -7.187  0.00  0.00    -0.004 C 
ATOM     16  H   LIG d   1       6.384  -1.219  -6.901  0.00  0.00     0.087 H 
ATOM     17  H   LIG d   1       5.327  -0.609  -8.197  0.00  0.00     0.087 H 
BRANCH  15  18
ATOM     18  N   LIG d   1       6.393   0.868  -7.149  0.00  0.00     0.234 N 
ATOM     19  H   LIG d   1       5.864   1.519  -6.590  0.00  0.00     0.203 HD
BRANCH  18  20
ATOM     20  C   LIG d   1       7.727   0.686  -6.562  0.00  0.00    -0.043 C 
ATOM     21  H   LIG d   1       7.905  -0.374  -6.387  0.00  0.00     0.078 H 
ATOM     22  H   LIG d   1       8.481   1.073  -7.248  0.00  0.00     0.078 H 
ATOM     23  H   LIG d   1       7.784   1.227  -5.617  0.00  0.00     0.078 H 
ENDBRANCH  18  20
BRANCH  18  24
ATOM     24  C   LIG d   1       6.526   1.392  -8.515  0.00  0.00    -0.043 C 
ATOM     25  H   LIG d   1       6.076   0.691  -9.219  0.00  0.00     0.078 H 
ATOM     26  H   LIG d   1       6.018   2.353  -8.586  0.00  0.00     0.078 H 
ATOM     27  H   LIG d   1       7.583   1.520  -8.754  0.00  0.00     0.078 H 
ENDBRANCH  18  24
ENDBRANCH  15  18
ENDBRANCH   2  15
BRANCH   1  28
ATOM     28  C   LIG d   1       2.821   0.565  -7.821  0.00  0.00    -0.024 C 
ATOM     29  H   LIG d   1       3.089   1.617  -7.903  0.00  0.00     0.029 H 
ATOM     30  H   LIG d   1       3.297   0.004  -8.626  0.00  0.00     0.029 H 
ATOM     31  H   LIG d   1       1.739   0.458  -7.895  0.00  0.00     0.029 H 
ENDBRANCH   1  28
TORSDOF 5
ENDMDL
MODEL 5
REMARK VINA RESULT:      -5.2      2.503      4.377
REMARK  5 active torsions:
REMARK  status: ('A' for Active; 'I' for Inactive)
REMARK    1  A    between atoms: C_1  and  C_2 
REMARK    2  A    between atoms: C_3  and  C_12 
REMARK    3  A    between atoms: C_12  and  N_13 
REMARK    4  A    between atoms: N_13  and  C_14 
REMARK    5  A    between atoms: N_13  and  C_15 
ROOT
ATOM      1  C   LIG d   1       7.692  -1.449  -4.480  0.00  0.00     0.022 A 
ATOM      2  C   LIG d   1       7.509  -0.133  -4.289  0.00  0.00     0.025 A 
ATOM      3  C   LIG d   1       6.348   0.015  -3.408  0.00  0.00     0.008 A 
ATOM      4  C   LIG d   1       5.680   1.111  -2.859  0.00  0.00    -0.052 A 
ATOM      5  C   LIG d   1       4.597   0.911  -2.052  0.00  0.00    -0.061 A 
ATOM      6  C   LIG d   1       4.155  -0.375  -1.772  0.00  0.00    -0.060 A 
ATOM      7  C   LIG d   1       4.799  -1.471  -2.302  0.00  0.00    -0.038 A 
ATOM      8  C   LIG d   1       5.905  -1.290  -3.128  0.00  0.00     0.047 A 
ATOM      9  N   LIG d   1       6.740  -2.156  -3.799  0.00  0.00    -0.358 N 
ATOM     10  H   LIG d   1       6.664  -3.123  -3.788  0.00  0.00     0.166 HD
ATOM     11  H   LIG d   1       6.018   2.115  -3.073  0.00  0.00     0.062 H 
ATOM     12  H   LIG d   1       4.080   1.758  -1.628  0.00  0.00     0.062 H 
ATOM     13  H   LIG d   1       3.298  -0.518  -1.131  0.00  0.00     0.062 H 
ATOM     14  H   LIG d   1       4.448  -2.467  -2.078  0.00  0.00     0.064 H 
ENDROOT
BRANCH   2  15
ATOM     15  C   LIG d   1       8.341   0.982  -4.871  0.00  0.00    -0.004 C 
ATOM     16  H   LIG d   1       8.737   0.672  -5.838  0.00  0.00     0.087 H 
ATOM     17  H   LIG d   1       7.720   1.869  -5.001  0.00  0.00     0.087 H 
BRANCH  15  18
ATOM     18  N   LIG d   1       9.452   1.291  -3.961  0.00  0.00     0.234 N 
ATOM     19  H   LIG d   1       9.429   0.659  -3.176  0.00  0.00     0.203 HD
BRANCH  18  20
ATOM     20  C   LIG d   1      10.727   1.139  -4.676  0.00  0.00    -0.043 C 
ATOM     21  H   LIG d   1      10.889   2.005  -5.317  0.00  0.00     0.078 H 
ATOM     22  H   LIG d   1      11.541   1.063  -3.955  0.00  0.00     0.078 H 
ATOM     23  H   LIG d   1      10.696   0.236  -5.285  0.00  0.00     0.078 H 
ENDBRANCH  18  20
BRANCH  18  24
ATOM     24  C   LIG d   1       9.321   2.673  -3.481  0.00  0.00    -0.043 C 
ATOM     25  H   LIG d   1       9.649   3.361  -4.260  0.00  0.00     0.078 H 
ATOM     26  H   LIG d   1       8.279   2.875  -3.234  0.00  0.00     0.078 H 
ATOM     27  H   LIG d   1       9.939   2.809  -2.592  0.00  0.00     0.078 H 
ENDBRANCH  18  24
ENDBRANCH  15  18
ENDBRANCH   2  15
BRANCH   1  28
ATOM     28  C   LIG d   1       8.780  -2.057  -5.327  0.00  0.00    -0.024 C 
ATOM     29  H   LIG d   1       9.626  -2.324  -4.695  0.00  0.00     0.029 H 
ATOM     30  H   LIG d   1       8.399  -2.951  -5.821  0.00  0.00     0.029 H 
ATOM     31  H   LIG d   1       9.101  -1.335  -6.078  0.00  0.00     0.029 H 
ENDBRANCH   1  28
TORSDOF 5
ENDMDL
MODEL 6
REMARK VINA RESULT:      -4.9      1.630      2.067
REMARK  5 active torsions:
REMARK  status: ('A' for Active; 'I' for Inactive)
REMARK    1  A    between atoms: C_1  and  C_2 
REMARK    2  A    between atoms: C_3  and  C_12 
REMARK    3  A    between atoms: C_12  and  N_13 
REMARK    4  A    between atoms: N_13  and  C_14 
REMARK    5  A    between atoms: N_13  and  C_15 
ROOT
ATOM      1  C   LIG d   1       5.984  -0.678  -6.122  0.00  0.00     0.022 A 
ATOM      2  C   LIG d   1       5.501  -1.845  -5.666  0.00  0.00     0.025 A 
ATOM      3  C   LIG d   1       5.010  -1.604  -4.308  0.00  0.00     0.008 A 
ATOM      4  C   LIG d   1       4.409  -2.408  -3.336  0.00  0.00    -0.052 A 
ATOM      5  C   LIG d   1       4.057  -1.868  -2.132  0.00  0.00    -0.061 A 
ATOM      6  C   LIG d   1       4.292  -0.526  -1.866  0.00  0.00    -0.060 A 
ATOM      7  C   LIG d   1       4.882   0.286  -2.809  0.00  0.00    -0.038 A 
ATOM      8  C   LIG d   1       5.250  -0.244  -4.043  0.00  0.00     0.047 A 
ATOM      9  N   LIG d   1       5.847   0.289  -5.164  0.00  0.00    -0.358 N 
ATOM     10  H   LIG d   1       6.127   1.212  -5.260  0.00  0.00     0.166 HD
ATOM     11  H   LIG d   1       4.224  -3.454  -3.537  0.00  0.00     0.062 H 
ATOM     12  H   LIG d   1       3.594  -2.490  -1.381  0.00  0.00     0.062 H 
ATOM     13  H   LIG d   1       4.007  -0.113  -0.910  0.00  0.00     0.062 H 
ATOM     14  H   LIG d   1       5.060   1.328  -2.593  0.00  0.00     0.064 H 
ENDROOT
BRANCH   2  15
ATOM     15  C   LIG d   1       5.471  -3.155  -6.412  0.00  0.00    -0.004 C 
ATOM     16  H   LIG d   1       6.104  -3.084  -7.296  0.00  0.00     0.087 H 
ATOM     17  H   LIG d   1       5.842  -3.950  -5.763  0.00  0.00     0.087 H 
BRANCH  15  18
ATOM     18  N   LIG d   1       4.093  -3.457  -6.818  0.00  0.00     0.234 N 
ATOM     19  H   LIG d   1       3.450  -2.975  -6.209  0.00  0.00     0.203 HD
BRANCH  18  20
ATOM     20  C   LIG d   1       3.882  -3.015  -8.203  0.00  0.00    -0.043 C 
ATOM     21  H   LIG d   1       4.445  -2.100  -8.381  0.00  0.00     0.078 H 
ATOM     22  H   LIG d   1       4.224  -3.792  -8.888  0.00  0.00     0.078 H 
ATOM     23  H   LIG d   1       2.821  -2.828  -8.367  0.00  0.00     0.078 H 
ENDBRANCH  18  20
BRANCH  18  24
ATOM     24  C   LIG d   1       3.861  -4.905  -6.725  0.00  0.00    -0.043 C 
ATOM     25  H   LIG d   1       4.814  -5.430  -6.790  0.00  0.00     0.078 H 
ATOM     26  H   LIG d   1       3.384  -5.136  -5.773  0.00  0.00     0.078 H 
ATOM     27  H   LIG d   1       3.214  -5.223  -7.543  0.00  0.00     0.078 H 
ENDBRANCH  18  24
ENDBRANCH  15  18
ENDBRANCH   2  15
BRANCH   1  28
ATOM     28  C   LIG d   1       6.593  -0.467  -7.484  0.00  0.00    -0.024 C 
ATOM     29  H   LIG d   1       6.363  -1.319  -8.122  0.00  0.00     0.029 H 
ATOM     30  H   LIG d   1       6.185   0.441  -7.928  0.00  0.00     0.029 H 
ATOM     31  H   LIG d   1       7.675  -0.368  -7.386  0.00  0.00     0.029 H 
ENDBRANCH   1  28
TORSDOF 5
ENDMDL
MODEL 7
REMARK VINA RESULT:      -4.8      2.500      3.890
REMARK  5 active torsions:
REMARK  status: ('A' for Active; 'I' for Inactive)
REMARK    1  A    between atoms: C_1  and  C_2 
REMARK    2  A    between atoms: C_3  and  C_12 
REMARK    3  A    between atoms: C_12  and  N_13 
REMARK    4  A    between atoms: N_13  and  C_14 
REMARK    5  A    between atoms: N_13  and  C_15 
ROOT
ATOM      1  C   LIG d   1       4.770  -1.165  -6.087  0.00  0.00     0.022 A 
ATOM      2  C   LIG d   1       5.744  -0.459  -5.492  0.00  0.00     0.025 A 
ATOM      3  C   LIG d   1       5.213   0.007  -4.209  0.00  0.00     0.008 A 
ATOM      4  C   LIG d   1       5.735   0.770  -3.162  0.00  0.00    -0.052 A 
ATOM      5  C   LIG d   1       4.964   1.039  -2.068  0.00  0.00    -0.061 A 
ATOM      6  C   LIG d   1       3.663   0.559  -1.988  0.00  0.00    -0.060 A 
ATOM      7  C   LIG d   1       3.128  -0.196  -3.008  0.00  0.00    -0.038 A 
ATOM      8  C   LIG d   1       3.896  -0.482  -4.133  0.00  0.00     0.047 A 
ATOM      9  N   LIG d   1       3.657  -1.185  -5.292  0.00  0.00    -0.358 N 
ATOM     10  H   LIG d   1       2.823  -1.630  -5.510  0.00  0.00     0.166 HD
ATOM     11  H   LIG d   1       6.747   1.147  -3.218  0.00  0.00     0.062 H 
ATOM     12  H   LIG d   1       5.367   1.629  -1.259  0.00  0.00     0.062 H 
ATOM     13  H   LIG d   1       3.065   0.779  -1.116  0.00  0.00     0.062 H 
ATOM     14  H   LIG d   1       2.116  -0.565  -2.936  0.00  0.00     0.064 H 
ENDROOT
BRANCH   2  15
ATOM     15  C   LIG d   1       7.122  -0.194  -6.041  0.00  0.00    -0.004 C 
ATOM     16  H   LIG d   1       7.865  -0.377  -5.264  0.00  0.00     0.087 H 
ATOM     17  H   LIG d   1       7.310  -0.859  -6.886  0.00  0.00     0.087 H 
BRANCH  15  18
ATOM     18  N   LIG d   1       7.213   1.202  -6.487  0.00  0.00     0.234 N 
ATOM     19  H   LIG d   1       6.370   1.692  -6.230  0.00  0.00     0.203 HD
BRANCH  18  20
ATOM     20  C   LIG d   1       8.369   1.846  -5.849  0.00  0.00    -0.043 C 
ATOM     21  H   LIG d   1       8.034   2.711  -5.278  0.00  0.00     0.078 H 
ATOM     22  H   LIG d   1       8.856   1.135  -5.180  0.00  0.00     0.078 H 
ATOM     23  H   LIG d   1       9.075   2.167  -6.615  0.00  0.00     0.078 H 
ENDBRANCH  18  20
BRANCH  18  24
ATOM     24  C   LIG d   1       7.375   1.240  -7.947  0.00  0.00    -0.043 C 
ATOM     25  H   LIG d   1       6.570   1.828  -8.387  0.00  0.00     0.078 H 
ATOM     26  H   LIG d   1       8.333   1.696  -8.195  0.00  0.00     0.078 H 
ATOM     27  H   LIG d   1       7.342   0.225  -8.343  0.00  0.00     0.078 H 
ENDBRANCH  18  24
ENDBRANCH  15  18
ENDBRANCH   2  15
BRANCH   1  28
ATOM     28  C   LIG d   1       4.883  -1.831  -7.434  0.00  0.00    -0.024 C 
ATOM     29  H   LIG d   1       5.014  -1.072  -8.205  0.00  0.00     0.029 H 
ATOM     30  H   LIG d   1       5.740  -2.503  -7.436  0.00  0.00     0.029 H 
ATOM     31  H   LIG d   1       3.974  -2.400  -7.635  0.00  0.00     0.029 H 
ENDBRANCH   1  28
TORSDOF 5
ENDMDL
MODEL 8
REMARK VINA RESULT:      -4.6      2.261      3.043
REMARK  5 active torsions:
REMARK  status: ('A' for Active; 'I' for Inactive)
REMARK    1  A    between atoms: C_1  and  C_2 
REMARK    2  A    between atoms: C_3  and  C_12 
REMARK    3  A    between atoms: C_12  and  N_13 
REMARK    4  A    between atoms: N_13  and  C_14 
REMARK    5  A    between atoms: N_13  and  C_15 
ROOT
ATOM      1  C   LIG d   1       6.286  -0.290  -5.796  0.00  0.00     0.022 A 
ATOM      2  C   LIG d   1       6.547  -1.123  -4.776  0.00  0.00     0.025 A 
ATOM      3  C   LIG d   1       5.320  -1.227  -3.983  0.00  0.00     0.008 A 
ATOM      4  C   LIG d   1       4.969  -1.926  -2.826  0.00  0.00    -0.052 A 
ATOM      5  C   LIG d   1       3.706  -1.810  -2.321  0.00  0.00    -0.061 A 
ATOM      6  C   LIG d   1       2.767  -1.002  -2.948  0.00  0.00    -0.060 A 
ATOM      7  C   LIG d   1       3.091  -0.304  -4.090  0.00  0.00    -0.038 A 
ATOM      8  C   LIG d   1       4.373  -0.407  -4.623  0.00  0.00     0.047 A 
ATOM      9  N   LIG d   1       4.993   0.152  -5.718  0.00  0.00    -0.358 N 
ATOM     10  H   LIG d   1       4.575   0.766  -6.341  0.00  0.00     0.166 HD
ATOM     11  H   LIG d   1       5.695  -2.557  -2.333  0.00  0.00     0.062 H 
ATOM     12  H   LIG d   1       3.435  -2.350  -1.426  0.00  0.00     0.062 H 
ATOM     13  H   LIG d   1       1.772  -0.921  -2.537  0.00  0.00     0.062 H 
ATOM     14  H   LIG d   1       2.354   0.321  -4.571  0.00  0.00     0.064 H 
ENDROOT
BRANCH   2  15
ATOM     15  C   LIG d   1       7.856  -1.817  -4.499  0.00  0.00    -0.004 C 
ATOM     16  H   LIG d   1       8.608  -1.473  -5.210  0.00  0.00     0.087 H 
ATOM     17  H   LIG d   1       8.183  -1.585  -3.485  0.00  0.00     0.087 H 
BRANCH  15  18
ATOM     18  N   LIG d   1       7.680  -3.269  -4.637  0.00  0.00     0.234 N 
ATOM     19  H   LIG d   1       6.760  -3.528  -4.313  0.00  0.00     0.203 HD
BRANCH  18  20
ATOM     20  C   LIG d   1       7.828  -3.649  -6.048  0.00  0.00    -0.043 C 
ATOM     21  H   LIG d   1       8.870  -3.894  -6.250  0.00  0.00     0.078 H 
ATOM     22  H   LIG d   1       7.203  -4.517  -6.258  0.00  0.00     0.078 H 
ATOM     23  H   LIG d   1       7.520  -2.817  -6.682  0.00  0.00     0.078 H 
ENDBRANCH  18  20
BRANCH  18  24
ATOM     24  C   LIG d   1       8.694  -3.964  -3.833  0.00  0.00    -0.043 C 
ATOM     25  H   LIG d   1       8.273  -4.223  -2.862  0.00  0.00     0.078 H 
ATOM     26  H   LIG d   1       9.006  -4.872  -4.348  0.00  0.00     0.078 H 
ATOM     27  H   LIG d   1       9.556  -3.310  -3.693  0.00  0.00     0.078 H 
ENDBRANCH  18  24
ENDBRANCH  15  18
ENDBRANCH   2  15
BRANCH   1  28
ATOM     28  C   LIG d   1       7.272   0.106  -6.865  0.00  0.00    -0.024 C 
ATOM     29  H   LIG d   1       7.649   1.107  -6.658  0.00  0.00     0.029 H 
ATOM     30  H   LIG d   1       8.102  -0.600  -6.873  0.00  0.00     0.029 H 
ATOM     31  H   LIG d   1       6.777   0.097  -7.836  0.00  0.00     0.029 H 
ENDBRANCH   1  28
TORSDOF 5
ENDMDL
MODEL 9
REMARK VINA RESULT:      -4.5      2.286      3.008
REMARK  5 active torsions:
REMARK  status: ('A' for Active; 'I' for Inactive)
REMARK    1  A    between atoms: C_1  and  C_2 
REMARK    2  A    between atoms: C_3  and  C_12 
REMARK    3  A    between atoms: C_12  and  N_13 
REMARK    4  A    between atoms: N_13  and  C_14 
REMARK    5  A    between atoms: N_13  and  C_15 
ROOT
ATOM      1  C   LIG d   1       6.924  -1.743  -4.369  0.00  0.00     0.022 A 
ATOM      2  C   LIG d   1       6.138  -1.122  -5.263  0.00  0.00     0.025 A 
ATOM      3  C   LIG d   1       4.862  -0.851  -4.596  0.00  0.00     0.008 A 
ATOM      4  C   LIG d   1       3.670  -0.243  -4.994  0.00  0.00    -0.052 A 
ATOM      5  C   LIG d   1       2.634  -0.141  -4.111  0.00  0.00    -0.061 A 
ATOM      6  C   LIG d   1       2.755  -0.638  -2.820  0.00  0.00    -0.060 A 
ATOM      7  C   LIG d   1       3.923  -1.241  -2.406  0.00  0.00    -0.038 A 
ATOM      8  C   LIG d   1       4.992  -1.356  -3.290  0.00  0.00     0.047 A 
ATOM      9  N   LIG d   1       6.255  -1.895  -3.186  0.00  0.00    -0.358 N 
ATOM     10  H   LIG d   1       6.616  -2.319  -2.391  0.00  0.00     0.166 HD
ATOM     11  H   LIG d   1       3.567   0.145  -5.997  0.00  0.00     0.062 H 
ATOM     12  H   LIG d   1       1.711   0.329  -4.418  0.00  0.00     0.062 H 
ATOM     13  H   LIG d   1       1.928  -0.549  -2.132  0.00  0.00     0.062 H 
ATOM     14  H   LIG d   1       4.008  -1.623  -1.400  0.00  0.00     0.064 H 
ENDROOT
BRANCH   2  15
ATOM     15  C   LIG d   1       6.499  -0.773  -6.684  0.00  0.00    -0.004 C 
ATOM     16  H   LIG d   1       7.470  -1.205  -6.929  0.00  0.00     0.087 H 
ATOM     17  H   LIG d   1       5.743  -1.174  -7.360  0.00  0.00     0.087 H 
BRANCH  15  18
ATOM     18  N   LIG d   1       6.561   0.687  -6.830  0.00  0.00     0.234 N 
ATOM     19  H   LIG d   1       5.853   1.112  -6.251  0.00  0.00     0.203 HD
BRANCH  18  20
ATOM     20  C   LIG d   1       7.887   1.165  -6.415  0.00  0.00    -0.043 C 
ATOM     21  H   LIG d   1       7.778   2.085  -5.841  0.00  0.00     0.078 H 
ATOM     22  H   LIG d   1       8.369   0.406  -5.797  0.00  0.00     0.078 H 
ATOM     23  H   LIG d   1       8.497   1.356  -7.297  0.00  0.00     0.078 H 
ENDBRANCH  18  20
BRANCH  18  24
ATOM     24  C   LIG d   1       6.328   1.049  -8.234  0.00  0.00    -0.043 C 
ATOM     25  H   LIG d   1       7.239   0.886  -8.808  0.00  0.00     0.078 H 
ATOM     26  H   LIG d   1       5.528   0.431  -8.640  0.00  0.00     0.078 H 
ATOM     27  H   LIG d   1       6.042   2.100  -8.296  0.00  0.00     0.078 H 
ENDBRANCH  18  24
ENDBRANCH  15  18
ENDBRANCH   2  15
BRANCH   1  28
ATOM     28  C   LIG d   1       8.333  -2.208  -4.632  0.00  0.00    -0.024 C 
ATOM     29  H   LIG d   1       8.348  -2.841  -5.518  0.00  0.00     0.029 H 
ATOM     30  H   LIG d   1       8.978  -1.344  -4.791  0.00  0.00     0.029 H 
ATOM     31  H   LIG d   1       8.693  -2.776  -3.773  0.00  0.00     0.029 H 
ENDBRANCH   1  28
TORSDOF 5
ENDMDL
MODEL 10
REMARK VINA RESULT:      -4.4      8.256     10.898
REMARK  5 active torsions:
REMARK  status: ('A' for Active; 'I' for Inactive)
REMARK    1  A    between atoms: C_1  and  C_2 
REMARK    2  A    between atoms: C_3  and  C_12 
REMARK    3  A    between atoms: C_12  and  N_13 
REMARK    4  A    between atoms: N_13  and  C_14 
REMARK    5  A    between atoms: N_13  and  C_15 
ROOT
ATOM      1  C   LIG d   1      10.766   5.779  -0.309  0.00  0.00     0.022 A 
ATOM      2  C   LIG d   1      10.148   6.649  -1.123  0.00  0.00     0.025 A 
ATOM      3  C   LIG d   1       9.953   5.970  -2.406  0.00  0.00     0.008 A 
ATOM      4  C   LIG d   1       9.381   6.343  -3.625  0.00  0.00    -0.052 A 
ATOM      5  C   LIG d   1       9.352   5.454  -4.660  0.00  0.00    -0.061 A 
ATOM      6  C   LIG d   1       9.887   4.182  -4.513  0.00  0.00    -0.060 A 
ATOM      7  C   LIG d   1      10.456   3.792  -3.320  0.00  0.00    -0.038 A 
ATOM      8  C   LIG d   1      10.496   4.682  -2.251  0.00  0.00     0.047 A 
ATOM      9  N   LIG d   1      10.986   4.600  -0.967  0.00  0.00    -0.358 N 
ATOM     10  H   LIG d   1      11.422   3.822  -0.585  0.00  0.00     0.166 HD
ATOM     11  H   LIG d   1       8.963   7.332  -3.747  0.00  0.00     0.062 H 
ATOM     12  H   LIG d   1       8.910   5.743  -5.602  0.00  0.00     0.062 H 
ATOM     13  H   LIG d   1       9.856   3.490  -5.341  0.00  0.00     0.062 H 
ATOM     14  H   LIG d   1      10.868   2.800  -3.215  0.00  0.00     0.064 H 
ENDROOT
BRANCH   2  15
ATOM     15  C   LIG d   1       9.736   8.058  -0.783  0.00  0.00    -0.004 C 
ATOM     16  H   LIG d   1       8.846   8.324  -1.353  0.00  0.00     0.087 H 
ATOM     17  H   LIG d   1       9.516   8.125   0.284  0.00  0.00     0.087 H 
BRANCH  15  18
ATOM     18  N   LIG d   1      10.827   8.984  -1.116  0.00  0.00     0.234 N 
ATOM     19  H   LIG d   1      11.647   8.456  -1.372  0.00  0.00     0.203 HD
BRANCH  18  20
ATOM     20  C   LIG d   1      10.420   9.834  -2.243  0.00  0.00    -0.043 C 
ATOM     21  H   LIG d   1      10.139  10.819  -1.871  0.00  0.00     0.078 H 
ATOM     22  H   LIG d   1      11.251   9.933  -2.941  0.00  0.00     0.078 H 
ATOM     23  H   LIG d   1       9.570   9.381  -2.752  0.00  0.00     0.078 H 
ENDBRANCH  18  20
BRANCH  18  24
ATOM     24  C   LIG d   1      11.129   9.825   0.050  0.00  0.00    -0.043 C 
ATOM     25  H   LIG d   1      11.009  10.874  -0.219  0.00  0.00     0.078 H 
ATOM     26  H   LIG d   1      10.446   9.578   0.862  0.00  0.00     0.078 H 
ATOM     27  H   LIG d   1      12.156   9.646   0.370  0.00  0.00     0.078 H 
ENDBRANCH  18  24
ENDBRANCH  15  18
ENDBRANCH   2  15
BRANCH   1  28
ATOM     28  C   LIG d   1      11.164   6.062   1.117  0.00  0.00    -0.024 C 
ATOM     29  H   LIG d   1      12.086   5.530   1.349  0.00  0.00     0.029 H 
ATOM     30  H   LIG d   1      11.319   7.133   1.246  0.00  0.00     0.029 H 
ATOM     31  H   LIG d   1      10.372   5.726   1.788  0.00  0.00     0.029 H 
ENDBRANCH   1  28
TORSDOF 5
ENDMDL
