MODEL 1
REMARK VINA RESULT:      -6.5      0.000      0.000
REMARK  8 active torsions:
REMARK  status: ('A' for Active; 'I' for Inactive)
REMARK    1  A    between atoms: C_1  and  C_2 
REMARK    2  A    between atoms: C_4  and  N_14 
REMARK    3  A    between atoms: C_9  and  O_12 
REMARK    4  A    between atoms: O_12  and  C_13 
REMARK       I    between atoms: N_14  and  C_15 
REMARK    5  A    between atoms: C_15  and  C_17 
REMARK    6  A    between atoms: C_20  and  C_22 
REMARK    7  A    between atoms: C_22  and  O_23 
REMARK    8  A    between atoms: O_23  and  C_24 
ROOT
ATOM      1  C   LIG d   1       4.404  -1.173  -7.204  0.00  0.00     0.041 A 
ATOM      2  C   LIG d   1       4.890  -2.469  -7.092  0.00  0.00    -0.019 A 
ATOM      3  C   LIG d   1       4.922  -3.086  -5.852  0.00  0.00     0.045 A 
ATOM      4  C   LIG d   1       4.449  -2.355  -4.737  0.00  0.00     0.025 A 
ATOM      5  C   LIG d   1       4.448  -2.909  -3.449  0.00  0.00    -0.051 A 
ATOM      6  C   LIG d   1       3.986  -2.176  -2.398  0.00  0.00    -0.058 A 
ATOM      7  C   LIG d   1       3.513  -0.879  -2.584  0.00  0.00    -0.018 A 
ATOM      8  C   LIG d   1       3.499  -0.307  -3.824  0.00  0.00     0.146 A 
ATOM      9  C   LIG d   1       3.970  -1.038  -4.935  0.00  0.00     0.115 A 
ATOM     10  N   LIG d   1       3.969  -0.505  -6.161  0.00  0.00    -0.248 NA
ATOM     11  H   LIG d   1       5.242  -2.994  -7.967  0.00  0.00     0.065 H 
ATOM     12  H   LIG d   1       4.812  -3.913  -3.289  0.00  0.00     0.062 H 
ATOM     13  H   LIG d   1       3.987  -2.604  -1.406  0.00  0.00     0.062 H 
ATOM     14  H   LIG d   1       3.152  -0.317  -1.735  0.00  0.00     0.066 H 
ENDROOT
BRANCH   3  15
ATOM     15  N   LIG d   1       5.402  -4.383  -5.708  0.00  0.00    -0.278 N 
ATOM     16  C   LIG d   1       4.571  -5.431  -5.869  0.00  0.00     0.284 C 
ATOM     17  O   LIG d   1       3.426  -5.249  -6.239  0.00  0.00    -0.267 OA
ATOM     18  H   LIG d   1       6.335  -4.533  -5.492  0.00  0.00     0.155 HD
BRANCH  16  19
ATOM     19  C   LIG d   1       5.045  -6.791  -5.598  0.00  0.00     0.190 A 
ATOM     20  O   LIG d   1       4.282  -7.904  -5.565  0.00  0.00    -0.453 OA
ATOM     21  C   LIG d   1       5.054  -8.964  -5.291  0.00  0.00     0.131 A 
ATOM     22  C   LIG d   1       6.329  -8.544  -5.134  0.00  0.00    -0.018 A 
ATOM     23  C   LIG d   1       6.334  -7.154  -5.328  0.00  0.00    -0.011 A 
ATOM     24  H   LIG d   1       7.184  -9.162  -4.903  0.00  0.00     0.065 H 
ATOM     25  H   LIG d   1       7.190  -6.499  -5.276  0.00  0.00     0.066 H 
BRANCH  21  26
ATOM     26  C   LIG d   1       4.578 -10.389  -5.172  0.00  0.00     0.105 C 
ATOM     27  H   LIG d   1       4.480 -10.823  -6.167  0.00  0.00     0.064 H 
ATOM     28  H   LIG d   1       5.300 -10.966  -4.593  0.00  0.00     0.064 H 
BRANCH  26  29
ATOM     29  O   LIG d   1       3.311 -10.414  -4.514  0.00  0.00    -0.375 OA
BRANCH  29  30
ATOM     30  C   LIG d   1       3.385 -10.213  -3.101  0.00  0.00     0.037 C 
ATOM     31  H   LIG d   1       2.385 -10.025  -2.709  0.00  0.00     0.052 H 
ATOM     32  H   LIG d   1       3.799 -11.103  -2.629  0.00  0.00     0.052 H 
ATOM     33  H   LIG d   1       4.025  -9.357  -2.889  0.00  0.00     0.052 H 
ENDBRANCH  29  30
ENDBRANCH  26  29
ENDBRANCH  21  26
ENDBRANCH  16  19
ENDBRANCH   3  15
BRANCH   1  34
ATOM     34  C   LIG d   1       4.377  -0.514  -8.558  0.00  0.00    -0.022 C 
ATOM     35  H   LIG d   1       3.987  -1.216  -9.296  0.00  0.00     0.029 H 
ATOM     36  H   LIG d   1       3.735   0.366  -8.521  0.00  0.00     0.029 H 
ATOM     37  H   LIG d   1       5.386  -0.215  -8.838  0.00  0.00     0.029 H 
ENDBRANCH   1  34
BRANCH   8  38
ATOM     38  O   LIG d   1       3.039   0.960  -3.987  0.00  0.00    -0.493 OA
BRANCH  38  39
ATOM     39  C   LIG d   1       3.508   1.944  -3.062  0.00  0.00     0.079 C 
ATOM     40  H   LIG d   1       3.147   1.703  -2.062  0.00  0.00     0.066 H 
ATOM     41  H   LIG d   1       4.598   1.953  -3.062  0.00  0.00     0.066 H 
ATOM     42  H   LIG d   1       3.135   2.925  -3.355  0.00  0.00     0.066 H 
ENDBRANCH  38  39
ENDBRANCH   8  38
TORSDOF 8
ENDMDL
MODEL 2
REMARK VINA RESULT:      -5.9      4.653      9.063
REMARK  8 active torsions:
REMARK  status: ('A' for Active; 'I' for Inactive)
REMARK    1  A    between atoms: C_1  and  C_2 
REMARK    2  A    between atoms: C_4  and  N_14 
REMARK    3  A    between atoms: C_9  and  O_12 
REMARK    4  A    between atoms: O_12  and  C_13 
REMARK       I    between atoms: N_14  and  C_15 
REMARK    5  A    between atoms: C_15  and  C_17 
REMARK    6  A    between atoms: C_20  and  C_22 
REMARK    7  A    between atoms: C_22  and  O_23 
REMARK    8  A    between atoms: O_23  and  C_24 
ROOT
ATOM      1  C   LIG d   1       3.824  -1.163  -3.425  0.00  0.00     0.041 A 
ATOM      2  C   LIG d   1       4.910  -0.345  -3.138  0.00  0.00    -0.019 A 
ATOM      3  C   LIG d   1       6.190  -0.764  -3.465  0.00  0.00     0.045 A 
ATOM      4  C   LIG d   1       6.334  -2.026  -4.089  0.00  0.00     0.025 A 
ATOM      5  C   LIG d   1       7.595  -2.520  -4.451  0.00  0.00    -0.051 A 
ATOM      6  C   LIG d   1       7.697  -3.740  -5.049  0.00  0.00    -0.058 A 
ATOM      7  C   LIG d   1       6.563  -4.506  -5.307  0.00  0.00    -0.018 A 
ATOM      8  C   LIG d   1       5.319  -4.057  -4.968  0.00  0.00     0.146 A 
ATOM      9  C   LIG d   1       5.177  -2.798  -4.347  0.00  0.00     0.115 A 
ATOM     10  N   LIG d   1       3.972  -2.331  -4.003  0.00  0.00    -0.248 NA
ATOM     11  H   LIG d   1       4.759   0.611  -2.662  0.00  0.00     0.065 H 
ATOM     12  H   LIG d   1       8.483  -1.937  -4.258  0.00  0.00     0.062 H 
ATOM     13  H   LIG d   1       8.670  -4.119  -5.327  0.00  0.00     0.062 H 
ATOM     14  H   LIG d   1       6.669  -5.471  -5.782  0.00  0.00     0.066 H 
ENDROOT
BRANCH   3  15
ATOM     15  N   LIG d   1       7.296   0.032  -3.191  0.00  0.00    -0.278 N 
ATOM     16  C   LIG d   1       7.636   1.026  -4.034  0.00  0.00     0.284 C 
ATOM     17  O   LIG d   1       6.918   1.296  -4.979  0.00  0.00    -0.267 OA
ATOM     18  H   LIG d   1       7.824  -0.130  -2.394  0.00  0.00     0.155 HD
BRANCH  16  19
ATOM     19  C   LIG d   1       8.870   1.786  -3.812  0.00  0.00     0.190 A 
ATOM     20  O   LIG d   1       8.991   2.901  -3.062  0.00  0.00    -0.453 OA
ATOM     21  C   LIG d   1      10.264   3.318  -3.086  0.00  0.00     0.131 A 
ATOM     22  C   LIG d   1      10.981   2.477  -3.864  0.00  0.00    -0.018 A 
ATOM     23  C   LIG d   1      10.098   1.493  -4.333  0.00  0.00    -0.011 A 
ATOM     24  H   LIG d   1      12.036   2.549  -4.082  0.00  0.00     0.065 H 
ATOM     25  H   LIG d   1      10.342   0.664  -4.981  0.00  0.00     0.066 H 
BRANCH  21  26
ATOM     26  C   LIG d   1      10.804   4.528  -2.369  0.00  0.00     0.105 C 
ATOM     27  H   LIG d   1      11.385   4.208  -1.503  0.00  0.00     0.064 H 
ATOM     28  H   LIG d   1      11.444   5.095  -3.045  0.00  0.00     0.064 H 
BRANCH  26  29
ATOM     29  O   LIG d   1       9.719   5.350  -1.937  0.00  0.00    -0.375 OA
BRANCH  29  30
ATOM     30  C   LIG d   1       9.947   6.750  -2.108  0.00  0.00     0.037 C 
ATOM     31  H   LIG d   1      10.914   6.905  -2.586  0.00  0.00     0.052 H 
ATOM     32  H   LIG d   1       9.160   7.173  -2.733  0.00  0.00     0.052 H 
ATOM     33  H   LIG d   1       9.941   7.240  -1.134  0.00  0.00     0.052 H 
ENDBRANCH  29  30
ENDBRANCH  26  29
ENDBRANCH  21  26
ENDBRANCH  16  19
ENDBRANCH   3  15
BRANCH   1  34
ATOM     34  C   LIG d   1       2.439  -0.695  -3.062  0.00  0.00    -0.022 C 
ATOM     35  H   LIG d   1       2.163   0.150  -3.694  0.00  0.00     0.029 H 
ATOM     36  H   LIG d   1       1.730  -1.509  -3.214  0.00  0.00     0.029 H 
ATOM     37  H   LIG d   1       2.420  -0.389  -2.017  0.00  0.00     0.029 H 
ENDBRANCH   1  34
BRANCH   8  38
ATOM     38  O   LIG d   1       4.224  -4.820  -5.221  0.00  0.00    -0.493 OA
BRANCH  38  39
ATOM     39  C   LIG d   1       3.918  -5.078  -6.593  0.00  0.00     0.079 C 
ATOM     40  H   LIG d   1       4.781  -5.536  -7.078  0.00  0.00     0.066 H 
ATOM     41  H   LIG d   1       3.065  -5.755  -6.655  0.00  0.00     0.066 H 
ATOM     42  H   LIG d   1       3.676  -4.141  -7.094  0.00  0.00     0.066 H 
ENDBRANCH  38  39
ENDBRANCH   8  38
TORSDOF 8
ENDMDL
MODEL 3
REMARK VINA RESULT:      -5.7      1.205      3.014
REMARK  8 active torsions:
REMARK  status: ('A' for Active; 'I' for Inactive)
REMARK    1  A    between atoms: C_1  and  C_2 
REMARK    2  A    between atoms: C_4  and  N_14 
REMARK    3  A    between atoms: C_9  and  O_12 
REMARK    4  A    between atoms: O_12  and  C_13 
REMARK       I    between atoms: N_14  and  C_15 
REMARK    5  A    between atoms: C_15  and  C_17 
REMARK    6  A    between atoms: C_20  and  C_22 
REMARK    7  A    between atoms: C_22  and  O_23 
REMARK    8  A    between atoms: O_23  and  C_24 
ROOT
ATOM      1  C   LIG d   1       4.041  -1.550  -4.043  0.00  0.00     0.041 A 
ATOM      2  C   LIG d   1       4.488  -2.865  -4.061  0.00  0.00    -0.019 A 
ATOM      3  C   LIG d   1       4.998  -3.401  -5.232  0.00  0.00     0.045 A 
ATOM      4  C   LIG d   1       5.043  -2.569  -6.376  0.00  0.00     0.025 A 
ATOM      5  C   LIG d   1       5.545  -3.038  -7.598  0.00  0.00    -0.051 A 
ATOM      6  C   LIG d   1       5.572  -2.209  -8.680  0.00  0.00    -0.058 A 
ATOM      7  C   LIG d   1       5.107  -0.900  -8.589  0.00  0.00    -0.018 A 
ATOM      8  C   LIG d   1       4.611  -0.410  -7.414  0.00  0.00     0.146 A 
ATOM      9  C   LIG d   1       4.568  -1.240  -6.275  0.00  0.00     0.115 A 
ATOM     10  N   LIG d   1       4.088  -0.789  -5.111  0.00  0.00    -0.248 NA
ATOM     11  H   LIG d   1       4.437  -3.467  -3.166  0.00  0.00     0.065 H 
ATOM     12  H   LIG d   1       5.909  -4.051  -7.684  0.00  0.00     0.062 H 
ATOM     13  H   LIG d   1       5.959  -2.573  -9.621  0.00  0.00     0.062 H 
ATOM     14  H   LIG d   1       5.139  -0.262  -9.460  0.00  0.00     0.066 H 
ENDROOT
BRANCH   3  15
ATOM     15  N   LIG d   1       5.452  -4.714  -5.281  0.00  0.00    -0.278 N 
ATOM     16  C   LIG d   1       4.597  -5.712  -5.575  0.00  0.00     0.284 C 
ATOM     17  O   LIG d   1       3.451  -5.457  -5.896  0.00  0.00    -0.267 OA
ATOM     18  H   LIG d   1       6.385  -4.911  -5.105  0.00  0.00     0.155 HD
BRANCH  16  19
ATOM     19  C   LIG d   1       5.045  -7.106  -5.508  0.00  0.00     0.190 A 
ATOM     20  O   LIG d   1       4.262  -8.198  -5.635  0.00  0.00    -0.453 OA
ATOM     21  C   LIG d   1       5.014  -9.300  -5.523  0.00  0.00     0.131 A 
ATOM     22  C   LIG d   1       6.297  -8.931  -5.311  0.00  0.00    -0.018 A 
ATOM     23  C   LIG d   1       6.327  -7.528  -5.300  0.00  0.00    -0.011 A 
ATOM     24  H   LIG d   1       7.140  -9.592  -5.176  0.00  0.00     0.065 H 
ATOM     25  H   LIG d   1       7.196  -6.904  -5.155  0.00  0.00     0.066 H 
BRANCH  21  26
ATOM     26  C   LIG d   1       4.512 -10.718  -5.612  0.00  0.00     0.105 C 
ATOM     27  H   LIG d   1       3.507 -10.721  -6.036  0.00  0.00     0.064 H 
ATOM     28  H   LIG d   1       5.177 -11.300  -6.250  0.00  0.00     0.064 H 
BRANCH  26  29
ATOM     29  O   LIG d   1       4.479 -11.294  -4.306  0.00  0.00    -0.375 OA
BRANCH  29  30
ATOM     30  C   LIG d   1       3.339 -10.915  -3.532  0.00  0.00     0.037 C 
ATOM     31  H   LIG d   1       2.773 -10.153  -4.069  0.00  0.00     0.052 H 
ATOM     32  H   LIG d   1       2.707 -11.786  -3.364  0.00  0.00     0.052 H 
ATOM     33  H   LIG d   1       3.668 -10.514  -2.573  0.00  0.00     0.052 H 
ENDBRANCH  29  30
ENDBRANCH  26  29
ENDBRANCH  21  26
ENDBRANCH  16  19
ENDBRANCH   3  15
BRANCH   1  34
ATOM     34  C   LIG d   1       3.488  -0.980  -2.763  0.00  0.00    -0.022 C 
ATOM     35  H   LIG d   1       3.025  -1.777  -2.181  0.00  0.00     0.029 H 
ATOM     36  H   LIG d   1       4.297  -0.532  -2.185  0.00  0.00     0.029 H 
ATOM     37  H   LIG d   1       2.743  -0.220  -2.995  0.00  0.00     0.029 H 
ENDBRANCH   1  34
BRANCH   8  38
ATOM     38  O   LIG d   1       4.157   0.868  -7.345  0.00  0.00    -0.493 OA
BRANCH  38  39
ATOM     39  C   LIG d   1       3.003   1.189  -8.124  0.00  0.00     0.079 C 
ATOM     40  H   LIG d   1       2.334   0.329  -8.153  0.00  0.00     0.066 H 
ATOM     41  H   LIG d   1       2.485   2.037  -7.675  0.00  0.00     0.066 H 
ATOM     42  H   LIG d   1       3.309   1.445  -9.138  0.00  0.00     0.066 H 
ENDBRANCH  38  39
ENDBRANCH   8  38
TORSDOF 8
ENDMDL
MODEL 4
REMARK VINA RESULT:      -5.5      3.936      4.226
REMARK  8 active torsions:
REMARK  status: ('A' for Active; 'I' for Inactive)
REMARK    1  A    between atoms: C_1  and  C_2 
REMARK    2  A    between atoms: C_4  and  N_14 
REMARK    3  A    between atoms: C_9  and  O_12 
REMARK    4  A    between atoms: O_12  and  C_13 
REMARK       I    between atoms: N_14  and  C_15 
REMARK    5  A    between atoms: C_15  and  C_17 
REMARK    6  A    between atoms: C_20  and  C_22 
REMARK    7  A    between atoms: C_22  and  O_23 
REMARK    8  A    between atoms: O_23  and  C_24 
ROOT
ATOM      1  C   LIG d   1       7.193   0.251  -5.524  0.00  0.00     0.041 A 
ATOM      2  C   LIG d   1       7.942  -0.748  -4.915  0.00  0.00    -0.019 A 
ATOM      3  C   LIG d   1       7.356  -1.560  -3.958  0.00  0.00     0.045 A 
ATOM      4  C   LIG d   1       5.995  -1.331  -3.640  0.00  0.00     0.025 A 
ATOM      5  C   LIG d   1       5.330  -2.110  -2.683  0.00  0.00    -0.051 A 
ATOM      6  C   LIG d   1       4.020  -1.862  -2.402  0.00  0.00    -0.058 A 
ATOM      7  C   LIG d   1       3.330  -0.842  -3.053  0.00  0.00    -0.018 A 
ATOM      8  C   LIG d   1       3.947  -0.064  -3.991  0.00  0.00     0.146 A 
ATOM      9  C   LIG d   1       5.302  -0.293  -4.306  0.00  0.00     0.115 A 
ATOM     10  N   LIG d   1       5.933   0.453  -5.220  0.00  0.00    -0.248 NA
ATOM     11  H   LIG d   1       8.978  -0.890  -5.185  0.00  0.00     0.065 H 
ATOM     12  H   LIG d   1       5.852  -2.904  -2.170  0.00  0.00     0.062 H 
ATOM     13  H   LIG d   1       3.509  -2.463  -1.663  0.00  0.00     0.062 H 
ATOM     14  H   LIG d   1       2.292  -0.664  -2.812  0.00  0.00     0.066 H 
ENDROOT
BRANCH   3  15
ATOM     15  N   LIG d   1       8.079  -2.567  -3.330  0.00  0.00    -0.278 N 
ATOM     16  C   LIG d   1       8.383  -3.695  -4.001  0.00  0.00     0.284 C 
ATOM     17  O   LIG d   1       8.116  -3.791  -5.184  0.00  0.00    -0.267 OA
ATOM     18  H   LIG d   1       8.364  -2.458  -2.410  0.00  0.00     0.155 HD
BRANCH  16  19
ATOM     19  C   LIG d   1       9.038  -4.807  -3.306  0.00  0.00     0.190 A 
ATOM     20  O   LIG d   1       9.003  -6.105  -3.677  0.00  0.00    -0.453 OA
ATOM     21  C   LIG d   1       9.716  -6.835  -2.809  0.00  0.00     0.131 A 
ATOM     22  C   LIG d   1      10.214  -6.014  -1.857  0.00  0.00    -0.018 A 
ATOM     23  C   LIG d   1       9.786  -4.714  -2.166  0.00  0.00    -0.011 A 
ATOM     24  H   LIG d   1      10.826  -6.305  -1.017  0.00  0.00     0.065 H 
ATOM     25  H   LIG d   1      10.005  -3.814  -1.612  0.00  0.00     0.066 H 
BRANCH  21  26
ATOM     26  C   LIG d   1       9.922  -8.326  -2.879  0.00  0.00     0.105 C 
ATOM     27  H   LIG d   1       9.042  -8.794  -3.320  0.00  0.00     0.064 H 
ATOM     28  H   LIG d   1      10.797  -8.543  -3.492  0.00  0.00     0.064 H 
BRANCH  26  29
ATOM     29  O   LIG d   1      10.125  -8.840  -1.561  0.00  0.00    -0.375 OA
BRANCH  29  30
ATOM     30  C   LIG d   1       9.190  -9.853  -1.183  0.00  0.00     0.037 C 
ATOM     31  H   LIG d   1       8.342  -9.393  -0.675  0.00  0.00     0.052 H 
ATOM     32  H   LIG d   1       8.841 -10.376  -2.074  0.00  0.00     0.052 H 
ATOM     33  H   LIG d   1       9.674 -10.562  -0.512  0.00  0.00     0.052 H 
ENDBRANCH  29  30
ENDBRANCH  26  29
ENDBRANCH  21  26
ENDBRANCH  16  19
ENDBRANCH   3  15
BRANCH   1  34
ATOM     34  C   LIG d   1       7.845   1.127  -6.562  0.00  0.00    -0.022 C 
ATOM     35  H   LIG d   1       8.752   1.568  -6.148  0.00  0.00     0.029 H 
ATOM     36  H   LIG d   1       8.099   0.527  -7.436  0.00  0.00     0.029 H 
ATOM     37  H   LIG d   1       7.157   1.919  -6.853  0.00  0.00     0.029 H 
ENDBRANCH   1  34
BRANCH   8  38
ATOM     38  O   LIG d   1       3.260   0.930  -4.612  0.00  0.00    -0.493 OA
BRANCH  38  39
ATOM     39  C   LIG d   1       2.343   0.541  -5.637  0.00  0.00     0.079 C 
ATOM     40  H   LIG d   1       2.894   0.314  -6.550  0.00  0.00     0.066 H 
ATOM     41  H   LIG d   1       1.791  -0.343  -5.316  0.00  0.00     0.066 H 
ATOM     42  H   LIG d   1       1.645   1.356  -5.828  0.00  0.00     0.066 H 
ENDBRANCH  38  39
ENDBRANCH   8  38
TORSDOF 8
ENDMDL
MODEL 5
REMARK VINA RESULT:      -5.5      5.885     10.693
REMARK  8 active torsions:
REMARK  status: ('A' for Active; 'I' for Inactive)
REMARK    1  A    between atoms: C_1  and  C_2 
REMARK    2  A    between atoms: C_4  and  N_14 
REMARK    3  A    between atoms: C_9  and  O_12 
REMARK    4  A    between atoms: O_12  and  C_13 
REMARK       I    between atoms: N_14  and  C_15 
REMARK    5  A    between atoms: C_15  and  C_17 
REMARK    6  A    between atoms: C_20  and  C_22 
REMARK    7  A    between atoms: C_22  and  O_23 
REMARK    8  A    between atoms: O_23  and  C_24 
ROOT
ATOM      1  C   LIG d   1       8.700  -0.917  -5.219  0.00  0.00     0.041 A 
ATOM      2  C   LIG d   1       8.969   0.444  -5.156  0.00  0.00    -0.019 A 
ATOM      3  C   LIG d   1       8.135   1.276  -4.427  0.00  0.00     0.045 A 
ATOM      4  C   LIG d   1       7.029   0.690  -3.766  0.00  0.00     0.025 A 
ATOM      5  C   LIG d   1       6.139   1.464  -3.008  0.00  0.00    -0.051 A 
ATOM      6  C   LIG d   1       5.084   0.866  -2.387  0.00  0.00    -0.058 A 
ATOM      7  C   LIG d   1       4.875  -0.507  -2.494  0.00  0.00    -0.018 A 
ATOM      8  C   LIG d   1       5.722  -1.291  -3.224  0.00  0.00     0.146 A 
ATOM      9  C   LIG d   1       6.824  -0.706  -3.881  0.00  0.00     0.115 A 
ATOM     10  N   LIG d   1       7.670  -1.448  -4.603  0.00  0.00    -0.248 NA
ATOM     11  H   LIG d   1       9.823   0.853  -5.674  0.00  0.00     0.065 H 
ATOM     12  H   LIG d   1       6.288   2.529  -2.916  0.00  0.00     0.062 H 
ATOM     13  H   LIG d   1       4.399   1.464  -1.804  0.00  0.00     0.062 H 
ATOM     14  H   LIG d   1       4.031  -0.958  -1.993  0.00  0.00     0.066 H 
ENDROOT
BRANCH   3  15
ATOM     15  N   LIG d   1       8.378   2.642  -4.344  0.00  0.00    -0.278 N 
ATOM     16  C   LIG d   1       9.367   3.104  -3.555  0.00  0.00     0.284 C 
ATOM     17  O   LIG d   1      10.114   2.323  -2.995  0.00  0.00    -0.267 OA
ATOM     18  H   LIG d   1       7.835   3.263  -4.854  0.00  0.00     0.155 HD
BRANCH  16  19
ATOM     19  C   LIG d   1       9.546   4.547  -3.372  0.00  0.00     0.190 A 
ATOM     20  O   LIG d   1       9.739   5.179  -2.195  0.00  0.00    -0.453 OA
ATOM     21  C   LIG d   1       9.866   6.495  -2.413  0.00  0.00     0.131 A 
ATOM     22  C   LIG d   1       9.745   6.730  -3.738  0.00  0.00    -0.018 A 
ATOM     23  C   LIG d   1       9.540   5.489  -4.361  0.00  0.00    -0.011 A 
ATOM     24  H   LIG d   1       9.797   7.692  -4.225  0.00  0.00     0.065 H 
ATOM     25  H   LIG d   1       9.404   5.314  -5.418  0.00  0.00     0.066 H 
BRANCH  21  26
ATOM     26  C   LIG d   1      10.098   7.541  -1.353  0.00  0.00     0.105 C 
ATOM     27  H   LIG d   1      10.711   7.120  -0.555  0.00  0.00     0.064 H 
ATOM     28  H   LIG d   1      10.610   8.396  -1.792  0.00  0.00     0.064 H 
BRANCH  26  29
ATOM     29  O   LIG d   1       8.842   7.961  -0.816  0.00  0.00    -0.375 OA
BRANCH  29  30
ATOM     30  C   LIG d   1       8.674   9.379  -0.775  0.00  0.00     0.037 C 
ATOM     31  H   LIG d   1       7.712   9.617  -0.319  0.00  0.00     0.052 H 
ATOM     32  H   LIG d   1       9.476   9.824  -0.186  0.00  0.00     0.052 H 
ATOM     33  H   LIG d   1       8.703   9.778  -1.789  0.00  0.00     0.052 H 
ENDBRANCH  29  30
ENDBRANCH  26  29
ENDBRANCH  21  26
ENDBRANCH  16  19
ENDBRANCH   3  15
BRANCH   1  34
ATOM     34  C   LIG d   1       9.615  -1.809  -6.018  0.00  0.00    -0.022 C 
ATOM     35  H   LIG d   1      10.569  -1.305  -6.174  0.00  0.00     0.029 H 
ATOM     36  H   LIG d   1       9.780  -2.739  -5.473  0.00  0.00     0.029 H 
ATOM     37  H   LIG d   1       9.158  -2.029  -6.982  0.00  0.00     0.029 H 
ENDBRANCH   1  34
BRANCH   8  38
ATOM     38  O   LIG d   1       5.500  -2.628  -3.323  0.00  0.00    -0.493 OA
BRANCH  38  39
ATOM     39  C   LIG d   1       4.704  -3.074  -4.422  0.00  0.00     0.079 C 
ATOM     40  H   LIG d   1       5.304  -3.066  -5.332  0.00  0.00     0.066 H 
ATOM     41  H   LIG d   1       4.350  -4.087  -4.229  0.00  0.00     0.066 H 
ATOM     42  H   LIG d   1       3.850  -2.408  -4.546  0.00  0.00     0.066 H 
ENDBRANCH  38  39
ENDBRANCH   8  38
TORSDOF 8
ENDMDL
MODEL 6
REMARK VINA RESULT:      -5.5      3.608      5.791
REMARK  8 active torsions:
REMARK  status: ('A' for Active; 'I' for Inactive)
REMARK    1  A    between atoms: C_1  and  C_2 
REMARK    2  A    between atoms: C_4  and  N_14 
REMARK    3  A    between atoms: C_9  and  O_12 
REMARK    4  A    between atoms: O_12  and  C_13 
REMARK       I    between atoms: N_14  and  C_15 
REMARK    5  A    between atoms: C_15  and  C_17 
REMARK    6  A    between atoms: C_20  and  C_22 
REMARK    7  A    between atoms: C_22  and  O_23 
REMARK    8  A    between atoms: O_23  and  C_24 
ROOT
ATOM      1  C   LIG d   1       5.385   0.721  -2.874  0.00  0.00     0.041 A 
ATOM      2  C   LIG d   1       4.917  -0.142  -3.857  0.00  0.00    -0.019 A 
ATOM      3  C   LIG d   1       5.676  -0.364  -4.994  0.00  0.00     0.045 A 
ATOM      4  C   LIG d   1       6.916   0.310  -5.104  0.00  0.00     0.025 A 
ATOM      5  C   LIG d   1       7.742   0.138  -6.224  0.00  0.00    -0.051 A 
ATOM      6  C   LIG d   1       8.929   0.803  -6.297  0.00  0.00    -0.058 A 
ATOM      7  C   LIG d   1       9.335   1.655  -5.273  0.00  0.00    -0.018 A 
ATOM      8  C   LIG d   1       8.556   1.846  -4.167  0.00  0.00     0.146 A 
ATOM      9  C   LIG d   1       7.321   1.173  -4.059  0.00  0.00     0.115 A 
ATOM     10  N   LIG d   1       6.537   1.340  -2.989  0.00  0.00    -0.248 NA
ATOM     11  H   LIG d   1       3.966  -0.637  -3.736  0.00  0.00     0.065 H 
ATOM     12  H   LIG d   1       7.440  -0.519  -7.026  0.00  0.00     0.062 H 
ATOM     13  H   LIG d   1       9.563   0.670  -7.161  0.00  0.00     0.062 H 
ATOM     14  H   LIG d   1      10.280   2.171  -5.353  0.00  0.00     0.066 H 
ENDROOT
BRANCH   3  15
ATOM     15  N   LIG d   1       5.235  -1.222  -5.995  0.00  0.00    -0.278 N 
ATOM     16  C   LIG d   1       4.355  -0.785  -6.916  0.00  0.00     0.284 C 
ATOM     17  O   LIG d   1       4.023   0.386  -6.935  0.00  0.00    -0.267 OA
ATOM     18  H   LIG d   1       5.561  -2.134  -6.030  0.00  0.00     0.155 HD
BRANCH  16  19
ATOM     19  C   LIG d   1       3.796  -1.720  -7.897  0.00  0.00     0.190 A 
ATOM     20  O   LIG d   1       3.945  -3.061  -7.889  0.00  0.00    -0.453 OA
ATOM     21  C   LIG d   1       3.294  -3.587  -8.935  0.00  0.00     0.131 A 
ATOM     22  C   LIG d   1       2.723  -2.585  -9.640  0.00  0.00    -0.018 A 
ATOM     23  C   LIG d   1       3.038  -1.386  -8.984  0.00  0.00    -0.011 A 
ATOM     24  H   LIG d   1       2.134  -2.689 -10.539  0.00  0.00     0.065 H 
ATOM     25  H   LIG d   1       2.739  -0.392  -9.280  0.00  0.00     0.066 H 
BRANCH  21  26
ATOM     26  C   LIG d   1       3.218  -5.054  -9.274  0.00  0.00     0.105 C 
ATOM     27  H   LIG d   1       2.312  -5.247  -9.850  0.00  0.00     0.064 H 
ATOM     28  H   LIG d   1       4.090  -5.337  -9.862  0.00  0.00     0.064 H 
BRANCH  26  29
ATOM     29  O   LIG d   1       3.187  -5.819  -8.068  0.00  0.00    -0.375 OA
BRANCH  29  30
ATOM     30  C   LIG d   1       4.285  -6.723  -7.926  0.00  0.00     0.037 C 
ATOM     31  H   LIG d   1       4.549  -7.130  -8.903  0.00  0.00     0.052 H 
ATOM     32  H   LIG d   1       5.141  -6.193  -7.509  0.00  0.00     0.052 H 
ATOM     33  H   LIG d   1       4.001  -7.537  -7.259  0.00  0.00     0.052 H 
ENDBRANCH  29  30
ENDBRANCH  26  29
ENDBRANCH  21  26
ENDBRANCH  16  19
ENDBRANCH   3  15
BRANCH   1  34
ATOM     34  C   LIG d   1       4.549   0.954  -1.643  0.00  0.00    -0.022 C 
ATOM     35  H   LIG d   1       4.673   0.117  -0.956  0.00  0.00     0.029 H 
ATOM     36  H   LIG d   1       4.868   1.875  -1.156  0.00  0.00     0.029 H 
ATOM     37  H   LIG d   1       3.500   1.039  -1.927  0.00  0.00     0.029 H 
ENDBRANCH   1  34
BRANCH   8  38
ATOM     38  O   LIG d   1       8.965   2.684  -3.180  0.00  0.00    -0.493 OA
BRANCH  38  39
ATOM     39  C   LIG d   1      10.375   2.832  -2.998  0.00  0.00     0.079 C 
ATOM     40  H   LIG d   1      10.585   3.063  -1.953  0.00  0.00     0.066 H 
ATOM     41  H   LIG d   1      10.877   1.904  -3.273  0.00  0.00     0.066 H 
ATOM     42  H   LIG d   1      10.739   3.643  -3.629  0.00  0.00     0.066 H 
ENDBRANCH  38  39
ENDBRANCH   8  38
TORSDOF 8
ENDMDL
MODEL 7
REMARK VINA RESULT:      -5.4     10.485     16.041
REMARK  8 active torsions:
REMARK  status: ('A' for Active; 'I' for Inactive)
REMARK    1  A    between atoms: C_1  and  C_2 
REMARK    2  A    between atoms: C_4  and  N_14 
REMARK    3  A    between atoms: C_9  and  O_12 
REMARK    4  A    between atoms: O_12  and  C_13 
REMARK       I    between atoms: N_14  and  C_15 
REMARK    5  A    between atoms: C_15  and  C_17 
REMARK    6  A    between atoms: C_20  and  C_22 
REMARK    7  A    between atoms: C_22  and  O_23 
REMARK    8  A    between atoms: O_23  and  C_24 
ROOT
ATOM      1  C   LIG d   1      10.660   6.263  -0.278  0.00  0.00     0.041 A 
ATOM      2  C   LIG d   1      10.259   7.509  -0.744  0.00  0.00    -0.019 A 
ATOM      3  C   LIG d   1       9.808   7.641  -2.048  0.00  0.00     0.045 A 
ATOM      4  C   LIG d   1       9.776   6.482  -2.858  0.00  0.00     0.025 A 
ATOM      5  C   LIG d   1       9.334   6.533  -4.188  0.00  0.00    -0.051 A 
ATOM      6  C   LIG d   1       9.317   5.397  -4.939  0.00  0.00    -0.058 A 
ATOM      7  C   LIG d   1       9.735   4.181  -4.405  0.00  0.00    -0.018 A 
ATOM      8  C   LIG d   1      10.172   4.093  -3.114  0.00  0.00     0.146 A 
ATOM      9  C   LIG d   1      10.203   5.250  -2.308  0.00  0.00     0.115 A 
ATOM     10  N   LIG d   1      10.626   5.196  -1.040  0.00  0.00    -0.248 NA
ATOM     11  H   LIG d   1      10.298   8.370  -0.095  0.00  0.00     0.065 H 
ATOM     12  H   LIG d   1       9.007   7.470  -4.615  0.00  0.00     0.062 H 
ATOM     13  H   LIG d   1       8.976   5.439  -5.963  0.00  0.00     0.062 H 
ATOM     14  H   LIG d   1       9.713   3.293  -5.021  0.00  0.00     0.066 H 
ENDROOT
BRANCH   3  15
ATOM     15  N   LIG d   1       9.400   8.874  -2.544  0.00  0.00    -0.278 N 
ATOM     16  C   LIG d   1      10.309   9.734  -3.043  0.00  0.00     0.284 C 
ATOM     17  O   LIG d   1      11.472   9.393  -3.154  0.00  0.00    -0.267 OA
ATOM     18  H   LIG d   1       8.461   9.115  -2.530  0.00  0.00     0.155 HD
BRANCH  16  19
ATOM     19  C   LIG d   1       9.898  11.080  -3.453  0.00  0.00     0.190 A 
ATOM     20  O   LIG d   1      10.436  11.801  -4.459  0.00  0.00    -0.453 OA
ATOM     21  C   LIG d   1       9.807  12.981  -4.546  0.00  0.00     0.131 A 
ATOM     22  C   LIG d   1       8.858  13.039  -3.585  0.00  0.00    -0.018 A 
ATOM     23  C   LIG d   1       8.908  11.827  -2.880  0.00  0.00    -0.011 A 
ATOM     24  H   LIG d   1       8.187  13.863  -3.397  0.00  0.00     0.065 H 
ATOM     25  H   LIG d   1       8.285  11.540  -2.047  0.00  0.00     0.066 H 
BRANCH  21  26
ATOM     26  C   LIG d   1      10.113  14.066  -5.545  0.00  0.00     0.105 C 
ATOM     27  H   LIG d   1       9.999  15.041  -5.069  0.00  0.00     0.064 H 
ATOM     28  H   LIG d   1      11.137  13.953  -5.902  0.00  0.00     0.064 H 
BRANCH  26  29
ATOM     29  O   LIG d   1       9.210  13.966  -6.648  0.00  0.00    -0.375 OA
BRANCH  29  30
ATOM     30  C   LIG d   1       9.757  13.300  -7.788  0.00  0.00     0.037 C 
ATOM     31  H   LIG d   1       8.977  12.711  -8.272  0.00  0.00     0.052 H 
ATOM     32  H   LIG d   1      10.143  14.039  -8.490  0.00  0.00     0.052 H 
ATOM     33  H   LIG d   1      10.565  12.642  -7.471  0.00  0.00     0.052 H 
ENDBRANCH  29  30
ENDBRANCH  26  29
ENDBRANCH  21  26
ENDBRANCH  16  19
ENDBRANCH   3  15
BRANCH   1  34
ATOM     34  C   LIG d   1      11.149   6.134   1.141  0.00  0.00    -0.022 C 
ATOM     35  H   LIG d   1      11.950   6.852   1.317  0.00  0.00     0.029 H 
ATOM     36  H   LIG d   1      10.326   6.334   1.828  0.00  0.00     0.029 H 
ATOM     37  H   LIG d   1      11.523   5.125   1.307  0.00  0.00     0.029 H 
ENDBRANCH   1  34
BRANCH   8  38
ATOM     38  O   LIG d   1      10.581   2.899  -2.611  0.00  0.00    -0.493 OA
BRANCH  38  39
ATOM     39  C   LIG d   1      11.377   2.075  -3.464  0.00  0.00     0.079 C 
ATOM     40  H   LIG d   1      11.050   1.038  -3.376  0.00  0.00     0.066 H 
ATOM     41  H   LIG d   1      11.265   2.404  -4.497  0.00  0.00     0.066 H 
ATOM     42  H   LIG d   1      12.424   2.151  -3.169  0.00  0.00     0.066 H 
ENDBRANCH  38  39
ENDBRANCH   8  38
TORSDOF 8
ENDMDL
MODEL 8
REMARK VINA RESULT:      -5.4      2.374      3.160
REMARK  8 active torsions:
REMARK  status: ('A' for Active; 'I' for Inactive)
REMARK    1  A    between atoms: C_1  and  C_2 
REMARK    2  A    between atoms: C_4  and  N_14 
REMARK    3  A    between atoms: C_9  and  O_12 
REMARK    4  A    between atoms: O_12  and  C_13 
REMARK       I    between atoms: N_14  and  C_15 
REMARK    5  A    between atoms: C_15  and  C_17 
REMARK    6  A    between atoms: C_20  and  C_22 
REMARK    7  A    between atoms: C_22  and  O_23 
REMARK    8  A    between atoms: O_23  and  C_24 
ROOT
ATOM      1  C   LIG d   1       4.084  -0.818  -3.497  0.00  0.00     0.041 A 
ATOM      2  C   LIG d   1       4.126  -2.177  -3.784  0.00  0.00    -0.019 A 
ATOM      3  C   LIG d   1       5.237  -2.711  -4.415  0.00  0.00     0.045 A 
ATOM      4  C   LIG d   1       6.297  -1.833  -4.744  0.00  0.00     0.025 A 
ATOM      5  C   LIG d   1       7.456  -2.297  -5.384  0.00  0.00    -0.051 A 
ATOM      6  C   LIG d   1       8.456  -1.423  -5.686  0.00  0.00    -0.058 A 
ATOM      7  C   LIG d   1       8.346  -0.072  -5.368  0.00  0.00    -0.018 A 
ATOM      8  C   LIG d   1       7.232   0.415  -4.745  0.00  0.00     0.146 A 
ATOM      9  C   LIG d   1       6.177  -0.462  -4.417  0.00  0.00     0.115 A 
ATOM     10  N   LIG d   1       5.074  -0.015  -3.807  0.00  0.00    -0.248 NA
ATOM     11  H   LIG d   1       3.296  -2.814  -3.516  0.00  0.00     0.065 H 
ATOM     12  H   LIG d   1       7.555  -3.342  -5.636  0.00  0.00     0.062 H 
ATOM     13  H   LIG d   1       9.348  -1.783  -6.179  0.00  0.00     0.062 H 
ATOM     14  H   LIG d   1       9.153   0.601  -5.618  0.00  0.00     0.066 H 
ENDROOT
BRANCH   3  15
ATOM     15  N   LIG d   1       5.309  -4.066  -4.716  0.00  0.00    -0.278 N 
ATOM     16  C   LIG d   1       4.764  -4.533  -5.856  0.00  0.00     0.284 C 
ATOM     17  O   LIG d   1       4.300  -3.757  -6.671  0.00  0.00    -0.267 OA
ATOM     18  H   LIG d   1       5.751  -4.676  -4.104  0.00  0.00     0.155 HD
BRANCH  16  19
ATOM     19  C   LIG d   1       4.731  -5.975  -6.117  0.00  0.00     0.190 A 
ATOM     20  O   LIG d   1       4.749  -6.950  -5.183  0.00  0.00    -0.453 OA
ATOM     21  C   LIG d   1       4.704  -8.145  -5.788  0.00  0.00     0.131 A 
ATOM     22  C   LIG d   1       4.666  -7.954  -7.125  0.00  0.00    -0.018 A 
ATOM     23  C   LIG d   1       4.682  -6.568  -7.346  0.00  0.00    -0.011 A 
ATOM     24  H   LIG d   1       4.629  -8.724  -7.881  0.00  0.00     0.065 H 
ATOM     25  H   LIG d   1       4.661  -6.068  -8.302  0.00  0.00     0.066 H 
BRANCH  21  26
ATOM     26  C   LIG d   1       4.703  -9.481  -5.091  0.00  0.00     0.105 C 
ATOM     27  H   LIG d   1       4.515 -10.270  -5.819  0.00  0.00     0.064 H 
ATOM     28  H   LIG d   1       5.671  -9.645  -4.618  0.00  0.00     0.064 H 
BRANCH  26  29
ATOM     29  O   LIG d   1       3.677  -9.498  -4.096  0.00  0.00    -0.375 OA
BRANCH  29  30
ATOM     30  C   LIG d   1       3.441 -10.787  -3.528  0.00  0.00     0.037 C 
ATOM     31  H   LIG d   1       4.319 -11.103  -2.965  0.00  0.00     0.052 H 
ATOM     32  H   LIG d   1       2.580 -10.738  -2.861  0.00  0.00     0.052 H 
ATOM     33  H   LIG d   1       3.243 -11.505  -4.325  0.00  0.00     0.052 H 
ENDBRANCH  29  30
ENDBRANCH  26  29
ENDBRANCH  21  26
ENDBRANCH  16  19
ENDBRANCH   3  15
BRANCH   1  34
ATOM     34  C   LIG d   1       2.869  -0.251  -2.810  0.00  0.00    -0.022 C 
ATOM     35  H   LIG d   1       2.145   0.071  -3.560  0.00  0.00     0.029 H 
ATOM     36  H   LIG d   1       2.419  -1.016  -2.177  0.00  0.00     0.029 H 
ATOM     37  H   LIG d   1       3.161   0.601  -2.198  0.00  0.00     0.029 H 
ENDBRANCH   1  34
BRANCH   8  38
ATOM     38  O   LIG d   1       7.139   1.737  -4.446  0.00  0.00    -0.493 OA
BRANCH  38  39
ATOM     39  C   LIG d   1       8.326   2.519  -4.591  0.00  0.00     0.079 C 
ATOM     40  H   LIG d   1       9.156   1.871  -4.873  0.00  0.00     0.066 H 
ATOM     41  H   LIG d   1       8.174   3.272  -5.365  0.00  0.00     0.066 H 
ATOM     42  H   LIG d   1       8.554   3.010  -3.645  0.00  0.00     0.066 H 
ENDBRANCH  38  39
ENDBRANCH   8  38
TORSDOF 8
ENDMDL
MODEL 9
REMARK VINA RESULT:      -5.2      5.081      9.374
REMARK  8 active torsions:
REMARK  status: ('A' for Active; 'I' for Inactive)
REMARK    1  A    between atoms: C_1  and  C_2 
REMARK    2  A    between atoms: C_4  and  N_14 
REMARK    3  A    between atoms: C_9  and  O_12 
REMARK    4  A    between atoms: O_12  and  C_13 
REMARK       I    between atoms: N_14  and  C_15 
REMARK    5  A    between atoms: C_15  and  C_17 
REMARK    6  A    between atoms: C_20  and  C_22 
REMARK    7  A    between atoms: C_22  and  O_23 
REMARK    8  A    between atoms: O_23  and  C_24 
ROOT
ATOM      1  C   LIG d   1       4.891  -1.577  -4.010  0.00  0.00     0.041 A 
ATOM      2  C   LIG d   1       6.092  -0.999  -3.618  0.00  0.00    -0.019 A 
ATOM      3  C   LIG d   1       6.851  -0.300  -4.541  0.00  0.00     0.045 A 
ATOM      4  C   LIG d   1       6.360  -0.204  -5.865  0.00  0.00     0.025 A 
ATOM      5  C   LIG d   1       7.070   0.486  -6.858  0.00  0.00    -0.051 A 
ATOM      6  C   LIG d   1       6.567   0.557  -8.123  0.00  0.00    -0.058 A 
ATOM      7  C   LIG d   1       5.355  -0.048  -8.445  0.00  0.00    -0.018 A 
ATOM      8  C   LIG d   1       4.637  -0.728  -7.504  0.00  0.00     0.146 A 
ATOM      9  C   LIG d   1       5.127  -0.822  -6.185  0.00  0.00     0.115 A 
ATOM     10  N   LIG d   1       4.447  -1.482  -5.241  0.00  0.00    -0.248 NA
ATOM     11  H   LIG d   1       6.432  -1.094  -2.598  0.00  0.00     0.065 H 
ATOM     12  H   LIG d   1       8.011   0.960  -6.623  0.00  0.00     0.062 H 
ATOM     13  H   LIG d   1       7.116   1.089  -8.886  0.00  0.00     0.062 H 
ATOM     14  H   LIG d   1       4.977   0.022  -9.455  0.00  0.00     0.066 H 
ENDROOT
BRANCH   3  15
ATOM     15  N   LIG d   1       8.057   0.290  -4.180  0.00  0.00    -0.278 N 
ATOM     16  C   LIG d   1       8.079   1.563  -3.742  0.00  0.00     0.284 C 
ATOM     17  O   LIG d   1       7.035   2.165  -3.565  0.00  0.00    -0.267 OA
ATOM     18  H   LIG d   1       8.882  -0.216  -4.243  0.00  0.00     0.155 HD
BRANCH  16  19
ATOM     19  C   LIG d   1       9.359   2.226  -3.477  0.00  0.00     0.190 A 
ATOM     20  O   LIG d   1       9.543   3.314  -2.700  0.00  0.00    -0.453 OA
ATOM     21  C   LIG d   1      10.843   3.637  -2.687  0.00  0.00     0.131 A 
ATOM     22  C   LIG d   1      11.516   2.761  -3.466  0.00  0.00    -0.018 A 
ATOM     23  C   LIG d   1      10.575   1.854  -3.976  0.00  0.00    -0.011 A 
ATOM     24  H   LIG d   1      12.578   2.760  -3.659  0.00  0.00     0.065 H 
ATOM     25  H   LIG d   1      10.773   1.022  -4.636  0.00  0.00     0.066 H 
BRANCH  21  26
ATOM     26  C   LIG d   1      11.453   4.790  -1.932  0.00  0.00     0.105 C 
ATOM     27  H   LIG d   1      12.139   4.406  -1.176  0.00  0.00     0.064 H 
ATOM     28  H   LIG d   1      11.998   5.430  -2.626  0.00  0.00     0.064 H 
BRANCH  26  29
ATOM     29  O   LIG d   1      10.419   5.545  -1.299  0.00  0.00    -0.375 OA
BRANCH  29  30
ATOM     30  C   LIG d   1      10.850   6.261  -0.140  0.00  0.00     0.037 C 
ATOM     31  H   LIG d   1      10.077   6.208   0.628  0.00  0.00     0.052 H 
ATOM     32  H   LIG d   1      11.770   5.819   0.240  0.00  0.00     0.052 H 
ATOM     33  H   LIG d   1      11.029   7.304  -0.403  0.00  0.00     0.052 H 
ENDBRANCH  29  30
ENDBRANCH  26  29
ENDBRANCH  21  26
ENDBRANCH  16  19
ENDBRANCH   3  15
BRANCH   1  34
ATOM     34  C   LIG d   1       4.076  -2.335  -2.995  0.00  0.00    -0.022 C 
ATOM     35  H   LIG d   1       4.731  -2.989  -2.418  0.00  0.00     0.029 H 
ATOM     36  H   LIG d   1       3.584  -1.630  -2.324  0.00  0.00     0.029 H 
ATOM     37  H   LIG d   1       3.324  -2.934  -3.506  0.00  0.00     0.029 H 
ENDBRANCH   1  34
BRANCH   8  38
ATOM     38  O   LIG d   1       3.459  -1.317  -7.837  0.00  0.00    -0.493 OA
BRANCH  38  39
ATOM     39  C   LIG d   1       2.418  -0.460  -8.312  0.00  0.00     0.079 C 
ATOM     40  H   LIG d   1       2.337  -0.554  -9.395  0.00  0.00     0.066 H 
ATOM     41  H   LIG d   1       1.472  -0.746  -7.850  0.00  0.00     0.066 H 
ATOM     42  H   LIG d   1       2.652   0.573  -8.054  0.00  0.00     0.066 H 
ENDBRANCH  38  39
ENDBRANCH   8  38
TORSDOF 8
ENDMDL
