MODEL 1
REMARK VINA RESULT:      -5.9      0.000      0.000
REMARK  7 active torsions:
REMARK  status: ('A' for Active; 'I' for Inactive)
REMARK    1  A    between atoms: C_1  and  C_2 
REMARK    2  A    between atoms: C_5  and  C_12 
REMARK    3  A    between atoms: C_8  and  C_10 
REMARK    4  A    between atoms: C_12  and  C_13 
REMARK    5  A    between atoms: C_13  and  C_14 
REMARK    6  A    between atoms: C_15  and  C_16 
REMARK    7  A    between atoms: C_15  and  C_17 
ROOT
ATOM      1  C   LIG d   1       4.432  -1.083  -2.200  0.00  0.00    -0.031 C 
ATOM      2  H   LIG d   1       4.809  -0.970  -1.183  0.00  0.00     0.031 H 
ATOM      3  C   LIG d   1       5.602  -1.069  -3.186  0.00  0.00    -0.029 C 
ATOM      4  C   LIG d   1       6.195   0.308  -3.264  0.00  0.00    -0.073 C 
ATOM      5  C   LIG d   1       5.598   1.380  -2.853  0.00  0.00    -0.084 C 
ATOM      6  C   LIG d   1       4.232   1.395  -2.231  0.00  0.00    -0.025 C 
ATOM      7  C   LIG d   1       3.499   0.087  -2.537  0.00  0.00     0.021 C 
ATOM      8  H   LIG d   1       2.668   0.021  -1.985  0.00  0.00     0.038 H 
ATOM      9  H   LIG d   1       6.364  -1.773  -2.852  0.00  0.00     0.031 H 
ATOM     10  H   LIG d   1       5.246  -1.365  -4.172  0.00  0.00     0.031 H 
ATOM     11  H   LIG d   1       6.114   2.321  -2.964  0.00  0.00     0.057 H 
ATOM     12  H   LIG d   1       3.662   2.232  -2.633  0.00  0.00     0.031 H 
ATOM     13  H   LIG d   1       4.328   1.511  -1.151  0.00  0.00     0.031 H 
ENDROOT
BRANCH   4  14
ATOM     14  C   LIG d   1       7.573   0.451  -3.858  0.00  0.00    -0.028 C 
ATOM     15  H   LIG d   1       8.280  -0.150  -3.286  0.00  0.00     0.031 H 
ATOM     16  H   LIG d   1       7.560   0.109  -4.893  0.00  0.00     0.031 H 
BRANCH  14  17
ATOM     17  C   LIG d   1       7.998   1.920  -3.812  0.00  0.00    -0.031 C 
ATOM     18  H   LIG d   1       7.156   2.532  -3.487  0.00  0.00     0.031 H 
ATOM     19  H   LIG d   1       8.825   2.038  -3.111  0.00  0.00     0.031 H 
BRANCH  17  20
ATOM     20  C   LIG d   1       8.438   2.359  -5.185  0.00  0.00    -0.085 C 
ATOM     21  C   LIG d   1       9.221   3.401  -5.321  0.00  0.00    -0.080 C 
ATOM     22  H   LIG d   1       8.108   1.814  -6.057  0.00  0.00     0.057 H 
BRANCH  21  23
ATOM     23  C   LIG d   1       9.574   4.238  -4.119  0.00  0.00    -0.044 C 
ATOM     24  H   LIG d   1       8.719   4.853  -3.840  0.00  0.00     0.027 H 
ATOM     25  H   LIG d   1       9.840   3.585  -3.286  0.00  0.00     0.027 H 
ATOM     26  H   LIG d   1      10.421   4.880  -4.360  0.00  0.00     0.027 H 
ENDBRANCH  21  23
BRANCH  21  27
ATOM     27  C   LIG d   1       9.767   3.761  -6.678  0.00  0.00    -0.044 C 
ATOM     28  H   LIG d   1       9.693   4.838  -6.826  0.00  0.00     0.027 H 
ATOM     29  H   LIG d   1      10.812   3.456  -6.742  0.00  0.00     0.027 H 
ATOM     30  H   LIG d   1       9.191   3.248  -7.449  0.00  0.00     0.027 H 
ENDBRANCH  21  27
ENDBRANCH  17  20
ENDBRANCH  14  17
ENDBRANCH   4  14
BRANCH   1  31
ATOM     31  C   LIG d   1       3.667  -2.403  -2.322  0.00  0.00    -0.061 C 
ATOM     32  H   LIG d   1       3.742  -2.772  -3.344  0.00  0.00     0.023 H 
ATOM     33  H   LIG d   1       4.096  -3.135  -1.638  0.00  0.00     0.023 H 
ATOM     34  H   LIG d   1       2.619  -2.239  -2.070  0.00  0.00     0.023 H 
ENDBRANCH   1  31
BRANCH   7  35
ATOM     35  C   LIG d   1       3.136   0.040  -3.999  0.00  0.00     0.124 C 
ATOM     36  O   LIG d   1       2.763   1.042  -4.562  0.00  0.00    -0.301 OA
ATOM     37  H   LIG d   1       3.209  -0.890  -4.544  0.00  0.00     0.103 H 
ENDBRANCH   7  35
TORSDOF 7
ENDMDL
MODEL 2
REMARK VINA RESULT:      -5.8      1.739      2.323
REMARK  7 active torsions:
REMARK  status: ('A' for Active; 'I' for Inactive)
REMARK    1  A    between atoms: C_1  and  C_2 
REMARK    2  A    between atoms: C_5  and  C_12 
REMARK    3  A    between atoms: C_8  and  C_10 
REMARK    4  A    between atoms: C_12  and  C_13 
REMARK    5  A    between atoms: C_13  and  C_14 
REMARK    6  A    between atoms: C_15  and  C_16 
REMARK    7  A    between atoms: C_15  and  C_17 
ROOT
ATOM      1  C   LIG d   1       4.317  -1.050  -2.181  0.00  0.00    -0.031 C 
ATOM      2  H   LIG d   1       4.567  -0.859  -1.137  0.00  0.00     0.031 H 
ATOM      3  C   LIG d   1       5.564  -0.865  -3.049  0.00  0.00    -0.029 C 
ATOM      4  C   LIG d   1       5.936   0.588  -3.116  0.00  0.00    -0.073 C 
ATOM      5  C   LIG d   1       5.139   1.557  -2.801  0.00  0.00    -0.084 C 
ATOM      6  C   LIG d   1       3.732   1.363  -2.314  0.00  0.00    -0.025 C 
ATOM      7  C   LIG d   1       3.250  -0.051  -2.646  0.00  0.00     0.021 C 
ATOM      8  H   LIG d   1       2.388  -0.240  -2.175  0.00  0.00     0.038 H 
ATOM      9  H   LIG d   1       6.390  -1.431  -2.620  0.00  0.00     0.031 H 
ATOM     10  H   LIG d   1       5.361  -1.232  -4.055  0.00  0.00     0.031 H 
ATOM     11  H   LIG d   1       5.507   2.567  -2.893  0.00  0.00     0.057 H 
ATOM     12  H   LIG d   1       3.079   2.089  -2.798  0.00  0.00     0.031 H 
ATOM     13  H   LIG d   1       3.698   1.512  -1.235  0.00  0.00     0.031 H 
ENDROOT
BRANCH   4  14
ATOM     14  C   LIG d   1       7.326   0.940  -3.579  0.00  0.00    -0.028 C 
ATOM     15  H   LIG d   1       7.333   1.958  -3.968  0.00  0.00     0.031 H 
ATOM     16  H   LIG d   1       8.018   0.867  -2.740  0.00  0.00     0.031 H 
BRANCH  14  17
ATOM     17  C   LIG d   1       7.758  -0.029  -4.681  0.00  0.00    -0.031 C 
ATOM     18  H   LIG d   1       8.705  -0.495  -4.405  0.00  0.00     0.031 H 
ATOM     19  H   LIG d   1       6.997  -0.800  -4.806  0.00  0.00     0.031 H 
BRANCH  17  20
ATOM     20  C   LIG d   1       7.927   0.724  -5.975  0.00  0.00    -0.085 C 
ATOM     21  C   LIG d   1       7.018   0.628  -6.914  0.00  0.00    -0.080 C 
ATOM     22  H   LIG d   1       8.798   1.346  -6.128  0.00  0.00     0.057 H 
BRANCH  21  23
ATOM     23  C   LIG d   1       5.872  -0.339  -6.755  0.00  0.00    -0.044 C 
ATOM     24  H   LIG d   1       5.000   0.041  -7.286  0.00  0.00     0.027 H 
ATOM     25  H   LIG d   1       6.155  -1.308  -7.166  0.00  0.00     0.027 H 
ATOM     26  H   LIG d   1       5.634  -0.449  -5.697  0.00  0.00     0.027 H 
ENDBRANCH  21  23
BRANCH  21  27
ATOM     27  C   LIG d   1       7.119   1.482  -8.151  0.00  0.00    -0.044 C 
ATOM     28  H   LIG d   1       6.713   2.471  -7.944  0.00  0.00     0.027 H 
ATOM     29  H   LIG d   1       8.165   1.572  -8.446  0.00  0.00     0.027 H 
ATOM     30  H   LIG d   1       6.553   1.018  -8.959  0.00  0.00     0.027 H 
ENDBRANCH  21  27
ENDBRANCH  17  20
ENDBRANCH  14  17
ENDBRANCH   4  14
BRANCH   1  31
ATOM     31  C   LIG d   1       3.787  -2.477  -2.332  0.00  0.00    -0.061 C 
ATOM     32  H   LIG d   1       3.321  -2.791  -1.398  0.00  0.00     0.023 H 
ATOM     33  H   LIG d   1       3.050  -2.508  -3.134  0.00  0.00     0.023 H 
ATOM     34  H   LIG d   1       4.613  -3.148  -2.569  0.00  0.00     0.023 H 
ENDBRANCH   1  31
BRANCH   7  35
ATOM     35  C   LIG d   1       3.048  -0.182  -4.134  0.00  0.00     0.124 C 
ATOM     36  O   LIG d   1       2.317   0.584  -4.714  0.00  0.00    -0.301 OA
ATOM     37  H   LIG d   1       3.557  -0.961  -4.681  0.00  0.00     0.103 H 
ENDBRANCH   7  35
TORSDOF 7
ENDMDL
MODEL 3
REMARK VINA RESULT:      -5.8      3.345      5.239
REMARK  7 active torsions:
REMARK  status: ('A' for Active; 'I' for Inactive)
REMARK    1  A    between atoms: C_1  and  C_2 
REMARK    2  A    between atoms: C_5  and  C_12 
REMARK    3  A    between atoms: C_8  and  C_10 
REMARK    4  A    between atoms: C_12  and  C_13 
REMARK    5  A    between atoms: C_13  and  C_14 
REMARK    6  A    between atoms: C_15  and  C_16 
REMARK    7  A    between atoms: C_15  and  C_17 
ROOT
ATOM      1  C   LIG d   1       5.596  -0.697  -3.291  0.00  0.00    -0.031 C 
ATOM      2  H   LIG d   1       5.474  -0.012  -2.451  0.00  0.00     0.031 H 
ATOM      3  C   LIG d   1       4.886  -0.130  -4.522  0.00  0.00    -0.029 C 
ATOM      4  C   LIG d   1       3.398  -0.189  -4.334  0.00  0.00    -0.073 C 
ATOM      5  C   LIG d   1       2.807  -0.922  -3.446  0.00  0.00    -0.084 C 
ATOM      6  C   LIG d   1       3.528  -1.810  -2.475  0.00  0.00    -0.025 C 
ATOM      7  C   LIG d   1       4.964  -2.051  -2.946  0.00  0.00     0.021 C 
ATOM      8  H   LIG d   1       5.494  -2.492  -2.222  0.00  0.00     0.038 H 
ATOM      9  H   LIG d   1       5.192   0.905  -4.671  0.00  0.00     0.031 H 
ATOM     10  H   LIG d   1       5.162  -0.716  -5.399  0.00  0.00     0.031 H 
ATOM     11  H   LIG d   1       1.729  -0.894  -3.402  0.00  0.00     0.057 H 
ATOM     12  H   LIG d   1       3.007  -2.765  -2.402  0.00  0.00     0.031 H 
ATOM     13  H   LIG d   1       3.545  -1.335  -1.494  0.00  0.00     0.031 H 
ENDROOT
BRANCH   4  14
ATOM     14  C   LIG d   1       2.538   0.661  -5.234  0.00  0.00    -0.028 C 
ATOM     15  H   LIG d   1       1.504   0.620  -4.892  0.00  0.00     0.031 H 
ATOM     16  H   LIG d   1       2.890   1.691  -5.206  0.00  0.00     0.031 H 
BRANCH  14  17
ATOM     17  C   LIG d   1       2.623   0.132  -6.668  0.00  0.00    -0.031 C 
ATOM     18  H   LIG d   1       3.256  -0.755  -6.691  0.00  0.00     0.031 H 
ATOM     19  H   LIG d   1       1.624  -0.125  -7.020  0.00  0.00     0.031 H 
BRANCH  17  20
ATOM     20  C   LIG d   1       3.213   1.194  -7.560  0.00  0.00    -0.085 C 
ATOM     21  C   LIG d   1       2.961   1.183  -8.846  0.00  0.00    -0.080 C 
ATOM     22  H   LIG d   1       3.842   1.964  -7.139  0.00  0.00     0.057 H 
BRANCH  21  23
ATOM     23  C   LIG d   1       2.192   0.037  -9.453  0.00  0.00    -0.044 C 
ATOM     24  H   LIG d   1       1.125   0.249  -9.404  0.00  0.00     0.027 H 
ATOM     25  H   LIG d   1       2.491  -0.089 -10.494  0.00  0.00     0.027 H 
ATOM     26  H   LIG d   1       2.407  -0.877  -8.901  0.00  0.00     0.027 H 
ENDBRANCH  21  23
BRANCH  21  27
ATOM     27  C   LIG d   1       3.440   2.316  -9.717  0.00  0.00    -0.044 C 
ATOM     28  H   LIG d   1       2.782   3.175  -9.590  0.00  0.00     0.027 H 
ATOM     29  H   LIG d   1       4.455   2.590  -9.430  0.00  0.00     0.027 H 
ATOM     30  H   LIG d   1       3.430   2.001 -10.760  0.00  0.00     0.027 H 
ENDBRANCH  21  27
ENDBRANCH  17  20
ENDBRANCH  14  17
ENDBRANCH   4  14
BRANCH   1  31
ATOM     31  C   LIG d   1       7.085  -0.884  -3.590  0.00  0.00    -0.061 C 
ATOM     32  H   LIG d   1       7.209  -1.203  -4.624  0.00  0.00     0.023 H 
ATOM     33  H   LIG d   1       7.608   0.060  -3.435  0.00  0.00     0.023 H 
ATOM     34  H   LIG d   1       7.496  -1.642  -2.923  0.00  0.00     0.023 H 
ENDBRANCH   1  31
BRANCH   7  35
ATOM     35  C   LIG d   1       4.955  -2.932  -4.169  0.00  0.00     0.124 C 
ATOM     36  O   LIG d   1       4.301  -3.946  -4.179  0.00  0.00    -0.301 OA
ATOM     37  H   LIG d   1       5.533  -2.654  -5.038  0.00  0.00     0.103 H 
ENDBRANCH   7  35
TORSDOF 7
ENDMDL
MODEL 4
REMARK VINA RESULT:      -5.7      4.440      6.812
REMARK  7 active torsions:
REMARK  status: ('A' for Active; 'I' for Inactive)
REMARK    1  A    between atoms: C_1  and  C_2 
REMARK    2  A    between atoms: C_5  and  C_12 
REMARK    3  A    between atoms: C_8  and  C_10 
REMARK    4  A    between atoms: C_12  and  C_13 
REMARK    5  A    between atoms: C_13  and  C_14 
REMARK    6  A    between atoms: C_15  and  C_16 
REMARK    7  A    between atoms: C_15  and  C_17 
ROOT
ATOM      1  C   LIG d   1       1.882  -0.185  -9.519  0.00  0.00    -0.031 C 
ATOM      2  H   LIG d   1       0.921   0.193  -9.170  0.00  0.00     0.031 H 
ATOM      3  C   LIG d   1       2.633  -0.831  -8.353  0.00  0.00    -0.029 C 
ATOM      4  C   LIG d   1       3.087   0.221  -7.384  0.00  0.00    -0.073 C 
ATOM      5  C   LIG d   1       3.155   1.483  -7.662  0.00  0.00    -0.084 C 
ATOM      6  C   LIG d   1       2.781   2.072  -8.991  0.00  0.00    -0.025 C 
ATOM      7  C   LIG d   1       2.728   0.976 -10.057  0.00  0.00     0.021 C 
ATOM      8  H   LIG d   1       2.313   1.330 -10.895  0.00  0.00     0.038 H 
ATOM      9  H   LIG d   1       1.973  -1.533  -7.843  0.00  0.00     0.031 H 
ATOM     10  H   LIG d   1       3.501  -1.368  -8.736  0.00  0.00     0.031 H 
ATOM     11  H   LIG d   1       3.503   2.154  -6.891  0.00  0.00     0.057 H 
ATOM     12  H   LIG d   1       3.522   2.819  -9.277  0.00  0.00     0.031 H 
ATOM     13  H   LIG d   1       1.803   2.548  -8.913  0.00  0.00     0.031 H 
ENDROOT
BRANCH   4  14
ATOM     14  C   LIG d   1       3.487  -0.219  -5.999  0.00  0.00    -0.028 C 
ATOM     15  H   LIG d   1       3.487  -1.308  -5.950  0.00  0.00     0.031 H 
ATOM     16  H   LIG d   1       4.485   0.155  -5.773  0.00  0.00     0.031 H 
BRANCH  14  17
ATOM     17  C   LIG d   1       2.491   0.337  -4.979  0.00  0.00    -0.031 C 
ATOM     18  H   LIG d   1       1.868   1.093  -5.456  0.00  0.00     0.031 H 
ATOM     19  H   LIG d   1       1.861  -0.472  -4.607  0.00  0.00     0.031 H 
BRANCH  17  20
ATOM     20  C   LIG d   1       3.243   0.957  -3.830  0.00  0.00    -0.085 C 
ATOM     21  C   LIG d   1       3.579   0.226  -2.796  0.00  0.00    -0.080 C 
ATOM     22  H   LIG d   1       3.506   2.005  -3.859  0.00  0.00     0.057 H 
BRANCH  21  23
ATOM     23  C   LIG d   1       3.100  -1.199  -2.694  0.00  0.00    -0.044 C 
ATOM     24  H   LIG d   1       3.018  -1.628  -3.692  0.00  0.00     0.027 H 
ATOM     25  H   LIG d   1       3.811  -1.781  -2.106  0.00  0.00     0.027 H 
ATOM     26  H   LIG d   1       2.125  -1.221  -2.208  0.00  0.00     0.027 H 
ENDBRANCH  21  23
BRANCH  21  27
ATOM     27  C   LIG d   1       4.443   0.811  -1.708  0.00  0.00    -0.044 C 
ATOM     28  H   LIG d   1       3.932   1.660  -1.255  0.00  0.00     0.027 H 
ATOM     29  H   LIG d   1       4.633   0.052  -0.948  0.00  0.00     0.027 H 
ATOM     30  H   LIG d   1       5.390   1.142  -2.136  0.00  0.00     0.027 H 
ENDBRANCH  21  27
ENDBRANCH  17  20
ENDBRANCH  14  17
ENDBRANCH   4  14
BRANCH   1  31
ATOM     31  C   LIG d   1       1.658  -1.216 -10.627  0.00  0.00    -0.061 C 
ATOM     32  H   LIG d   1       0.596  -1.454 -10.691  0.00  0.00     0.023 H 
ATOM     33  H   LIG d   1       1.996  -0.805 -11.579  0.00  0.00     0.023 H 
ATOM     34  H   LIG d   1       2.221  -2.121 -10.400  0.00  0.00     0.023 H 
ENDBRANCH   1  31
BRANCH   7  35
ATOM     35  C   LIG d   1       4.124   0.490 -10.354  0.00  0.00     0.124 C 
ATOM     36  O   LIG d   1       4.557   0.550 -11.479  0.00  0.00    -0.301 OA
ATOM     37  H   LIG d   1       4.736   0.089  -9.560  0.00  0.00     0.103 H 
ENDBRANCH   7  35
TORSDOF 7
ENDMDL
MODEL 5
REMARK VINA RESULT:      -5.4      3.470      5.381
REMARK  7 active torsions:
REMARK  status: ('A' for Active; 'I' for Inactive)
REMARK    1  A    between atoms: C_1  and  C_2 
REMARK    2  A    between atoms: C_5  and  C_12 
REMARK    3  A    between atoms: C_8  and  C_10 
REMARK    4  A    between atoms: C_12  and  C_13 
REMARK    5  A    between atoms: C_13  and  C_14 
REMARK    6  A    between atoms: C_15  and  C_16 
REMARK    7  A    between atoms: C_15  and  C_17 
ROOT
ATOM      1  C   LIG d   1       3.347  -0.489  -4.147  0.00  0.00    -0.031 C 
ATOM      2  H   LIG d   1       2.903  -1.471  -4.311  0.00  0.00     0.031 H 
ATOM      3  C   LIG d   1       4.777  -0.476  -4.691  0.00  0.00    -0.029 C 
ATOM      4  C   LIG d   1       5.666  -1.327  -3.831  0.00  0.00    -0.073 C 
ATOM      5  C   LIG d   1       5.364  -1.711  -2.633  0.00  0.00    -0.084 C 
ATOM      6  C   LIG d   1       4.079  -1.366  -1.938  0.00  0.00    -0.025 C 
ATOM      7  C   LIG d   1       3.398  -0.191  -2.643  0.00  0.00     0.021 C 
ATOM      8  H   LIG d   1       2.468  -0.073  -2.295  0.00  0.00     0.038 H 
ATOM      9  H   LIG d   1       4.780  -0.865  -5.710  0.00  0.00     0.031 H 
ATOM     10  H   LIG d   1       5.152   0.547  -4.696  0.00  0.00     0.031 H 
ATOM     11  H   LIG d   1       6.081  -2.316  -2.098  0.00  0.00     0.057 H 
ATOM     12  H   LIG d   1       4.289  -1.094  -0.904  0.00  0.00     0.031 H 
ATOM     13  H   LIG d   1       3.416  -2.231  -1.955  0.00  0.00     0.031 H 
ENDROOT
BRANCH   4  14
ATOM     14  C   LIG d   1       6.992  -1.763  -4.399  0.00  0.00    -0.028 C 
ATOM     15  H   LIG d   1       7.578  -0.884  -4.669  0.00  0.00     0.031 H 
ATOM     16  H   LIG d   1       7.533  -2.346  -3.654  0.00  0.00     0.031 H 
BRANCH  14  17
ATOM     17  C   LIG d   1       6.756  -2.621  -5.645  0.00  0.00    -0.031 C 
ATOM     18  H   LIG d   1       6.043  -2.121  -6.300  0.00  0.00     0.031 H 
ATOM     19  H   LIG d   1       7.699  -2.761  -6.174  0.00  0.00     0.031 H 
BRANCH  17  20
ATOM     20  C   LIG d   1       6.206  -3.962  -5.234  0.00  0.00    -0.085 C 
ATOM     21  C   LIG d   1       5.132  -4.436  -5.816  0.00  0.00    -0.080 C 
ATOM     22  H   LIG d   1       6.699  -4.534  -4.460  0.00  0.00     0.057 H 
BRANCH  21  23
ATOM     23  C   LIG d   1       4.371  -3.585  -6.799  0.00  0.00    -0.044 C 
ATOM     24  H   LIG d   1       3.762  -4.224  -7.438  0.00  0.00     0.027 H 
ATOM     25  H   LIG d   1       3.727  -2.892  -6.257  0.00  0.00     0.027 H 
ATOM     26  H   LIG d   1       5.074  -3.022  -7.412  0.00  0.00     0.027 H 
ENDBRANCH  21  23
BRANCH  21  27
ATOM     27  C   LIG d   1       4.658  -5.832  -5.501  0.00  0.00    -0.044 C 
ATOM     28  H   LIG d   1       3.639  -5.960  -5.865  0.00  0.00     0.027 H 
ATOM     29  H   LIG d   1       5.313  -6.556  -5.987  0.00  0.00     0.027 H 
ATOM     30  H   LIG d   1       4.682  -5.988  -4.422  0.00  0.00     0.027 H 
ENDBRANCH  21  27
ENDBRANCH  17  20
ENDBRANCH  14  17
ENDBRANCH   4  14
BRANCH   1  31
ATOM     31  C   LIG d   1       2.512   0.578  -4.856  0.00  0.00    -0.061 C 
ATOM     32  H   LIG d   1       2.767   0.593  -5.916  0.00  0.00     0.023 H 
ATOM     33  H   LIG d   1       1.453   0.347  -4.740  0.00  0.00     0.023 H 
ATOM     34  H   LIG d   1       2.722   1.554  -4.418  0.00  0.00     0.023 H 
ENDBRANCH   1  31
BRANCH   7  35
ATOM     35  C   LIG d   1       4.187   1.071  -2.404  0.00  0.00     0.124 C 
ATOM     36  O   LIG d   1       4.721   1.256  -1.337  0.00  0.00    -0.301 OA
ATOM     37  H   LIG d   1       4.276   1.809  -3.187  0.00  0.00     0.103 H 
ENDBRANCH   7  35
TORSDOF 7
ENDMDL
MODEL 6
REMARK VINA RESULT:      -5.3      2.099      3.327
REMARK  7 active torsions:
REMARK  status: ('A' for Active; 'I' for Inactive)
REMARK    1  A    between atoms: C_1  and  C_2 
REMARK    2  A    between atoms: C_5  and  C_12 
REMARK    3  A    between atoms: C_8  and  C_10 
REMARK    4  A    between atoms: C_12  and  C_13 
REMARK    5  A    between atoms: C_13  and  C_14 
REMARK    6  A    between atoms: C_15  and  C_16 
REMARK    7  A    between atoms: C_15  and  C_17 
ROOT
ATOM      1  C   LIG d   1       4.474  -1.102  -2.200  0.00  0.00    -0.031 C 
ATOM      2  H   LIG d   1       4.913  -1.019  -1.206  0.00  0.00     0.031 H 
ATOM      3  C   LIG d   1       5.585  -1.123  -3.252  0.00  0.00    -0.029 C 
ATOM      4  C   LIG d   1       6.231   0.228  -3.349  0.00  0.00    -0.073 C 
ATOM      5  C   LIG d   1       5.706   1.319  -2.891  0.00  0.00    -0.084 C 
ATOM      6  C   LIG d   1       4.380   1.383  -2.190  0.00  0.00    -0.025 C 
ATOM      7  C   LIG d   1       3.575   0.112  -2.468  0.00  0.00     0.021 C 
ATOM      8  H   LIG d   1       2.775   0.074  -1.869  0.00  0.00     0.038 H 
ATOM      9  H   LIG d   1       6.333  -1.863  -2.972  0.00  0.00     0.031 H 
ATOM     10  H   LIG d   1       5.160  -1.390  -4.220  0.00  0.00     0.031 H 
ATOM     11  H   LIG d   1       6.255   2.239  -3.020  0.00  0.00     0.057 H 
ATOM     12  H   LIG d   1       3.824   2.249  -2.548  0.00  0.00     0.031 H 
ATOM     13  H   LIG d   1       4.543   1.480  -1.116  0.00  0.00     0.031 H 
ENDROOT
BRANCH   4  14
ATOM     14  C   LIG d   1       7.577   0.321  -4.020  0.00  0.00    -0.028 C 
ATOM     15  H   LIG d   1       7.689   1.304  -4.477  0.00  0.00     0.031 H 
ATOM     16  H   LIG d   1       8.363   0.172  -3.281  0.00  0.00     0.031 H 
BRANCH  14  17
ATOM     17  C   LIG d   1       7.683  -0.758  -5.101  0.00  0.00    -0.031 C 
ATOM     18  H   LIG d   1       7.023  -1.588  -4.851  0.00  0.00     0.031 H 
ATOM     19  H   LIG d   1       7.390  -0.338  -6.064  0.00  0.00     0.031 H 
BRANCH  17  20
ATOM     20  C   LIG d   1       9.104  -1.252  -5.180  0.00  0.00    -0.085 C 
ATOM     21  C   LIG d   1       9.395  -2.474  -4.807  0.00  0.00    -0.080 C 
ATOM     22  H   LIG d   1       9.884  -0.599  -5.545  0.00  0.00     0.057 H 
BRANCH  21  23
ATOM     23  C   LIG d   1       8.335  -3.340  -4.176  0.00  0.00    -0.044 C 
ATOM     24  H   LIG d   1       7.389  -3.194  -4.696  0.00  0.00     0.027 H 
ATOM     25  H   LIG d   1       8.632  -4.387  -4.247  0.00  0.00     0.027 H 
ATOM     26  H   LIG d   1       8.219  -3.067  -3.128  0.00  0.00     0.027 H 
ENDBRANCH  21  23
BRANCH  21  27
ATOM     27  C   LIG d   1      10.788  -3.012  -5.008  0.00  0.00    -0.044 C 
ATOM     28  H   LIG d   1      11.494  -2.421  -4.426  0.00  0.00     0.027 H 
ATOM     29  H   LIG d   1      10.826  -4.051  -4.679  0.00  0.00     0.027 H 
ATOM     30  H   LIG d   1      11.050  -2.956  -6.065  0.00  0.00     0.027 H 
ENDBRANCH  21  27
ENDBRANCH  17  20
ENDBRANCH  14  17
ENDBRANCH   4  14
BRANCH   1  31
ATOM     31  C   LIG d   1       3.647  -2.385  -2.292  0.00  0.00    -0.061 C 
ATOM     32  H   LIG d   1       2.752  -2.198  -2.886  0.00  0.00     0.023 H 
ATOM     33  H   LIG d   1       4.241  -3.167  -2.767  0.00  0.00     0.023 H 
ATOM     34  H   LIG d   1       3.359  -2.704  -1.291  0.00  0.00     0.023 H 
ENDBRANCH   1  31
BRANCH   7  35
ATOM     35  C   LIG d   1       3.126   0.102  -3.907  0.00  0.00     0.124 C 
ATOM     36  O   LIG d   1       2.830   1.136  -4.455  0.00  0.00    -0.301 OA
ATOM     37  H   LIG d   1       3.069  -0.832  -4.448  0.00  0.00     0.103 H 
ENDBRANCH   7  35
TORSDOF 7
ENDMDL
MODEL 7
REMARK VINA RESULT:      -5.1      3.274      4.374
REMARK  7 active torsions:
REMARK  status: ('A' for Active; 'I' for Inactive)
REMARK    1  A    between atoms: C_1  and  C_2 
REMARK    2  A    between atoms: C_5  and  C_12 
REMARK    3  A    between atoms: C_8  and  C_10 
REMARK    4  A    between atoms: C_12  and  C_13 
REMARK    5  A    between atoms: C_13  and  C_14 
REMARK    6  A    between atoms: C_15  and  C_16 
REMARK    7  A    between atoms: C_15  and  C_17 
ROOT
ATOM      1  C   LIG d   1       3.967  -1.213  -3.724  0.00  0.00    -0.031 C 
ATOM      2  H   LIG d   1       3.961  -2.274  -3.974  0.00  0.00     0.031 H 
ATOM      3  C   LIG d   1       4.388  -0.400  -4.950  0.00  0.00    -0.029 C 
ATOM      4  C   LIG d   1       5.843  -0.623  -5.244  0.00  0.00    -0.073 C 
ATOM      5  C   LIG d   1       6.686  -1.124  -4.399  0.00  0.00    -0.084 C 
ATOM      6  C   LIG d   1       6.324  -1.561  -3.010  0.00  0.00    -0.025 C 
ATOM      7  C   LIG d   1       4.979  -0.956  -2.600  0.00  0.00     0.021 C 
ATOM      8  H   LIG d   1       4.654  -1.380  -1.755  0.00  0.00     0.038 H 
ATOM      9  H   LIG d   1       3.794  -0.709  -5.810  0.00  0.00     0.031 H 
ATOM     10  H   LIG d   1       4.217   0.659  -4.756  0.00  0.00     0.031 H 
ATOM     11  H   LIG d   1       7.713  -1.234  -4.713  0.00  0.00     0.057 H 
ATOM     12  H   LIG d   1       7.095  -1.231  -2.315  0.00  0.00     0.031 H 
ATOM     13  H   LIG d   1       6.254  -2.649  -2.980  0.00  0.00     0.031 H 
ENDROOT
BRANCH   4  14
ATOM     14  C   LIG d   1       6.355  -0.240  -6.609  0.00  0.00    -0.028 C 
ATOM     15  H   LIG d   1       6.634   0.814  -6.610  0.00  0.00     0.031 H 
ATOM     16  H   LIG d   1       7.225  -0.847  -6.854  0.00  0.00     0.031 H 
BRANCH  14  17
ATOM     17  C   LIG d   1       5.258  -0.477  -7.650  0.00  0.00    -0.031 C 
ATOM     18  H   LIG d   1       5.513  -1.348  -8.253  0.00  0.00     0.031 H 
ATOM     19  H   LIG d   1       4.308  -0.651  -7.144  0.00  0.00     0.031 H 
BRANCH  17  20
ATOM     20  C   LIG d   1       5.140   0.734  -8.539  0.00  0.00    -0.085 C 
ATOM     21  C   LIG d   1       3.992   1.356  -8.650  0.00  0.00    -0.080 C 
ATOM     22  H   LIG d   1       6.002   1.089  -9.085  0.00  0.00     0.057 H 
BRANCH  21  23
ATOM     23  C   LIG d   1       2.761   0.786  -7.995  0.00  0.00    -0.044 C 
ATOM     24  H   LIG d   1       2.174   1.593  -7.557  0.00  0.00     0.027 H 
ATOM     25  H   LIG d   1       2.161   0.264  -8.741  0.00  0.00     0.027 H 
ATOM     26  H   LIG d   1       3.055   0.086  -7.214  0.00  0.00     0.027 H 
ENDBRANCH  21  23
BRANCH  21  27
ATOM     27  C   LIG d   1       3.904   2.641  -9.433  0.00  0.00    -0.044 C 
ATOM     28  H   LIG d   1       4.141   3.481  -8.780  0.00  0.00     0.027 H 
ATOM     29  H   LIG d   1       4.615   2.612 -10.260  0.00  0.00     0.027 H 
ATOM     30  H   LIG d   1       2.894   2.758  -9.825  0.00  0.00     0.027 H 
ENDBRANCH  21  27
ENDBRANCH  17  20
ENDBRANCH  14  17
ENDBRANCH   4  14
BRANCH   1  31
ATOM     31  C   LIG d   1       2.572  -0.782  -3.269  0.00  0.00    -0.061 C 
ATOM     32  H   LIG d   1       1.820  -1.309  -3.857  0.00  0.00     0.023 H 
ATOM     33  H   LIG d   1       2.443  -1.025  -2.214  0.00  0.00     0.023 H 
ATOM     34  H   LIG d   1       2.459   0.292  -3.413  0.00  0.00     0.023 H 
ENDBRANCH   1  31
BRANCH   7  35
ATOM     35  C   LIG d   1       5.135   0.529  -2.390  0.00  0.00     0.124 C 
ATOM     36  O   LIG d   1       4.830   1.024  -1.332  0.00  0.00    -0.301 OA
ATOM     37  H   LIG d   1       5.520   1.149  -3.186  0.00  0.00     0.103 H 
ENDBRANCH   7  35
TORSDOF 7
ENDMDL
MODEL 8
REMARK VINA RESULT:      -4.9      3.548      4.983
REMARK  7 active torsions:
REMARK  status: ('A' for Active; 'I' for Inactive)
REMARK    1  A    between atoms: C_1  and  C_2 
REMARK    2  A    between atoms: C_5  and  C_12 
REMARK    3  A    between atoms: C_8  and  C_10 
REMARK    4  A    between atoms: C_12  and  C_13 
REMARK    5  A    between atoms: C_13  and  C_14 
REMARK    6  A    between atoms: C_15  and  C_16 
REMARK    7  A    between atoms: C_15  and  C_17 
ROOT
ATOM      1  C   LIG d   1       3.585  -0.755  -4.877  0.00  0.00    -0.031 C 
ATOM      2  H   LIG d   1       3.252  -1.763  -5.125  0.00  0.00     0.031 H 
ATOM      3  C   LIG d   1       5.107  -0.741  -4.720  0.00  0.00    -0.029 C 
ATOM      4  C   LIG d   1       5.505  -1.477  -3.474  0.00  0.00    -0.073 C 
ATOM      5  C   LIG d   1       4.693  -1.759  -2.507  0.00  0.00    -0.084 C 
ATOM      6  C   LIG d   1       3.236  -1.398  -2.501  0.00  0.00    -0.025 C 
ATOM      7  C   LIG d   1       2.956  -0.317  -3.548  0.00  0.00     0.021 C 
ATOM      8  H   LIG d   1       1.970  -0.201  -3.668  0.00  0.00     0.038 H 
ATOM      9  H   LIG d   1       5.563  -1.221  -5.586  0.00  0.00     0.031 H 
ATOM     10  H   LIG d   1       5.454   0.290  -4.657  0.00  0.00     0.031 H 
ATOM     11  H   LIG d   1       5.086  -2.287  -1.652  0.00  0.00     0.057 H 
ATOM     12  H   LIG d   1       2.960  -1.025  -1.515  0.00  0.00     0.031 H 
ATOM     13  H   LIG d   1       2.642  -2.283  -2.728  0.00  0.00     0.031 H 
ENDROOT
BRANCH   4  14
ATOM     14  C   LIG d   1       6.940  -1.916  -3.341  0.00  0.00    -0.028 C 
ATOM     15  H   LIG d   1       7.538  -1.091  -2.954  0.00  0.00     0.031 H 
ATOM     16  H   LIG d   1       7.000  -2.761  -2.656  0.00  0.00     0.031 H 
BRANCH  14  17
ATOM     17  C   LIG d   1       7.476  -2.333  -4.713  0.00  0.00    -0.031 C 
ATOM     18  H   LIG d   1       6.985  -1.744  -5.488  0.00  0.00     0.031 H 
ATOM     19  H   LIG d   1       8.552  -2.160  -4.752  0.00  0.00     0.031 H 
BRANCH  17  20
ATOM     20  C   LIG d   1       7.193  -3.796  -4.939  0.00  0.00    -0.085 C 
ATOM     21  C   LIG d   1       8.171  -4.667  -4.897  0.00  0.00    -0.080 C 
ATOM     22  H   LIG d   1       6.183  -4.127  -5.134  0.00  0.00     0.057 H 
BRANCH  21  23
ATOM     23  C   LIG d   1       9.595  -4.193  -4.757  0.00  0.00    -0.044 C 
ATOM     24  H   LIG d   1      10.126  -4.353  -5.694  0.00  0.00     0.027 H 
ATOM     25  H   LIG d   1       9.602  -3.130  -4.512  0.00  0.00     0.027 H 
ATOM     26  H   LIG d   1      10.087  -4.751  -3.960  0.00  0.00     0.027 H 
ENDBRANCH  21  23
BRANCH  21  27
ATOM     27  C   LIG d   1       7.873  -6.141  -4.991  0.00  0.00    -0.044 C 
ATOM     28  H   LIG d   1       7.505  -6.374  -5.990  0.00  0.00     0.027 H 
ATOM     29  H   LIG d   1       8.783  -6.709  -4.797  0.00  0.00     0.027 H 
ATOM     30  H   LIG d   1       7.116  -6.405  -4.253  0.00  0.00     0.027 H 
ENDBRANCH  21  27
ENDBRANCH  17  20
ENDBRANCH  14  17
ENDBRANCH   4  14
BRANCH   1  31
ATOM     31  C   LIG d   1       3.168   0.213  -5.987  0.00  0.00    -0.061 C 
ATOM     32  H   LIG d   1       2.429  -0.267  -6.628  0.00  0.00     0.023 H 
ATOM     33  H   LIG d   1       2.736   1.110  -5.543  0.00  0.00     0.023 H 
ATOM     34  H   LIG d   1       4.042   0.484  -6.579  0.00  0.00     0.023 H 
ENDBRANCH   1  31
BRANCH   7  35
ATOM     35  C   LIG d   1       3.566   0.988  -3.105  0.00  0.00     0.124 C 
ATOM     36  O   LIG d   1       3.385   1.388  -1.980  0.00  0.00    -0.301 OA
ATOM     37  H   LIG d   1       4.165   1.565  -3.794  0.00  0.00     0.103 H 
ENDBRANCH   7  35
TORSDOF 7
ENDMDL
MODEL 9
REMARK VINA RESULT:      -4.7      4.313      6.115
REMARK  7 active torsions:
REMARK  status: ('A' for Active; 'I' for Inactive)
REMARK    1  A    between atoms: C_1  and  C_2 
REMARK    2  A    between atoms: C_5  and  C_12 
REMARK    3  A    between atoms: C_8  and  C_10 
REMARK    4  A    between atoms: C_12  and  C_13 
REMARK    5  A    between atoms: C_13  and  C_14 
REMARK    6  A    between atoms: C_15  and  C_16 
REMARK    7  A    between atoms: C_15  and  C_17 
ROOT
ATOM      1  C   LIG d   1       5.084  -2.757  -7.198  0.00  0.00    -0.031 C 
ATOM      2  H   LIG d   1       6.019  -2.354  -7.590  0.00  0.00     0.031 H 
ATOM      3  C   LIG d   1       4.904  -2.311  -5.745  0.00  0.00    -0.029 C 
ATOM      4  C   LIG d   1       5.897  -3.009  -4.862  0.00  0.00    -0.073 C 
ATOM      5  C   LIG d   1       6.549  -4.073  -5.203  0.00  0.00    -0.084 C 
ATOM      6  C   LIG d   1       6.411  -4.753  -6.535  0.00  0.00    -0.025 C 
ATOM      7  C   LIG d   1       5.130  -4.290  -7.232  0.00  0.00     0.021 C 
ATOM      8  H   LIG d   1       5.123  -4.602  -8.182  0.00  0.00     0.038 H 
ATOM      9  H   LIG d   1       5.053  -1.234  -5.676  0.00  0.00     0.031 H 
ATOM     10  H   LIG d   1       3.894  -2.555  -5.416  0.00  0.00     0.031 H 
ATOM     11  H   LIG d   1       7.235  -4.499  -4.487  0.00  0.00     0.057 H 
ATOM     12  H   LIG d   1       6.371  -5.832  -6.387  0.00  0.00     0.031 H 
ATOM     13  H   LIG d   1       7.270  -4.507  -7.158  0.00  0.00     0.031 H 
ENDROOT
BRANCH   4  14
ATOM     14  C   LIG d   1       6.151  -2.435  -3.492  0.00  0.00    -0.028 C 
ATOM     15  H   LIG d   1       6.700  -3.159  -2.891  0.00  0.00     0.031 H 
ATOM     16  H   LIG d   1       6.736  -1.520  -3.585  0.00  0.00     0.031 H 
BRANCH  14  17
ATOM     17  C   LIG d   1       4.815  -2.118  -2.816  0.00  0.00    -0.031 C 
ATOM     18  H   LIG d   1       3.999  -2.338  -3.504  0.00  0.00     0.031 H 
ATOM     19  H   LIG d   1       4.708  -2.728  -1.918  0.00  0.00     0.031 H 
BRANCH  17  20
ATOM     20  C   LIG d   1       4.776  -0.659  -2.440  0.00  0.00    -0.085 C 
ATOM     21  C   LIG d   1       3.709   0.056  -2.700  0.00  0.00    -0.080 C 
ATOM     22  H   LIG d   1       5.627  -0.203  -1.956  0.00  0.00     0.057 H 
BRANCH  21  23
ATOM     23  C   LIG d   1       2.575  -0.544  -3.491  0.00  0.00    -0.044 C 
ATOM     24  H   LIG d   1       2.539  -0.088  -4.479  0.00  0.00     0.027 H 
ATOM     25  H   LIG d   1       2.731  -1.619  -3.592  0.00  0.00     0.027 H 
ATOM     26  H   LIG d   1       1.634  -0.362  -2.972  0.00  0.00     0.027 H 
ENDBRANCH  21  23
BRANCH  21  27
ATOM     27  C   LIG d   1       3.616   1.477  -2.208  0.00  0.00    -0.044 C 
ATOM     28  H   LIG d   1       4.343   2.093  -2.736  0.00  0.00     0.027 H 
ATOM     29  H   LIG d   1       2.612   1.860  -2.392  0.00  0.00     0.027 H 
ATOM     30  H   LIG d   1       3.825   1.505  -1.138  0.00  0.00     0.027 H 
ENDBRANCH  21  27
ENDBRANCH  17  20
ENDBRANCH  14  17
ENDBRANCH   4  14
BRANCH   1  31
ATOM     31  C   LIG d   1       3.912  -2.257  -8.044  0.00  0.00    -0.061 C 
ATOM     32  H   LIG d   1       4.292  -1.835  -8.974  0.00  0.00     0.023 H 
ATOM     33  H   LIG d   1       3.245  -3.090  -8.268  0.00  0.00     0.023 H 
ATOM     34  H   LIG d   1       3.367  -1.491  -7.492  0.00  0.00     0.023 H 
ENDBRANCH   1  31
BRANCH   7  35
ATOM     35  C   LIG d   1       3.930  -4.849  -6.511  0.00  0.00     0.124 C 
ATOM     36  O   LIG d   1       3.873  -6.027  -6.256  0.00  0.00    -0.301 OA
ATOM     37  H   LIG d   1       3.120  -4.193  -6.223  0.00  0.00     0.103 H 
ENDBRANCH   7  35
TORSDOF 7
ENDMDL
MODEL 10
REMARK VINA RESULT:      -4.7      1.765      2.387
REMARK  7 active torsions:
REMARK  status: ('A' for Active; 'I' for Inactive)
REMARK    1  A    between atoms: C_1  and  C_2 
REMARK    2  A    between atoms: C_5  and  C_12 
REMARK    3  A    between atoms: C_8  and  C_10 
REMARK    4  A    between atoms: C_12  and  C_13 
REMARK    5  A    between atoms: C_13  and  C_14 
REMARK    6  A    between atoms: C_15  and  C_16 
REMARK    7  A    between atoms: C_15  and  C_17 
ROOT
ATOM      1  C   LIG d   1       5.138  -1.560  -3.148  0.00  0.00    -0.031 C 
ATOM      2  H   LIG d   1       5.557  -1.775  -2.165  0.00  0.00     0.031 H 
ATOM      3  C   LIG d   1       6.117  -0.694  -3.944  0.00  0.00    -0.029 C 
ATOM      4  C   LIG d   1       6.176   0.688  -3.361  0.00  0.00    -0.073 C 
ATOM      5  C   LIG d   1       5.288   1.175  -2.556  0.00  0.00    -0.084 C 
ATOM      6  C   LIG d   1       4.078   0.422  -2.085  0.00  0.00    -0.025 C 
ATOM      7  C   LIG d   1       3.823  -0.785  -2.989  0.00  0.00     0.021 C 
ATOM      8  H   LIG d   1       3.132  -1.382  -2.581  0.00  0.00     0.038 H 
ATOM      9  H   LIG d   1       7.108  -1.144  -3.909  0.00  0.00     0.031 H 
ATOM     10  H   LIG d   1       5.785  -0.635  -4.980  0.00  0.00     0.031 H 
ATOM     11  H   LIG d   1       5.424   2.185  -2.201  0.00  0.00     0.057 H 
ATOM     12  H   LIG d   1       3.210   1.081  -2.109  0.00  0.00     0.031 H 
ATOM     13  H   LIG d   1       4.240   0.080  -1.063  0.00  0.00     0.031 H 
ENDROOT
BRANCH   4  14
ATOM     14  C   LIG d   1       7.344   1.564  -3.736  0.00  0.00    -0.028 C 
ATOM     15  H   LIG d   1       7.022   2.605  -3.768  0.00  0.00     0.031 H 
ATOM     16  H   LIG d   1       8.136   1.450  -2.997  0.00  0.00     0.031 H 
BRANCH  14  17
ATOM     17  C   LIG d   1       7.869   1.151  -5.113  0.00  0.00    -0.031 C 
ATOM     18  H   LIG d   1       7.392   0.220  -5.420  0.00  0.00     0.031 H 
ATOM     19  H   LIG d   1       7.640   1.932  -5.839  0.00  0.00     0.031 H 
BRANCH  17  20
ATOM     20  C   LIG d   1       9.361   0.952  -5.043  0.00  0.00    -0.085 C 
ATOM     21  C   LIG d   1       9.884  -0.203  -5.374  0.00  0.00    -0.080 C 
ATOM     22  H   LIG d   1       9.999   1.761  -4.721  0.00  0.00     0.057 H 
BRANCH  21  23
ATOM     23  C   LIG d   1       8.988  -1.371  -5.696  0.00  0.00    -0.044 C 
ATOM     24  H   LIG d   1       7.966  -1.018  -5.834  0.00  0.00     0.027 H 
ATOM     25  H   LIG d   1       9.333  -1.852  -6.612  0.00  0.00     0.027 H 
ATOM     26  H   LIG d   1       9.017  -2.089  -4.877  0.00  0.00     0.027 H 
ENDBRANCH  21  23
BRANCH  21  27
ATOM     27  C   LIG d   1      11.382  -0.363  -5.431  0.00  0.00    -0.044 C 
ATOM     28  H   LIG d   1      11.809  -0.134  -4.455  0.00  0.00     0.027 H 
ATOM     29  H   LIG d   1      11.627  -1.390  -5.703  0.00  0.00     0.027 H 
ATOM     30  H   LIG d   1      11.792   0.318  -6.176  0.00  0.00     0.027 H 
ENDBRANCH  21  27
ENDBRANCH  17  20
ENDBRANCH  14  17
ENDBRANCH   4  14
BRANCH   1  31
ATOM     31  C   LIG d   1       4.877  -2.869  -3.895  0.00  0.00    -0.061 C 
ATOM     32  H   LIG d   1       5.604  -2.978  -4.700  0.00  0.00     0.023 H 
ATOM     33  H   LIG d   1       4.974  -3.707  -3.204  0.00  0.00     0.023 H 
ATOM     34  H   LIG d   1       3.871  -2.855  -4.312  0.00  0.00     0.023 H 
ENDBRANCH   1  31
BRANCH   7  35
ATOM     35  C   LIG d   1       3.346  -0.315  -4.340  0.00  0.00     0.124 C 
ATOM     36  O   LIG d   1       2.365   0.383  -4.425  0.00  0.00    -0.301 OA
ATOM     37  H   LIG d   1       3.883  -0.603  -5.232  0.00  0.00     0.103 H 
ENDBRANCH   7  35
TORSDOF 7
ENDMDL
