MODEL 1
REMARK VINA RESULT:      -5.9      0.000      0.000
REMARK  9 active torsions:
REMARK  status: ('A' for Active; 'I' for Inactive)
REMARK    1  A    between atoms: C_1  and  C_2 
REMARK    2  A    between atoms: C_2  and  C_3 
REMARK    3  A    between atoms: C_3  and  C_4 
REMARK    4  A    between atoms: C_4  and  C_5 
REMARK    5  A    between atoms: C_5  and  O_7 
REMARK    6  A    between atoms: O_7  and  C_8 
REMARK    7  A    between atoms: C_15  and  C_19 
REMARK    8  A    between atoms: C_16  and  C_17 
REMARK    9  A    between atoms: C_16  and  C_18 
ROOT
ATOM      1  C   LIG d   1       3.958  -0.254  -4.983  0.00  0.00     0.109 C 
ATOM      2  H   LIG d   1       3.976   0.672  -5.555  0.00  0.00     0.074 H 
ATOM      3  C   LIG d   1       2.572  -0.457  -4.329  0.00  0.00    -0.012 C 
ATOM      4  C   LIG d   1       2.859  -0.479  -2.796  0.00  0.00    -0.032 C 
ATOM      5  H   LIG d   1       2.006  -0.274  -2.149  0.00  0.00     0.031 H 
ATOM      6  C   LIG d   1       3.588  -1.835  -2.555  0.00  0.00    -0.049 C 
ATOM      7  C   LIG d   1       4.977  -1.654  -3.210  0.00  0.00    -0.043 C 
ATOM      8  C   LIG d   1       4.951  -0.174  -3.785  0.00  0.00     0.010 C 
ATOM      9  C   LIG d   1       4.053   0.536  -2.711  0.00  0.00    -0.023 C 
ATOM     10  H   LIG d   1       1.908   0.371  -4.579  0.00  0.00     0.030 H 
ATOM     11  H   LIG d   1       2.135  -1.404  -4.647  0.00  0.00     0.030 H 
ATOM     12  H   LIG d   1       3.694  -2.025  -1.487  0.00  0.00     0.027 H 
ATOM     13  H   LIG d   1       3.044  -2.649  -3.032  0.00  0.00     0.027 H 
ATOM     14  H   LIG d   1       5.765  -1.755  -2.464  0.00  0.00     0.027 H 
ATOM     15  H   LIG d   1       5.116  -2.379  -4.012  0.00  0.00     0.027 H 
ENDROOT
BRANCH   1  16
ATOM     16  O   LIG d   1       4.283  -1.384  -5.836  0.00  0.00    -0.461 OA
BRANCH  16  17
ATOM     17  C   LIG d   1       4.137  -1.212  -7.159  0.00  0.00     0.307 C 
ATOM     18  O   LIG d   1       3.912  -2.163  -7.870  0.00  0.00    -0.251 OA
BRANCH  17  19
ATOM     19  C   LIG d   1       4.255   0.165  -7.757  0.00  0.00     0.045 C 
ATOM     20  H   LIG d   1       4.514   0.881  -6.975  0.00  0.00     0.038 H 
ATOM     21  H   LIG d   1       5.032   0.166  -8.522  0.00  0.00     0.038 H 
BRANCH  19  22
ATOM     22  C   LIG d   1       2.919   0.563  -8.389  0.00  0.00    -0.043 C 
ATOM     23  H   LIG d   1       2.846   0.131  -9.387  0.00  0.00     0.027 H 
ATOM     24  H   LIG d   1       2.100   0.192  -7.771  0.00  0.00     0.027 H 
BRANCH  22  25
ATOM     25  C   LIG d   1       2.833   2.087  -8.485  0.00  0.00    -0.055 C 
ATOM     26  H   LIG d   1       1.896   2.370  -8.964  0.00  0.00     0.026 H 
ATOM     27  H   LIG d   1       2.874   2.518  -7.484  0.00  0.00     0.026 H 
BRANCH  25  28
ATOM     28  C   LIG d   1       4.008   2.613  -9.313  0.00  0.00    -0.065 C 
ATOM     29  H   LIG d   1       4.932   2.151  -8.967  0.00  0.00     0.023 H 
ATOM     30  H   LIG d   1       3.851   2.369 -10.364  0.00  0.00     0.023 H 
ATOM     31  H   LIG d   1       4.078   3.694  -9.198  0.00  0.00     0.023 H 
ENDBRANCH  25  28
ENDBRANCH  22  25
ENDBRANCH  19  22
ENDBRANCH  17  19
ENDBRANCH  16  17
ENDBRANCH   1  16
BRANCH   8  32
ATOM     32  C   LIG d   1       6.309   0.467  -4.083  0.00  0.00    -0.056 C 
ATOM     33  H   LIG d   1       6.666   0.125  -5.054  0.00  0.00     0.024 H 
ATOM     34  H   LIG d   1       6.204   1.552  -4.095  0.00  0.00     0.024 H 
ATOM     35  H   LIG d   1       7.023   0.179  -3.311  0.00  0.00     0.024 H 
ENDBRANCH   8  32
BRANCH   9  36
ATOM     36  C   LIG d   1       3.642   1.944  -3.146  0.00  0.00    -0.059 C 
ATOM     37  H   LIG d   1       4.299   2.282  -3.948  0.00  0.00     0.024 H 
ATOM     38  H   LIG d   1       2.612   1.928  -3.502  0.00  0.00     0.024 H 
ATOM     39  H   LIG d   1       3.723   2.625  -2.299  0.00  0.00     0.024 H 
ENDBRANCH   9  36
BRANCH   9  40
ATOM     40  C   LIG d   1       4.706   0.539  -1.327  0.00  0.00    -0.059 C 
ATOM     41  H   LIG d   1       4.133  -0.099  -0.654  0.00  0.00     0.024 H 
ATOM     42  H   LIG d   1       5.725   0.161  -1.405  0.00  0.00     0.024 H 
ATOM     43  H   LIG d   1       4.724   1.556  -0.936  0.00  0.00     0.024 H 
ENDBRANCH   9  40
TORSDOF 9
ENDMDL
MODEL 2
REMARK VINA RESULT:      -5.8      1.563      5.979
REMARK  9 active torsions:
REMARK  status: ('A' for Active; 'I' for Inactive)
REMARK    1  A    between atoms: C_1  and  C_2 
REMARK    2  A    between atoms: C_2  and  C_3 
REMARK    3  A    between atoms: C_3  and  C_4 
REMARK    4  A    between atoms: C_4  and  C_5 
REMARK    5  A    between atoms: C_5  and  O_7 
REMARK    6  A    between atoms: O_7  and  C_8 
REMARK    7  A    between atoms: C_15  and  C_19 
REMARK    8  A    between atoms: C_16  and  C_17 
REMARK    9  A    between atoms: C_16  and  C_18 
ROOT
ATOM      1  C   LIG d   1       3.357   0.361  -7.656  0.00  0.00     0.109 C 
ATOM      2  H   LIG d   1       2.596  -0.401  -7.497  0.00  0.00     0.074 H 
ATOM      3  C   LIG d   1       2.700   1.711  -8.024  0.00  0.00    -0.012 C 
ATOM      4  C   LIG d   1       3.246   2.040  -9.448  0.00  0.00    -0.032 C 
ATOM      5  H   LIG d   1       2.665   2.757 -10.027  0.00  0.00     0.031 H 
ATOM      6  C   LIG d   1       4.744   2.403  -9.217  0.00  0.00    -0.049 C 
ATOM      7  C   LIG d   1       5.418   1.064  -8.840  0.00  0.00    -0.043 C 
ATOM      8  C   LIG d   1       4.238   0.002  -8.891  0.00  0.00     0.010 C 
ATOM      9  C   LIG d   1       3.366   0.595 -10.053  0.00  0.00    -0.023 C 
ATOM     10  H   LIG d   1       1.615   1.612  -8.048  0.00  0.00     0.030 H 
ATOM     11  H   LIG d   1       2.997   2.485  -7.316  0.00  0.00     0.030 H 
ATOM     12  H   LIG d   1       5.183   2.804 -10.131  0.00  0.00     0.027 H 
ATOM     13  H   LIG d   1       4.840   3.121  -8.404  0.00  0.00     0.027 H 
ATOM     14  H   LIG d   1       6.187   0.807  -9.568  0.00  0.00     0.027 H 
ATOM     15  H   LIG d   1       5.845   1.122  -7.839  0.00  0.00     0.027 H 
ENDROOT
BRANCH   1  16
ATOM     16  O   LIG d   1       4.183   0.508  -6.470  0.00  0.00    -0.461 OA
BRANCH  16  17
ATOM     17  C   LIG d   1       3.836  -0.212  -5.392  0.00  0.00     0.307 C 
ATOM     18  O   LIG d   1       4.508  -1.158  -5.056  0.00  0.00    -0.251 OA
BRANCH  17  19
ATOM     19  C   LIG d   1       2.609   0.160  -4.601  0.00  0.00     0.045 C 
ATOM     20  H   LIG d   1       2.375   1.212  -4.766  0.00  0.00     0.038 H 
ATOM     21  H   LIG d   1       1.768  -0.454  -4.924  0.00  0.00     0.038 H 
BRANCH  19  22
ATOM     22  C   LIG d   1       2.870  -0.077  -3.112  0.00  0.00    -0.043 C 
ATOM     23  H   LIG d   1       1.927  -0.279  -2.605  0.00  0.00     0.027 H 
ATOM     24  H   LIG d   1       3.537  -0.932  -2.993  0.00  0.00     0.027 H 
BRANCH  22  25
ATOM     25  C   LIG d   1       3.521   1.166  -2.504  0.00  0.00    -0.055 C 
ATOM     26  H   LIG d   1       3.865   1.824  -3.302  0.00  0.00     0.026 H 
ATOM     27  H   LIG d   1       2.792   1.693  -1.888  0.00  0.00     0.026 H 
BRANCH  25  28
ATOM     28  C   LIG d   1       4.711   0.747  -1.639  0.00  0.00    -0.065 C 
ATOM     29  H   LIG d   1       5.002  -0.272  -1.889  0.00  0.00     0.023 H 
ATOM     30  H   LIG d   1       5.550   1.419  -1.824  0.00  0.00     0.023 H 
ATOM     31  H   LIG d   1       4.431   0.797  -0.587  0.00  0.00     0.023 H 
ENDBRANCH  25  28
ENDBRANCH  22  25
ENDBRANCH  19  22
ENDBRANCH  17  19
ENDBRANCH  16  17
ENDBRANCH   1  16
BRANCH   8  32
ATOM     32  C   LIG d   1       4.647  -1.468  -9.016  0.00  0.00    -0.056 C 
ATOM     33  H   LIG d   1       4.490  -1.972  -8.062  0.00  0.00     0.024 H 
ATOM     34  H   LIG d   1       4.043  -1.949  -9.785  0.00  0.00     0.024 H 
ATOM     35  H   LIG d   1       5.701  -1.530  -9.289  0.00  0.00     0.024 H 
ENDBRANCH   8  32
BRANCH   9  36
ATOM     36  C   LIG d   1       2.006  -0.096 -10.160  0.00  0.00    -0.059 C 
ATOM     37  H   LIG d   1       2.132  -1.076 -10.622  0.00  0.00     0.024 H 
ATOM     38  H   LIG d   1       1.579  -0.217  -9.164  0.00  0.00     0.024 H 
ATOM     39  H   LIG d   1       1.337   0.510 -10.771  0.00  0.00     0.024 H 
ENDBRANCH   9  36
BRANCH   9  40
ATOM     40  C   LIG d   1       4.111   0.593 -11.389  0.00  0.00    -0.059 C 
ATOM     41  H   LIG d   1       3.392   0.652 -12.206  0.00  0.00     0.024 H 
ATOM     42  H   LIG d   1       4.781   1.450 -11.433  0.00  0.00     0.024 H 
ATOM     43  H   LIG d   1       4.690  -0.326 -11.480  0.00  0.00     0.024 H 
ENDBRANCH   9  40
TORSDOF 9
ENDMDL
MODEL 3
REMARK VINA RESULT:      -5.5      1.740      6.060
REMARK  9 active torsions:
REMARK  status: ('A' for Active; 'I' for Inactive)
REMARK    1  A    between atoms: C_1  and  C_2 
REMARK    2  A    between atoms: C_2  and  C_3 
REMARK    3  A    between atoms: C_3  and  C_4 
REMARK    4  A    between atoms: C_4  and  C_5 
REMARK    5  A    between atoms: C_5  and  O_7 
REMARK    6  A    between atoms: O_7  and  C_8 
REMARK    7  A    between atoms: C_15  and  C_19 
REMARK    8  A    between atoms: C_16  and  C_17 
REMARK    9  A    between atoms: C_16  and  C_18 
ROOT
ATOM      1  C   LIG d   1       3.823   0.201  -7.509  0.00  0.00     0.109 C 
ATOM      2  H   LIG d   1       4.593   0.816  -7.046  0.00  0.00     0.074 H 
ATOM      3  C   LIG d   1       4.422  -1.141  -7.991  0.00  0.00    -0.012 C 
ATOM      4  C   LIG d   1       4.192  -1.143  -9.534  0.00  0.00    -0.032 C 
ATOM      5  H   LIG d   1       4.824  -1.820 -10.109  0.00  0.00     0.031 H 
ATOM      6  C   LIG d   1       2.655  -1.338  -9.700  0.00  0.00    -0.049 C 
ATOM      7  C   LIG d   1       2.037  -0.006  -9.214  0.00  0.00    -0.043 C 
ATOM      8  C   LIG d   1       3.288   0.882  -8.805  0.00  0.00     0.010 C 
ATOM      9  C   LIG d   1       4.348   0.387  -9.852  0.00  0.00    -0.023 C 
ATOM     10  H   LIG d   1       5.487  -1.185  -7.766  0.00  0.00     0.030 H 
ATOM     11  H   LIG d   1       3.899  -1.979  -7.529  0.00  0.00     0.030 H 
ATOM     12  H   LIG d   1       2.405  -1.513 -10.746  0.00  0.00     0.027 H 
ATOM     13  H   LIG d   1       2.308  -2.167  -9.083  0.00  0.00     0.027 H 
ATOM     14  H   LIG d   1       1.484   0.472 -10.022  0.00  0.00     0.027 H 
ATOM     15  H   LIG d   1       1.387  -0.180  -8.357  0.00  0.00     0.027 H 
ENDROOT
BRANCH   1  16
ATOM     16  O   LIG d   1       2.735  -0.038  -6.576  0.00  0.00    -0.461 OA
BRANCH  16  17
ATOM     17  C   LIG d   1       2.960   0.264  -5.288  0.00  0.00     0.307 C 
ATOM     18  O   LIG d   1       2.626   1.341  -4.854  0.00  0.00    -0.251 OA
BRANCH  17  19
ATOM     19  C   LIG d   1       3.627  -0.740  -4.384  0.00  0.00     0.045 C 
ATOM     20  H   LIG d   1       3.453  -1.746  -4.768  0.00  0.00     0.038 H 
ATOM     21  H   LIG d   1       4.699  -0.544  -4.351  0.00  0.00     0.038 H 
BRANCH  19  22
ATOM     22  C   LIG d   1       3.043  -0.624  -2.975  0.00  0.00    -0.043 C 
ATOM     23  H   LIG d   1       2.446   0.285  -2.902  0.00  0.00     0.027 H 
ATOM     24  H   LIG d   1       2.413  -1.491  -2.770  0.00  0.00     0.027 H 
BRANCH  22  25
ATOM     25  C   LIG d   1       4.181  -0.569  -1.954  0.00  0.00    -0.055 C 
ATOM     26  H   LIG d   1       3.857  -1.031  -1.022  0.00  0.00     0.026 H 
ATOM     27  H   LIG d   1       5.046  -1.108  -2.344  0.00  0.00     0.026 H 
BRANCH  25  28
ATOM     28  C   LIG d   1       4.565   0.889  -1.695  0.00  0.00    -0.065 C 
ATOM     29  H   LIG d   1       5.634   0.954  -1.497  0.00  0.00     0.023 H 
ATOM     30  H   LIG d   1       4.320   1.491  -2.570  0.00  0.00     0.023 H 
ATOM     31  H   LIG d   1       4.013   1.262  -0.832  0.00  0.00     0.023 H 
ENDBRANCH  25  28
ENDBRANCH  22  25
ENDBRANCH  19  22
ENDBRANCH  17  19
ENDBRANCH  16  17
ENDBRANCH   1  16
BRANCH   8  32
ATOM     32  C   LIG d   1       3.055   2.392  -8.720  0.00  0.00    -0.056 C 
ATOM     33  H   LIG d   1       3.785   2.835  -8.042  0.00  0.00     0.024 H 
ATOM     34  H   LIG d   1       3.164   2.834  -9.710  0.00  0.00     0.024 H 
ATOM     35  H   LIG d   1       2.049   2.584  -8.344  0.00  0.00     0.024 H 
ENDBRANCH   8  32
BRANCH   9  36
ATOM     36  C   LIG d   1       5.753   0.900  -9.532  0.00  0.00    -0.059 C 
ATOM     37  H   LIG d   1       6.270   1.143 -10.460  0.00  0.00     0.024 H 
ATOM     38  H   LIG d   1       5.682   1.792  -8.911  0.00  0.00     0.024 H 
ATOM     39  H   LIG d   1       6.308   0.129  -8.998  0.00  0.00     0.024 H 
ENDBRANCH   9  36
BRANCH   9  40
ATOM     40  C   LIG d   1       3.935   0.719 -11.287  0.00  0.00    -0.059 C 
ATOM     41  H   LIG d   1       3.672  -0.200 -11.812  0.00  0.00     0.024 H 
ATOM     42  H   LIG d   1       3.076   1.388 -11.273  0.00  0.00     0.024 H 
ATOM     43  H   LIG d   1       4.765   1.205 -11.800  0.00  0.00     0.024 H 
ENDBRANCH   9  40
TORSDOF 9
ENDMDL
MODEL 4
REMARK VINA RESULT:      -5.3      0.983      2.185
REMARK  9 active torsions:
REMARK  status: ('A' for Active; 'I' for Inactive)
REMARK    1  A    between atoms: C_1  and  C_2 
REMARK    2  A    between atoms: C_2  and  C_3 
REMARK    3  A    between atoms: C_3  and  C_4 
REMARK    4  A    between atoms: C_4  and  C_5 
REMARK    5  A    between atoms: C_5  and  O_7 
REMARK    6  A    between atoms: O_7  and  C_8 
REMARK    7  A    between atoms: C_15  and  C_19 
REMARK    8  A    between atoms: C_16  and  C_17 
REMARK    9  A    between atoms: C_16  and  C_18 
ROOT
ATOM      1  C   LIG d   1       4.451  -1.535  -5.038  0.00  0.00     0.109 C 
ATOM      2  H   LIG d   1       3.543  -2.132  -5.113  0.00  0.00     0.074 H 
ATOM      3  C   LIG d   1       5.594  -2.367  -4.412  0.00  0.00    -0.012 C 
ATOM      4  C   LIG d   1       5.966  -1.604  -3.104  0.00  0.00    -0.032 C 
ATOM      5  H   LIG d   1       6.501  -2.183  -2.351  0.00  0.00     0.031 H 
ATOM      6  C   LIG d   1       6.675  -0.306  -3.597  0.00  0.00    -0.049 C 
ATOM      7  C   LIG d   1       5.546   0.538  -4.234  0.00  0.00    -0.043 C 
ATOM      8  C   LIG d   1       4.241  -0.348  -4.049  0.00  0.00     0.010 C 
ATOM      9  C   LIG d   1       4.559  -1.050  -2.682  0.00  0.00    -0.023 C 
ATOM     10  H   LIG d   1       5.248  -3.374  -4.179  0.00  0.00     0.030 H 
ATOM     11  H   LIG d   1       6.450  -2.404  -5.086  0.00  0.00     0.030 H 
ATOM     12  H   LIG d   1       7.119   0.227  -2.757  0.00  0.00     0.027 H 
ATOM     13  H   LIG d   1       7.436  -0.547  -4.339  0.00  0.00     0.027 H 
ATOM     14  H   LIG d   1       5.436   1.485  -3.706  0.00  0.00     0.027 H 
ATOM     15  H   LIG d   1       5.751   0.711  -5.290  0.00  0.00     0.027 H 
ENDROOT
BRANCH   1  16
ATOM     16  O   LIG d   1       4.843  -1.041  -6.346  0.00  0.00    -0.461 OA
BRANCH  16  17
ATOM     17  C   LIG d   1       3.974  -1.225  -7.353  0.00  0.00     0.307 C 
ATOM     18  O   LIG d   1       4.085  -2.186  -8.077  0.00  0.00    -0.251 OA
BRANCH  17  19
ATOM     19  C   LIG d   1       2.864  -0.233  -7.581  0.00  0.00     0.045 C 
ATOM     20  H   LIG d   1       1.908  -0.757  -7.606  0.00  0.00     0.038 H 
ATOM     21  H   LIG d   1       2.856   0.497  -6.771  0.00  0.00     0.038 H 
BRANCH  19  22
ATOM     22  C   LIG d   1       3.087   0.486  -8.913  0.00  0.00    -0.043 C 
ATOM     23  H   LIG d   1       4.108   0.313  -9.252  0.00  0.00     0.027 H 
ATOM     24  H   LIG d   1       2.387   0.100  -9.655  0.00  0.00     0.027 H 
BRANCH  22  25
ATOM     25  C   LIG d   1       2.857   1.987  -8.727  0.00  0.00    -0.055 C 
ATOM     26  H   LIG d   1       1.964   2.288  -9.274  0.00  0.00     0.026 H 
ATOM     27  H   LIG d   1       2.725   2.206  -7.668  0.00  0.00     0.026 H 
BRANCH  25  28
ATOM     28  C   LIG d   1       4.066   2.758  -9.260  0.00  0.00    -0.065 C 
ATOM     29  H   LIG d   1       4.913   2.614  -8.590  0.00  0.00     0.023 H 
ATOM     30  H   LIG d   1       4.324   2.390 -10.254  0.00  0.00     0.023 H 
ATOM     31  H   LIG d   1       3.824   3.819  -9.317  0.00  0.00     0.023 H 
ENDBRANCH  25  28
ENDBRANCH  22  25
ENDBRANCH  19  22
ENDBRANCH  17  19
ENDBRANCH  16  17
ENDBRANCH   1  16
BRANCH   8  32
ATOM     32  C   LIG d   1       2.899   0.381  -4.155  0.00  0.00    -0.056 C 
ATOM     33  H   LIG d   1       2.598   0.438  -5.201  0.00  0.00     0.024 H 
ATOM     34  H   LIG d   1       2.144  -0.162  -3.588  0.00  0.00     0.024 H 
ATOM     35  H   LIG d   1       3.001   1.389  -3.752  0.00  0.00     0.024 H 
ENDBRANCH   8  32
BRANCH   9  36
ATOM     36  C   LIG d   1       3.570  -2.173  -2.369  0.00  0.00    -0.059 C 
ATOM     37  H   LIG d   1       4.117  -3.057  -2.041  0.00  0.00     0.024 H 
ATOM     38  H   LIG d   1       2.892  -1.851  -1.579  0.00  0.00     0.024 H 
ATOM     39  H   LIG d   1       2.996  -2.412  -3.264  0.00  0.00     0.024 H 
ENDBRANCH   9  36
BRANCH   9  40
ATOM     40  C   LIG d   1       4.660  -0.046  -1.532  0.00  0.00    -0.059 C 
ATOM     41  H   LIG d   1       5.098  -0.534  -0.661  0.00  0.00     0.024 H 
ATOM     42  H   LIG d   1       5.289   0.791  -1.833  0.00  0.00     0.024 H 
ATOM     43  H   LIG d   1       3.665   0.319  -1.280  0.00  0.00     0.024 H 
ENDBRANCH   9  40
TORSDOF 9
ENDMDL
MODEL 5
REMARK VINA RESULT:      -5.3      1.596      2.272
REMARK  9 active torsions:
REMARK  status: ('A' for Active; 'I' for Inactive)
REMARK    1  A    between atoms: C_1  and  C_2 
REMARK    2  A    between atoms: C_2  and  C_3 
REMARK    3  A    between atoms: C_3  and  C_4 
REMARK    4  A    between atoms: C_4  and  C_5 
REMARK    5  A    between atoms: C_5  and  O_7 
REMARK    6  A    between atoms: O_7  and  C_8 
REMARK    7  A    between atoms: C_15  and  C_19 
REMARK    8  A    between atoms: C_16  and  C_17 
REMARK    9  A    between atoms: C_16  and  C_18 
ROOT
ATOM      1  C   LIG d   1       4.084   0.181  -4.267  0.00  0.00     0.109 C 
ATOM      2  H   LIG d   1       4.472   1.164  -4.532  0.00  0.00     0.074 H 
ATOM      3  C   LIG d   1       3.828   0.095  -2.745  0.00  0.00    -0.012 C 
ATOM      4  C   LIG d   1       4.765  -1.050  -2.251  0.00  0.00    -0.032 C 
ATOM      5  H   LIG d   1       4.994  -1.053  -1.186  0.00  0.00     0.031 H 
ATOM      6  C   LIG d   1       4.119  -2.352  -2.814  0.00  0.00    -0.049 C 
ATOM      7  C   LIG d   1       4.359  -2.281  -4.340  0.00  0.00    -0.043 C 
ATOM      8  C   LIG d   1       5.151  -0.920  -4.550  0.00  0.00     0.010 C 
ATOM      9  C   LIG d   1       5.985  -0.864  -3.222  0.00  0.00    -0.023 C 
ATOM     10  H   LIG d   1       4.091   1.036  -2.261  0.00  0.00     0.030 H 
ATOM     11  H   LIG d   1       2.786  -0.156  -2.548  0.00  0.00     0.030 H 
ATOM     12  H   LIG d   1       4.608  -3.231  -2.394  0.00  0.00     0.027 H 
ATOM     13  H   LIG d   1       3.052  -2.372  -2.596  0.00  0.00     0.027 H 
ATOM     14  H   LIG d   1       4.966  -3.124  -4.669  0.00  0.00     0.027 H 
ATOM     15  H   LIG d   1       3.409  -2.264  -4.873  0.00  0.00     0.027 H 
ENDROOT
BRANCH   1  16
ATOM     16  O   LIG d   1       2.862  -0.097  -5.001  0.00  0.00    -0.461 OA
BRANCH  16  17
ATOM     17  C   LIG d   1       2.660   0.596  -6.133  0.00  0.00     0.307 C 
ATOM     18  O   LIG d   1       2.484   1.791  -6.085  0.00  0.00    -0.251 OA
BRANCH  17  19
ATOM     19  C   LIG d   1       2.651  -0.115  -7.460  0.00  0.00     0.045 C 
ATOM     20  H   LIG d   1       3.519  -0.772  -7.527  0.00  0.00     0.038 H 
ATOM     21  H   LIG d   1       1.740  -0.707  -7.551  0.00  0.00     0.038 H 
BRANCH  19  22
ATOM     22  C   LIG d   1       2.703   0.914  -8.591  0.00  0.00    -0.043 C 
ATOM     23  H   LIG d   1       2.209   0.510  -9.474  0.00  0.00     0.027 H 
ATOM     24  H   LIG d   1       2.196   1.827  -8.275  0.00  0.00     0.027 H 
BRANCH  22  25
ATOM     25  C   LIG d   1       4.162   1.232  -8.924  0.00  0.00    -0.055 C 
ATOM     26  H   LIG d   1       4.788   1.017  -8.059  0.00  0.00     0.026 H 
ATOM     27  H   LIG d   1       4.484   0.620  -9.767  0.00  0.00     0.026 H 
BRANCH  25  28
ATOM     28  C   LIG d   1       4.291   2.712  -9.291  0.00  0.00    -0.065 C 
ATOM     29  H   LIG d   1       3.298   3.142  -9.421  0.00  0.00     0.023 H 
ATOM     30  H   LIG d   1       4.814   3.241  -8.494  0.00  0.00     0.023 H 
ATOM     31  H   LIG d   1       4.853   2.809 -10.220  0.00  0.00     0.023 H 
ENDBRANCH  25  28
ENDBRANCH  22  25
ENDBRANCH  19  22
ENDBRANCH  17  19
ENDBRANCH  16  17
ENDBRANCH   1  16
BRANCH   8  32
ATOM     32  C   LIG d   1       5.928  -0.777  -5.861  0.00  0.00    -0.056 C 
ATOM     33  H   LIG d   1       5.303  -0.279  -6.602  0.00  0.00     0.024 H 
ATOM     34  H   LIG d   1       6.828  -0.187  -5.687  0.00  0.00     0.024 H 
ATOM     35  H   LIG d   1       6.207  -1.766  -6.227  0.00  0.00     0.024 H 
ENDBRANCH   8  32
BRANCH   9  36
ATOM     36  C   LIG d   1       6.669   0.491  -3.031  0.00  0.00    -0.059 C 
ATOM     37  H   LIG d   1       7.674   0.338  -2.635  0.00  0.00     0.024 H 
ATOM     38  H   LIG d   1       6.731   1.005  -3.989  0.00  0.00     0.024 H 
ATOM     39  H   LIG d   1       6.091   1.094  -2.331  0.00  0.00     0.024 H 
ENDBRANCH   9  36
BRANCH   9  40
ATOM     40  C   LIG d   1       6.981  -2.021  -3.120  0.00  0.00    -0.059 C 
ATOM     41  H   LIG d   1       7.890  -1.676  -2.628  0.00  0.00     0.024 H 
ATOM     42  H   LIG d   1       6.539  -2.831  -2.541  0.00  0.00     0.024 H 
ATOM     43  H   LIG d   1       7.224  -2.380  -4.120  0.00  0.00     0.024 H 
ENDBRANCH   9  40
TORSDOF 9
ENDMDL
MODEL 6
REMARK VINA RESULT:      -4.9      2.302      3.978
REMARK  9 active torsions:
REMARK  status: ('A' for Active; 'I' for Inactive)
REMARK    1  A    between atoms: C_1  and  C_2 
REMARK    2  A    between atoms: C_2  and  C_3 
REMARK    3  A    between atoms: C_3  and  C_4 
REMARK    4  A    between atoms: C_4  and  C_5 
REMARK    5  A    between atoms: C_5  and  O_7 
REMARK    6  A    between atoms: O_7  and  C_8 
REMARK    7  A    between atoms: C_15  and  C_19 
REMARK    8  A    between atoms: C_16  and  C_17 
REMARK    9  A    between atoms: C_16  and  C_18 
ROOT
ATOM      1  C   LIG d   1       4.718  -1.548  -4.639  0.00  0.00     0.109 C 
ATOM      2  H   LIG d   1       5.698  -1.493  -5.110  0.00  0.00     0.074 H 
ATOM      3  C   LIG d   1       3.796  -0.430  -5.178  0.00  0.00    -0.012 C 
ATOM      4  C   LIG d   1       3.440   0.427  -3.924  0.00  0.00    -0.032 C 
ATOM      5  H   LIG d   1       3.087   1.438  -4.123  0.00  0.00     0.031 H 
ATOM      6  C   LIG d   1       2.483  -0.479  -3.092  0.00  0.00    -0.049 C 
ATOM      7  C   LIG d   1       3.388  -1.609  -2.549  0.00  0.00    -0.043 C 
ATOM      8  C   LIG d   1       4.832  -1.261  -3.111  0.00  0.00     0.010 C 
ATOM      9  C   LIG d   1       4.774   0.307  -3.104  0.00  0.00    -0.023 C 
ATOM     10  H   LIG d   1       4.323   0.175  -5.915  0.00  0.00     0.030 H 
ATOM     11  H   LIG d   1       2.893  -0.859  -5.613  0.00  0.00     0.030 H 
ATOM     12  H   LIG d   1       2.046   0.087  -2.268  0.00  0.00     0.027 H 
ATOM     13  H   LIG d   1       1.699  -0.889  -3.727  0.00  0.00     0.027 H 
ATOM     14  H   LIG d   1       3.395  -1.599  -1.459  0.00  0.00     0.027 H 
ATOM     15  H   LIG d   1       3.049  -2.577  -2.918  0.00  0.00     0.027 H 
ENDROOT
BRANCH   1  16
ATOM     16  O   LIG d   1       4.118  -2.851  -4.866  0.00  0.00    -0.461 OA
BRANCH  16  17
ATOM     17  C   LIG d   1       4.935  -3.836  -5.272  0.00  0.00     0.307 C 
ATOM     18  O   LIG d   1       4.566  -4.985  -5.222  0.00  0.00    -0.251 OA
BRANCH  17  19
ATOM     19  C   LIG d   1       6.311  -3.508  -5.790  0.00  0.00     0.045 C 
ATOM     20  H   LIG d   1       6.388  -3.811  -6.835  0.00  0.00     0.038 H 
ATOM     21  H   LIG d   1       6.485  -2.435  -5.709  0.00  0.00     0.038 H 
BRANCH  19  22
ATOM     22  C   LIG d   1       7.358  -4.257  -4.964  0.00  0.00    -0.043 C 
ATOM     23  H   LIG d   1       6.920  -4.566  -4.015  0.00  0.00     0.027 H 
ATOM     24  H   LIG d   1       7.692  -5.138  -5.514  0.00  0.00     0.027 H 
BRANCH  22  25
ATOM     25  C   LIG d   1       8.552  -3.339  -4.700  0.00  0.00    -0.055 C 
ATOM     26  H   LIG d   1       8.673  -3.198  -3.626  0.00  0.00     0.026 H 
ATOM     27  H   LIG d   1       9.456  -3.790  -5.111  0.00  0.00     0.026 H 
BRANCH  25  28
ATOM     28  C   LIG d   1       8.311  -1.983  -5.368  0.00  0.00    -0.065 C 
ATOM     29  H   LIG d   1       9.037  -1.838  -6.167  0.00  0.00     0.023 H 
ATOM     30  H   LIG d   1       7.303  -1.956  -5.783  0.00  0.00     0.023 H 
ATOM     31  H   LIG d   1       8.421  -1.190  -4.629  0.00  0.00     0.023 H 
ENDBRANCH  25  28
ENDBRANCH  22  25
ENDBRANCH  19  22
ENDBRANCH  17  19
ENDBRANCH  16  17
ENDBRANCH   1  16
BRANCH   8  32
ATOM     32  C   LIG d   1       6.018  -1.911  -2.395  0.00  0.00    -0.056 C 
ATOM     33  H   LIG d   1       6.083  -1.528  -1.377  0.00  0.00     0.024 H 
ATOM     34  H   LIG d   1       5.880  -2.992  -2.369  0.00  0.00     0.024 H 
ATOM     35  H   LIG d   1       6.939  -1.676  -2.930  0.00  0.00     0.024 H 
ENDBRANCH   8  32
BRANCH   9  36
ATOM     36  C   LIG d   1       5.960   0.928  -3.844  0.00  0.00    -0.059 C 
ATOM     37  H   LIG d   1       5.619   1.790  -4.418  0.00  0.00     0.024 H 
ATOM     38  H   LIG d   1       6.711   1.248  -3.122  0.00  0.00     0.024 H 
ATOM     39  H   LIG d   1       6.394   0.191  -4.518  0.00  0.00     0.024 H 
ENDBRANCH   9  36
BRANCH   9  40
ATOM     40  C   LIG d   1       4.629   0.870  -1.689  0.00  0.00    -0.059 C 
ATOM     41  H   LIG d   1       5.610   1.158  -1.311  0.00  0.00     0.024 H 
ATOM     42  H   LIG d   1       3.978   1.744  -1.710  0.00  0.00     0.024 H 
ATOM     43  H   LIG d   1       4.198   0.111  -1.038  0.00  0.00     0.024 H 
ENDBRANCH   9  40
TORSDOF 9
ENDMDL
MODEL 7
REMARK VINA RESULT:      -4.8      1.706      2.615
REMARK  9 active torsions:
REMARK  status: ('A' for Active; 'I' for Inactive)
REMARK    1  A    between atoms: C_1  and  C_2 
REMARK    2  A    between atoms: C_2  and  C_3 
REMARK    3  A    between atoms: C_3  and  C_4 
REMARK    4  A    between atoms: C_4  and  C_5 
REMARK    5  A    between atoms: C_5  and  O_7 
REMARK    6  A    between atoms: O_7  and  C_8 
REMARK    7  A    between atoms: C_15  and  C_19 
REMARK    8  A    between atoms: C_16  and  C_17 
REMARK    9  A    between atoms: C_16  and  C_18 
ROOT
ATOM      1  C   LIG d   1       3.926  -0.132  -4.962  0.00  0.00     0.109 C 
ATOM      2  H   LIG d   1       3.938   0.824  -5.482  0.00  0.00     0.074 H 
ATOM      3  C   LIG d   1       2.543  -0.377  -4.315  0.00  0.00    -0.012 C 
ATOM      4  C   LIG d   1       2.834  -0.481  -2.787  0.00  0.00    -0.032 C 
ATOM      5  H   LIG d   1       1.983  -0.316  -2.127  0.00  0.00     0.031 H 
ATOM      6  C   LIG d   1       3.571  -1.844  -2.622  0.00  0.00    -0.049 C 
ATOM      7  C   LIG d   1       4.957  -1.621  -3.270  0.00  0.00    -0.043 C 
ATOM      8  C   LIG d   1       4.922  -0.111  -3.763  0.00  0.00     0.010 C 
ATOM      9  C   LIG d   1       4.024   0.534  -2.649  0.00  0.00    -0.023 C 
ATOM     10  H   LIG d   1       1.874   0.460  -4.518  0.00  0.00     0.030 H 
ATOM     11  H   LIG d   1       2.111  -1.308  -4.683  0.00  0.00     0.030 H 
ATOM     12  H   LIG d   1       3.682  -2.092  -1.566  0.00  0.00     0.027 H 
ATOM     13  H   LIG d   1       3.030  -2.634  -3.142  0.00  0.00     0.027 H 
ATOM     14  H   LIG d   1       5.748  -1.758  -2.533  0.00  0.00     0.027 H 
ATOM     15  H   LIG d   1       5.098  -2.300  -4.110  0.00  0.00     0.027 H 
ENDROOT
BRANCH   1  16
ATOM     16  O   LIG d   1       4.255  -1.211  -5.875  0.00  0.00    -0.461 OA
BRANCH  16  17
ATOM     17  C   LIG d   1       4.881  -0.877  -7.015  0.00  0.00     0.307 C 
ATOM     18  O   LIG d   1       4.731   0.227  -7.484  0.00  0.00    -0.251 OA
BRANCH  17  19
ATOM     19  C   LIG d   1       5.769  -1.876  -7.708  0.00  0.00     0.045 C 
ATOM     20  H   LIG d   1       5.229  -2.815  -7.837  0.00  0.00     0.038 H 
ATOM     21  H   LIG d   1       6.062  -1.488  -8.684  0.00  0.00     0.038 H 
BRANCH  19  22
ATOM     22  C   LIG d   1       7.020  -2.120  -6.861  0.00  0.00    -0.043 C 
ATOM     23  H   LIG d   1       6.890  -1.664  -5.880  0.00  0.00     0.027 H 
ATOM     24  H   LIG d   1       7.176  -3.193  -6.745  0.00  0.00     0.027 H 
BRANCH  22  25
ATOM     25  C   LIG d   1       8.235  -1.501  -7.555  0.00  0.00    -0.055 C 
ATOM     26  H   LIG d   1       9.105  -2.139  -7.403  0.00  0.00     0.026 H 
ATOM     27  H   LIG d   1       8.035  -1.407  -8.622  0.00  0.00     0.026 H 
BRANCH  25  28
ATOM     28  C   LIG d   1       8.509  -0.116  -6.964  0.00  0.00    -0.065 C 
ATOM     29  H   LIG d   1       7.609   0.495  -7.038  0.00  0.00     0.023 H 
ATOM     30  H   LIG d   1       8.795  -0.217  -5.917  0.00  0.00     0.023 H 
ATOM     31  H   LIG d   1       9.317   0.361  -7.517  0.00  0.00     0.023 H 
ENDBRANCH  25  28
ENDBRANCH  22  25
ENDBRANCH  19  22
ENDBRANCH  17  19
ENDBRANCH  16  17
ENDBRANCH   1  16
BRANCH   8  32
ATOM     32  C   LIG d   1       6.276   0.552  -4.029  0.00  0.00    -0.056 C 
ATOM     33  H   LIG d   1       7.069  -0.052  -3.591  0.00  0.00     0.024 H 
ATOM     34  H   LIG d   1       6.434   0.636  -5.105  0.00  0.00     0.024 H 
ATOM     35  H   LIG d   1       6.287   1.546  -3.581  0.00  0.00     0.024 H 
ENDBRANCH   8  32
BRANCH   9  36
ATOM     36  C   LIG d   1       3.605   1.961  -3.006  0.00  0.00    -0.059 C 
ATOM     37  H   LIG d   1       2.626   2.171  -2.575  0.00  0.00     0.024 H 
ATOM     38  H   LIG d   1       4.335   2.665  -2.607  0.00  0.00     0.024 H 
ATOM     39  H   LIG d   1       3.554   2.065  -4.090  0.00  0.00     0.024 H 
ENDBRANCH   9  36
BRANCH   9  40
ATOM     40  C   LIG d   1       4.681   0.464  -1.270  0.00  0.00    -0.059 C 
ATOM     41  H   LIG d   1       5.645   0.974  -1.300  0.00  0.00     0.024 H 
ATOM     42  H   LIG d   1       4.038   0.948  -0.535  0.00  0.00     0.024 H 
ATOM     43  H   LIG d   1       4.831  -0.578  -0.991  0.00  0.00     0.024 H 
ENDBRANCH   9  40
TORSDOF 9
ENDMDL
MODEL 8
REMARK VINA RESULT:      -4.6      2.763      4.680
REMARK  9 active torsions:
REMARK  status: ('A' for Active; 'I' for Inactive)
REMARK    1  A    between atoms: C_1  and  C_2 
REMARK    2  A    between atoms: C_2  and  C_3 
REMARK    3  A    between atoms: C_3  and  C_4 
REMARK    4  A    between atoms: C_4  and  C_5 
REMARK    5  A    between atoms: C_5  and  O_7 
REMARK    6  A    between atoms: O_7  and  C_8 
REMARK    7  A    between atoms: C_15  and  C_19 
REMARK    8  A    between atoms: C_16  and  C_17 
REMARK    9  A    between atoms: C_16  and  C_18 
ROOT
ATOM      1  C   LIG d   1       5.658  -0.180  -3.857  0.00  0.00     0.109 C 
ATOM      2  H   LIG d   1       5.752   0.813  -4.293  0.00  0.00     0.074 H 
ATOM      3  C   LIG d   1       5.186  -1.195  -4.925  0.00  0.00    -0.012 C 
ATOM      4  C   LIG d   1       3.823  -1.728  -4.388  0.00  0.00    -0.032 C 
ATOM      5  H   LIG d   1       3.166  -2.187  -5.127  0.00  0.00     0.031 H 
ATOM      6  C   LIG d   1       4.205  -2.619  -3.167  0.00  0.00    -0.049 C 
ATOM      7  C   LIG d   1       4.686  -1.620  -2.089  0.00  0.00    -0.043 C 
ATOM      8  C   LIG d   1       4.534  -0.196  -2.777  0.00  0.00     0.010 C 
ATOM      9  C   LIG d   1       3.270  -0.443  -3.674  0.00  0.00    -0.023 C 
ATOM     10  H   LIG d   1       5.049  -0.700  -5.886  0.00  0.00     0.030 H 
ATOM     11  H   LIG d   1       5.903  -2.012  -5.016  0.00  0.00     0.030 H 
ATOM     12  H   LIG d   1       3.334  -3.170  -2.811  0.00  0.00     0.027 H 
ATOM     13  H   LIG d   1       5.006  -3.307  -3.434  0.00  0.00     0.027 H 
ATOM     14  H   LIG d   1       4.052  -1.680  -1.205  0.00  0.00     0.027 H 
ATOM     15  H   LIG d   1       5.725  -1.816  -1.827  0.00  0.00     0.027 H 
ENDROOT
BRANCH   1  16
ATOM     16  O   LIG d   1       6.921  -0.604  -3.281  0.00  0.00    -0.461 OA
BRANCH  16  17
ATOM     17  C   LIG d   1       7.751  -1.299  -4.074  0.00  0.00     0.307 C 
ATOM     18  O   LIG d   1       8.322  -0.745  -4.983  0.00  0.00    -0.251 OA
BRANCH  17  19
ATOM     19  C   LIG d   1       7.970  -2.770  -3.831  0.00  0.00     0.045 C 
ATOM     20  H   LIG d   1       8.861  -2.908  -3.217  0.00  0.00     0.038 H 
ATOM     21  H   LIG d   1       7.104  -3.186  -3.314  0.00  0.00     0.038 H 
BRANCH  19  22
ATOM     22  C   LIG d   1       8.156  -3.486  -5.170  0.00  0.00    -0.043 C 
ATOM     23  H   LIG d   1       8.251  -2.748  -5.966  0.00  0.00     0.027 H 
ATOM     24  H   LIG d   1       9.059  -4.098  -5.131  0.00  0.00     0.027 H 
BRANCH  22  25
ATOM     25  C   LIG d   1       6.946  -4.380  -5.443  0.00  0.00    -0.055 C 
ATOM     26  H   LIG d   1       6.168  -4.174  -4.708  0.00  0.00     0.026 H 
ATOM     27  H   LIG d   1       6.563  -4.178  -6.444  0.00  0.00     0.026 H 
BRANCH  25  28
ATOM     28  C   LIG d   1       7.364  -5.849  -5.345  0.00  0.00    -0.065 C 
ATOM     29  H   LIG d   1       6.487  -6.463  -5.144  0.00  0.00     0.023 H 
ATOM     30  H   LIG d   1       7.818  -6.161  -6.286  0.00  0.00     0.023 H 
ATOM     31  H   LIG d   1       8.084  -5.968  -4.536  0.00  0.00     0.023 H 
ENDBRANCH  25  28
ENDBRANCH  22  25
ENDBRANCH  19  22
ENDBRANCH  17  19
ENDBRANCH  16  17
ENDBRANCH   1  16
BRANCH   8  32
ATOM     32  C   LIG d   1       4.490   1.014  -1.840  0.00  0.00    -0.056 C 
ATOM     33  H   LIG d   1       5.200   1.766  -2.184  0.00  0.00     0.024 H 
ATOM     34  H   LIG d   1       3.485   1.435  -1.837  0.00  0.00     0.024 H 
ATOM     35  H   LIG d   1       4.756   0.701  -0.830  0.00  0.00     0.024 H 
ENDBRANCH   8  32
BRANCH   9  36
ATOM     36  C   LIG d   1       3.034   0.703  -4.659  0.00  0.00    -0.059 C 
ATOM     37  H   LIG d   1       1.966   0.913  -4.723  0.00  0.00     0.024 H 
ATOM     38  H   LIG d   1       3.559   1.594  -4.314  0.00  0.00     0.024 H 
ATOM     39  H   LIG d   1       3.408   0.420  -5.643  0.00  0.00     0.024 H 
ENDBRANCH   9  36
BRANCH   9  40
ATOM     40  C   LIG d   1       2.023  -0.741  -2.840  0.00  0.00    -0.059 C 
ATOM     41  H   LIG d   1       2.322  -1.096  -1.854  0.00  0.00     0.024 H 
ATOM     42  H   LIG d   1       1.430   0.167  -2.735  0.00  0.00     0.024 H 
ATOM     43  H   LIG d   1       1.429  -1.507  -3.337  0.00  0.00     0.024 H 
ENDBRANCH   9  40
TORSDOF 9
ENDMDL
MODEL 9
REMARK VINA RESULT:      -4.6      3.446      5.915
REMARK  9 active torsions:
REMARK  status: ('A' for Active; 'I' for Inactive)
REMARK    1  A    between atoms: C_1  and  C_2 
REMARK    2  A    between atoms: C_2  and  C_3 
REMARK    3  A    between atoms: C_3  and  C_4 
REMARK    4  A    between atoms: C_4  and  C_5 
REMARK    5  A    between atoms: C_5  and  O_7 
REMARK    6  A    between atoms: O_7  and  C_8 
REMARK    7  A    between atoms: C_15  and  C_19 
REMARK    8  A    between atoms: C_16  and  C_17 
REMARK    9  A    between atoms: C_16  and  C_18 
ROOT
ATOM      1  C   LIG d   1       6.139  -1.736  -4.076  0.00  0.00     0.109 C 
ATOM      2  H   LIG d   1       6.602  -1.421  -5.010  0.00  0.00     0.074 H 
ATOM      3  C   LIG d   1       5.002  -2.747  -4.351  0.00  0.00    -0.012 C 
ATOM      4  C   LIG d   1       3.718  -2.057  -3.799  0.00  0.00    -0.032 C 
ATOM      5  H   LIG d   1       2.771  -2.433  -4.186  0.00  0.00     0.031 H 
ATOM      6  C   LIG d   1       3.887  -2.098  -2.251  0.00  0.00    -0.049 C 
ATOM      7  C   LIG d   1       5.028  -1.096  -1.956  0.00  0.00    -0.043 C 
ATOM      8  C   LIG d   1       5.434  -0.531  -3.383  0.00  0.00     0.010 C 
ATOM      9  C   LIG d   1       4.043  -0.552  -4.108  0.00  0.00    -0.023 C 
ATOM     10  H   LIG d   1       4.906  -2.928  -5.422  0.00  0.00     0.030 H 
ATOM     11  H   LIG d   1       5.188  -3.682  -3.822  0.00  0.00     0.030 H 
ATOM     12  H   LIG d   1       2.967  -1.781  -1.759  0.00  0.00     0.027 H 
ATOM     13  H   LIG d   1       4.166  -3.099  -1.925  0.00  0.00     0.027 H 
ATOM     14  H   LIG d   1       4.668  -0.287  -1.319  0.00  0.00     0.027 H 
ATOM     15  H   LIG d   1       5.868  -1.605  -1.485  0.00  0.00     0.027 H 
ENDROOT
BRANCH   1  16
ATOM     16  O   LIG d   1       7.131  -2.320  -3.190  0.00  0.00    -0.461 OA
BRANCH  16  17
ATOM     17  C   LIG d   1       8.188  -2.914  -3.766  0.00  0.00     0.307 C 
ATOM     18  O   LIG d   1       8.436  -2.709  -4.930  0.00  0.00    -0.251 OA
BRANCH  17  19
ATOM     19  C   LIG d   1       9.064  -3.837  -2.960  0.00  0.00     0.045 C 
ATOM     20  H   LIG d   1       9.931  -3.286  -2.591  0.00  0.00     0.038 H 
ATOM     21  H   LIG d   1       8.499  -4.232  -2.116  0.00  0.00     0.038 H 
BRANCH  19  22
ATOM     22  C   LIG d   1       9.535  -4.995  -3.843  0.00  0.00    -0.043 C 
ATOM     23  H   LIG d   1       8.916  -5.042  -4.739  0.00  0.00     0.027 H 
ATOM     24  H   LIG d   1      10.576  -4.834  -4.128  0.00  0.00     0.027 H 
BRANCH  22  25
ATOM     25  C   LIG d   1       9.415  -6.308  -3.070  0.00  0.00    -0.055 C 
ATOM     26  H   LIG d   1       8.373  -6.626  -3.051  0.00  0.00     0.026 H 
ATOM     27  H   LIG d   1      10.019  -7.074  -3.557  0.00  0.00     0.026 H 
BRANCH  25  28
ATOM     28  C   LIG d   1       9.912  -6.104  -1.637  0.00  0.00    -0.065 C 
ATOM     29  H   LIG d   1       9.762  -7.020  -1.066  0.00  0.00     0.023 H 
ATOM     30  H   LIG d   1      10.973  -5.855  -1.652  0.00  0.00     0.023 H 
ATOM     31  H   LIG d   1       9.355  -5.291  -1.172  0.00  0.00     0.023 H 
ENDBRANCH  25  28
ENDBRANCH  22  25
ENDBRANCH  19  22
ENDBRANCH  17  19
ENDBRANCH  16  17
ENDBRANCH   1  16
BRANCH   8  32
ATOM     32  C   LIG d   1       6.202   0.793  -3.401  0.00  0.00    -0.056 C 
ATOM     33  H   LIG d   1       6.192   1.206  -4.409  0.00  0.00     0.024 H 
ATOM     34  H   LIG d   1       5.731   1.496  -2.714  0.00  0.00     0.024 H 
ATOM     35  H   LIG d   1       7.233   0.619  -3.091  0.00  0.00     0.024 H 
ENDBRANCH   8  32
BRANCH   9  36
ATOM     36  C   LIG d   1       4.174  -0.290  -5.610  0.00  0.00    -0.059 C 
ATOM     37  H   LIG d   1       3.182  -0.173  -6.046  0.00  0.00     0.024 H 
ATOM     38  H   LIG d   1       4.751   0.621  -5.770  0.00  0.00     0.024 H 
ATOM     39  H   LIG d   1       4.683  -1.130  -6.082  0.00  0.00     0.024 H 
ENDBRANCH   9  36
BRANCH   9  40
ATOM     40  C   LIG d   1       3.039   0.398  -3.452  0.00  0.00    -0.059 C 
ATOM     41  H   LIG d   1       3.393   1.424  -3.549  0.00  0.00     0.024 H 
ATOM     42  H   LIG d   1       2.071   0.300  -3.943  0.00  0.00     0.024 H 
ATOM     43  H   LIG d   1       2.938   0.147  -2.397  0.00  0.00     0.024 H 
ENDBRANCH   9  40
TORSDOF 9
ENDMDL
MODEL 10
REMARK VINA RESULT:      -4.3      2.474      3.459
REMARK  9 active torsions:
REMARK  status: ('A' for Active; 'I' for Inactive)
REMARK    1  A    between atoms: C_1  and  C_2 
REMARK    2  A    between atoms: C_2  and  C_3 
REMARK    3  A    between atoms: C_3  and  C_4 
REMARK    4  A    between atoms: C_4  and  C_5 
REMARK    5  A    between atoms: C_5  and  O_7 
REMARK    6  A    between atoms: O_7  and  C_8 
REMARK    7  A    between atoms: C_15  and  C_19 
REMARK    8  A    between atoms: C_16  and  C_17 
REMARK    9  A    between atoms: C_16  and  C_18 
ROOT
ATOM      1  C   LIG d   1       5.865  -0.070  -5.049  0.00  0.00     0.109 C 
ATOM      2  H   LIG d   1       5.425   0.879  -5.351  0.00  0.00     0.074 H 
ATOM      3  C   LIG d   1       5.287  -1.227  -5.895  0.00  0.00    -0.012 C 
ATOM      4  C   LIG d   1       4.587  -2.161  -4.861  0.00  0.00    -0.032 C 
ATOM      5  H   LIG d   1       3.839  -2.843  -5.264  0.00  0.00     0.031 H 
ATOM      6  C   LIG d   1       5.760  -2.822  -4.076  0.00  0.00    -0.049 C 
ATOM      7  C   LIG d   1       6.358  -1.676  -3.227  0.00  0.00    -0.043 C 
ATOM      8  C   LIG d   1       5.461  -0.415  -3.583  0.00  0.00     0.010 C 
ATOM      9  C   LIG d   1       4.072  -1.106  -3.819  0.00  0.00    -0.023 C 
ATOM     10  H   LIG d   1       4.561  -0.846  -6.614  0.00  0.00     0.030 H 
ATOM     11  H   LIG d   1       6.087  -1.761  -6.408  0.00  0.00     0.030 H 
ATOM     12  H   LIG d   1       5.386  -3.617  -3.431  0.00  0.00     0.027 H 
ATOM     13  H   LIG d   1       6.507  -3.214  -4.766  0.00  0.00     0.027 H 
ATOM     14  H   LIG d   1       6.276  -1.908  -2.165  0.00  0.00     0.027 H 
ATOM     15  H   LIG d   1       7.398  -1.503  -3.500  0.00  0.00     0.027 H 
ENDROOT
BRANCH   1  16
ATOM     16  O   LIG d   1       7.311  -0.023  -5.178  0.00  0.00    -0.461 OA
BRANCH  16  17
ATOM     17  C   LIG d   1       7.839   1.082  -5.726  0.00  0.00     0.307 C 
ATOM     18  O   LIG d   1       7.755   2.141  -5.150  0.00  0.00    -0.251 OA
BRANCH  17  19
ATOM     19  C   LIG d   1       8.535   1.003  -7.059  0.00  0.00     0.045 C 
ATOM     20  H   LIG d   1       9.586   1.268  -6.937  0.00  0.00     0.038 H 
ATOM     21  H   LIG d   1       8.460  -0.012  -7.450  0.00  0.00     0.038 H 
BRANCH  19  22
ATOM     22  C   LIG d   1       7.875   1.976  -8.038  0.00  0.00    -0.043 C 
ATOM     23  H   LIG d   1       7.726   2.939  -7.550  0.00  0.00     0.027 H 
ATOM     24  H   LIG d   1       8.518   2.106  -8.910  0.00  0.00     0.027 H 
BRANCH  22  25
ATOM     25  C   LIG d   1       6.523   1.415  -8.482  0.00  0.00    -0.055 C 
ATOM     26  H   LIG d   1       5.869   1.313  -7.615  0.00  0.00     0.026 H 
ATOM     27  H   LIG d   1       6.066   2.093  -9.203  0.00  0.00     0.026 H 
BRANCH  25  28
ATOM     28  C   LIG d   1       6.727   0.044  -9.130  0.00  0.00    -0.065 C 
ATOM     29  H   LIG d   1       7.782  -0.226  -9.084  0.00  0.00     0.023 H 
ATOM     30  H   LIG d   1       6.138  -0.703  -8.596  0.00  0.00     0.023 H 
ATOM     31  H   LIG d   1       6.407   0.083 -10.171  0.00  0.00     0.023 H 
ENDBRANCH  25  28
ENDBRANCH  22  25
ENDBRANCH  19  22
ENDBRANCH  17  19
ENDBRANCH  16  17
ENDBRANCH   1  16
BRANCH   8  32
ATOM     32  C   LIG d   1       5.494   0.749  -2.589  0.00  0.00    -0.056 C 
ATOM     33  H   LIG d   1       6.523   1.079  -2.448  0.00  0.00     0.024 H 
ATOM     34  H   LIG d   1       4.896   1.575  -2.976  0.00  0.00     0.024 H 
ATOM     35  H   LIG d   1       5.084   0.421  -1.633  0.00  0.00     0.024 H 
ENDBRANCH   8  32
BRANCH   9  36
ATOM     36  C   LIG d   1       3.051  -0.146  -4.432  0.00  0.00    -0.059 C 
ATOM     37  H   LIG d   1       2.303   0.116  -3.683  0.00  0.00     0.024 H 
ATOM     38  H   LIG d   1       3.558   0.758  -4.770  0.00  0.00     0.024 H 
ATOM     39  H   LIG d   1       2.563  -0.627  -5.280  0.00  0.00     0.024 H 
ENDBRANCH   9  36
BRANCH   9  40
ATOM     40  C   LIG d   1       3.536  -1.768  -2.549  0.00  0.00    -0.059 C 
ATOM     41  H   LIG d   1       2.557  -1.353  -2.308  0.00  0.00     0.024 H 
ATOM     42  H   LIG d   1       3.447  -2.842  -2.708  0.00  0.00     0.024 H 
ATOM     43  H   LIG d   1       4.223  -1.579  -1.723  0.00  0.00     0.024 H 
ENDBRANCH   9  40
TORSDOF 9
ENDMDL
