MODEL 1
REMARK VINA RESULT:      -7.1      0.000      0.000
REMARK  2 active torsions:
REMARK  status: ('A' for Active; 'I' for Inactive)
REMARK    1  A    between atoms: C_4  and  C_7 
REMARK    2  A    between atoms: C_17  and  C_18 
ROOT
ATOM      1  C   LIG d   1       4.281  -1.452  -6.512  0.00  0.00     0.007 A 
ATOM      2  C   LIG d   1       4.201  -1.324  -5.047  0.00  0.00     0.027 A 
ATOM      3  C   LIG d   1       3.994  -0.076  -4.455  0.00  0.00    -0.032 A 
ATOM      4  C   LIG d   1       3.917   0.025  -3.083  0.00  0.00     0.042 A 
ATOM      5  C   LIG d   1       4.037  -1.109  -2.291  0.00  0.00    -0.040 A 
ATOM      6  C   LIG d   1       4.236  -2.347  -2.865  0.00  0.00    -0.017 A 
ATOM      7  C   LIG d   1       4.317  -2.471  -4.247  0.00  0.00     0.140 A 
ATOM      8  O   LIG d   1       4.511  -3.685  -4.804  0.00  0.00    -0.422 OA
ATOM      9  C   LIG d   1       4.596  -3.859  -6.132  0.00  0.00     0.346 A 
ATOM     10  O   LIG d   1       4.772  -4.976  -6.582  0.00  0.00    -0.244 OA
ATOM     11  C   LIG d   1       4.481  -2.723  -7.046  0.00  0.00     0.075 A 
ATOM     12 CL   LIG d   1       3.667   1.575  -2.342  0.00  0.00    -0.084 Cl
ATOM     13  H   LIG d   1       3.900   0.808  -5.069  0.00  0.00     0.064 H 
ATOM     14  H   LIG d   1       3.975  -1.019  -1.217  0.00  0.00     0.063 H 
ATOM     15  H   LIG d   1       4.328  -3.222  -2.238  0.00  0.00     0.066 H 
ENDROOT
BRANCH   1  16
ATOM     16  C   LIG d   1       4.158  -0.268  -7.388  0.00  0.00    -0.016 A 
ATOM     17  C   LIG d   1       5.302   0.360  -7.883  0.00  0.00    -0.054 A 
ATOM     18  C   LIG d   1       5.181   1.468  -8.695  0.00  0.00    -0.061 A 
ATOM     19  H   LIG d   1       6.281  -0.018  -7.626  0.00  0.00     0.062 H 
ATOM     20  C   LIG d   1       3.928   1.951  -9.029  0.00  0.00    -0.062 A 
ATOM     21  H   LIG d   1       6.066   1.957  -9.075  0.00  0.00     0.062 H 
ATOM     22  C   LIG d   1       2.789   1.330  -8.547  0.00  0.00    -0.061 A 
ATOM     23  H   LIG d   1       3.838   2.817  -9.669  0.00  0.00     0.062 H 
ATOM     24  C   LIG d   1       2.896   0.225  -7.729  0.00  0.00    -0.054 A 
ATOM     25  H   LIG d   1       1.814   1.712  -8.812  0.00  0.00     0.062 H 
ATOM     26  H   LIG d   1       2.006  -0.259  -7.353  0.00  0.00     0.062 H 
ENDBRANCH   1  16
BRANCH  11  27
ATOM     27  C   LIG d   1       4.575  -2.920  -8.510  0.00  0.00    -0.010 A 
ATOM     28  C   LIG d   1       5.821  -2.913  -9.140  0.00  0.00    -0.054 A 
ATOM     29  C   LIG d   1       5.902  -3.097 -10.504  0.00  0.00    -0.061 A 
ATOM     30  H   LIG d   1       6.719  -2.762  -8.560  0.00  0.00     0.062 H 
ATOM     31  C   LIG d   1       4.752  -3.290 -11.249  0.00  0.00    -0.062 A 
ATOM     32  H   LIG d   1       6.866  -3.091 -10.993  0.00  0.00     0.062 H 
ATOM     33  C   LIG d   1       3.514  -3.298 -10.631  0.00  0.00    -0.061 A 
ATOM     34  H   LIG d   1       4.821  -3.434 -12.316  0.00  0.00     0.062 H 
ATOM     35  C   LIG d   1       3.419  -3.120  -9.266  0.00  0.00    -0.054 A 
ATOM     36  H   LIG d   1       2.620  -3.448 -11.218  0.00  0.00     0.062 H 
ATOM     37  H   LIG d   1       2.453  -3.131  -8.785  0.00  0.00     0.062 H 
ENDBRANCH  11  27
TORSDOF 2
ENDMDL
MODEL 2
REMARK VINA RESULT:      -7.0      1.582      2.223
REMARK  2 active torsions:
REMARK  status: ('A' for Active; 'I' for Inactive)
REMARK    1  A    between atoms: C_4  and  C_7 
REMARK    2  A    between atoms: C_17  and  C_18 
ROOT
ATOM      1  C   LIG d   1       4.154  -1.235  -7.657  0.00  0.00     0.007 A 
ATOM      2  C   LIG d   1       4.687  -1.526  -6.315  0.00  0.00     0.027 A 
ATOM      3  C   LIG d   1       5.130  -0.490  -5.488  0.00  0.00    -0.032 A 
ATOM      4  C   LIG d   1       5.622  -0.780  -4.234  0.00  0.00     0.042 A 
ATOM      5  C   LIG d   1       5.672  -2.094  -3.790  0.00  0.00    -0.040 A 
ATOM      6  C   LIG d   1       5.233  -3.124  -4.594  0.00  0.00    -0.017 A 
ATOM      7  C   LIG d   1       4.733  -2.854  -5.863  0.00  0.00     0.140 A 
ATOM      8  O   LIG d   1       4.304  -3.865  -6.648  0.00  0.00    -0.422 OA
ATOM      9  C   LIG d   1       3.813  -3.658  -7.879  0.00  0.00     0.346 A 
ATOM     10  O   LIG d   1       3.440  -4.607  -8.545  0.00  0.00    -0.244 OA
ATOM     11  C   LIG d   1       3.721  -2.307  -8.433  0.00  0.00     0.075 A 
ATOM     12 CL   LIG d   1       6.179   0.503  -3.205  0.00  0.00    -0.084 Cl
ATOM     13  H   LIG d   1       5.091   0.533  -5.832  0.00  0.00     0.064 H 
ATOM     14  H   LIG d   1       6.059  -2.311  -2.805  0.00  0.00     0.063 H 
ATOM     15  H   LIG d   1       5.277  -4.142  -4.237  0.00  0.00     0.066 H 
ENDROOT
BRANCH   1  16
ATOM     16  C   LIG d   1       4.085   0.151  -8.164  0.00  0.00    -0.016 A 
ATOM     17  C   LIG d   1       2.918   0.900  -8.001  0.00  0.00    -0.054 A 
ATOM     18  C   LIG d   1       2.857   2.191  -8.480  0.00  0.00    -0.061 A 
ATOM     19  H   LIG d   1       2.062   0.467  -7.504  0.00  0.00     0.062 H 
ATOM     20  C   LIG d   1       3.954   2.750  -9.113  0.00  0.00    -0.062 A 
ATOM     21  H   LIG d   1       1.954   2.770  -8.358  0.00  0.00     0.062 H 
ATOM     22  C   LIG d   1       5.116   2.016  -9.273  0.00  0.00    -0.061 A 
ATOM     23  H   LIG d   1       3.903   3.763  -9.484  0.00  0.00     0.062 H 
ATOM     24  C   LIG d   1       5.189   0.721  -8.803  0.00  0.00    -0.054 A 
ATOM     25  H   LIG d   1       5.968   2.457  -9.768  0.00  0.00     0.062 H 
ATOM     26  H   LIG d   1       6.096   0.149  -8.930  0.00  0.00     0.062 H 
ENDBRANCH   1  16
BRANCH  11  27
ATOM     27  C   LIG d   1       3.178  -2.085  -9.792  0.00  0.00    -0.010 A 
ATOM     28  C   LIG d   1       4.030  -2.098 -10.898  0.00  0.00    -0.054 A 
ATOM     29  C   LIG d   1       3.518  -1.890 -12.162  0.00  0.00    -0.061 A 
ATOM     30  H   LIG d   1       5.087  -2.270 -10.764  0.00  0.00     0.062 H 
ATOM     31  C   LIG d   1       2.163  -1.669 -12.334  0.00  0.00    -0.062 A 
ATOM     32  H   LIG d   1       4.176  -1.900 -13.019  0.00  0.00     0.062 H 
ATOM     33  C   LIG d   1       1.313  -1.654 -11.242  0.00  0.00    -0.061 A 
ATOM     34  H   LIG d   1       1.767  -1.507 -13.325  0.00  0.00     0.062 H 
ATOM     35  C   LIG d   1       1.812  -1.866  -9.973  0.00  0.00    -0.054 A 
ATOM     36  H   LIG d   1       0.257  -1.479 -11.384  0.00  0.00     0.062 H 
ATOM     37  H   LIG d   1       1.147  -1.858  -9.123  0.00  0.00     0.062 H 
ENDBRANCH  11  27
TORSDOF 2
ENDMDL
MODEL 3
REMARK VINA RESULT:      -6.8      3.026      6.529
REMARK  2 active torsions:
REMARK  status: ('A' for Active; 'I' for Inactive)
REMARK    1  A    between atoms: C_4  and  C_7 
REMARK    2  A    between atoms: C_17  and  C_18 
ROOT
ATOM      1  C   LIG d   1       4.315  -1.374  -6.652  0.00  0.00     0.007 A 
ATOM      2  C   LIG d   1       3.988  -1.178  -8.074  0.00  0.00     0.027 A 
ATOM      3  C   LIG d   1       4.484  -2.054  -9.043  0.00  0.00    -0.032 A 
ATOM      4  C   LIG d   1       4.164  -1.859 -10.369  0.00  0.00     0.042 A 
ATOM      5  C   LIG d   1       3.347  -0.800 -10.742  0.00  0.00    -0.040 A 
ATOM      6  C   LIG d   1       2.847   0.067  -9.795  0.00  0.00    -0.017 A 
ATOM      7  C   LIG d   1       3.157  -0.111  -8.451  0.00  0.00     0.140 A 
ATOM      8  O   LIG d   1       2.665   0.740  -7.527  0.00  0.00    -0.422 OA
ATOM      9  C   LIG d   1       2.934   0.612  -6.219  0.00  0.00     0.346 A 
ATOM     10  O   LIG d   1       2.464   1.409  -5.427  0.00  0.00    -0.244 OA
ATOM     11  C   LIG d   1       3.786  -0.473  -5.731  0.00  0.00     0.075 A 
ATOM     12 CL   LIG d   1       4.784  -2.941 -11.577  0.00  0.00    -0.084 Cl
ATOM     13  H   LIG d   1       5.119  -2.879  -8.754  0.00  0.00     0.064 H 
ATOM     14  H   LIG d   1       3.102  -0.656 -11.784  0.00  0.00     0.063 H 
ATOM     15  H   LIG d   1       2.212   0.887 -10.097  0.00  0.00     0.066 H 
ENDROOT
BRANCH   1  16
ATOM     16  C   LIG d   1       5.181  -2.489  -6.216  0.00  0.00    -0.016 A 
ATOM     17  C   LIG d   1       4.640  -3.761  -6.017  0.00  0.00    -0.054 A 
ATOM     18  C   LIG d   1       5.452  -4.796  -5.606  0.00  0.00    -0.061 A 
ATOM     19  H   LIG d   1       3.586  -3.932  -6.180  0.00  0.00     0.062 H 
ATOM     20  C   LIG d   1       6.804  -4.581  -5.403  0.00  0.00    -0.062 A 
ATOM     21  H   LIG d   1       5.034  -5.780  -5.448  0.00  0.00     0.062 H 
ATOM     22  C   LIG d   1       7.349  -3.324  -5.604  0.00  0.00    -0.061 A 
ATOM     23  H   LIG d   1       7.437  -5.396  -5.085  0.00  0.00     0.062 H 
ATOM     24  C   LIG d   1       6.547  -2.278  -6.009  0.00  0.00    -0.054 A 
ATOM     25  H   LIG d   1       8.404  -3.163  -5.443  0.00  0.00     0.062 H 
ATOM     26  H   LIG d   1       6.973  -1.298  -6.165  0.00  0.00     0.062 H 
ENDBRANCH   1  16
BRANCH  11  27
ATOM     27  C   LIG d   1       4.079  -0.610  -4.286  0.00  0.00    -0.010 A 
ATOM     28  C   LIG d   1       4.995   0.245  -3.672  0.00  0.00    -0.054 A 
ATOM     29  C   LIG d   1       5.264   0.112  -2.326  0.00  0.00    -0.061 A 
ATOM     30  H   LIG d   1       5.493   1.009  -4.251  0.00  0.00     0.062 H 
ATOM     31  C   LIG d   1       4.627  -0.867  -1.584  0.00  0.00    -0.062 A 
ATOM     32  H   LIG d   1       5.974   0.773  -1.850  0.00  0.00     0.062 H 
ATOM     33  C   LIG d   1       3.718  -1.719  -2.186  0.00  0.00    -0.061 A 
ATOM     34  H   LIG d   1       4.841  -0.967  -0.531  0.00  0.00     0.062 H 
ATOM     35  C   LIG d   1       3.436  -1.592  -3.532  0.00  0.00    -0.054 A 
ATOM     36  H   LIG d   1       3.224  -2.481  -1.602  0.00  0.00     0.062 H 
ATOM     37  H   LIG d   1       2.722  -2.254  -3.999  0.00  0.00     0.062 H 
ENDBRANCH  11  27
TORSDOF 2
ENDMDL
MODEL 4
REMARK VINA RESULT:      -6.7      3.236      6.424
REMARK  2 active torsions:
REMARK  status: ('A' for Active; 'I' for Inactive)
REMARK    1  A    between atoms: C_4  and  C_7 
REMARK    2  A    between atoms: C_17  and  C_18 
ROOT
ATOM      1  C   LIG d   1       5.163  -0.519  -6.573  0.00  0.00     0.007 A 
ATOM      2  C   LIG d   1       4.975  -0.197  -7.999  0.00  0.00     0.027 A 
ATOM      3  C   LIG d   1       6.002  -0.428  -8.918  0.00  0.00    -0.032 A 
ATOM      4  C   LIG d   1       5.808  -0.125 -10.248  0.00  0.00     0.042 A 
ATOM      5  C   LIG d   1       4.597   0.401 -10.676  0.00  0.00    -0.040 A 
ATOM      6  C   LIG d   1       3.575   0.628  -9.779  0.00  0.00    -0.017 A 
ATOM      7  C   LIG d   1       3.749   0.330  -8.432  0.00  0.00     0.140 A 
ATOM      8  O   LIG d   1       2.746   0.553  -7.557  0.00  0.00    -0.422 OA
ATOM      9  C   LIG d   1       2.863   0.283  -6.248  0.00  0.00     0.346 A 
ATOM     10  O   LIG d   1       1.927   0.504  -5.502  0.00  0.00    -0.244 OA
ATOM     11  C   LIG d   1       4.102  -0.274  -5.705  0.00  0.00     0.075 A 
ATOM     12 CL   LIG d   1       7.083  -0.405 -11.394  0.00  0.00    -0.084 Cl
ATOM     13  H   LIG d   1       6.945  -0.838  -8.587  0.00  0.00     0.064 H 
ATOM     14  H   LIG d   1       4.455   0.635 -11.721  0.00  0.00     0.063 H 
ATOM     15  H   LIG d   1       2.637   1.038 -10.124  0.00  0.00     0.066 H 
ENDROOT
BRANCH   1  16
ATOM     16  C   LIG d   1       6.438  -1.080  -6.081  0.00  0.00    -0.016 A 
ATOM     17  C   LIG d   1       6.632  -2.462  -6.056  0.00  0.00    -0.054 A 
ATOM     18  C   LIG d   1       7.822  -2.980  -5.591  0.00  0.00    -0.061 A 
ATOM     19  H   LIG d   1       5.850  -3.125  -6.396  0.00  0.00     0.062 H 
ATOM     20  C   LIG d   1       8.828  -2.133  -5.160  0.00  0.00    -0.062 A 
ATOM     21  H   LIG d   1       7.973  -4.050  -5.568  0.00  0.00     0.062 H 
ATOM     22  C   LIG d   1       8.645  -0.761  -5.187  0.00  0.00    -0.061 A 
ATOM     23  H   LIG d   1       9.760  -2.544  -4.800  0.00  0.00     0.062 H 
ATOM     24  C   LIG d   1       7.457  -0.230  -5.644  0.00  0.00    -0.054 A 
ATOM     25  H   LIG d   1       9.433  -0.106  -4.849  0.00  0.00     0.062 H 
ATOM     26  H   LIG d   1       7.315   0.841  -5.664  0.00  0.00     0.062 H 
ENDBRANCH   1  16
BRANCH  11  27
ATOM     27  C   LIG d   1       4.226  -0.570  -4.260  0.00  0.00    -0.010 A 
ATOM     28  C   LIG d   1       3.901  -1.838  -3.774  0.00  0.00    -0.054 A 
ATOM     29  C   LIG d   1       4.018  -2.107  -2.426  0.00  0.00    -0.061 A 
ATOM     30  H   LIG d   1       3.559  -2.605  -4.452  0.00  0.00     0.062 H 
ATOM     31  C   LIG d   1       4.456  -1.124  -1.557  0.00  0.00    -0.062 A 
ATOM     32  H   LIG d   1       3.767  -3.088  -2.048  0.00  0.00     0.062 H 
ATOM     33  C   LIG d   1       4.778   0.135  -2.031  0.00  0.00    -0.061 A 
ATOM     34  H   LIG d   1       4.545  -1.340  -0.503  0.00  0.00     0.062 H 
ATOM     35  C   LIG d   1       4.671   0.416  -3.378  0.00  0.00    -0.054 A 
ATOM     36  H   LIG d   1       5.118   0.898  -1.347  0.00  0.00     0.062 H 
ATOM     37  H   LIG d   1       4.928   1.397  -3.748  0.00  0.00     0.062 H 
ENDBRANCH  11  27
TORSDOF 2
ENDMDL
MODEL 5
REMARK VINA RESULT:      -6.5      2.768      4.882
REMARK  2 active torsions:
REMARK  status: ('A' for Active; 'I' for Inactive)
REMARK    1  A    between atoms: C_4  and  C_7 
REMARK    2  A    between atoms: C_17  and  C_18 
ROOT
ATOM      1  C   LIG d   1       4.110  -2.179  -7.983  0.00  0.00     0.007 A 
ATOM      2  C   LIG d   1       4.294  -3.446  -7.255  0.00  0.00     0.027 A 
ATOM      3  C   LIG d   1       4.069  -4.669  -7.892  0.00  0.00    -0.032 A 
ATOM      4  C   LIG d   1       4.251  -5.845  -7.198  0.00  0.00     0.042 A 
ATOM      5  C   LIG d   1       4.661  -5.816  -5.872  0.00  0.00    -0.040 A 
ATOM      6  C   LIG d   1       4.892  -4.616  -5.234  0.00  0.00    -0.017 A 
ATOM      7  C   LIG d   1       4.715  -3.418  -5.916  0.00  0.00     0.140 A 
ATOM      8  O   LIG d   1       4.942  -2.245  -5.289  0.00  0.00    -0.422 OA
ATOM      9  C   LIG d   1       4.786  -1.062  -5.902  0.00  0.00     0.346 A 
ATOM     10  O   LIG d   1       5.004  -0.033  -5.288  0.00  0.00    -0.244 OA
ATOM     11  C   LIG d   1       4.356  -0.991  -7.298  0.00  0.00     0.075 A 
ATOM     12 CL   LIG d   1       3.966  -7.367  -7.983  0.00  0.00    -0.084 Cl
ATOM     13  H   LIG d   1       3.750  -4.692  -8.924  0.00  0.00     0.064 H 
ATOM     14  H   LIG d   1       4.801  -6.744  -5.336  0.00  0.00     0.063 H 
ATOM     15  H   LIG d   1       5.212  -4.607  -4.202  0.00  0.00     0.066 H 
ENDROOT
BRANCH   1  16
ATOM     16  C   LIG d   1       3.673  -2.169  -9.395  0.00  0.00    -0.016 A 
ATOM     17  C   LIG d   1       2.313  -2.124  -9.707  0.00  0.00    -0.054 A 
ATOM     18  C   LIG d   1       1.912  -2.120 -11.027  0.00  0.00    -0.061 A 
ATOM     19  H   LIG d   1       1.576  -2.098  -8.918  0.00  0.00     0.062 H 
ATOM     20  C   LIG d   1       2.853  -2.148 -12.040  0.00  0.00    -0.062 A 
ATOM     21  H   LIG d   1       0.860  -2.089 -11.270  0.00  0.00     0.062 H 
ATOM     22  C   LIG d   1       4.204  -2.186 -11.738  0.00  0.00    -0.061 A 
ATOM     23  H   LIG d   1       2.534  -2.140 -13.072  0.00  0.00     0.062 H 
ATOM     24  C   LIG d   1       4.619  -2.197 -10.423  0.00  0.00    -0.054 A 
ATOM     25  H   LIG d   1       4.933  -2.208 -12.533  0.00  0.00     0.062 H 
ATOM     26  H   LIG d   1       5.673  -2.227 -10.188  0.00  0.00     0.062 H 
ENDBRANCH   1  16
BRANCH  11  27
ATOM     27  C   LIG d   1       4.186   0.317  -7.969  0.00  0.00    -0.010 A 
ATOM     28  C   LIG d   1       5.264   0.915  -8.624  0.00  0.00    -0.054 A 
ATOM     29  C   LIG d   1       5.099   2.134  -9.248  0.00  0.00    -0.061 A 
ATOM     30  H   LIG d   1       6.225   0.423  -8.643  0.00  0.00     0.062 H 
ATOM     31  C   LIG d   1       3.867   2.764  -9.225  0.00  0.00    -0.062 A 
ATOM     32  H   LIG d   1       5.932   2.598  -9.755  0.00  0.00     0.062 H 
ATOM     33  C   LIG d   1       2.794   2.178  -8.576  0.00  0.00    -0.061 A 
ATOM     34  H   LIG d   1       3.743   3.719  -9.714  0.00  0.00     0.062 H 
ATOM     35  C   LIG d   1       2.945   0.956  -7.953  0.00  0.00    -0.054 A 
ATOM     36  H   LIG d   1       1.837   2.676  -8.561  0.00  0.00     0.062 H 
ATOM     37  H   LIG d   1       2.106   0.497  -7.453  0.00  0.00     0.062 H 
ENDBRANCH  11  27
TORSDOF 2
ENDMDL
MODEL 6
REMARK VINA RESULT:      -6.3      2.504      5.328
REMARK  2 active torsions:
REMARK  status: ('A' for Active; 'I' for Inactive)
REMARK    1  A    between atoms: C_4  and  C_7 
REMARK    2  A    between atoms: C_17  and  C_18 
ROOT
ATOM      1  C   LIG d   1       4.213  -1.767  -6.943  0.00  0.00     0.007 A 
ATOM      2  C   LIG d   1       4.077  -2.987  -7.759  0.00  0.00     0.027 A 
ATOM      3  C   LIG d   1       3.917  -2.898  -9.144  0.00  0.00    -0.032 A 
ATOM      4  C   LIG d   1       3.796  -4.049  -9.892  0.00  0.00     0.042 A 
ATOM      5  C   LIG d   1       3.841  -5.292  -9.275  0.00  0.00    -0.040 A 
ATOM      6  C   LIG d   1       4.005  -5.391  -7.910  0.00  0.00    -0.017 A 
ATOM      7  C   LIG d   1       4.128  -4.243  -7.136  0.00  0.00     0.140 A 
ATOM      8  O   LIG d   1       4.289  -4.344  -5.800  0.00  0.00    -0.422 OA
ATOM      9  C   LIG d   1       4.413  -3.268  -5.009  0.00  0.00     0.346 A 
ATOM     10  O   LIG d   1       4.555  -3.417  -3.808  0.00  0.00    -0.244 OA
ATOM     11  C   LIG d   1       4.378  -1.917  -5.569  0.00  0.00     0.075 A 
ATOM     12 CL   LIG d   1       3.589  -3.945 -11.613  0.00  0.00    -0.084 Cl
ATOM     13  H   LIG d   1       3.882  -1.932  -9.626  0.00  0.00     0.064 H 
ATOM     14  H   LIG d   1       3.746  -6.188  -9.870  0.00  0.00     0.063 H 
ATOM     15  H   LIG d   1       4.038  -6.364  -7.441  0.00  0.00     0.066 H 
ENDROOT
BRANCH   1  16
ATOM     16  C   LIG d   1       4.170  -0.427  -7.565  0.00  0.00    -0.016 A 
ATOM     17  C   LIG d   1       5.342   0.162  -8.041  0.00  0.00    -0.054 A 
ATOM     18  C   LIG d   1       5.297   1.415  -8.616  0.00  0.00    -0.061 A 
ATOM     19  H   LIG d   1       6.284  -0.360  -7.955  0.00  0.00     0.062 H 
ATOM     20  C   LIG d   1       4.091   2.083  -8.731  0.00  0.00    -0.062 A 
ATOM     21  H   LIG d   1       6.204   1.874  -8.981  0.00  0.00     0.062 H 
ATOM     22  C   LIG d   1       2.923   1.503  -8.267  0.00  0.00    -0.061 A 
ATOM     23  H   LIG d   1       4.060   3.063  -9.186  0.00  0.00     0.062 H 
ATOM     24  C   LIG d   1       2.955   0.253  -7.685  0.00  0.00    -0.054 A 
ATOM     25  H   LIG d   1       1.986   2.029  -8.360  0.00  0.00     0.062 H 
ATOM     26  H   LIG d   1       2.044  -0.199  -7.322  0.00  0.00     0.062 H 
ENDBRANCH   1  16
BRANCH  11  27
ATOM     27  C   LIG d   1       4.515  -0.733  -4.691  0.00  0.00    -0.010 A 
ATOM     28  C   LIG d   1       3.379  -0.107  -4.175  0.00  0.00    -0.054 A 
ATOM     29  C   LIG d   1       3.514   0.996  -3.358  0.00  0.00    -0.061 A 
ATOM     30  H   LIG d   1       2.397  -0.486  -4.416  0.00  0.00     0.062 H 
ATOM     31  C   LIG d   1       4.773   1.482  -3.049  0.00  0.00    -0.062 A 
ATOM     32  H   LIG d   1       2.636   1.481  -2.958  0.00  0.00     0.062 H 
ATOM     33  C   LIG d   1       5.903   0.867  -3.558  0.00  0.00    -0.061 A 
ATOM     34  H   LIG d   1       4.873   2.345  -2.409  0.00  0.00     0.062 H 
ATOM     35  C   LIG d   1       5.781  -0.241  -4.373  0.00  0.00    -0.054 A 
ATOM     36  H   LIG d   1       6.881   1.252  -3.314  0.00  0.00     0.062 H 
ATOM     37  H   LIG d   1       6.664  -0.723  -4.764  0.00  0.00     0.062 H 
ENDBRANCH  11  27
TORSDOF 2
ENDMDL
MODEL 7
REMARK VINA RESULT:      -6.2      2.671      4.123
REMARK  2 active torsions:
REMARK  status: ('A' for Active; 'I' for Inactive)
REMARK    1  A    between atoms: C_4  and  C_7 
REMARK    2  A    between atoms: C_17  and  C_18 
ROOT
ATOM      1  C   LIG d   1       3.826  -0.938  -7.549  0.00  0.00     0.007 A 
ATOM      2  C   LIG d   1       3.573  -0.638  -6.129  0.00  0.00     0.027 A 
ATOM      3  C   LIG d   1       3.916  -1.560  -5.138  0.00  0.00    -0.032 A 
ATOM      4  C   LIG d   1       3.676  -1.261  -3.814  0.00  0.00     0.042 A 
ATOM      5  C   LIG d   1       3.102  -0.046  -3.466  0.00  0.00    -0.040 A 
ATOM      6  C   LIG d   1       2.765   0.874  -4.435  0.00  0.00    -0.017 A 
ATOM      7  C   LIG d   1       2.998   0.593  -5.776  0.00  0.00     0.140 A 
ATOM      8  O   LIG d   1       2.667   1.497  -6.722  0.00  0.00    -0.422 OA
ATOM      9  C   LIG d   1       2.872   1.274  -8.029  0.00  0.00     0.346 A 
ATOM     10  O   LIG d   1       2.554   2.124  -8.841  0.00  0.00    -0.244 OA
ATOM     11  C   LIG d   1       3.471   0.022  -8.493  0.00  0.00     0.075 A 
ATOM     12 CL   LIG d   1       4.093  -2.407  -2.578  0.00  0.00    -0.084 Cl
ATOM     13  H   LIG d   1       4.362  -2.506  -5.407  0.00  0.00     0.064 H 
ATOM     14  H   LIG d   1       2.918   0.179  -2.425  0.00  0.00     0.063 H 
ATOM     15  H   LIG d   1       2.320   1.817  -4.151  0.00  0.00     0.066 H 
ENDROOT
BRANCH   1  16
ATOM     16  C   LIG d   1       4.435  -2.221  -7.959  0.00  0.00    -0.016 A 
ATOM     17  C   LIG d   1       3.624  -3.294  -8.331  0.00  0.00    -0.054 A 
ATOM     18  C   LIG d   1       4.197  -4.490  -8.708  0.00  0.00    -0.061 A 
ATOM     19  H   LIG d   1       2.549  -3.190  -8.320  0.00  0.00     0.062 H 
ATOM     20  C   LIG d   1       5.574  -4.625  -8.728  0.00  0.00    -0.062 A 
ATOM     21  H   LIG d   1       3.571  -5.323  -8.993  0.00  0.00     0.062 H 
ATOM     22  C   LIG d   1       6.385  -3.564  -8.365  0.00  0.00    -0.061 A 
ATOM     23  H   LIG d   1       6.019  -5.563  -9.028  0.00  0.00     0.062 H 
ATOM     24  C   LIG d   1       5.825  -2.363  -7.981  0.00  0.00    -0.054 A 
ATOM     25  H   LIG d   1       7.459  -3.675  -8.383  0.00  0.00     0.062 H 
ATOM     26  H   LIG d   1       6.458  -1.536  -7.697  0.00  0.00     0.062 H 
ENDBRANCH   1  16
BRANCH  11  27
ATOM     27  C   LIG d   1       3.694  -0.218  -9.936  0.00  0.00    -0.010 A 
ATOM     28  C   LIG d   1       4.935   0.064 -10.510  0.00  0.00    -0.054 A 
ATOM     29  C   LIG d   1       5.137  -0.161 -11.856  0.00  0.00    -0.061 A 
ATOM     30  H   LIG d   1       5.735   0.459  -9.902  0.00  0.00     0.062 H 
ATOM     31  C   LIG d   1       4.111  -0.667 -12.636  0.00  0.00    -0.062 A 
ATOM     32  H   LIG d   1       6.096   0.057 -12.302  0.00  0.00     0.062 H 
ATOM     33  C   LIG d   1       2.879  -0.947 -12.074  0.00  0.00    -0.061 A 
ATOM     34  H   LIG d   1       4.274  -0.841 -13.689  0.00  0.00     0.062 H 
ATOM     35  C   LIG d   1       2.666  -0.731 -10.727  0.00  0.00    -0.054 A 
ATOM     36  H   LIG d   1       2.083  -1.341 -12.689  0.00  0.00     0.062 H 
ATOM     37  H   LIG d   1       1.706  -0.956 -10.289  0.00  0.00     0.062 H 
ENDBRANCH  11  27
TORSDOF 2
ENDMDL
MODEL 8
REMARK VINA RESULT:      -6.0      4.114      6.664
REMARK  2 active torsions:
REMARK  status: ('A' for Active; 'I' for Inactive)
REMARK    1  A    between atoms: C_4  and  C_7 
REMARK    2  A    between atoms: C_17  and  C_18 
ROOT
ATOM      1  C   LIG d   1       7.303  -1.165  -5.184  0.00  0.00     0.007 A 
ATOM      2  C   LIG d   1       8.654  -0.800  -5.644  0.00  0.00     0.027 A 
ATOM      3  C   LIG d   1       9.343  -1.621  -6.541  0.00  0.00    -0.032 A 
ATOM      4  C   LIG d   1      10.604  -1.263  -6.965  0.00  0.00     0.042 A 
ATOM      5  C   LIG d   1      11.186  -0.088  -6.510  0.00  0.00    -0.040 A 
ATOM      6  C   LIG d   1      10.514   0.733  -5.630  0.00  0.00    -0.017 A 
ATOM      7  C   LIG d   1       9.241   0.390  -5.189  0.00  0.00     0.140 A 
ATOM      8  O   LIG d   1       8.585   1.197  -4.327  0.00  0.00    -0.422 OA
ATOM      9  C   LIG d   1       7.356   0.912  -3.872  0.00  0.00     0.346 A 
ATOM     10  O   LIG d   1       6.810   1.675  -3.096  0.00  0.00    -0.244 OA
ATOM     11  C   LIG d   1       6.662  -0.304  -4.296  0.00  0.00     0.075 A 
ATOM     12 CL   LIG d   1      11.467  -2.283  -8.074  0.00  0.00    -0.084 Cl
ATOM     13  H   LIG d   1       8.891  -2.536  -6.896  0.00  0.00     0.064 H 
ATOM     14  H   LIG d   1      12.175   0.185  -6.848  0.00  0.00     0.063 H 
ATOM     15  H   LIG d   1      10.977   1.645  -5.283  0.00  0.00     0.066 H 
ENDROOT
BRANCH   1  16
ATOM     16  C   LIG d   1       6.651  -2.408  -5.647  0.00  0.00    -0.016 A 
ATOM     17  C   LIG d   1       6.877  -3.610  -4.974  0.00  0.00    -0.054 A 
ATOM     18  C   LIG d   1       6.270  -4.768  -5.413  0.00  0.00    -0.061 A 
ATOM     19  H   LIG d   1       7.531  -3.635  -4.114  0.00  0.00     0.062 H 
ATOM     20  C   LIG d   1       5.428  -4.737  -6.511  0.00  0.00    -0.062 A 
ATOM     21  H   LIG d   1       6.447  -5.699  -4.897  0.00  0.00     0.062 H 
ATOM     22  C   LIG d   1       5.194  -3.548  -7.179  0.00  0.00    -0.061 A 
ATOM     23  H   LIG d   1       4.951  -5.646  -6.849  0.00  0.00     0.062 H 
ATOM     24  C   LIG d   1       5.800  -2.384  -6.754  0.00  0.00    -0.054 A 
ATOM     25  H   LIG d   1       4.537  -3.531  -8.035  0.00  0.00     0.062 H 
ATOM     26  H   LIG d   1       5.617  -1.456  -7.277  0.00  0.00     0.062 H 
ENDBRANCH   1  16
BRANCH  11  27
ATOM     27  C   LIG d   1       5.306  -0.614  -3.791  0.00  0.00    -0.010 A 
ATOM     28  C   LIG d   1       4.183  -0.064  -4.413  0.00  0.00    -0.054 A 
ATOM     29  C   LIG d   1       2.922  -0.356  -3.937  0.00  0.00    -0.061 A 
ATOM     30  H   LIG d   1       4.303   0.589  -5.265  0.00  0.00     0.062 H 
ATOM     31  C   LIG d   1       2.769  -1.192  -2.845  0.00  0.00    -0.062 A 
ATOM     32  H   LIG d   1       2.053   0.069  -4.417  0.00  0.00     0.062 H 
ATOM     33  C   LIG d   1       3.877  -1.739  -2.223  0.00  0.00    -0.061 A 
ATOM     34  H   LIG d   1       1.779  -1.417  -2.476  0.00  0.00     0.062 H 
ATOM     35  C   LIG d   1       5.144  -1.459  -2.693  0.00  0.00    -0.054 A 
ATOM     36  H   LIG d   1       3.749  -2.390  -1.371  0.00  0.00     0.062 H 
ATOM     37  H   LIG d   1       6.007  -1.891  -2.210  0.00  0.00     0.062 H 
ENDBRANCH  11  27
TORSDOF 2
ENDMDL
MODEL 9
REMARK VINA RESULT:      -5.8      2.794      5.299
REMARK  2 active torsions:
REMARK  status: ('A' for Active; 'I' for Inactive)
REMARK    1  A    between atoms: C_4  and  C_7 
REMARK    2  A    between atoms: C_17  and  C_18 
ROOT
ATOM      1  C   LIG d   1       3.800  -1.620  -8.339  0.00  0.00     0.007 A 
ATOM      2  C   LIG d   1       3.176  -2.531  -9.314  0.00  0.00     0.027 A 
ATOM      3  C   LIG d   1       2.611  -2.031 -10.490  0.00  0.00    -0.032 A 
ATOM      4  C   LIG d   1       2.036  -2.897 -11.393  0.00  0.00     0.042 A 
ATOM      5  C   LIG d   1       2.023  -4.262 -11.140  0.00  0.00    -0.040 A 
ATOM      6  C   LIG d   1       2.582  -4.768  -9.987  0.00  0.00    -0.017 A 
ATOM      7  C   LIG d   1       3.168  -3.911  -9.062  0.00  0.00     0.140 A 
ATOM      8  O   LIG d   1       3.716  -4.410  -7.933  0.00  0.00    -0.422 OA
ATOM      9  C   LIG d   1       4.293  -3.626  -7.010  0.00  0.00     0.346 A 
ATOM     10  O   LIG d   1       4.771  -4.129  -6.009  0.00  0.00    -0.244 OA
ATOM     11  C   LIG d   1       4.354  -2.176  -7.188  0.00  0.00     0.075 A 
ATOM     12 CL   LIG d   1       1.326  -2.280 -12.853  0.00  0.00    -0.084 Cl
ATOM     13  H   LIG d   1       2.620  -0.969 -10.688  0.00  0.00     0.064 H 
ATOM     14  H   LIG d   1       1.569  -4.934 -11.855  0.00  0.00     0.063 H 
ATOM     15  H   LIG d   1       2.566  -5.832  -9.802  0.00  0.00     0.066 H 
ENDROOT
BRANCH   1  16
ATOM     16  C   LIG d   1       3.833  -0.161  -8.573  0.00  0.00    -0.016 A 
ATOM     17  C   LIG d   1       4.918   0.419  -9.234  0.00  0.00    -0.054 A 
ATOM     18  C   LIG d   1       4.945   1.781  -9.445  0.00  0.00    -0.061 A 
ATOM     19  H   LIG d   1       5.736  -0.198  -9.575  0.00  0.00     0.062 H 
ATOM     20  C   LIG d   1       3.895   2.572  -9.013  0.00  0.00    -0.062 A 
ATOM     21  H   LIG d   1       5.785   2.231  -9.952  0.00  0.00     0.062 H 
ATOM     22  C   LIG d   1       2.814   2.004  -8.363  0.00  0.00    -0.061 A 
ATOM     23  H   LIG d   1       3.919   3.639  -9.185  0.00  0.00     0.062 H 
ATOM     24  C   LIG d   1       2.776   0.644  -8.140  0.00  0.00    -0.054 A 
ATOM     25  H   LIG d   1       1.998   2.627  -8.028  0.00  0.00     0.062 H 
ATOM     26  H   LIG d   1       1.932   0.201  -7.631  0.00  0.00     0.062 H 
ENDBRANCH   1  16
BRANCH  11  27
ATOM     27  C   LIG d   1       4.993  -1.317  -6.166  0.00  0.00    -0.010 A 
ATOM     28  C   LIG d   1       6.344  -0.984  -6.274  0.00  0.00    -0.054 A 
ATOM     29  C   LIG d   1       6.933  -0.184  -5.318  0.00  0.00    -0.061 A 
ATOM     30  H   LIG d   1       6.927  -1.354  -7.104  0.00  0.00     0.062 H 
ATOM     31  C   LIG d   1       6.186   0.290  -4.253  0.00  0.00    -0.062 A 
ATOM     32  H   LIG d   1       7.979   0.074  -5.400  0.00  0.00     0.062 H 
ATOM     33  C   LIG d   1       4.847  -0.036  -4.140  0.00  0.00    -0.061 A 
ATOM     34  H   LIG d   1       6.652   0.917  -3.507  0.00  0.00     0.062 H 
ATOM     35  C   LIG d   1       4.244  -0.832  -5.093  0.00  0.00    -0.054 A 
ATOM     36  H   LIG d   1       4.271   0.336  -3.306  0.00  0.00     0.062 H 
ATOM     37  H   LIG d   1       3.198  -1.081  -5.005  0.00  0.00     0.062 H 
ENDBRANCH  11  27
TORSDOF 2
ENDMDL
MODEL 10
REMARK VINA RESULT:      -5.8     10.726     13.628
REMARK  2 active torsions:
REMARK  status: ('A' for Active; 'I' for Inactive)
REMARK    1  A    between atoms: C_4  and  C_7 
REMARK    2  A    between atoms: C_17  and  C_18 
ROOT
ATOM      1  C   LIG d   1      10.230   8.253  -4.074  0.00  0.00     0.007 A 
ATOM      2  C   LIG d   1       9.937   7.937  -5.483  0.00  0.00     0.027 A 
ATOM      3  C   LIG d   1      10.111   6.638  -5.968  0.00  0.00    -0.032 A 
ATOM      4  C   LIG d   1       9.828   6.359  -7.287  0.00  0.00     0.042 A 
ATOM      5  C   LIG d   1       9.365   7.360  -8.130  0.00  0.00    -0.040 A 
ATOM      6  C   LIG d   1       9.184   8.644  -7.661  0.00  0.00    -0.017 A 
ATOM      7  C   LIG d   1       9.464   8.948  -6.334  0.00  0.00     0.140 A 
ATOM      8  O   LIG d   1       9.285  10.205  -5.878  0.00  0.00    -0.422 OA
ATOM      9  C   LIG d   1       9.540  10.550  -4.607  0.00  0.00     0.346 A 
ATOM     10  O   LIG d   1       9.361  11.700  -4.248  0.00  0.00    -0.244 OA
ATOM     11  C   LIG d   1      10.030   9.563  -3.645  0.00  0.00     0.075 A 
ATOM     12 CL   LIG d   1      10.049   4.748  -7.897  0.00  0.00    -0.084 Cl
ATOM     13  H   LIG d   1      10.471   5.858  -5.314  0.00  0.00     0.064 H 
ATOM     14  H   LIG d   1       9.146   7.131  -9.163  0.00  0.00     0.063 H 
ATOM     15  H   LIG d   1       8.823   9.414  -8.326  0.00  0.00     0.066 H 
ENDROOT
BRANCH   1  16
ATOM     16  C   LIG d   1      10.724   7.214  -3.147  0.00  0.00    -0.016 A 
ATOM     17  C   LIG d   1       9.822   6.469  -2.385  0.00  0.00    -0.054 A 
ATOM     18  C   LIG d   1      10.289   5.503  -1.519  0.00  0.00    -0.061 A 
ATOM     19  H   LIG d   1       8.761   6.651  -2.471  0.00  0.00     0.062 H 
ATOM     20  C   LIG d   1      11.648   5.264  -1.411  0.00  0.00    -0.062 A 
ATOM     21  H   LIG d   1       9.593   4.929  -0.925  0.00  0.00     0.062 H 
ATOM     22  C   LIG d   1      12.547   5.995  -2.168  0.00  0.00    -0.061 A 
ATOM     23  H   LIG d   1      12.009   4.504  -0.734  0.00  0.00     0.062 H 
ATOM     24  C   LIG d   1      12.094   6.968  -3.034  0.00  0.00    -0.054 A 
ATOM     25  H   LIG d   1      13.606   5.804  -2.079  0.00  0.00     0.062 H 
ATOM     26  H   LIG d   1      12.797   7.538  -3.624  0.00  0.00     0.062 H 
ENDBRANCH   1  16
BRANCH  11  27
ATOM     27  C   LIG d   1      10.309   9.950  -2.244  0.00  0.00    -0.010 A 
ATOM     28  C   LIG d   1      11.585  10.379  -1.876  0.00  0.00    -0.054 A 
ATOM     29  C   LIG d   1      11.839  10.737  -0.568  0.00  0.00    -0.061 A 
ATOM     30  H   LIG d   1      12.373  10.430  -2.613  0.00  0.00     0.062 H 
ATOM     31  C   LIG d   1      10.831  10.672   0.378  0.00  0.00    -0.062 A 
ATOM     32  H   LIG d   1      12.826  11.070  -0.282  0.00  0.00     0.062 H 
ATOM     33  C   LIG d   1       9.564  10.246   0.020  0.00  0.00    -0.061 A 
ATOM     34  H   LIG d   1      11.035  10.954   1.400  0.00  0.00     0.062 H 
ATOM     35  C   LIG d   1       9.296   9.890  -1.286  0.00  0.00    -0.054 A 
ATOM     36  H   LIG d   1       8.783  10.197   0.763  0.00  0.00     0.062 H 
ATOM     37  H   LIG d   1       8.306   9.563  -1.565  0.00  0.00     0.062 H 
ENDBRANCH  11  27
TORSDOF 2
ENDMDL
