MODEL 1
REMARK VINA RESULT:      -6.0      0.000      0.000
REMARK  13 active torsions:
REMARK  status: ('A' for Active; 'I' for Inactive)
REMARK    1  A    between atoms: C_1  and  C_2 
REMARK    2  A    between atoms: C_5  and  O_40 
REMARK    3  A    between atoms: C_7  and  C_38 
REMARK    4  A    between atoms: C_7  and  C_39 
REMARK    5  A    between atoms: C_12  and  C_37 
REMARK    6  A    between atoms: C_20  and  C_30 
REMARK    7  A    between atoms: C_20  and  C_31 
REMARK    8  A    between atoms: C_24  and  C_29 
REMARK    9  A    between atoms: C_27  and  C_28 
REMARK   10  A    between atoms: C_31  and  O_33 
REMARK   11  A    between atoms: O_33  and  C_34 
REMARK   12  A    between atoms: C_34  and  C_35 
REMARK   13  A    between atoms: C_35  and  N_36 
ROOT
ATOM      1  C   LIG d   1       5.005  -0.631  -5.560  0.00  0.00    -0.022 C 
ATOM      2  C   LIG d   1       3.731   0.165  -5.881  0.00  0.00    -0.044 C 
ATOM      3  C   LIG d   1       2.622  -0.164  -4.891  0.00  0.00    -0.026 C 
ATOM      4  C   LIG d   1       3.068   0.309  -3.510  0.00  0.00     0.061 C 
ATOM      5  H   LIG d   1       2.261   0.137  -2.793  0.00  0.00     0.060 H 
ATOM      6  C   LIG d   1       4.304  -0.475  -3.065  0.00  0.00    -0.006 C 
ATOM      7  C   LIG d   1       5.404  -0.502  -4.102  0.00  0.00    -0.028 C 
ATOM      8  H   LIG d   1       5.882   0.523  -4.033  0.00  0.00     0.031 H 
ATOM      9  C   LIG d   1       6.530  -1.457  -3.728  0.00  0.00    -0.049 C 
ATOM     10  C   LIG d   1       6.307  -2.904  -4.139  0.00  0.00    -0.046 C 
ATOM     11  C   LIG d   1       5.932  -3.025  -5.609  0.00  0.00    -0.016 C 
ATOM     12  C   LIG d   1       4.803  -2.077  -5.967  0.00  0.00    -0.011 C 
ATOM     13  H   LIG d   1       3.906  -2.384  -5.390  0.00  0.00     0.035 H 
ATOM     14  C   LIG d   1       4.406  -2.244  -7.401  0.00  0.00    -0.080 C 
ATOM     15  C   LIG d   1       4.616  -3.370  -8.075  0.00  0.00    -0.062 C 
ATOM     16  C   LIG d   1       5.299  -4.520  -7.442  0.00  0.00    -0.041 C 
ATOM     17  C   LIG d   1       5.694  -5.545  -8.187  0.00  0.00    -0.052 C 
ATOM     18  C   LIG d   1       5.371  -5.544  -9.664  0.00  0.00    -0.014 C 
ATOM     19  C   LIG d   1       4.745  -6.876 -10.076  0.00  0.00     0.075 C 
ATOM     20  C   LIG d   1       5.711  -8.018  -9.754  0.00  0.00     0.022 C 
ATOM     21  C   LIG d   1       6.012  -7.998  -8.277  0.00  0.00     0.144 C 
ATOM     22  O   LIG d   1       5.915  -9.010  -7.623  0.00  0.00    -0.296 OA
ATOM     23  C   LIG d   1       6.441  -6.714  -7.615  0.00  0.00     0.048 C 
ATOM     24  C   LIG d   1       6.257  -6.832  -6.108  0.00  0.00    -0.036 C 
ATOM     25  C   LIG d   1       6.498  -5.478  -5.442  0.00  0.00    -0.042 C 
ATOM     26  C   LIG d   1       5.498  -4.459  -5.949  0.00  0.00    -0.001 C 
ATOM     27  H   LIG d   1       3.966   1.231  -5.829  0.00  0.00     0.027 H 
ATOM     28  H   LIG d   1       3.404  -0.067  -6.893  0.00  0.00     0.027 H 
ATOM     29  H   LIG d   1       1.708   0.364  -5.177  0.00  0.00     0.029 H 
ATOM     30  H   LIG d   1       2.424  -1.233  -4.884  0.00  0.00     0.029 H 
ATOM     31  H   LIG d   1       7.465  -1.095  -4.182  0.00  0.00     0.027 H 
ATOM     32  H   LIG d   1       6.699  -1.423  -2.643  0.00  0.00     0.027 H 
ATOM     33  H   LIG d   1       7.266  -3.445  -3.996  0.00  0.00     0.027 H 
ATOM     34  H   LIG d   1       5.590  -3.407  -3.504  0.00  0.00     0.027 H 
ATOM     35  H   LIG d   1       3.931  -1.427  -7.916  0.00  0.00     0.058 H 
ATOM     36  H   LIG d   1       4.266  -3.415  -9.093  0.00  0.00     0.062 H 
ATOM     37  H   LIG d   1       4.675  -4.749  -9.910  0.00  0.00     0.032 H 
ATOM     38  H   LIG d   1       6.293  -5.395 -10.233  0.00  0.00     0.032 H 
ATOM     39  H   LIG d   1       5.250  -8.971 -10.019  0.00  0.00     0.035 H 
ATOM     40  H   LIG d   1       6.632  -7.891 -10.322  0.00  0.00     0.035 H 
ATOM     41  H   LIG d   1       5.253  -7.191  -5.887  0.00  0.00     0.028 H 
ATOM     42  H   LIG d   1       6.978  -7.557  -5.715  0.00  0.00     0.028 H 
ATOM     43  H   LIG d   1       6.355  -5.594  -4.358  0.00  0.00     0.027 H 
ATOM     44  H   LIG d   1       7.518  -5.153  -5.612  0.00  0.00     0.027 H 
ENDROOT
BRANCH  19  45
ATOM     45  C   LIG d   1       4.465  -6.857 -11.580  0.00  0.00    -0.049 C 
ATOM     46  H   LIG d   1       3.737  -7.630 -11.824  0.00  0.00     0.024 H 
ATOM     47  H   LIG d   1       4.069  -5.882 -11.864  0.00  0.00     0.024 H 
ATOM     48  H   LIG d   1       5.390  -7.045 -12.124  0.00  0.00     0.024 H 
ENDBRANCH  19  45
BRANCH  19  49
ATOM     49  C   LIG d   1       3.453  -7.078  -9.329  0.00  0.00     0.314 C 
ATOM     50  O   LIG d   1       3.132  -8.184  -8.964  0.00  0.00    -0.250 OA
BRANCH  49  51
ATOM     51  O   LIG d   1       2.658  -6.029  -9.069  0.00  0.00    -0.459 OA
BRANCH  51  52
ATOM     52  C   LIG d   1       1.596  -5.775  -9.991  0.00  0.00     0.132 C 
ATOM     53  H   LIG d   1       1.717  -6.410 -10.869  0.00  0.00     0.075 H 
ATOM     54  H   LIG d   1       0.641  -5.993  -9.514  0.00  0.00     0.075 H 
BRANCH  52  55
ATOM     55  C   LIG d   1       1.630  -4.306 -10.416  0.00  0.00    -0.000 C 
ATOM     56  H   LIG d   1       2.345  -3.765  -9.796  0.00  0.00     0.085 H 
ATOM     57  H   LIG d   1       1.932  -4.237 -11.462  0.00  0.00     0.085 H 
BRANCH  55  58
ATOM     58  N   LIG d   1       0.295  -3.716 -10.252  0.00  0.00     0.221 N 
ATOM     59  H   LIG d   1       0.042  -3.218 -11.092  0.00  0.00     0.200 HD
ATOM     60  H   LIG d   1      -0.377  -4.448 -10.081  0.00  0.00     0.200 HD
ATOM     61  H   LIG d   1       0.303  -3.077  -9.471  0.00  0.00     0.200 HD
ENDBRANCH  55  58
ENDBRANCH  52  55
ENDBRANCH  51  52
ENDBRANCH  49  51
ENDBRANCH  19  49
BRANCH  23  62
ATOM     62  C   LIG d   1       7.933  -6.518  -7.909  0.00  0.00    -0.049 C 
ATOM     63  H   LIG d   1       8.470  -6.365  -6.974  0.00  0.00     0.024 H 
ATOM     64  H   LIG d   1       8.323  -7.403  -8.412  0.00  0.00     0.024 H 
ATOM     65  H   LIG d   1       8.064  -5.647  -8.551  0.00  0.00     0.024 H 
ENDBRANCH  23  62
BRANCH  26  66
ATOM     66  C   LIG d   1       4.157  -4.775  -5.285  0.00  0.00    -0.055 C 
ATOM     67  H   LIG d   1       3.866  -5.799  -5.522  0.00  0.00     0.024 H 
ATOM     68  H   LIG d   1       4.251  -4.666  -4.205  0.00  0.00     0.024 H 
ATOM     69  H   LIG d   1       3.398  -4.086  -5.655  0.00  0.00     0.024 H 
ENDBRANCH  26  66
BRANCH  11  70
ATOM     70  C   LIG d   1       7.188  -2.755  -6.455  0.00  0.00    -0.058 C 
ATOM     71  H   LIG d   1       8.075  -2.842  -5.826  0.00  0.00     0.024 H 
ATOM     72  H   LIG d   1       7.244  -3.482  -7.265  0.00  0.00     0.024 H 
ATOM     73  H   LIG d   1       7.136  -1.749  -6.873  0.00  0.00     0.024 H 
ENDBRANCH  11  70
BRANCH   1  74
ATOM     74  C   LIG d   1       6.097   0.042  -6.420  0.00  0.00    -0.059 C 
ATOM     75  H   LIG d   1       6.223  -0.514  -7.349  0.00  0.00     0.024 H 
ATOM     76  H   LIG d   1       5.802   1.066  -6.648  0.00  0.00     0.024 H 
ATOM     77  H   LIG d   1       7.038   0.050  -5.871  0.00  0.00     0.024 H 
ENDBRANCH   1  74
BRANCH   6  78
ATOM     78  C   LIG d   1       4.845   0.245  -1.805  0.00  0.00    -0.057 C 
ATOM     79  H   LIG d   1       4.099   0.950  -1.440  0.00  0.00     0.024 H 
ATOM     80  H   LIG d   1       5.059  -0.492  -1.030  0.00  0.00     0.024 H 
ATOM     81  H   LIG d   1       5.760   0.781  -2.058  0.00  0.00     0.024 H 
ENDBRANCH   6  78
BRANCH   6  82
ATOM     82  C   LIG d   1       3.853  -1.869  -2.629  0.00  0.00    -0.057 C 
ATOM     83  H   LIG d   1       4.229  -2.077  -1.627  0.00  0.00     0.024 H 
ATOM     84  H   LIG d   1       2.764  -1.914  -2.625  0.00  0.00     0.024 H 
ATOM     85  H   LIG d   1       4.244  -2.612  -3.324  0.00  0.00     0.024 H 
ENDBRANCH   6  82
BRANCH   4  86
ATOM     86  O   LIG d   1       3.370   1.704  -3.547  0.00  0.00    -0.391 OA
ATOM     87  H   LIG d   1       3.287   2.148  -2.692  0.00  0.00     0.210 HD
ENDBRANCH   4  86
TORSDOF 13
ENDMDL
MODEL 2
REMARK VINA RESULT:      -5.9      9.398     14.340
REMARK  13 active torsions:
REMARK  status: ('A' for Active; 'I' for Inactive)
REMARK    1  A    between atoms: C_1  and  C_2 
REMARK    2  A    between atoms: C_5  and  O_40 
REMARK    3  A    between atoms: C_7  and  C_38 
REMARK    4  A    between atoms: C_7  and  C_39 
REMARK    5  A    between atoms: C_12  and  C_37 
REMARK    6  A    between atoms: C_20  and  C_30 
REMARK    7  A    between atoms: C_20  and  C_31 
REMARK    8  A    between atoms: C_24  and  C_29 
REMARK    9  A    between atoms: C_27  and  C_28 
REMARK   10  A    between atoms: C_31  and  O_33 
REMARK   11  A    between atoms: O_33  and  C_34 
REMARK   12  A    between atoms: C_34  and  C_35 
REMARK   13  A    between atoms: C_35  and  N_36 
ROOT
ATOM      1  C   LIG d   1      10.060   3.573  -5.846  0.00  0.00    -0.022 C 
ATOM      2  C   LIG d   1       9.442   4.193  -7.108  0.00  0.00    -0.044 C 
ATOM      3  C   LIG d   1      10.526   4.710  -8.044  0.00  0.00    -0.026 C 
ATOM      4  C   LIG d   1      11.341   3.514  -8.528  0.00  0.00     0.061 C 
ATOM      5  H   LIG d   1      12.088   3.855  -9.249  0.00  0.00     0.060 H 
ATOM      6  C   LIG d   1      12.056   2.858  -7.345  0.00  0.00    -0.006 C 
ATOM      7  C   LIG d   1      11.139   2.560  -6.179  0.00  0.00    -0.028 C 
ATOM      8  H   LIG d   1      10.567   1.637  -6.499  0.00  0.00     0.031 H 
ATOM      9  C   LIG d   1      11.904   2.107  -4.942  0.00  0.00    -0.049 C 
ATOM     10  C   LIG d   1      12.421   3.233  -4.059  0.00  0.00    -0.046 C 
ATOM     11  C   LIG d   1      11.325   4.229  -3.710  0.00  0.00    -0.016 C 
ATOM     12  C   LIG d   1      10.577   4.681  -4.950  0.00  0.00    -0.011 C 
ATOM     13  H   LIG d   1      11.296   5.223  -5.601  0.00  0.00     0.035 H 
ATOM     14  C   LIG d   1       9.540   5.702  -4.601  0.00  0.00    -0.080 C 
ATOM     15  C   LIG d   1       9.623   6.465  -3.517  0.00  0.00    -0.062 C 
ATOM     16  C   LIG d   1      10.745   6.314  -2.564  0.00  0.00    -0.041 C 
ATOM     17  C   LIG d   1      10.698   6.924  -1.387  0.00  0.00    -0.052 C 
ATOM     18  C   LIG d   1       9.522   7.821  -1.073  0.00  0.00    -0.014 C 
ATOM     19  C   LIG d   1      10.005   9.170  -0.542  0.00  0.00     0.075 C 
ATOM     20  C   LIG d   1      10.848   8.956   0.717  0.00  0.00     0.022 C 
ATOM     21  C   LIG d   1      12.013   8.063   0.375  0.00  0.00     0.144 C 
ATOM     22  O   LIG d   1      13.136   8.382   0.688  0.00  0.00    -0.296 OA
ATOM     23  C   LIG d   1      11.778   6.766  -0.355  0.00  0.00     0.048 C 
ATOM     24  C   LIG d   1      13.086   6.279  -0.963  0.00  0.00    -0.036 C 
ATOM     25  C   LIG d   1      12.829   5.076  -1.869  0.00  0.00    -0.042 C 
ATOM     26  C   LIG d   1      11.910   5.465  -3.009  0.00  0.00    -0.001 C 
ATOM     27  H   LIG d   1       8.851   3.427  -7.617  0.00  0.00     0.027 H 
ATOM     28  H   LIG d   1       8.779   5.008  -6.824  0.00  0.00     0.027 H 
ATOM     29  H   LIG d   1      10.062   5.204  -8.903  0.00  0.00     0.029 H 
ATOM     30  H   LIG d   1      11.163   5.424  -7.529  0.00  0.00     0.029 H 
ATOM     31  H   LIG d   1      11.251   1.453  -4.344  0.00  0.00     0.027 H 
ATOM     32  H   LIG d   1      12.753   1.478  -5.242  0.00  0.00     0.027 H 
ATOM     33  H   LIG d   1      12.772   2.779  -3.109  0.00  0.00     0.027 H 
ATOM     34  H   LIG d   1      13.285   3.726  -4.485  0.00  0.00     0.027 H 
ATOM     35  H   LIG d   1       8.688   5.831  -5.247  0.00  0.00     0.058 H 
ATOM     36  H   LIG d   1       8.849   7.198  -3.361  0.00  0.00     0.062 H 
ATOM     37  H   LIG d   1       8.920   7.997  -1.957  0.00  0.00     0.032 H 
ATOM     38  H   LIG d   1       8.900   7.343  -0.311  0.00  0.00     0.032 H 
ATOM     39  H   LIG d   1      11.218   9.917   1.076  0.00  0.00     0.035 H 
ATOM     40  H   LIG d   1      10.239   8.490   1.491  0.00  0.00     0.035 H 
ATOM     41  H   LIG d   1      13.553   7.086  -1.526  0.00  0.00     0.028 H 
ATOM     42  H   LIG d   1      13.766   5.981  -0.157  0.00  0.00     0.028 H 
ATOM     43  H   LIG d   1      13.788   4.749  -2.294  0.00  0.00     0.027 H 
ATOM     44  H   LIG d   1      12.422   4.253  -1.293  0.00  0.00     0.027 H 
ENDROOT
BRANCH  19  45
ATOM     45  C   LIG d   1       8.793  10.040  -0.200  0.00  0.00    -0.049 C 
ATOM     46  H   LIG d   1       8.070   9.993  -1.014  0.00  0.00     0.024 H 
ATOM     47  H   LIG d   1       8.332   9.675   0.718  0.00  0.00     0.024 H 
ATOM     48  H   LIG d   1       9.115  11.072  -0.058  0.00  0.00     0.024 H 
ENDBRANCH  19  45
BRANCH  19  49
ATOM     49  C   LIG d   1      10.833   9.860  -1.596  0.00  0.00     0.314 C 
ATOM     50  O   LIG d   1      11.864  10.409  -1.290  0.00  0.00    -0.250 OA
BRANCH  49  51
ATOM     51  O   LIG d   1      10.424   9.862  -2.874  0.00  0.00    -0.459 OA
BRANCH  51  52
ATOM     52  C   LIG d   1      10.195  11.136  -3.479  0.00  0.00     0.132 C 
ATOM     53  H   LIG d   1      10.277  11.917  -2.724  0.00  0.00     0.075 H 
ATOM     54  H   LIG d   1      10.936  11.306  -4.260  0.00  0.00     0.075 H 
BRANCH  52  55
ATOM     55  C   LIG d   1       8.793  11.165  -4.092  0.00  0.00    -0.000 C 
ATOM     56  H   LIG d   1       8.766  11.894  -4.902  0.00  0.00     0.085 H 
ATOM     57  H   LIG d   1       8.548  10.177  -4.484  0.00  0.00     0.085 H 
BRANCH  55  58
ATOM     58  N   LIG d   1       7.815  11.540  -3.062  0.00  0.00     0.221 N 
ATOM     59  H   LIG d   1       7.322  12.370  -3.354  0.00  0.00     0.200 HD
ATOM     60  H   LIG d   1       7.157  10.787  -2.933  0.00  0.00     0.200 HD
ATOM     61  H   LIG d   1       8.294  11.721  -2.193  0.00  0.00     0.200 HD
ENDBRANCH  55  58
ENDBRANCH  52  55
ENDBRANCH  51  52
ENDBRANCH  49  51
ENDBRANCH  19  49
BRANCH  23  62
ATOM     62  C   LIG d   1      11.306   5.734   0.675  0.00  0.00    -0.049 C 
ATOM     63  H   LIG d   1      11.137   4.778   0.180  0.00  0.00     0.024 H 
ATOM     64  H   LIG d   1      12.069   5.614   1.445  0.00  0.00     0.024 H 
ATOM     65  H   LIG d   1      10.378   6.076   1.133  0.00  0.00     0.024 H 
ENDBRANCH  23  62
BRANCH  26  66
ATOM     66  C   LIG d   1      12.739   6.287  -3.996  0.00  0.00    -0.055 C 
ATOM     67  H   LIG d   1      13.789   6.253  -3.705  0.00  0.00     0.024 H 
ATOM     68  H   LIG d   1      12.627   5.873  -4.998  0.00  0.00     0.024 H 
ATOM     69  H   LIG d   1      12.392   7.320  -3.989  0.00  0.00     0.024 H 
ENDBRANCH  26  66
BRANCH  11  70
ATOM     70  C   LIG d   1      10.380   3.574  -2.687  0.00  0.00    -0.058 C 
ATOM     71  H   LIG d   1       9.804   4.347  -2.178  0.00  0.00     0.024 H 
ATOM     72  H   LIG d   1       9.702   2.894  -3.202  0.00  0.00     0.024 H 
ATOM     73  H   LIG d   1      10.966   3.018  -1.955  0.00  0.00     0.024 H 
ENDBRANCH  11  70
BRANCH   1  74
ATOM     74  C   LIG d   1       8.884   2.823  -5.180  0.00  0.00    -0.059 C 
ATOM     75  H   LIG d   1       8.105   2.639  -5.919  0.00  0.00     0.024 H 
ATOM     76  H   LIG d   1       9.238   1.872  -4.781  0.00  0.00     0.024 H 
ATOM     77  H   LIG d   1       8.480   3.429  -4.369  0.00  0.00     0.024 H 
ENDBRANCH   1  74
BRANCH   6  78
ATOM     78  C   LIG d   1      12.623   1.515  -7.868  0.00  0.00    -0.057 C 
ATOM     79  H   LIG d   1      12.026   1.174  -8.714  0.00  0.00     0.024 H 
ATOM     80  H   LIG d   1      13.656   1.657  -8.185  0.00  0.00     0.024 H 
ATOM     81  H   LIG d   1      12.586   0.771  -7.073  0.00  0.00     0.024 H 
ENDBRANCH   6  78
BRANCH   6  82
ATOM     82  C   LIG d   1      13.250   3.733  -6.964  0.00  0.00    -0.057 C 
ATOM     83  H   LIG d   1      14.125   3.105  -6.802  0.00  0.00     0.024 H 
ATOM     84  H   LIG d   1      13.453   4.441  -7.768  0.00  0.00     0.024 H 
ATOM     85  H   LIG d   1      13.022   4.281  -6.049  0.00  0.00     0.024 H 
ENDBRANCH   6  82
BRANCH   4  86
ATOM     86  O   LIG d   1      10.483   2.563  -9.159  0.00  0.00    -0.391 OA
ATOM     87  H   LIG d   1      10.456   1.703  -8.718  0.00  0.00     0.210 HD
ENDBRANCH   4  86
TORSDOF 13
ENDMDL
MODEL 3
REMARK VINA RESULT:      -5.6      8.384     11.484
REMARK  13 active torsions:
REMARK  status: ('A' for Active; 'I' for Inactive)
REMARK    1  A    between atoms: C_1  and  C_2 
REMARK    2  A    between atoms: C_5  and  O_40 
REMARK    3  A    between atoms: C_7  and  C_38 
REMARK    4  A    between atoms: C_7  and  C_39 
REMARK    5  A    between atoms: C_12  and  C_37 
REMARK    6  A    between atoms: C_20  and  C_30 
REMARK    7  A    between atoms: C_20  and  C_31 
REMARK    8  A    between atoms: C_24  and  C_29 
REMARK    9  A    between atoms: C_27  and  C_28 
REMARK   10  A    between atoms: C_31  and  O_33 
REMARK   11  A    between atoms: O_33  and  C_34 
REMARK   12  A    between atoms: C_34  and  C_35 
REMARK   13  A    between atoms: C_35  and  N_36 
ROOT
ATOM      1  C   LIG d   1      12.577   6.971  -2.693  0.00  0.00    -0.022 C 
ATOM      2  C   LIG d   1      12.939   8.400  -3.125  0.00  0.00    -0.044 C 
ATOM      3  C   LIG d   1      11.786   9.357  -2.851  0.00  0.00    -0.026 C 
ATOM      4  C   LIG d   1      11.576   9.422  -1.340  0.00  0.00     0.061 C 
ATOM      5  H   LIG d   1      10.792  10.150  -1.117  0.00  0.00     0.060 H 
ATOM      6  C   LIG d   1      11.145   8.051  -0.815  0.00  0.00    -0.006 C 
ATOM      7  C   LIG d   1      12.042   6.923  -1.274  0.00  0.00    -0.028 C 
ATOM      8  H   LIG d   1      12.965   7.015  -0.625  0.00  0.00     0.031 H 
ATOM      9  C   LIG d   1      11.478   5.553  -0.919  0.00  0.00    -0.049 C 
ATOM     10  C   LIG d   1      10.491   4.984  -1.927  0.00  0.00    -0.046 C 
ATOM     11  C   LIG d   1      11.047   5.014  -3.343  0.00  0.00    -0.016 C 
ATOM     12  C   LIG d   1      11.596   6.384  -3.689  0.00  0.00    -0.011 C 
ATOM     13  H   LIG d   1      10.750   7.104  -3.671  0.00  0.00     0.035 H 
ATOM     14  C   LIG d   1      12.089   6.416  -5.102  0.00  0.00    -0.080 C 
ATOM     15  C   LIG d   1      11.638   5.586  -6.037  0.00  0.00    -0.062 C 
ATOM     16  C   LIG d   1      10.637   4.546  -5.711  0.00  0.00    -0.041 C 
ATOM     17  C   LIG d   1      10.363   3.594  -6.594  0.00  0.00    -0.052 C 
ATOM     18  C   LIG d   1      11.035   3.635  -7.948  0.00  0.00    -0.014 C 
ATOM     19  C   LIG d   1      10.003   3.469  -9.063  0.00  0.00     0.075 C 
ATOM     20  C   LIG d   1       9.267   2.139  -8.886  0.00  0.00     0.022 C 
ATOM     21  C   LIG d   1       8.605   2.126  -7.533  0.00  0.00     0.144 C 
ATOM     22  O   LIG d   1       7.437   1.829  -7.430  0.00  0.00    -0.296 OA
ATOM     23  C   LIG d   1       9.400   2.480  -6.303  0.00  0.00     0.048 C 
ATOM     24  C   LIG d   1       8.451   2.824  -5.164  0.00  0.00    -0.036 C 
ATOM     25  C   LIG d   1       9.236   3.373  -3.973  0.00  0.00    -0.042 C 
ATOM     26  C   LIG d   1       9.962   4.644  -4.366  0.00  0.00    -0.001 C 
ATOM     27  H   LIG d   1      13.822   8.718  -2.564  0.00  0.00     0.027 H 
ATOM     28  H   LIG d   1      13.182   8.408  -4.185  0.00  0.00     0.027 H 
ATOM     29  H   LIG d   1      12.042  10.353  -3.224  0.00  0.00     0.029 H 
ATOM     30  H   LIG d   1      10.883   9.015  -3.349  0.00  0.00     0.029 H 
ATOM     31  H   LIG d   1      12.314   4.848  -0.798  0.00  0.00     0.027 H 
ATOM     32  H   LIG d   1      10.989   5.599   0.064  0.00  0.00     0.027 H 
ATOM     33  H   LIG d   1      10.317   3.921  -1.661  0.00  0.00     0.027 H 
ATOM     34  H   LIG d   1       9.523   5.463  -1.870  0.00  0.00     0.027 H 
ATOM     35  H   LIG d   1      12.839   7.136  -5.384  0.00  0.00     0.058 H 
ATOM     36  H   LIG d   1      12.022   5.702  -7.037  0.00  0.00     0.062 H 
ATOM     37  H   LIG d   1      11.551   4.577  -8.098  0.00  0.00     0.032 H 
ATOM     38  H   LIG d   1      11.761   2.820  -8.012  0.00  0.00     0.032 H 
ATOM     39  H   LIG d   1       8.509   2.036  -9.664  0.00  0.00     0.035 H 
ATOM     40  H   LIG d   1       9.976   1.314  -8.960  0.00  0.00     0.035 H 
ATOM     41  H   LIG d   1       7.717   3.553  -5.504  0.00  0.00     0.028 H 
ATOM     42  H   LIG d   1       7.921   1.917  -4.853  0.00  0.00     0.028 H 
ATOM     43  H   LIG d   1       8.526   3.615  -3.170  0.00  0.00     0.027 H 
ATOM     44  H   LIG d   1       9.922   2.623  -3.598  0.00  0.00     0.027 H 
ENDROOT
BRANCH  19  45
ATOM     45  C   LIG d   1      10.718   3.478 -10.416  0.00  0.00    -0.049 C 
ATOM     46  H   LIG d   1      11.378   4.343 -10.473  0.00  0.00     0.024 H 
ATOM     47  H   LIG d   1      11.304   2.565 -10.524  0.00  0.00     0.024 H 
ATOM     48  H   LIG d   1       9.979   3.531 -11.216  0.00  0.00     0.024 H 
ENDBRANCH  19  45
BRANCH  19  49
ATOM     49  C   LIG d   1       9.017   4.606  -9.011  0.00  0.00     0.314 C 
ATOM     50  O   LIG d   1       7.895   4.452  -9.432  0.00  0.00    -0.250 OA
BRANCH  49  51
ATOM     51  O   LIG d   1       9.385   5.789  -8.496  0.00  0.00    -0.459 OA
BRANCH  51  52
ATOM     52  C   LIG d   1       9.503   6.884  -9.407  0.00  0.00     0.132 C 
ATOM     53  H   LIG d   1      10.348   6.712 -10.074  0.00  0.00     0.075 H 
ATOM     54  H   LIG d   1       8.589   6.969  -9.994  0.00  0.00     0.075 H 
BRANCH  52  55
ATOM     55  C   LIG d   1       9.728   8.178  -8.623  0.00  0.00    -0.000 C 
ATOM     56  H   LIG d   1      10.028   7.936  -7.602  0.00  0.00     0.085 H 
ATOM     57  H   LIG d   1      10.513   8.762  -9.103  0.00  0.00     0.085 H 
BRANCH  55  58
ATOM     58  N   LIG d   1       8.484   8.958  -8.595  0.00  0.00     0.221 N 
ATOM     59  H   LIG d   1       8.476   9.549  -7.778  0.00  0.00     0.200 HD
ATOM     60  H   LIG d   1       8.427   9.530  -9.424  0.00  0.00     0.200 HD
ATOM     61  H   LIG d   1       7.694   8.331  -8.564  0.00  0.00     0.200 HD
ENDBRANCH  55  58
ENDBRANCH  52  55
ENDBRANCH  51  52
ENDBRANCH  49  51
ENDBRANCH  19  49
BRANCH  23  62
ATOM     62  C   LIG d   1      10.210   1.241  -5.904  0.00  0.00    -0.049 C 
ATOM     63  H   LIG d   1       9.880   0.386  -6.494  0.00  0.00     0.024 H 
ATOM     64  H   LIG d   1      11.269   1.424  -6.092  0.00  0.00     0.024 H 
ATOM     65  H   LIG d   1      10.060   1.033  -4.845  0.00  0.00     0.024 H 
ENDBRANCH  23  62
BRANCH  26  66
ATOM     66  C   LIG d   1       8.915   5.755  -4.447  0.00  0.00    -0.055 C 
ATOM     67  H   LIG d   1       8.643   6.073  -3.440  0.00  0.00     0.024 H 
ATOM     68  H   LIG d   1       9.325   6.602  -4.996  0.00  0.00     0.024 H 
ATOM     69  H   LIG d   1       8.030   5.383  -4.962  0.00  0.00     0.024 H 
ENDBRANCH  26  66
BRANCH  11  70
ATOM     70  C   LIG d   1      12.127   3.924  -3.464  0.00  0.00    -0.058 C 
ATOM     71  H   LIG d   1      11.662   2.941  -3.375  0.00  0.00     0.024 H 
ATOM     72  H   LIG d   1      12.620   4.007  -4.432  0.00  0.00     0.024 H 
ATOM     73  H   LIG d   1      12.863   4.051  -2.670  0.00  0.00     0.024 H 
ENDBRANCH  11  70
BRANCH   1  74
ATOM     74  C   LIG d   1      13.923   6.214  -2.727  0.00  0.00    -0.059 C 
ATOM     75  H   LIG d   1      14.364   6.212  -1.730  0.00  0.00     0.024 H 
ATOM     76  H   LIG d   1      13.756   5.188  -3.052  0.00  0.00     0.024 H 
ATOM     77  H   LIG d   1      14.601   6.710  -3.422  0.00  0.00     0.024 H 
ENDBRANCH   1  74
BRANCH   6  78
ATOM     78  C   LIG d   1      11.223   8.133   0.729  0.00  0.00    -0.057 C 
ATOM     79  H   LIG d   1      11.667   7.217   1.119  0.00  0.00     0.024 H 
ATOM     80  H   LIG d   1      11.837   8.986   1.017  0.00  0.00     0.024 H 
ATOM     81  H   LIG d   1      10.220   8.253   1.138  0.00  0.00     0.024 H 
ENDBRANCH   6  78
BRANCH   6  82
ATOM     82  C   LIG d   1       9.676   7.840  -1.182  0.00  0.00    -0.057 C 
ATOM     83  H   LIG d   1       9.585   6.973  -1.835  0.00  0.00     0.024 H 
ATOM     84  H   LIG d   1       9.095   7.675  -0.275  0.00  0.00     0.024 H 
ATOM     85  H   LIG d   1       9.300   8.724  -1.697  0.00  0.00     0.024 H 
ENDBRANCH   6  82
BRANCH   4  86
ATOM     86  O   LIG d   1      12.785   9.826  -0.697  0.00  0.00    -0.391 OA
ATOM     87  H   LIG d   1      12.705   9.934   0.260  0.00  0.00     0.210 HD
ENDBRANCH   4  86
TORSDOF 13
ENDMDL
MODEL 4
REMARK VINA RESULT:      -5.5      2.180      2.539
REMARK  13 active torsions:
REMARK  status: ('A' for Active; 'I' for Inactive)
REMARK    1  A    between atoms: C_1  and  C_2 
REMARK    2  A    between atoms: C_5  and  O_40 
REMARK    3  A    between atoms: C_7  and  C_38 
REMARK    4  A    between atoms: C_7  and  C_39 
REMARK    5  A    between atoms: C_12  and  C_37 
REMARK    6  A    between atoms: C_20  and  C_30 
REMARK    7  A    between atoms: C_20  and  C_31 
REMARK    8  A    between atoms: C_24  and  C_29 
REMARK    9  A    between atoms: C_27  and  C_28 
REMARK   10  A    between atoms: C_31  and  O_33 
REMARK   11  A    between atoms: O_33  and  C_34 
REMARK   12  A    between atoms: C_34  and  C_35 
REMARK   13  A    between atoms: C_35  and  N_36 
ROOT
ATOM      1  C   LIG d   1       5.481  -0.460  -5.425  0.00  0.00    -0.022 C 
ATOM      2  C   LIG d   1       4.141   0.070  -5.960  0.00  0.00    -0.044 C 
ATOM      3  C   LIG d   1       2.985  -0.404  -5.089  0.00  0.00    -0.026 C 
ATOM      4  C   LIG d   1       3.151   0.217  -3.705  0.00  0.00     0.061 C 
ATOM      5  H   LIG d   1       2.298  -0.062  -3.081  0.00  0.00     0.060 H 
ATOM      6  C   LIG d   1       4.435  -0.302  -3.053  0.00  0.00    -0.006 C 
ATOM      7  C   LIG d   1       5.651  -0.182  -3.943  0.00  0.00    -0.028 C 
ATOM      8  H   LIG d   1       5.929   0.915  -3.896  0.00  0.00     0.031 H 
ATOM      9  C   LIG d   1       6.867  -0.893  -3.362  0.00  0.00    -0.049 C 
ATOM     10  C   LIG d   1       6.958  -2.376  -3.685  0.00  0.00    -0.046 C 
ATOM     11  C   LIG d   1       6.810  -2.642  -5.175  0.00  0.00    -0.016 C 
ATOM     12  C   LIG d   1       5.591  -1.938  -5.741  0.00  0.00    -0.011 C 
ATOM     13  H   LIG d   1       4.692  -2.374  -5.256  0.00  0.00     0.035 H 
ATOM     14  C   LIG d   1       5.425  -2.253  -7.195  0.00  0.00    -0.080 C 
ATOM     15  C   LIG d   1       5.918  -3.355  -7.750  0.00  0.00    -0.062 C 
ATOM     16  C   LIG d   1       6.701  -4.324  -6.952  0.00  0.00    -0.041 C 
ATOM     17  C   LIG d   1       7.365  -5.298  -7.562  0.00  0.00    -0.052 C 
ATOM     18  C   LIG d   1       7.248  -5.435  -9.063  0.00  0.00    -0.014 C 
ATOM     19  C   LIG d   1       6.926  -6.880  -9.444  0.00  0.00     0.075 C 
ATOM     20  C   LIG d   1       8.025  -7.807  -8.920  0.00  0.00     0.022 C 
ATOM     21  C   LIG d   1       8.118  -7.652  -7.424  0.00  0.00     0.144 C 
ATOM     22  O   LIG d   1       8.112  -8.628  -6.710  0.00  0.00    -0.296 OA
ATOM     23  C   LIG d   1       8.222  -6.278  -6.814  0.00  0.00     0.048 C 
ATOM     24  C   LIG d   1       7.861  -6.347  -5.337  0.00  0.00    -0.036 C 
ATOM     25  C   LIG d   1       7.770  -4.938  -4.753  0.00  0.00    -0.042 C 
ATOM     26  C   LIG d   1       6.684  -4.148  -5.454  0.00  0.00    -0.001 C 
ATOM     27  H   LIG d   1       4.177   1.162  -5.961  0.00  0.00     0.027 H 
ATOM     28  H   LIG d   1       3.999  -0.273  -6.983  0.00  0.00     0.027 H 
ATOM     29  H   LIG d   1       2.039  -0.069  -5.525  0.00  0.00     0.029 H 
ATOM     30  H   LIG d   1       2.978  -1.489  -5.024  0.00  0.00     0.029 H 
ATOM     31  H   LIG d   1       7.777  -0.390  -3.725  0.00  0.00     0.027 H 
ATOM     32  H   LIG d   1       6.880  -0.770  -2.270  0.00  0.00     0.027 H 
ATOM     33  H   LIG d   1       7.969  -2.723  -3.384  0.00  0.00     0.027 H 
ATOM     34  H   LIG d   1       6.261  -2.968  -3.105  0.00  0.00     0.027 H 
ATOM     35  H   LIG d   1       4.888  -1.565  -7.826  0.00  0.00     0.058 H 
ATOM     36  H   LIG d   1       5.721  -3.519  -8.797  0.00  0.00     0.062 H 
ATOM     37  H   LIG d   1       6.463  -4.797  -9.452  0.00  0.00     0.032 H 
ATOM     38  H   LIG d   1       8.198  -5.150  -9.524  0.00  0.00     0.032 H 
ATOM     39  H   LIG d   1       7.778  -8.841  -9.165  0.00  0.00     0.035 H 
ATOM     40  H   LIG d   1       8.977  -7.543  -9.379  0.00  0.00     0.035 H 
ATOM     41  H   LIG d   1       6.915  -6.871  -5.213  0.00  0.00     0.028 H 
ATOM     42  H   LIG d   1       8.639  -6.904  -4.804  0.00  0.00     0.028 H 
ATOM     43  H   LIG d   1       7.506  -5.019  -3.689  0.00  0.00     0.027 H 
ATOM     44  H   LIG d   1       8.731  -4.441  -4.821  0.00  0.00     0.027 H 
ENDROOT
BRANCH  19  45
ATOM     45  C   LIG d   1       6.851  -6.994 -10.969  0.00  0.00    -0.049 C 
ATOM     46  H   LIG d   1       6.648  -8.028 -11.247  0.00  0.00     0.024 H 
ATOM     47  H   LIG d   1       6.052  -6.353 -11.342  0.00  0.00     0.024 H 
ATOM     48  H   LIG d   1       7.800  -6.680 -11.403  0.00  0.00     0.024 H 
ENDBRANCH  19  45
BRANCH  19  49
ATOM     49  C   LIG d   1       5.601  -7.276  -8.847  0.00  0.00     0.314 C 
ATOM     50  O   LIG d   1       4.717  -6.459  -8.742  0.00  0.00    -0.250 OA
BRANCH  49  51
ATOM     51  O   LIG d   1       5.403  -8.537  -8.434  0.00  0.00    -0.459 OA
BRANCH  51  52
ATOM     52  C   LIG d   1       4.293  -8.767  -7.562  0.00  0.00     0.132 C 
ATOM     53  H   LIG d   1       3.886  -7.811  -7.232  0.00  0.00     0.075 H 
ATOM     54  H   LIG d   1       3.523  -9.325  -8.094  0.00  0.00     0.075 H 
BRANCH  52  55
ATOM     55  C   LIG d   1       4.758  -9.570  -6.346  0.00  0.00    -0.000 C 
ATOM     56  H   LIG d   1       3.932 -10.178  -5.975  0.00  0.00     0.085 H 
ATOM     57  H   LIG d   1       5.585 -10.219  -6.634  0.00  0.00     0.085 H 
BRANCH  55  58
ATOM     58  N   LIG d   1       5.202  -8.650  -5.291  0.00  0.00     0.221 N 
ATOM     59  H   LIG d   1       4.794  -8.927  -4.410  0.00  0.00     0.200 HD
ATOM     60  H   LIG d   1       6.207  -8.680  -5.219  0.00  0.00     0.200 HD
ATOM     61  H   LIG d   1       4.908  -7.712  -5.517  0.00  0.00     0.200 HD
ENDBRANCH  55  58
ENDBRANCH  52  55
ENDBRANCH  51  52
ENDBRANCH  49  51
ENDBRANCH  19  49
BRANCH  23  62
ATOM     62  C   LIG d   1       9.682  -5.826  -6.939  0.00  0.00    -0.049 C 
ATOM     63  H   LIG d   1      10.144  -5.817  -5.952  0.00  0.00     0.024 H 
ATOM     64  H   LIG d   1      10.222  -6.519  -7.585  0.00  0.00     0.024 H 
ATOM     65  H   LIG d   1       9.718  -4.826  -7.368  0.00  0.00     0.024 H 
ENDBRANCH  23  62
BRANCH  26  66
ATOM     66  C   LIG d   1       5.342  -4.668  -4.937  0.00  0.00    -0.055 C 
ATOM     67  H   LIG d   1       4.777  -5.100  -5.764  0.00  0.00     0.024 H 
ATOM     68  H   LIG d   1       5.516  -5.432  -4.179  0.00  0.00     0.024 H 
ATOM     69  H   LIG d   1       4.777  -3.845  -4.501  0.00  0.00     0.024 H 
ENDBRANCH  26  66
BRANCH  11  70
ATOM     70  C   LIG d   1       8.102  -2.192  -5.880  0.00  0.00    -0.058 C 
ATOM     71  H   LIG d   1       8.642  -1.495  -5.238  0.00  0.00     0.024 H 
ATOM     72  H   LIG d   1       8.728  -3.061  -6.081  0.00  0.00     0.024 H 
ATOM     73  H   LIG d   1       7.851  -1.700  -6.820  0.00  0.00     0.024 H 
ENDBRANCH  11  70
BRANCH   1  74
ATOM     74  C   LIG d   1       6.543   0.355  -6.194  0.00  0.00    -0.059 C 
ATOM     75  H   LIG d   1       6.960  -0.256  -6.995  0.00  0.00     0.024 H 
ATOM     76  H   LIG d   1       6.081   1.245  -6.620  0.00  0.00     0.024 H 
ATOM     77  H   LIG d   1       7.339   0.650  -5.511  0.00  0.00     0.024 H 
ENDBRANCH   1  74
BRANCH   6  78
ATOM     78  C   LIG d   1       4.668   0.571  -1.795  0.00  0.00    -0.057 C 
ATOM     79  H   LIG d   1       5.501   0.166  -1.221  0.00  0.00     0.024 H 
ATOM     80  H   LIG d   1       4.898   1.592  -2.100  0.00  0.00     0.024 H 
ATOM     81  H   LIG d   1       3.768   0.570  -1.181  0.00  0.00     0.024 H 
ENDBRANCH   6  78
BRANCH   6  82
ATOM     82  C   LIG d   1       4.181  -1.730  -2.570  0.00  0.00    -0.057 C 
ATOM     83  H   LIG d   1       4.353  -1.786  -1.495  0.00  0.00     0.024 H 
ATOM     84  H   LIG d   1       3.150  -2.010  -2.788  0.00  0.00     0.024 H 
ATOM     85  H   LIG d   1       4.858  -2.413  -3.082  0.00  0.00     0.024 H 
ENDBRANCH   6  82
BRANCH   4  86
ATOM     86  O   LIG d   1       3.207   1.639  -3.812  0.00  0.00    -0.391 OA
ATOM     87  H   LIG d   1       4.099   1.990  -3.934  0.00  0.00     0.210 HD
ENDBRANCH   4  86
TORSDOF 13
ENDMDL
MODEL 5
REMARK VINA RESULT:      -5.5     12.909     15.826
REMARK  13 active torsions:
REMARK  status: ('A' for Active; 'I' for Inactive)
REMARK    1  A    between atoms: C_1  and  C_2 
REMARK    2  A    between atoms: C_5  and  O_40 
REMARK    3  A    between atoms: C_7  and  C_38 
REMARK    4  A    between atoms: C_7  and  C_39 
REMARK    5  A    between atoms: C_12  and  C_37 
REMARK    6  A    between atoms: C_20  and  C_30 
REMARK    7  A    between atoms: C_20  and  C_31 
REMARK    8  A    between atoms: C_24  and  C_29 
REMARK    9  A    between atoms: C_27  and  C_28 
REMARK   10  A    between atoms: C_31  and  O_33 
REMARK   11  A    between atoms: O_33  and  C_34 
REMARK   12  A    between atoms: C_34  and  C_35 
REMARK   13  A    between atoms: C_35  and  N_36 
ROOT
ATOM      1  C   LIG d   1      11.251   9.751  -7.597  0.00  0.00    -0.022 C 
ATOM      2  C   LIG d   1      12.625   9.963  -8.252  0.00  0.00    -0.044 C 
ATOM      3  C   LIG d   1      13.204   8.640  -8.737  0.00  0.00    -0.026 C 
ATOM      4  C   LIG d   1      12.296   8.105  -9.842  0.00  0.00     0.061 C 
ATOM      5  H   LIG d   1      12.726   7.186 -10.247  0.00  0.00     0.060 H 
ATOM      6  C   LIG d   1      10.909   7.799  -9.274  0.00  0.00    -0.006 C 
ATOM      7  C   LIG d   1      10.319   8.941  -8.479  0.00  0.00    -0.028 C 
ATOM      8  H   LIG d   1       9.967   9.679  -9.263  0.00  0.00     0.031 H 
ATOM      9  C   LIG d   1       9.043   8.542  -7.750  0.00  0.00    -0.049 C 
ATOM     10  C   LIG d   1       9.255   7.897  -6.390  0.00  0.00    -0.046 C 
ATOM     11  C   LIG d   1      10.171   8.729  -5.504  0.00  0.00    -0.016 C 
ATOM     12  C   LIG d   1      11.444   9.112  -6.236  0.00  0.00    -0.011 C 
ATOM     13  H   LIG d   1      11.997   8.177  -6.467  0.00  0.00     0.035 H 
ATOM     14  C   LIG d   1      12.360   9.882  -5.338  0.00  0.00    -0.080 C 
ATOM     15  C   LIG d   1      12.318   9.780  -4.014  0.00  0.00    -0.062 C 
ATOM     16  C   LIG d   1      11.320   8.912  -3.349  0.00  0.00    -0.041 C 
ATOM     17  C   LIG d   1      11.149   8.990  -2.036  0.00  0.00    -0.052 C 
ATOM     18  C   LIG d   1      12.033   9.919  -1.235  0.00  0.00    -0.014 C 
ATOM     19  C   LIG d   1      12.625   9.188  -0.031  0.00  0.00     0.075 C 
ATOM     20  C   LIG d   1      11.495   8.654   0.853  0.00  0.00     0.022 C 
ATOM     21  C   LIG d   1      10.633   7.730   0.032  0.00  0.00     0.144 C 
ATOM     22  O   LIG d   1      10.352   6.630   0.448  0.00  0.00    -0.296 OA
ATOM     23  C   LIG d   1      10.115   8.178  -1.310  0.00  0.00     0.048 C 
ATOM     24  C   LIG d   1       9.668   6.966  -2.115  0.00  0.00    -0.036 C 
ATOM     25  C   LIG d   1       9.327   7.381  -3.545  0.00  0.00    -0.042 C 
ATOM     26  C   LIG d   1      10.549   7.960  -4.228  0.00  0.00    -0.001 C 
ATOM     27  H   LIG d   1      12.504  10.643  -9.099  0.00  0.00     0.027 H 
ATOM     28  H   LIG d   1      13.302  10.421  -7.534  0.00  0.00     0.027 H 
ATOM     29  H   LIG d   1      14.207   8.806  -9.141  0.00  0.00     0.029 H 
ATOM     30  H   LIG d   1      13.266   7.930  -7.917  0.00  0.00     0.029 H 
ATOM     31  H   LIG d   1       8.412   9.436  -7.629  0.00  0.00     0.027 H 
ATOM     32  H   LIG d   1       8.459   7.854  -8.377  0.00  0.00     0.027 H 
ATOM     33  H   LIG d   1       8.268   7.843  -5.886  0.00  0.00     0.027 H 
ATOM     34  H   LIG d   1       9.601   6.874  -6.468  0.00  0.00     0.027 H 
ATOM     35  H   LIG d   1      13.086  10.550  -5.771  0.00  0.00     0.058 H 
ATOM     36  H   LIG d   1      13.039  10.344  -3.445  0.00  0.00     0.062 H 
ATOM     37  H   LIG d   1      12.850  10.296  -1.840  0.00  0.00     0.032 H 
ATOM     38  H   LIG d   1      11.437  10.763  -0.879  0.00  0.00     0.032 H 
ATOM     39  H   LIG d   1      11.919   8.106   1.695  0.00  0.00     0.035 H 
ATOM     40  H   LIG d   1      10.897   9.485   1.226  0.00  0.00     0.035 H 
ATOM     41  H   LIG d   1      10.455   6.213  -2.115  0.00  0.00     0.028 H 
ATOM     42  H   LIG d   1       8.777   6.534  -1.646  0.00  0.00     0.028 H 
ATOM     43  H   LIG d   1       9.011   6.486  -4.101  0.00  0.00     0.027 H 
ATOM     44  H   LIG d   1       8.501   8.083  -3.545  0.00  0.00     0.027 H 
ENDROOT
BRANCH  19  45
ATOM     45  C   LIG d   1      13.484  10.163   0.778  0.00  0.00    -0.049 C 
ATOM     46  H   LIG d   1      14.477   9.739   0.923  0.00  0.00     0.024 H 
ATOM     47  H   LIG d   1      13.566  11.107   0.240  0.00  0.00     0.024 H 
ATOM     48  H   LIG d   1      13.018  10.338   1.748  0.00  0.00     0.024 H 
ENDBRANCH  19  45
BRANCH  19  49
ATOM     49  C   LIG d   1      13.482   8.043  -0.506  0.00  0.00     0.314 C 
ATOM     50  O   LIG d   1      14.252   8.204  -1.422  0.00  0.00    -0.250 OA
BRANCH  49  51
ATOM     51  O   LIG d   1      13.389   6.845   0.091  0.00  0.00    -0.459 OA
BRANCH  51  52
ATOM     52  C   LIG d   1      13.899   5.720  -0.630  0.00  0.00     0.132 C 
ATOM     53  H   LIG d   1      14.760   6.029  -1.223  0.00  0.00     0.075 H 
ATOM     54  H   LIG d   1      14.202   4.945   0.073  0.00  0.00     0.075 H 
BRANCH  52  55
ATOM     55  C   LIG d   1      12.812   5.172  -1.556  0.00  0.00    -0.000 C 
ATOM     56  H   LIG d   1      12.359   5.995  -2.110  0.00  0.00     0.085 H 
ATOM     57  H   LIG d   1      13.254   4.463  -2.255  0.00  0.00     0.085 H 
BRANCH  55  58
ATOM     58  N   LIG d   1      11.782   4.496  -0.756  0.00  0.00     0.221 N 
ATOM     59  H   LIG d   1      10.869   4.738  -1.110  0.00  0.00     0.200 HD
ATOM     60  H   LIG d   1      11.911   3.497  -0.817  0.00  0.00     0.200 HD
ATOM     61  H   LIG d   1      11.858   4.787   0.207  0.00  0.00     0.200 HD
ENDBRANCH  55  58
ENDBRANCH  52  55
ENDBRANCH  51  52
ENDBRANCH  49  51
ENDBRANCH  19  49
BRANCH  23  62
ATOM     62  C   LIG d   1       8.896   9.073  -1.060  0.00  0.00    -0.049 C 
ATOM     63  H   LIG d   1       8.658   9.073   0.003  0.00  0.00     0.024 H 
ATOM     64  H   LIG d   1       9.121  10.090  -1.382  0.00  0.00     0.024 H 
ATOM     65  H   LIG d   1       8.045   8.693  -1.624  0.00  0.00     0.024 H 
ENDBRANCH  23  62
BRANCH  26  66
ATOM     66  C   LIG d   1      11.471   6.790  -4.573  0.00  0.00    -0.055 C 
ATOM     67  H   LIG d   1      11.847   6.340  -3.653  0.00  0.00     0.024 H 
ATOM     68  H   LIG d   1      10.915   6.044  -5.140  0.00  0.00     0.024 H 
ATOM     69  H   LIG d   1      12.308   7.151  -5.169  0.00  0.00     0.024 H 
ENDBRANCH  26  66
BRANCH  11  70
ATOM     70  C   LIG d   1       9.395   9.970  -5.031  0.00  0.00    -0.058 C 
ATOM     71  H   LIG d   1      10.093  10.701  -4.621  0.00  0.00     0.024 H 
ATOM     72  H   LIG d   1       8.863  10.410  -5.875  0.00  0.00     0.024 H 
ATOM     73  H   LIG d   1       8.679   9.680  -4.262  0.00  0.00     0.024 H 
ENDBRANCH  11  70
BRANCH   1  74
ATOM     74  C   LIG d   1      10.673  11.178  -7.465  0.00  0.00    -0.059 C 
ATOM     75  H   LIG d   1      10.285  11.321  -6.457  0.00  0.00     0.024 H 
ATOM     76  H   LIG d   1      11.458  11.908  -7.660  0.00  0.00     0.024 H 
ATOM     77  H   LIG d   1       9.867  11.310  -8.187  0.00  0.00     0.024 H 
ENDBRANCH   1  74
BRANCH   6  78
ATOM     78  C   LIG d   1       9.990   7.532 -10.492  0.00  0.00    -0.057 C 
ATOM     79  H   LIG d   1      10.309   6.620 -10.995  0.00  0.00     0.024 H 
ATOM     80  H   LIG d   1       8.961   7.419 -10.151  0.00  0.00     0.024 H 
ATOM     81  H   LIG d   1      10.052   8.371 -11.184  0.00  0.00     0.024 H 
ENDBRANCH   6  78
BRANCH   6  82
ATOM     82  C   LIG d   1      10.997   6.495  -8.481  0.00  0.00    -0.057 C 
ATOM     83  H   LIG d   1      11.934   5.990  -8.713  0.00  0.00     0.024 H 
ATOM     84  H   LIG d   1      10.956   6.714  -7.414  0.00  0.00     0.024 H 
ATOM     85  H   LIG d   1      10.161   5.849  -8.750  0.00  0.00     0.024 H 
ENDBRANCH   6  82
BRANCH   4  86
ATOM     86  O   LIG d   1      12.185   9.069 -10.890  0.00  0.00    -0.391 OA
ATOM     87  H   LIG d   1      11.536   8.840 -11.568  0.00  0.00     0.210 HD
ENDBRANCH   4  86
TORSDOF 13
ENDMDL
MODEL 6
REMARK VINA RESULT:      -5.3      7.989     10.841
REMARK  13 active torsions:
REMARK  status: ('A' for Active; 'I' for Inactive)
REMARK    1  A    between atoms: C_1  and  C_2 
REMARK    2  A    between atoms: C_5  and  O_40 
REMARK    3  A    between atoms: C_7  and  C_38 
REMARK    4  A    between atoms: C_7  and  C_39 
REMARK    5  A    between atoms: C_12  and  C_37 
REMARK    6  A    between atoms: C_20  and  C_30 
REMARK    7  A    between atoms: C_20  and  C_31 
REMARK    8  A    between atoms: C_24  and  C_29 
REMARK    9  A    between atoms: C_27  and  C_28 
REMARK   10  A    between atoms: C_31  and  O_33 
REMARK   11  A    between atoms: O_33  and  C_34 
REMARK   12  A    between atoms: C_34  and  C_35 
REMARK   13  A    between atoms: C_35  and  N_36 
ROOT
ATOM      1  C   LIG d   1      11.168   8.121  -2.806  0.00  0.00    -0.022 C 
ATOM      2  C   LIG d   1       9.893   8.892  -2.435  0.00  0.00    -0.044 C 
ATOM      3  C   LIG d   1       9.454   8.563  -1.014  0.00  0.00    -0.026 C 
ATOM      4  C   LIG d   1      10.534   9.066  -0.059  0.00  0.00     0.061 C 
ATOM      5  H   LIG d   1      10.212   8.894   0.971  0.00  0.00     0.060 H 
ATOM      6  C   LIG d   1      11.840   8.308  -0.305  0.00  0.00    -0.006 C 
ATOM      7  C   LIG d   1      12.255   8.280  -1.759  0.00  0.00    -0.028 C 
ATOM      8  H   LIG d   1      12.678   9.313  -1.951  0.00  0.00     0.031 H 
ATOM      9  C   LIG d   1      13.433   7.348  -2.008  0.00  0.00    -0.049 C 
ATOM     10  C   LIG d   1      13.062   5.891  -2.237  0.00  0.00    -0.046 C 
ATOM     11  C   LIG d   1      11.990   5.741  -3.306  0.00  0.00    -0.016 C 
ATOM     12  C   LIG d   1      10.817   6.665  -3.043  0.00  0.00    -0.011 C 
ATOM     13  H   LIG d   1      10.349   6.355  -2.085  0.00  0.00     0.035 H 
ATOM     14  C   LIG d   1       9.746   6.468  -4.069  0.00  0.00    -0.080 C 
ATOM     15  C   LIG d   1       9.605   5.335  -4.749  0.00  0.00    -0.062 C 
ATOM     16  C   LIG d   1      10.541   4.206  -4.547  0.00  0.00    -0.041 C 
ATOM     17  C   LIG d   1      10.520   3.175  -5.382  0.00  0.00    -0.052 C 
ATOM     18  C   LIG d   1       9.487   3.147  -6.486  0.00  0.00    -0.014 C 
ATOM     19  C   LIG d   1       8.767   1.798  -6.510  0.00  0.00     0.075 C 
ATOM     20  C   LIG d   1       9.785   0.676  -6.720  0.00  0.00     0.022 C 
ATOM     21  C   LIG d   1      10.799   0.725  -5.606  0.00  0.00     0.144 C 
ATOM     22  O   LIG d   1      11.072  -0.276  -4.988  0.00  0.00    -0.296 OA
ATOM     23  C   LIG d   1      11.480   2.026  -5.265  0.00  0.00     0.048 C 
ATOM     24  C   LIG d   1      12.095   1.930  -3.877  0.00  0.00    -0.036 C 
ATOM     25  C   LIG d   1      12.614   3.299  -3.437  0.00  0.00    -0.042 C 
ATOM     26  C   LIG d   1      11.474   4.294  -3.366  0.00  0.00    -0.001 C 
ATOM     27  H   LIG d   1      10.099   9.962  -2.517  0.00  0.00     0.027 H 
ATOM     28  H   LIG d   1       9.099   8.638  -3.135  0.00  0.00     0.027 H 
ATOM     29  H   LIG d   1       8.512   9.073  -0.795  0.00  0.00     0.029 H 
ATOM     30  H   LIG d   1       9.311   7.492  -0.899  0.00  0.00     0.029 H 
ATOM     31  H   LIG d   1      13.996   7.716  -2.879  0.00  0.00     0.027 H 
ATOM     32  H   LIG d   1      14.133   7.403  -1.162  0.00  0.00     0.027 H 
ATOM     33  H   LIG d   1      13.970   5.367  -2.602  0.00  0.00     0.027 H 
ATOM     34  H   LIG d   1      12.782   5.388  -1.321  0.00  0.00     0.027 H 
ATOM     35  H   LIG d   1       9.057   7.270  -4.274  0.00  0.00     0.058 H 
ATOM     36  H   LIG d   1       8.784   5.267  -5.444  0.00  0.00     0.062 H 
ATOM     37  H   LIG d   1       8.746   3.926  -6.346  0.00  0.00     0.032 H 
ATOM     38  H   LIG d   1       9.984   3.299  -7.447  0.00  0.00     0.032 H 
ATOM     39  H   LIG d   1       9.274  -0.288  -6.706  0.00  0.00     0.035 H 
ATOM     40  H   LIG d   1      10.282   0.807  -7.681  0.00  0.00     0.035 H 
ATOM     41  H   LIG d   1      11.353   1.560  -3.170  0.00  0.00     0.028 H 
ATOM     42  H   LIG d   1      12.931   1.223  -3.903  0.00  0.00     0.028 H 
ATOM     43  H   LIG d   1      13.049   3.199  -2.432  0.00  0.00     0.027 H 
ATOM     44  H   LIG d   1      13.396   3.636  -4.107  0.00  0.00     0.027 H 
ENDROOT
BRANCH  19  45
ATOM     45  C   LIG d   1       7.755   1.788  -7.658  0.00  0.00    -0.049 C 
ATOM     46  H   LIG d   1       8.065   1.061  -8.409  0.00  0.00     0.024 H 
ATOM     47  H   LIG d   1       6.772   1.518  -7.274  0.00  0.00     0.024 H 
ATOM     48  H   LIG d   1       7.708   2.779  -8.110  0.00  0.00     0.024 H 
ENDBRANCH  19  45
BRANCH  19  49
ATOM     49  C   LIG d   1       8.043   1.589  -5.205  0.00  0.00     0.314 C 
ATOM     50  O   LIG d   1       7.668   2.541  -4.563  0.00  0.00    -0.250 OA
BRANCH  49  51
ATOM     51  O   LIG d   1       7.816   0.345  -4.757  0.00  0.00    -0.459 OA
BRANCH  51  52
ATOM     52  C   LIG d   1       6.452  -0.080  -4.688  0.00  0.00     0.132 C 
ATOM     53  H   LIG d   1       5.843   0.548  -5.338  0.00  0.00     0.075 H 
ATOM     54  H   LIG d   1       6.379  -1.118  -5.013  0.00  0.00     0.075 H 
BRANCH  52  55
ATOM     55  C   LIG d   1       5.953   0.040  -3.247  0.00  0.00    -0.000 C 
ATOM     56  H   LIG d   1       5.238  -0.757  -3.043  0.00  0.00     0.085 H 
ATOM     57  H   LIG d   1       6.797  -0.044  -2.563  0.00  0.00     0.085 H 
BRANCH  55  58
ATOM     58  N   LIG d   1       5.300   1.343  -3.062  0.00  0.00     0.221 N 
ATOM     59  H   LIG d   1       4.779   1.338  -2.198  0.00  0.00     0.200 HD
ATOM     60  H   LIG d   1       6.000   2.068  -3.028  0.00  0.00     0.200 HD
ATOM     61  H   LIG d   1       4.672   1.517  -3.832  0.00  0.00     0.200 HD
ENDBRANCH  55  58
ENDBRANCH  52  55
ENDBRANCH  51  52
ENDBRANCH  49  51
ENDBRANCH  19  49
BRANCH  23  62
ATOM     62  C   LIG d   1      12.605   2.240  -6.284  0.00  0.00    -0.049 C 
ATOM     63  H   LIG d   1      12.861   3.299  -6.324  0.00  0.00     0.024 H 
ATOM     64  H   LIG d   1      13.482   1.666  -5.981  0.00  0.00     0.024 H 
ATOM     65  H   LIG d   1      12.274   1.907  -7.266  0.00  0.00     0.024 H 
ENDBRANCH  23  62
BRANCH  26  66
ATOM     66  C   LIG d   1      10.669   3.970  -2.107  0.00  0.00    -0.055 C 
ATOM     67  H   LIG d   1      11.348   3.853  -1.262  0.00  0.00     0.024 H 
ATOM     68  H   LIG d   1       9.972   4.782  -1.903  0.00  0.00     0.024 H 
ATOM     69  H   LIG d   1      10.115   3.044  -2.260  0.00  0.00     0.024 H 
ENDBRANCH  26  66
BRANCH  11  70
ATOM     70  C   LIG d   1      12.630   6.015  -4.678  0.00  0.00    -0.058 C 
ATOM     71  H   LIG d   1      11.993   6.692  -5.248  0.00  0.00     0.024 H 
ATOM     72  H   LIG d   1      13.610   6.470  -4.538  0.00  0.00     0.024 H 
ATOM     73  H   LIG d   1      12.740   5.076  -5.222  0.00  0.00     0.024 H 
ENDBRANCH  11  70
BRANCH   1  74
ATOM     74  C   LIG d   1      11.652   8.796  -4.109  0.00  0.00    -0.059 C 
ATOM     75  H   LIG d   1      10.950   8.577  -4.913  0.00  0.00     0.024 H 
ATOM     76  H   LIG d   1      11.710   9.874  -3.960  0.00  0.00     0.024 H 
ATOM     77  H   LIG d   1      12.637   8.411  -4.372  0.00  0.00     0.024 H 
ENDBRANCH   1  74
BRANCH   6  78
ATOM     78  C   LIG d   1      12.935   9.056   0.496  0.00  0.00    -0.057 C 
ATOM     79  H   LIG d   1      13.004   8.634   1.498  0.00  0.00     0.024 H 
ATOM     80  H   LIG d   1      13.893   8.948  -0.012  0.00  0.00     0.024 H 
ATOM     81  H   LIG d   1      12.677  10.113   0.563  0.00  0.00     0.024 H 
ENDBRANCH   6  78
BRANCH   6  82
ATOM     82  C   LIG d   1      11.706   6.915   0.310  0.00  0.00    -0.057 C 
ATOM     83  H   LIG d   1      11.693   6.167  -0.482  0.00  0.00     0.024 H 
ATOM     84  H   LIG d   1      12.550   6.727   0.974  0.00  0.00     0.024 H 
ATOM     85  H   LIG d   1      10.778   6.856   0.879  0.00  0.00     0.024 H 
ENDBRANCH   6  82
BRANCH   4  86
ATOM     86  O   LIG d   1      10.745  10.464  -0.255  0.00  0.00    -0.391 OA
ATOM     87  H   LIG d   1      10.019  10.912  -0.710  0.00  0.00     0.210 HD
ENDBRANCH   4  86
TORSDOF 13
ENDMDL
MODEL 7
REMARK VINA RESULT:      -5.3      3.532      5.795
REMARK  13 active torsions:
REMARK  status: ('A' for Active; 'I' for Inactive)
REMARK    1  A    between atoms: C_1  and  C_2 
REMARK    2  A    between atoms: C_5  and  O_40 
REMARK    3  A    between atoms: C_7  and  C_38 
REMARK    4  A    between atoms: C_7  and  C_39 
REMARK    5  A    between atoms: C_12  and  C_37 
REMARK    6  A    between atoms: C_20  and  C_30 
REMARK    7  A    between atoms: C_20  and  C_31 
REMARK    8  A    between atoms: C_24  and  C_29 
REMARK    9  A    between atoms: C_27  and  C_28 
REMARK   10  A    between atoms: C_31  and  O_33 
REMARK   11  A    between atoms: O_33  and  C_34 
REMARK   12  A    between atoms: C_34  and  C_35 
REMARK   13  A    between atoms: C_35  and  N_36 
ROOT
ATOM      1  C   LIG d   1       3.829   0.325  -7.969  0.00  0.00    -0.022 C 
ATOM      2  C   LIG d   1       3.034   0.256  -6.656  0.00  0.00    -0.044 C 
ATOM      3  C   LIG d   1       3.479  -0.933  -5.815  0.00  0.00    -0.026 C 
ATOM      4  C   LIG d   1       4.932  -0.704  -5.406  0.00  0.00     0.061 C 
ATOM      5  H   LIG d   1       5.254  -1.517  -4.751  0.00  0.00     0.060 H 
ATOM      6  C   LIG d   1       5.825  -0.683  -6.649  0.00  0.00    -0.006 C 
ATOM      7  C   LIG d   1       5.325   0.246  -7.732  0.00  0.00    -0.028 C 
ATOM      8  H   LIG d   1       5.605   1.281  -7.367  0.00  0.00     0.031 H 
ATOM      9  C   LIG d   1       6.104   0.092  -9.032  0.00  0.00    -0.049 C 
ATOM     10  C   LIG d   1       5.606  -1.012  -9.952  0.00  0.00    -0.046 C 
ATOM     11  C   LIG d   1       4.109  -0.908 -10.203  0.00  0.00    -0.016 C 
ATOM     12  C   LIG d   1       3.343  -0.766  -8.901  0.00  0.00    -0.011 C 
ATOM     13  H   LIG d   1       3.498  -1.695  -8.313  0.00  0.00     0.035 H 
ATOM     14  C   LIG d   1       1.868  -0.722  -9.157  0.00  0.00    -0.080 C 
ATOM     15  C   LIG d   1       1.313  -1.252 -10.242  0.00  0.00    -0.062 C 
ATOM     16  C   LIG d   1       2.145  -1.888 -11.288  0.00  0.00    -0.041 C 
ATOM     17  C   LIG d   1       1.603  -2.212 -12.455  0.00  0.00    -0.052 C 
ATOM     18  C   LIG d   1       0.123  -1.985 -12.664  0.00  0.00    -0.014 C 
ATOM     19  C   LIG d   1      -0.537  -3.242 -13.229  0.00  0.00     0.075 C 
ATOM     20  C   LIG d   1       0.125  -3.617 -14.557  0.00  0.00     0.022 C 
ATOM     21  C   LIG d   1       1.596  -3.841 -14.319  0.00  0.00     0.144 C 
ATOM     22  O   LIG d   1       2.132  -4.845 -14.727  0.00  0.00    -0.296 OA
ATOM     23  C   LIG d   1       2.404  -2.809 -13.576  0.00  0.00     0.048 C 
ATOM     24  C   LIG d   1       3.702  -3.435 -13.084  0.00  0.00    -0.036 C 
ATOM     25  C   LIG d   1       4.438  -2.463 -12.164  0.00  0.00    -0.042 C 
ATOM     26  C   LIG d   1       3.591  -2.149 -10.948  0.00  0.00    -0.001 C 
ATOM     27  H   LIG d   1       3.201   1.182  -6.100  0.00  0.00     0.027 H 
ATOM     28  H   LIG d   1       1.972   0.174  -6.879  0.00  0.00     0.027 H 
ATOM     29  H   LIG d   1       2.857  -0.999  -4.917  0.00  0.00     0.029 H 
ATOM     30  H   LIG d   1       3.382  -1.856  -6.380  0.00  0.00     0.029 H 
ATOM     31  H   LIG d   1       6.079   1.050  -9.574  0.00  0.00     0.027 H 
ATOM     32  H   LIG d   1       7.165  -0.089  -8.808  0.00  0.00     0.027 H 
ATOM     33  H   LIG d   1       6.116  -0.888 -10.931  0.00  0.00     0.027 H 
ATOM     34  H   LIG d   1       5.883  -1.997  -9.601  0.00  0.00     0.027 H 
ATOM     35  H   LIG d   1       1.223  -0.244  -8.440  0.00  0.00     0.058 H 
ATOM     36  H   LIG d   1       0.240  -1.205 -10.328  0.00  0.00     0.062 H 
ATOM     37  H   LIG d   1      -0.368  -1.732 -11.730  0.00  0.00     0.032 H 
ATOM     38  H   LIG d   1      -0.017  -1.162 -13.371  0.00  0.00     0.032 H 
ATOM     39  H   LIG d   1      -0.326  -4.532 -14.944  0.00  0.00     0.035 H 
ATOM     40  H   LIG d   1      -0.016  -2.812 -15.277  0.00  0.00     0.035 H 
ATOM     41  H   LIG d   1       3.487  -4.365 -12.561  0.00  0.00     0.028 H 
ATOM     42  H   LIG d   1       4.338  -3.662 -13.946  0.00  0.00     0.028 H 
ATOM     43  H   LIG d   1       5.367  -2.942 -11.823  0.00  0.00     0.027 H 
ATOM     44  H   LIG d   1       4.705  -1.563 -12.705  0.00  0.00     0.027 H 
ENDROOT
BRANCH  19  45
ATOM     45  C   LIG d   1      -2.025  -2.968 -13.464  0.00  0.00    -0.049 C 
ATOM     46  H   LIG d   1      -2.481  -2.622 -12.537  0.00  0.00     0.024 H 
ATOM     47  H   LIG d   1      -2.137  -2.203 -14.232  0.00  0.00     0.024 H 
ATOM     48  H   LIG d   1      -2.516  -3.885 -13.790  0.00  0.00     0.024 H 
ENDBRANCH  19  45
BRANCH  19  49
ATOM     49  C   LIG d   1      -0.386  -4.376 -12.249  0.00  0.00     0.314 C 
ATOM     50  O   LIG d   1      -0.103  -5.482 -12.642  0.00  0.00    -0.250 OA
BRANCH  49  51
ATOM     51  O   LIG d   1      -0.567  -4.155 -10.937  0.00  0.00    -0.459 OA
BRANCH  51  52
ATOM     52  C   LIG d   1      -1.302  -5.142 -10.209  0.00  0.00     0.132 C 
ATOM     53  H   LIG d   1      -1.057  -6.133 -10.592  0.00  0.00     0.075 H 
ATOM     54  H   LIG d   1      -1.039  -5.085  -9.153  0.00  0.00     0.075 H 
BRANCH  52  55
ATOM     55  C   LIG d   1      -2.801  -4.887 -10.376  0.00  0.00    -0.000 C 
ATOM     56  H   LIG d   1      -3.000  -3.819 -10.282  0.00  0.00     0.085 H 
ATOM     57  H   LIG d   1      -3.120  -5.231 -11.360  0.00  0.00     0.085 H 
BRANCH  55  58
ATOM     58  N   LIG d   1      -3.541  -5.616  -9.338  0.00  0.00     0.221 N 
ATOM     59  H   LIG d   1      -2.905  -5.900  -8.608  0.00  0.00     0.200 HD
ATOM     60  H   LIG d   1      -4.253  -5.017  -8.949  0.00  0.00     0.200 HD
ATOM     61  H   LIG d   1      -3.973  -6.433  -9.743  0.00  0.00     0.200 HD
ENDBRANCH  55  58
ENDBRANCH  52  55
ENDBRANCH  51  52
ENDBRANCH  49  51
ENDBRANCH  19  49
BRANCH  23  62
ATOM     62  C   LIG d   1       2.747  -1.689 -14.565  0.00  0.00    -0.049 C 
ATOM     63  H   LIG d   1       3.106  -2.126 -15.497  0.00  0.00     0.024 H 
ATOM     64  H   LIG d   1       1.855  -1.094 -14.763  0.00  0.00     0.024 H 
ATOM     65  H   LIG d   1       3.521  -1.053 -14.139  0.00  0.00     0.024 H 
ENDBRANCH  23  62
BRANCH  26  66
ATOM     66  C   LIG d   1       3.643  -3.373 -10.032  0.00  0.00    -0.055 C 
ATOM     67  H   LIG d   1       2.992  -3.212  -9.172  0.00  0.00     0.024 H 
ATOM     68  H   LIG d   1       3.308  -4.252 -10.581  0.00  0.00     0.024 H 
ATOM     69  H   LIG d   1       4.666  -3.525  -9.689  0.00  0.00     0.024 H 
ENDBRANCH  26  66
BRANCH  11  70
ATOM     70  C   LIG d   1       3.854   0.283 -11.143  0.00  0.00    -0.058 C 
ATOM     71  H   LIG d   1       3.768  -0.077 -12.169  0.00  0.00     0.024 H 
ATOM     72  H   LIG d   1       2.930   0.783 -10.854  0.00  0.00     0.024 H 
ATOM     73  H   LIG d   1       4.685   0.985 -11.073  0.00  0.00     0.024 H 
ENDBRANCH  11  70
BRANCH   1  74
ATOM     74  C   LIG d   1       3.503   1.726  -8.533  0.00  0.00    -0.059 C 
ATOM     75  H   LIG d   1       4.336   2.075  -9.142  0.00  0.00     0.024 H 
ATOM     76  H   LIG d   1       2.604   1.671  -9.147  0.00  0.00     0.024 H 
ATOM     77  H   LIG d   1       3.339   2.420  -7.709  0.00  0.00     0.024 H 
ENDBRANCH   1  74
BRANCH   6  78
ATOM     78  C   LIG d   1       7.211  -0.178  -6.180  0.00  0.00    -0.057 C 
ATOM     79  H   LIG d   1       7.182   0.905  -6.060  0.00  0.00     0.024 H 
ATOM     80  H   LIG d   1       7.464  -0.643  -5.228  0.00  0.00     0.024 H 
ATOM     81  H   LIG d   1       7.964  -0.441  -6.923  0.00  0.00     0.024 H 
ENDBRANCH   6  78
BRANCH   6  82
ATOM     82  C   LIG d   1       6.008  -2.123  -7.128  0.00  0.00    -0.057 C 
ATOM     83  H   LIG d   1       5.114  -2.701  -6.896  0.00  0.00     0.024 H 
ATOM     84  H   LIG d   1       6.176  -2.130  -8.205  0.00  0.00     0.024 H 
ATOM     85  H   LIG d   1       6.867  -2.567  -6.625  0.00  0.00     0.024 H 
ENDBRANCH   6  82
BRANCH   4  86
ATOM     86  O   LIG d   1       5.052   0.535  -4.707  0.00  0.00    -0.391 OA
ATOM     87  H   LIG d   1       5.582   0.482  -3.900  0.00  0.00     0.210 HD
ENDBRANCH   4  86
TORSDOF 13
ENDMDL
MODEL 8
REMARK VINA RESULT:      -5.3      3.745      7.740
REMARK  13 active torsions:
REMARK  status: ('A' for Active; 'I' for Inactive)
REMARK    1  A    between atoms: C_1  and  C_2 
REMARK    2  A    between atoms: C_5  and  O_40 
REMARK    3  A    between atoms: C_7  and  C_38 
REMARK    4  A    between atoms: C_7  and  C_39 
REMARK    5  A    between atoms: C_12  and  C_37 
REMARK    6  A    between atoms: C_20  and  C_30 
REMARK    7  A    between atoms: C_20  and  C_31 
REMARK    8  A    between atoms: C_24  and  C_29 
REMARK    9  A    between atoms: C_27  and  C_28 
REMARK   10  A    between atoms: C_31  and  O_33 
REMARK   11  A    between atoms: O_33  and  C_34 
REMARK   12  A    between atoms: C_34  and  C_35 
REMARK   13  A    between atoms: C_35  and  N_36 
ROOT
ATOM      1  C   LIG d   1       3.362  -1.738 -10.772  0.00  0.00    -0.022 C 
ATOM      2  C   LIG d   1       3.006  -0.389 -11.414  0.00  0.00    -0.044 C 
ATOM      3  C   LIG d   1       4.231   0.243 -12.062  0.00  0.00    -0.026 C 
ATOM      4  C   LIG d   1       4.674  -0.659 -13.212  0.00  0.00     0.061 C 
ATOM      5  H   LIG d   1       5.516  -0.193 -13.729  0.00  0.00     0.060 H 
ATOM      6  C   LIG d   1       5.115  -2.018 -12.666  0.00  0.00    -0.006 C 
ATOM      7  C   LIG d   1       4.106  -2.647 -11.732  0.00  0.00    -0.028 C 
ATOM      8  H   LIG d   1       3.299  -3.049 -12.417  0.00  0.00     0.031 H 
ATOM      9  C   LIG d   1       4.652  -3.889 -11.040  0.00  0.00    -0.049 C 
ATOM     10  C   LIG d   1       5.444  -3.620  -9.769  0.00  0.00    -0.046 C 
ATOM     11  C   LIG d   1       4.679  -2.728  -8.803  0.00  0.00    -0.016 C 
ATOM     12  C   LIG d   1       4.148  -1.490  -9.500  0.00  0.00    -0.011 C 
ATOM     13  H   LIG d   1       5.020  -0.897  -9.848  0.00  0.00     0.035 H 
ATOM     14  C   LIG d   1       3.446  -0.594  -8.528  0.00  0.00    -0.080 C 
ATOM     15  C   LIG d   1       3.709  -0.606  -7.225  0.00  0.00    -0.062 C 
ATOM     16  C   LIG d   1       4.697  -1.549  -6.657  0.00  0.00    -0.041 C 
ATOM     17  C   LIG d   1       4.786  -1.699  -5.341  0.00  0.00    -0.052 C 
ATOM     18  C   LIG d   1       3.917  -0.845  -4.446  0.00  0.00    -0.014 C 
ATOM     19  C   LIG d   1       4.756  -0.196  -3.346  0.00  0.00     0.075 C 
ATOM     20  C   LIG d   1       5.447  -1.282  -2.519  0.00  0.00     0.022 C 
ATOM     21  C   LIG d   1       6.308  -2.115  -3.433  0.00  0.00     0.144 C 
ATOM     22  O   LIG d   1       7.462  -2.335  -3.148  0.00  0.00    -0.296 OA
ATOM     23  C   LIG d   1       5.729  -2.679  -4.705  0.00  0.00     0.048 C 
ATOM     24  C   LIG d   1       6.857  -3.083  -5.643  0.00  0.00    -0.036 C 
ATOM     25  C   LIG d   1       6.291  -3.470  -7.009  0.00  0.00    -0.042 C 
ATOM     26  C   LIG d   1       5.575  -2.291  -7.633  0.00  0.00    -0.001 C 
ATOM     27  H   LIG d   1       2.236  -0.558 -12.171  0.00  0.00     0.027 H 
ATOM     28  H   LIG d   1       2.603   0.279 -10.655  0.00  0.00     0.027 H 
ATOM     29  H   LIG d   1       3.968   1.229 -12.456  0.00  0.00     0.029 H 
ATOM     30  H   LIG d   1       5.030   0.355 -11.334  0.00  0.00     0.029 H 
ATOM     31  H   LIG d   1       3.812  -4.560 -10.804  0.00  0.00     0.027 H 
ATOM     32  H   LIG d   1       5.288  -4.451 -11.737  0.00  0.00     0.027 H 
ATOM     33  H   LIG d   1       5.607  -4.595  -9.263  0.00  0.00     0.027 H 
ATOM     34  H   LIG d   1       6.431  -3.228  -9.974  0.00  0.00     0.027 H 
ATOM     35  H   LIG d   1       2.697   0.091  -8.887  0.00  0.00     0.058 H 
ATOM     36  H   LIG d   1       3.181   0.097  -6.602  0.00  0.00     0.062 H 
ATOM     37  H   LIG d   1       3.429  -0.059  -5.012  0.00  0.00     0.032 H 
ATOM     38  H   LIG d   1       3.151  -1.474  -3.984  0.00  0.00     0.032 H 
ATOM     39  H   LIG d   1       6.070  -0.817  -1.754  0.00  0.00     0.035 H 
ATOM     40  H   LIG d   1       4.697  -1.912  -2.041  0.00  0.00     0.035 H 
ATOM     41  H   LIG d   1       7.564  -2.261  -5.744  0.00  0.00     0.028 H 
ATOM     42  H   LIG d   1       7.385  -3.943  -5.219  0.00  0.00     0.028 H 
ATOM     43  H   LIG d   1       7.128  -3.753  -7.664  0.00  0.00     0.027 H 
ATOM     44  H   LIG d   1       5.637  -4.328  -6.913  0.00  0.00     0.027 H 
ENDROOT
BRANCH  19  45
ATOM     45  C   LIG d   1       3.843   0.630  -2.437  0.00  0.00    -0.049 C 
ATOM     46  H   LIG d   1       3.455   1.485  -2.991  0.00  0.00     0.024 H 
ATOM     47  H   LIG d   1       3.013   0.011  -2.096  0.00  0.00     0.024 H 
ATOM     48  H   LIG d   1       4.411   0.983  -1.576  0.00  0.00     0.024 H 
ENDBRANCH  19  45
BRANCH  19  49
ATOM     49  C   LIG d   1       5.791   0.705  -3.966  0.00  0.00     0.314 C 
ATOM     50  O   LIG d   1       6.283   1.597  -3.317  0.00  0.00    -0.250 OA
BRANCH  49  51
ATOM     51  O   LIG d   1       6.168   0.515  -5.240  0.00  0.00    -0.459 OA
BRANCH  51  52
ATOM     52  C   LIG d   1       7.399   1.117  -5.649  0.00  0.00     0.132 C 
ATOM     53  H   LIG d   1       7.374   1.300  -6.723  0.00  0.00     0.075 H 
ATOM     54  H   LIG d   1       7.534   2.061  -5.122  0.00  0.00     0.075 H 
BRANCH  52  55
ATOM     55  C   LIG d   1       8.560   0.177  -5.319  0.00  0.00    -0.000 C 
ATOM     56  H   LIG d   1       8.167  -0.806  -5.055  0.00  0.00     0.085 H 
ATOM     57  H   LIG d   1       9.212   0.086  -6.187  0.00  0.00     0.085 H 
BRANCH  55  58
ATOM     58  N   LIG d   1       9.323   0.719  -4.187  0.00  0.00     0.221 N 
ATOM     59  H   LIG d   1       8.704   0.865  -3.403  0.00  0.00     0.200 HD
ATOM     60  H   LIG d   1      10.047   0.067  -3.926  0.00  0.00     0.200 HD
ATOM     61  H   LIG d   1       9.741   1.598  -4.453  0.00  0.00     0.200 HD
ENDBRANCH  55  58
ENDBRANCH  52  55
ENDBRANCH  51  52
ENDBRANCH  49  51
ENDBRANCH  19  49
BRANCH  23  62
ATOM     62  C   LIG d   1       4.932  -3.935  -4.333  0.00  0.00    -0.049 C 
ATOM     63  H   LIG d   1       4.215  -3.690  -3.549  0.00  0.00     0.024 H 
ATOM     64  H   LIG d   1       4.398  -4.299  -5.212  0.00  0.00     0.024 H 
ATOM     65  H   LIG d   1       5.613  -4.705  -3.976  0.00  0.00     0.024 H 
ENDBRANCH  23  62
BRANCH  26  66
ATOM     66  C   LIG d   1       6.649  -1.320  -8.128  0.00  0.00    -0.055 C 
ATOM     67  H   LIG d   1       6.930  -0.646  -7.318  0.00  0.00     0.024 H 
ATOM     68  H   LIG d   1       7.524  -1.882  -8.453  0.00  0.00     0.024 H 
ATOM     69  H   LIG d   1       6.257  -0.741  -8.964  0.00  0.00     0.024 H 
ENDBRANCH  26  66
BRANCH  11  70
ATOM     70  C   LIG d   1       3.543  -3.554  -8.174  0.00  0.00    -0.058 C 
ATOM     71  H   LIG d   1       2.584  -3.089  -8.406  0.00  0.00     0.024 H 
ATOM     72  H   LIG d   1       3.563  -4.567  -8.577  0.00  0.00     0.024 H 
ATOM     73  H   LIG d   1       3.676  -3.591  -7.093  0.00  0.00     0.024 H 
ENDBRANCH  11  70
BRANCH   1  74
ATOM     74  C   LIG d   1       1.992  -2.381 -10.462  0.00  0.00    -0.059 C 
ATOM     75  H   LIG d   1       1.953  -3.381 -10.895  0.00  0.00     0.024 H 
ATOM     76  H   LIG d   1       1.856  -2.448  -9.383  0.00  0.00     0.024 H 
ATOM     77  H   LIG d   1       1.199  -1.769 -10.891  0.00  0.00     0.024 H 
ENDBRANCH   1  74
BRANCH   6  78
ATOM     78  C   LIG d   1       5.279  -2.947 -13.895  0.00  0.00    -0.057 C 
ATOM     79  H   LIG d   1       5.564  -2.353 -14.763  0.00  0.00     0.024 H 
ATOM     80  H   LIG d   1       6.053  -3.686 -13.690  0.00  0.00     0.024 H 
ATOM     81  H   LIG d   1       4.336  -3.455 -14.095  0.00  0.00     0.024 H 
ENDBRANCH   6  78
BRANCH   6  82
ATOM     82  C   LIG d   1       6.498  -1.854 -12.037  0.00  0.00    -0.057 C 
ATOM     83  H   LIG d   1       6.668  -2.654 -11.317  0.00  0.00     0.024 H 
ATOM     84  H   LIG d   1       7.260  -1.898 -12.816  0.00  0.00     0.024 H 
ATOM     85  H   LIG d   1       6.555  -0.891 -11.530  0.00  0.00     0.024 H 
ENDBRANCH   6  82
BRANCH   4  86
ATOM     86  O   LIG d   1       3.599  -0.835 -14.134  0.00  0.00    -0.391 OA
ATOM     87  H   LIG d   1       3.684  -1.619 -14.693  0.00  0.00     0.210 HD
ENDBRANCH   4  86
TORSDOF 13
ENDMDL
MODEL 9
REMARK VINA RESULT:      -5.1      2.169      7.442
REMARK  13 active torsions:
REMARK  status: ('A' for Active; 'I' for Inactive)
REMARK    1  A    between atoms: C_1  and  C_2 
REMARK    2  A    between atoms: C_5  and  O_40 
REMARK    3  A    between atoms: C_7  and  C_38 
REMARK    4  A    between atoms: C_7  and  C_39 
REMARK    5  A    between atoms: C_12  and  C_37 
REMARK    6  A    between atoms: C_20  and  C_30 
REMARK    7  A    between atoms: C_20  and  C_31 
REMARK    8  A    between atoms: C_24  and  C_29 
REMARK    9  A    between atoms: C_27  and  C_28 
REMARK   10  A    between atoms: C_31  and  O_33 
REMARK   11  A    between atoms: O_33  and  C_34 
REMARK   12  A    between atoms: C_34  and  C_35 
REMARK   13  A    between atoms: C_35  and  N_36 
ROOT
ATOM      1  C   LIG d   1       4.013  -6.581  -9.416  0.00  0.00    -0.022 C 
ATOM      2  C   LIG d   1       2.545  -6.378  -9.822  0.00  0.00    -0.044 C 
ATOM      3  C   LIG d   1       2.434  -5.399 -10.983  0.00  0.00    -0.026 C 
ATOM      4  C   LIG d   1       3.116  -6.026 -12.196  0.00  0.00     0.061 C 
ATOM      5  H   LIG d   1       2.995  -5.365 -13.058  0.00  0.00     0.060 H 
ATOM      6  C   LIG d   1       4.608  -6.212 -11.917  0.00  0.00    -0.006 C 
ATOM      7  C   LIG d   1       4.892  -6.913 -10.607  0.00  0.00    -0.028 C 
ATOM      8  H   LIG d   1       4.674  -8.005 -10.819  0.00  0.00     0.031 H 
ATOM      9  C   LIG d   1       6.373  -6.898 -10.250  0.00  0.00    -0.049 C 
ATOM     10  C   LIG d   1       6.843  -5.652  -9.516  0.00  0.00    -0.046 C 
ATOM     11  C   LIG d   1       5.970  -5.342  -8.309  0.00  0.00    -0.016 C 
ATOM     12  C   LIG d   1       4.499  -5.349  -8.679  0.00  0.00    -0.011 C 
ATOM     13  H   LIG d   1       4.327  -4.529  -9.407  0.00  0.00     0.035 H 
ATOM     14  C   LIG d   1       3.654  -4.988  -7.497  0.00  0.00    -0.080 C 
ATOM     15  C   LIG d   1       4.116  -4.270  -6.479  0.00  0.00    -0.062 C 
ATOM     16  C   LIG d   1       5.525  -3.818  -6.445  0.00  0.00    -0.041 C 
ATOM     17  C   LIG d   1       6.024  -3.297  -5.331  0.00  0.00    -0.052 C 
ATOM     18  C   LIG d   1       5.115  -3.113  -4.137  0.00  0.00    -0.014 C 
ATOM     19  C   LIG d   1       5.245  -1.697  -3.578  0.00  0.00     0.075 C 
ATOM     20  C   LIG d   1       6.698  -1.436  -3.173  0.00  0.00     0.022 C 
ATOM     21  C   LIG d   1       7.580  -1.622  -4.381  0.00  0.00     0.144 C 
ATOM     22  O   LIG d   1       8.387  -0.774  -4.681  0.00  0.00    -0.296 OA
ATOM     23  C   LIG d   1       7.459  -2.871  -5.215  0.00  0.00     0.048 C 
ATOM     24  C   LIG d   1       8.101  -2.639  -6.575  0.00  0.00    -0.036 C 
ATOM     25  C   LIG d   1       7.815  -3.822  -7.500  0.00  0.00    -0.042 C 
ATOM     26  C   LIG d   1       6.322  -3.969  -7.716  0.00  0.00    -0.001 C 
ATOM     27  H   LIG d   1       2.130  -7.345 -10.117  0.00  0.00     0.027 H 
ATOM     28  H   LIG d   1       1.981  -6.006  -8.969  0.00  0.00     0.027 H 
ATOM     29  H   LIG d   1       1.379  -5.221 -11.212  0.00  0.00     0.029 H 
ATOM     30  H   LIG d   1       2.904  -4.452 -10.727  0.00  0.00     0.029 H 
ATOM     31  H   LIG d   1       6.596  -7.783  -9.635  0.00  0.00     0.027 H 
ATOM     32  H   LIG d   1       6.974  -7.016 -11.162  0.00  0.00     0.027 H 
ATOM     33  H   LIG d   1       7.868  -5.851  -9.141  0.00  0.00     0.027 H 
ATOM     34  H   LIG d   1       6.932  -4.796 -10.173  0.00  0.00     0.027 H 
ATOM     35  H   LIG d   1       2.630  -5.318  -7.460  0.00  0.00     0.058 H 
ATOM     36  H   LIG d   1       3.429  -4.027  -5.686  0.00  0.00     0.062 H 
ATOM     37  H   LIG d   1       4.078  -3.280  -4.408  0.00  0.00     0.032 H 
ATOM     38  H   LIG d   1       5.396  -3.828  -3.359  0.00  0.00     0.032 H 
ATOM     39  H   LIG d   1       6.795  -0.414  -2.804  0.00  0.00     0.035 H 
ATOM     40  H   LIG d   1       6.990  -2.133  -2.389  0.00  0.00     0.035 H 
ATOM     41  H   LIG d   1       7.720  -1.716  -7.010  0.00  0.00     0.028 H 
ATOM     42  H   LIG d   1       9.185  -2.540  -6.448  0.00  0.00     0.028 H 
ATOM     43  H   LIG d   1       8.287  -3.625  -8.473  0.00  0.00     0.027 H 
ATOM     44  H   LIG d   1       8.249  -4.728  -7.095  0.00  0.00     0.027 H 
ENDROOT
BRANCH  19  45
ATOM     45  C   LIG d   1       4.342  -1.554  -2.351  0.00  0.00    -0.049 C 
ATOM     46  H   LIG d   1       4.957  -1.460  -1.456  0.00  0.00     0.024 H 
ATOM     47  H   LIG d   1       3.719  -0.666  -2.459  0.00  0.00     0.024 H 
ATOM     48  H   LIG d   1       3.706  -2.435  -2.264  0.00  0.00     0.024 H 
ENDBRANCH  19  45
BRANCH  19  49
ATOM     49  C   LIG d   1       4.824  -0.700  -4.627  0.00  0.00     0.314 C 
ATOM     50  O   LIG d   1       5.438   0.331  -4.762  0.00  0.00    -0.250 OA
BRANCH  49  51
ATOM     51  O   LIG d   1       3.767  -0.960  -5.411  0.00  0.00    -0.459 OA
BRANCH  51  52
ATOM     52  C   LIG d   1       2.983   0.159  -5.835  0.00  0.00     0.132 C 
ATOM     53  H   LIG d   1       1.952   0.025  -5.507  0.00  0.00     0.075 H 
ATOM     54  H   LIG d   1       3.388   1.071  -5.398  0.00  0.00     0.075 H 
BRANCH  52  55
ATOM     55  C   LIG d   1       3.025   0.261  -7.360  0.00  0.00    -0.000 C 
ATOM     56  H   LIG d   1       2.993  -0.739  -7.793  0.00  0.00     0.085 H 
ATOM     57  H   LIG d   1       2.166   0.835  -7.709  0.00  0.00     0.085 H 
BRANCH  55  58
ATOM     58  N   LIG d   1       4.264   0.934  -7.773  0.00  0.00     0.221 N 
ATOM     59  H   LIG d   1       4.041   1.698  -8.393  0.00  0.00     0.200 HD
ATOM     60  H   LIG d   1       4.741   1.290  -6.959  0.00  0.00     0.200 HD
ATOM     61  H   LIG d   1       4.861   0.276  -8.252  0.00  0.00     0.200 HD
ENDBRANCH  55  58
ENDBRANCH  52  55
ENDBRANCH  51  52
ENDBRANCH  49  51
ENDBRANCH  19  49
BRANCH  23  62
ATOM     62  C   LIG d   1       8.230  -3.984  -4.496  0.00  0.00    -0.049 C 
ATOM     63  H   LIG d   1       9.299  -3.783  -4.558  0.00  0.00     0.024 H 
ATOM     64  H   LIG d   1       7.927  -4.016  -3.448  0.00  0.00     0.024 H 
ATOM     65  H   LIG d   1       8.011  -4.941  -4.967  0.00  0.00     0.024 H 
ENDBRANCH  23  62
BRANCH  26  66
ATOM     66  C   LIG d   1       5.893  -2.856  -8.673  0.00  0.00    -0.055 C 
ATOM     67  H   LIG d   1       6.216  -1.892  -8.278  0.00  0.00     0.024 H 
ATOM     68  H   LIG d   1       6.349  -3.019  -9.648  0.00  0.00     0.024 H 
ATOM     69  H   LIG d   1       4.808  -2.862  -8.772  0.00  0.00     0.024 H 
ENDBRANCH  26  66
BRANCH  11  70
ATOM     70  C   LIG d   1       6.282  -6.368  -7.206  0.00  0.00    -0.058 C 
ATOM     71  H   LIG d   1       7.300  -6.215  -6.845  0.00  0.00     0.024 H 
ATOM     72  H   LIG d   1       5.581  -6.240  -6.382  0.00  0.00     0.024 H 
ATOM     73  H   LIG d   1       6.188  -7.376  -7.610  0.00  0.00     0.024 H 
ENDBRANCH  11  70
BRANCH   1  74
ATOM     74  C   LIG d   1       3.979  -7.811  -8.483  0.00  0.00    -0.059 C 
ATOM     75  H   LIG d   1       3.042  -7.822  -7.928  0.00  0.00     0.024 H 
ATOM     76  H   LIG d   1       4.059  -8.722  -9.077  0.00  0.00     0.024 H 
ATOM     77  H   LIG d   1       4.814  -7.759  -7.784  0.00  0.00     0.024 H 
ENDBRANCH   1  74
BRANCH   6  78
ATOM     78  C   LIG d   1       5.160  -7.092 -13.066  0.00  0.00    -0.057 C 
ATOM     79  H   LIG d   1       5.839  -6.501 -13.681  0.00  0.00     0.024 H 
ATOM     80  H   LIG d   1       5.697  -7.942 -12.646  0.00  0.00     0.024 H 
ATOM     81  H   LIG d   1       4.333  -7.451 -13.677  0.00  0.00     0.024 H 
ENDBRANCH   6  78
BRANCH   6  82
ATOM     82  C   LIG d   1       5.288  -4.847 -12.028  0.00  0.00    -0.057 C 
ATOM     83  H   LIG d   1       5.383  -4.405 -11.036  0.00  0.00     0.024 H 
ATOM     84  H   LIG d   1       6.278  -4.968 -12.468  0.00  0.00     0.024 H 
ATOM     85  H   LIG d   1       4.688  -4.193 -12.661  0.00  0.00     0.024 H 
ENDBRANCH   6  82
BRANCH   4  86
ATOM     86  O   LIG d   1       2.520  -7.290 -12.490  0.00  0.00    -0.391 OA
ATOM     87  H   LIG d   1       2.570  -7.927 -11.764  0.00  0.00     0.210 HD
ENDBRANCH   4  86
TORSDOF 13
ENDMDL
MODEL 10
REMARK VINA RESULT:      -5.1     11.134     15.908
REMARK  13 active torsions:
REMARK  status: ('A' for Active; 'I' for Inactive)
REMARK    1  A    between atoms: C_1  and  C_2 
REMARK    2  A    between atoms: C_5  and  O_40 
REMARK    3  A    between atoms: C_7  and  C_38 
REMARK    4  A    between atoms: C_7  and  C_39 
REMARK    5  A    between atoms: C_12  and  C_37 
REMARK    6  A    between atoms: C_20  and  C_30 
REMARK    7  A    between atoms: C_20  and  C_31 
REMARK    8  A    between atoms: C_24  and  C_29 
REMARK    9  A    between atoms: C_27  and  C_28 
REMARK   10  A    between atoms: C_31  and  O_33 
REMARK   11  A    between atoms: O_33  and  C_34 
REMARK   12  A    between atoms: C_34  and  C_35 
REMARK   13  A    between atoms: C_35  and  N_36 
ROOT
ATOM      1  C   LIG d   1      12.206   5.824  -3.927  0.00  0.00    -0.022 C 
ATOM      2  C   LIG d   1      12.107   5.725  -2.397  0.00  0.00    -0.044 C 
ATOM      3  C   LIG d   1      10.676   5.435  -1.964  0.00  0.00    -0.026 C 
ATOM      4  C   LIG d   1      10.294   4.055  -2.493  0.00  0.00     0.061 C 
ATOM      5  H   LIG d   1       9.291   3.800  -2.142  0.00  0.00     0.060 H 
ATOM      6  C   LIG d   1      10.299   4.065  -4.023  0.00  0.00    -0.006 C 
ATOM      7  C   LIG d   1      11.568   4.633  -4.617  0.00  0.00    -0.028 C 
ATOM      8  H   LIG d   1      12.330   3.803  -4.501  0.00  0.00     0.031 H 
ATOM      9  C   LIG d   1      11.466   4.829  -6.124  0.00  0.00    -0.049 C 
ATOM     10  C   LIG d   1      10.845   6.148  -6.558  0.00  0.00    -0.046 C 
ATOM     11  C   LIG d   1      11.509   7.337  -5.880  0.00  0.00    -0.016 C 
ATOM     12  C   LIG d   1      11.596   7.136  -4.379  0.00  0.00    -0.011 C 
ATOM     13  H   LIG d   1      10.559   7.088  -3.982  0.00  0.00     0.035 H 
ATOM     14  C   LIG d   1      12.198   8.335  -3.717  0.00  0.00    -0.080 C 
ATOM     15  C   LIG d   1      12.159   9.548  -4.260  0.00  0.00    -0.062 C 
ATOM     16  C   LIG d   1      11.540   9.768  -5.586  0.00  0.00    -0.041 C 
ATOM     17  C   LIG d   1      11.702  10.931  -6.205  0.00  0.00    -0.052 C 
ATOM     18  C   LIG d   1      12.463  12.034  -5.505  0.00  0.00    -0.014 C 
ATOM     19  C   LIG d   1      11.676  13.342  -5.556  0.00  0.00     0.075 C 
ATOM     20  C   LIG d   1      11.418  13.731  -7.013  0.00  0.00     0.022 C 
ATOM     21  C   LIG d   1      10.657  12.617  -7.685  0.00  0.00     0.144 C 
ATOM     22  O   LIG d   1       9.655  12.860  -8.316  0.00  0.00    -0.296 OA
ATOM     23  C   LIG d   1      11.147  11.197  -7.575  0.00  0.00     0.048 C 
ATOM     24  C   LIG d   1      10.020  10.239  -7.934  0.00  0.00    -0.036 C 
ATOM     25  C   LIG d   1      10.439   8.800  -7.637  0.00  0.00    -0.042 C 
ATOM     26  C   LIG d   1      10.730   8.633  -6.160  0.00  0.00    -0.001 C 
ATOM     27  H   LIG d   1      12.764   4.919  -2.059  0.00  0.00     0.027 H 
ATOM     28  H   LIG d   1      12.447   6.657  -1.950  0.00  0.00     0.027 H 
ATOM     29  H   LIG d   1      10.619   5.432  -0.871  0.00  0.00     0.029 H 
ATOM     30  H   LIG d   1      10.002   6.193  -2.350  0.00  0.00     0.029 H 
ATOM     31  H   LIG d   1      12.473   4.745  -6.559  0.00  0.00     0.027 H 
ATOM     32  H   LIG d   1      10.887   4.006  -6.565  0.00  0.00     0.027 H 
ATOM     33  H   LIG d   1      11.013   6.253  -7.651  0.00  0.00     0.027 H 
ATOM     34  H   LIG d   1       9.772   6.162  -6.424  0.00  0.00     0.027 H 
ATOM     35  H   LIG d   1      12.686   8.223  -2.764  0.00  0.00     0.058 H 
ATOM     36  H   LIG d   1      12.588  10.361  -3.698  0.00  0.00     0.062 H 
ATOM     37  H   LIG d   1      12.643  11.783  -4.465  0.00  0.00     0.032 H 
ATOM     38  H   LIG d   1      13.425  12.179  -6.005  0.00  0.00     0.032 H 
ATOM     39  H   LIG d   1      10.829  14.649  -7.048  0.00  0.00     0.035 H 
ATOM     40  H   LIG d   1      12.368  13.891  -7.523  0.00  0.00     0.035 H 
ATOM     41  H   LIG d   1       9.124  10.498  -7.371  0.00  0.00     0.028 H 
ATOM     42  H   LIG d   1       9.797  10.333  -9.002  0.00  0.00     0.028 H 
ATOM     43  H   LIG d   1       9.606   8.134  -7.903  0.00  0.00     0.027 H 
ATOM     44  H   LIG d   1      11.293   8.525  -8.244  0.00  0.00     0.027 H 
ENDROOT
BRANCH  19  45
ATOM     45  C   LIG d   1      12.487  14.446  -4.872  0.00  0.00    -0.049 C 
ATOM     46  H   LIG d   1      12.768  15.200  -5.607  0.00  0.00     0.024 H 
ATOM     47  H   LIG d   1      11.886  14.907  -4.089  0.00  0.00     0.024 H 
ATOM     48  H   LIG d   1      13.387  14.015  -4.432  0.00  0.00     0.024 H 
ENDBRANCH  19  45
BRANCH  19  49
ATOM     49  C   LIG d   1      10.363  13.170  -4.837  0.00  0.00     0.314 C 
ATOM     50  O   LIG d   1       9.350  13.629  -5.309  0.00  0.00    -0.250 OA
BRANCH  49  51
ATOM     51  O   LIG d   1      10.319  12.505  -3.673  0.00  0.00    -0.459 OA
BRANCH  51  52
ATOM     52  C   LIG d   1       9.142  11.738  -3.407  0.00  0.00     0.132 C 
ATOM     53  H   LIG d   1       8.342  12.403  -3.081  0.00  0.00     0.075 H 
ATOM     54  H   LIG d   1       8.835  11.218  -4.314  0.00  0.00     0.075 H 
BRANCH  52  55
ATOM     55  C   LIG d   1       9.436  10.716  -2.307  0.00  0.00    -0.000 C 
ATOM     56  H   LIG d   1       9.830   9.804  -2.755  0.00  0.00     0.085 H 
ATOM     57  H   LIG d   1      10.171  11.129  -1.616  0.00  0.00     0.085 H 
BRANCH  55  58
ATOM     58  N   LIG d   1       8.198  10.409  -1.580  0.00  0.00     0.221 N 
ATOM     59  H   LIG d   1       8.121  11.014  -0.776  0.00  0.00     0.200 HD
ATOM     60  H   LIG d   1       7.406  10.555  -2.187  0.00  0.00     0.200 HD
ATOM     61  H   LIG d   1       8.215   9.447  -1.276  0.00  0.00     0.200 HD
ENDBRANCH  55  58
ENDBRANCH  52  55
ENDBRANCH  51  52
ENDBRANCH  49  51
ENDBRANCH  19  49
BRANCH  23  62
ATOM     62  C   LIG d   1      12.281  11.018  -8.591  0.00  0.00    -0.049 C 
ATOM     63  H   LIG d   1      13.238  11.197  -8.102  0.00  0.00     0.024 H 
ATOM     64  H   LIG d   1      12.258  10.001  -8.985  0.00  0.00     0.024 H 
ATOM     65  H   LIG d   1      12.151  11.727  -9.408  0.00  0.00     0.024 H 
ENDBRANCH  23  62
BRANCH  26  66
ATOM     66  C   LIG d   1       9.384   8.605  -5.434  0.00  0.00    -0.055 C 
ATOM     67  H   LIG d   1       9.026   9.625  -5.293  0.00  0.00     0.024 H 
ATOM     68  H   LIG d   1       8.662   8.047  -6.030  0.00  0.00     0.024 H 
ATOM     69  H   LIG d   1       9.505   8.124  -4.464  0.00  0.00     0.024 H 
ENDBRANCH  26  66
BRANCH  11  70
ATOM     70  C   LIG d   1      12.900   7.541  -6.506  0.00  0.00    -0.058 C 
ATOM     71  H   LIG d   1      12.932   7.059  -7.484  0.00  0.00     0.024 H 
ATOM     72  H   LIG d   1      13.095   8.607  -6.619  0.00  0.00     0.024 H 
ATOM     73  H   LIG d   1      13.658   7.099  -5.858  0.00  0.00     0.024 H 
ENDBRANCH  11  70
BRANCH   1  74
ATOM     74  C   LIG d   1      13.724   5.790  -4.210  0.00  0.00    -0.059 C 
ATOM     75  H   LIG d   1      13.943   6.389  -5.093  0.00  0.00     0.024 H 
ATOM     76  H   LIG d   1      14.264   6.195  -3.354  0.00  0.00     0.024 H 
ATOM     77  H   LIG d   1      14.037   4.760  -4.383  0.00  0.00     0.024 H 
ENDBRANCH   1  74
BRANCH   6  78
ATOM     78  C   LIG d   1      10.176   2.586  -4.468  0.00  0.00    -0.057 C 
ATOM     79  H   LIG d   1      10.960   2.359  -5.190  0.00  0.00     0.024 H 
ATOM     80  H   LIG d   1      10.281   1.936  -3.600  0.00  0.00     0.024 H 
ATOM     81  H   LIG d   1       9.201   2.425  -4.927  0.00  0.00     0.024 H 
ENDBRANCH   6  78
BRANCH   6  82
ATOM     82  C   LIG d   1       9.037   4.785  -4.499  0.00  0.00    -0.057 C 
ATOM     83  H   LIG d   1       9.164   5.098  -5.534  0.00  0.00     0.024 H 
ATOM     84  H   LIG d   1       8.184   4.110  -4.425  0.00  0.00     0.024 H 
ATOM     85  H   LIG d   1       8.860   5.660  -3.874  0.00  0.00     0.024 H 
ENDBRANCH   6  82
BRANCH   4  86
ATOM     86  O   LIG d   1      11.218   3.077  -2.015  0.00  0.00    -0.391 OA
ATOM     87  H   LIG d   1      11.854   2.778  -2.679  0.00  0.00     0.210 HD
ENDBRANCH   4  86
TORSDOF 13
ENDMDL
