MODEL 1
REMARK VINA RESULT:      -7.4      0.000      0.000
REMARK  10 active torsions:
REMARK  status: ('A' for Active; 'I' for Inactive)
REMARK    1  A    between atoms: C_1  and  C_2 
REMARK    2  A    between atoms: C_13  and  O_15 
REMARK    3  A    between atoms: O_15  and  C_16 
REMARK    4  A    between atoms: C_16  and  C_18 
REMARK    5  A    between atoms: C_18  and  C_19 
REMARK    6  A    between atoms: C_19  and  C_20 
REMARK       I    between atoms: C_20  and  N_22 
REMARK    7  A    between atoms: N_22  and  C_23 
REMARK    8  A    between atoms: C_23  and  C_24 
REMARK    9  A    between atoms: C_27  and  C_30 
REMARK   10  A    between atoms: C_40  and  C_41 
ROOT
ATOM      1  C   LIG d   1       6.641  -2.323  -4.683  0.00  0.00     0.008 C 
ATOM      2  C   LIG d   1       5.395  -3.058  -4.240  0.00  0.00    -0.044 C 
ATOM      3  C   LIG d   1       5.121  -4.217  -5.216  0.00  0.00    -0.049 C 
ATOM      4  C   LIG d   1       6.431  -4.926  -5.541  0.00  0.00    -0.029 C 
ATOM      5  H   LIG d   1       6.948  -5.002  -4.571  0.00  0.00     0.031 H 
ATOM      6  C   LIG d   1       7.327  -4.049  -6.390  0.00  0.00    -0.034 C 
ATOM      7  H   LIG d   1       8.366  -4.182  -6.084  0.00  0.00     0.031 H 
ATOM      8  C   LIG d   1       6.907  -2.598  -6.176  0.00  0.00    -0.029 C 
ATOM      9  H   LIG d   1       6.007  -2.381  -6.769  0.00  0.00     0.031 H 
ATOM     10  C   LIG d   1       7.997  -1.565  -6.507  0.00  0.00    -0.046 C 
ATOM     11  C   LIG d   1       7.571  -0.313  -5.698  0.00  0.00    -0.015 C 
ATOM     12  C   LIG d   1       6.513  -0.788  -4.672  0.00  0.00     0.109 C 
ATOM     13  H   LIG d   1       5.517  -0.491  -4.982  0.00  0.00     0.074 H 
ATOM     14  C   LIG d   1       7.221  -4.340  -7.883  0.00  0.00    -0.046 C 
ATOM     15  C   LIG d   1       7.463  -5.812  -8.181  0.00  0.00    -0.030 C 
ATOM     16  C   LIG d   1       6.444  -6.625  -7.408  0.00  0.00    -0.060 C 
ATOM     17  C   LIG d   1       5.737  -7.534  -8.080  0.00  0.00    -0.019 C 
ATOM     18  C   LIG d   1       4.760  -8.387  -7.399  0.00  0.00     0.156 C 
ATOM     19  O   LIG d   1       3.985  -9.082  -8.031  0.00  0.00    -0.293 OA
ATOM     20  C   LIG d   1       4.742  -8.379  -5.886  0.00  0.00     0.011 C 
ATOM     21  C   LIG d   1       4.970  -6.948  -5.404  0.00  0.00    -0.037 C 
ATOM     22  C   LIG d   1       6.264  -6.365  -5.951  0.00  0.00    -0.007 C 
ATOM     23  H   LIG d   1       4.541  -2.376  -4.239  0.00  0.00     0.027 H 
ATOM     24  H   LIG d   1       5.535  -3.455  -3.233  0.00  0.00     0.027 H 
ATOM     25  H   LIG d   1       4.673  -3.829  -6.129  0.00  0.00     0.027 H 
ATOM     26  H   LIG d   1       4.427  -4.909  -4.740  0.00  0.00     0.027 H 
ATOM     27  H   LIG d   1       7.999  -1.343  -7.576  0.00  0.00     0.027 H 
ATOM     28  H   LIG d   1       8.980  -1.916  -6.195  0.00  0.00     0.027 H 
ATOM     29  H   LIG d   1       7.137   0.432  -6.363  0.00  0.00     0.030 H 
ATOM     30  H   LIG d   1       8.432   0.106  -5.178  0.00  0.00     0.030 H 
ATOM     31  H   LIG d   1       6.225  -4.063  -8.227  0.00  0.00     0.027 H 
ATOM     32  H   LIG d   1       7.962  -3.740  -8.412  0.00  0.00     0.027 H 
ATOM     33  H   LIG d   1       7.345  -5.996  -9.249  0.00  0.00     0.031 H 
ATOM     34  H   LIG d   1       8.471  -6.091  -7.874  0.00  0.00     0.031 H 
ATOM     35  H   LIG d   1       5.889  -7.643  -9.146  0.00  0.00     0.065 H 
ATOM     36  H   LIG d   1       5.463  -8.979  -5.540  0.00  0.00     0.035 H 
ATOM     37  H   LIG d   1       3.766  -8.729  -5.532  0.00  0.00     0.035 H 
ATOM     38  H   LIG d   1       5.006  -6.936  -4.315  0.00  0.00     0.028 H 
ATOM     39  H   LIG d   1       4.133  -6.335  -5.744  0.00  0.00     0.028 H 
ENDROOT
BRANCH  12  40
ATOM     40  O   LIG d   1       6.823  -0.275  -3.351  0.00  0.00    -0.461 OA
BRANCH  40  41
ATOM     41  C   LIG d   1       6.072   0.744  -2.902  0.00  0.00     0.308 C 
ATOM     42  O   LIG d   1       6.305   1.872  -3.267  0.00  0.00    -0.251 OA
BRANCH  41  43
ATOM     43  C   LIG d   1       4.939   0.481  -1.945  0.00  0.00     0.053 C 
ATOM     44  H   LIG d   1       5.224   0.810  -0.946  0.00  0.00     0.038 H 
ATOM     45  H   LIG d   1       4.720  -0.587  -1.926  0.00  0.00     0.038 H 
BRANCH  43  46
ATOM     46  C   LIG d   1       3.696   1.249  -2.401  0.00  0.00     0.034 C 
ATOM     47  H   LIG d   1       3.995   2.222  -2.793  0.00  0.00     0.036 H 
ATOM     48  H   LIG d   1       3.025   1.389  -1.554  0.00  0.00     0.036 H 
BRANCH  46  49
ATOM     49  C   LIG d   1       2.990   0.468  -3.479  0.00  0.00     0.214 C 
ATOM     50  O   LIG d   1       2.533  -0.628  -3.233  0.00  0.00    -0.276 OA
ATOM     51  N   LIG d   1       2.868   0.987  -4.717  0.00  0.00    -0.311 N 
ATOM     52  H   LIG d   1       3.235   1.863  -4.913  0.00  0.00     0.149 HD
BRANCH  51  53
ATOM     53  C   LIG d   1       2.182   0.227  -5.764  0.00  0.00     0.037 C 
ATOM     54  H   LIG d   1       1.221   0.694  -5.982  0.00  0.00     0.051 H 
ATOM     55  H   LIG d   1       2.020  -0.796  -5.425  0.00  0.00     0.051 H 
BRANCH  53  56
ATOM     56  C   LIG d   1       3.027   0.216  -7.013  0.00  0.00    -0.030 A 
ATOM     57  C   LIG d   1       2.919   1.248  -7.927  0.00  0.00    -0.057 A 
ATOM     58  C   LIG d   1       3.694   1.247  -9.069  0.00  0.00    -0.053 A 
ATOM     59  H   LIG d   1       2.230   2.059  -7.745  0.00  0.00     0.062 H 
ATOM     60  C   LIG d   1       4.581   0.194  -9.304  0.00  0.00    -0.003 A 
ATOM     61  H   LIG d   1       3.612   2.054  -9.779  0.00  0.00     0.062 H 
ATOM     62  C   LIG d   1       4.686  -0.844  -8.377  0.00  0.00    -0.053 A 
ATOM     63  C   LIG d   1       3.909  -0.827  -7.237  0.00  0.00    -0.057 A 
ATOM     64  H   LIG d   1       5.372  -1.660  -8.551  0.00  0.00     0.062 H 
ATOM     65  H   LIG d   1       3.989  -1.629  -6.518  0.00  0.00     0.062 H 
BRANCH  60  66
ATOM     66  C   LIG d   1       5.410   0.182 -10.528  0.00  0.00     0.072 C 
ATOM     67  O   LIG d   1       6.621   0.155 -10.440  0.00  0.00    -0.545 OA
ATOM     68  O   LIG d   1       4.822   0.194 -11.739  0.00  0.00    -0.545 OA
ENDBRANCH  60  66
ENDBRANCH  53  56
ENDBRANCH  51  53
ENDBRANCH  46  49
ENDBRANCH  43  46
ENDBRANCH  41  43
ENDBRANCH  40  41
ENDBRANCH  12  40
BRANCH   1  69
ATOM     69  C   LIG d   1       7.836  -2.708  -3.811  0.00  0.00    -0.056 C 
ATOM     70  H   LIG d   1       7.485  -3.240  -2.928  0.00  0.00     0.024 H 
ATOM     71  H   LIG d   1       8.508  -3.351  -4.380  0.00  0.00     0.024 H 
ATOM     72  H   LIG d   1       8.367  -1.807  -3.505  0.00  0.00     0.024 H 
ENDBRANCH   1  69
BRANCH  22  73
ATOM     73  C   LIG d   1       7.396  -7.123  -5.245  0.00  0.00    -0.056 C 
ATOM     74  H   LIG d   1       7.504  -8.113  -5.689  0.00  0.00     0.024 H 
ATOM     75  H   LIG d   1       8.329  -6.571  -5.357  0.00  0.00     0.024 H 
ATOM     76  H   LIG d   1       7.161  -7.225  -4.185  0.00  0.00     0.024 H 
ENDBRANCH  22  73
TORSDOF 10
ENDMDL
MODEL 2
REMARK VINA RESULT:      -7.1      2.665      7.683
REMARK  10 active torsions:
REMARK  status: ('A' for Active; 'I' for Inactive)
REMARK    1  A    between atoms: C_1  and  C_2 
REMARK    2  A    between atoms: C_13  and  O_15 
REMARK    3  A    between atoms: O_15  and  C_16 
REMARK    4  A    between atoms: C_16  and  C_18 
REMARK    5  A    between atoms: C_18  and  C_19 
REMARK    6  A    between atoms: C_19  and  C_20 
REMARK       I    between atoms: C_20  and  N_22 
REMARK    7  A    between atoms: N_22  and  C_23 
REMARK    8  A    between atoms: C_23  and  C_24 
REMARK    9  A    between atoms: C_27  and  C_30 
REMARK   10  A    between atoms: C_40  and  C_41 
ROOT
ATOM      1  C   LIG d   1       3.700  -4.752  -9.177  0.00  0.00     0.008 C 
ATOM      2  C   LIG d   1       3.799  -3.901  -7.929  0.00  0.00    -0.044 C 
ATOM      3  C   LIG d   1       4.057  -2.439  -8.338  0.00  0.00    -0.049 C 
ATOM      4  C   LIG d   1       3.163  -2.078  -9.519  0.00  0.00    -0.029 C 
ATOM      5  H   LIG d   1       2.185  -2.519  -9.267  0.00  0.00     0.031 H 
ATOM      6  C   LIG d   1       3.602  -2.801 -10.775  0.00  0.00    -0.034 C 
ATOM      7  H   LIG d   1       2.726  -3.101 -11.350  0.00  0.00     0.031 H 
ATOM      8  C   LIG d   1       4.392  -4.037 -10.354  0.00  0.00    -0.029 C 
ATOM      9  H   LIG d   1       5.414  -3.746 -10.074  0.00  0.00     0.031 H 
ATOM     10  C   LIG d   1       4.450  -5.146 -11.418  0.00  0.00    -0.046 C 
ATOM     11  C   LIG d   1       4.760  -6.424 -10.596  0.00  0.00    -0.015 C 
ATOM     12  C   LIG d   1       4.489  -6.073  -9.113  0.00  0.00     0.109 C 
ATOM     13  H   LIG d   1       5.421  -5.928  -8.576  0.00  0.00     0.074 H 
ATOM     14  C   LIG d   1       4.508  -1.964 -11.671  0.00  0.00    -0.046 C 
ATOM     15  C   LIG d   1       3.867  -0.626 -12.012  0.00  0.00    -0.030 C 
ATOM     16  C   LIG d   1       3.581   0.105 -10.716  0.00  0.00    -0.060 C 
ATOM     17  C   LIG d   1       4.011   1.362 -10.605  0.00  0.00    -0.019 C 
ATOM     18  C   LIG d   1       3.741   2.150  -9.400  0.00  0.00     0.156 C 
ATOM     19  O   LIG d   1       4.286   3.223  -9.216  0.00  0.00    -0.293 OA
ATOM     20  C   LIG d   1       2.763   1.591  -8.389  0.00  0.00     0.011 C 
ATOM     21  C   LIG d   1       2.985   0.085  -8.279  0.00  0.00    -0.037 C 
ATOM     22  C   LIG d   1       2.854  -0.608  -9.627  0.00  0.00    -0.007 C 
ATOM     23  H   LIG d   1       4.624  -4.253  -7.304  0.00  0.00     0.027 H 
ATOM     24  H   LIG d   1       2.870  -3.962  -7.361  0.00  0.00     0.027 H 
ATOM     25  H   LIG d   1       5.103  -2.313  -8.613  0.00  0.00     0.027 H 
ATOM     26  H   LIG d   1       3.829  -1.800  -7.484  0.00  0.00     0.027 H 
ATOM     27  H   LIG d   1       5.255  -4.949 -12.129  0.00  0.00     0.027 H 
ATOM     28  H   LIG d   1       3.501  -5.240 -11.942  0.00  0.00     0.027 H 
ATOM     29  H   LIG d   1       5.804  -6.709 -10.727  0.00  0.00     0.030 H 
ATOM     30  H   LIG d   1       4.107  -7.237 -10.911  0.00  0.00     0.030 H 
ATOM     31  H   LIG d   1       5.452  -1.790 -11.156  0.00  0.00     0.027 H 
ATOM     32  H   LIG d   1       4.698  -2.515 -12.592  0.00  0.00     0.027 H 
ATOM     33  H   LIG d   1       4.551  -0.036 -12.623  0.00  0.00     0.031 H 
ATOM     34  H   LIG d   1       2.939  -0.789 -12.560  0.00  0.00     0.031 H 
ATOM     35  H   LIG d   1       4.570   1.806 -11.418  0.00  0.00     0.065 H 
ATOM     36  H   LIG d   1       1.829   1.782  -8.688  0.00  0.00     0.035 H 
ATOM     37  H   LIG d   1       2.943   2.056  -7.413  0.00  0.00     0.035 H 
ATOM     38  H   LIG d   1       2.256  -0.338  -7.589  0.00  0.00     0.028 H 
ATOM     39  H   LIG d   1       3.991  -0.086  -7.890  0.00  0.00     0.028 H 
ENDROOT
BRANCH  12  40
ATOM     40  O   LIG d   1       3.682  -7.102  -8.488  0.00  0.00    -0.461 OA
BRANCH  40  41
ATOM     41  C   LIG d   1       4.263  -7.828  -7.519  0.00  0.00     0.308 C 
ATOM     42  O   LIG d   1       4.362  -9.026  -7.639  0.00  0.00    -0.251 OA
BRANCH  41  43
ATOM     43  C   LIG d   1       4.792  -7.148  -6.283  0.00  0.00     0.053 C 
ATOM     44  H   LIG d   1       4.294  -7.557  -5.403  0.00  0.00     0.038 H 
ATOM     45  H   LIG d   1       4.598  -6.078  -6.345  0.00  0.00     0.038 H 
BRANCH  43  46
ATOM     46  C   LIG d   1       6.299  -7.389  -6.173  0.00  0.00     0.034 C 
ATOM     47  H   LIG d   1       6.717  -7.527  -7.170  0.00  0.00     0.036 H 
ATOM     48  H   LIG d   1       6.481  -8.282  -5.575  0.00  0.00     0.036 H 
BRANCH  46  49
ATOM     49  C   LIG d   1       6.951  -6.201  -5.515  0.00  0.00     0.214 C 
ATOM     50  O   LIG d   1       7.995  -6.337  -4.912  0.00  0.00    -0.276 OA
ATOM     51  N   LIG d   1       6.373  -4.986  -5.593  0.00  0.00    -0.311 N 
ATOM     52  H   LIG d   1       5.537  -4.877  -6.075  0.00  0.00     0.149 HD
BRANCH  51  53
ATOM     53  C   LIG d   1       7.006  -3.831  -4.953  0.00  0.00     0.037 C 
ATOM     54  H   LIG d   1       7.834  -3.482  -5.570  0.00  0.00     0.051 H 
ATOM     55  H   LIG d   1       7.381  -4.119  -3.971  0.00  0.00     0.051 H 
BRANCH  53  56
ATOM     56  C   LIG d   1       5.994  -2.724  -4.800  0.00  0.00    -0.030 A 
ATOM     57  C   LIG d   1       4.888  -2.908  -3.991  0.00  0.00    -0.057 A 
ATOM     58  C   LIG d   1       3.961  -1.897  -3.843  0.00  0.00    -0.053 A 
ATOM     59  H   LIG d   1       4.752  -3.845  -3.470  0.00  0.00     0.062 H 
ATOM     60  C   LIG d   1       4.137  -0.689  -4.521  0.00  0.00    -0.003 A 
ATOM     61  H   LIG d   1       3.100  -2.041  -3.208  0.00  0.00     0.062 H 
ATOM     62  C   LIG d   1       5.256  -0.509  -5.336  0.00  0.00    -0.053 A 
ATOM     63  C   LIG d   1       6.177  -1.527  -5.471  0.00  0.00    -0.057 A 
ATOM     64  H   LIG d   1       5.400   0.424  -5.861  0.00  0.00     0.062 H 
ATOM     65  H   LIG d   1       7.045  -1.390  -6.101  0.00  0.00     0.062 H 
BRANCH  60  66
ATOM     66  C   LIG d   1       3.146   0.397  -4.372  0.00  0.00     0.072 C 
ATOM     67  O   LIG d   1       3.460   1.436  -3.827  0.00  0.00    -0.545 OA
ATOM     68  O   LIG d   1       1.895   0.236  -4.847  0.00  0.00    -0.545 OA
ENDBRANCH  60  66
ENDBRANCH  53  56
ENDBRANCH  51  53
ENDBRANCH  46  49
ENDBRANCH  43  46
ENDBRANCH  41  43
ENDBRANCH  40  41
ENDBRANCH  12  40
BRANCH   1  69
ATOM     69  C   LIG d   1       2.241  -5.084  -9.491  0.00  0.00    -0.056 C 
ATOM     70  H   LIG d   1       2.198  -5.777 -10.330  0.00  0.00     0.024 H 
ATOM     71  H   LIG d   1       1.776  -5.542  -8.617  0.00  0.00     0.024 H 
ATOM     72  H   LIG d   1       1.708  -4.168  -9.747  0.00  0.00     0.024 H 
ENDBRANCH   1  69
BRANCH  22  73
ATOM     73  C   LIG d   1       1.365  -0.531  -9.994  0.00  0.00    -0.056 C 
ATOM     74  H   LIG d   1       1.243   0.076 -10.890  0.00  0.00     0.024 H 
ATOM     75  H   LIG d   1       0.984  -1.535 -10.180  0.00  0.00     0.024 H 
ATOM     76  H   LIG d   1       0.811  -0.080  -9.171  0.00  0.00     0.024 H 
ENDBRANCH  22  73
TORSDOF 10
ENDMDL
MODEL 3
REMARK VINA RESULT:      -7.0      2.456      6.677
REMARK  10 active torsions:
REMARK  status: ('A' for Active; 'I' for Inactive)
REMARK    1  A    between atoms: C_1  and  C_2 
REMARK    2  A    between atoms: C_13  and  O_15 
REMARK    3  A    between atoms: O_15  and  C_16 
REMARK    4  A    between atoms: C_16  and  C_18 
REMARK    5  A    between atoms: C_18  and  C_19 
REMARK    6  A    between atoms: C_19  and  C_20 
REMARK       I    between atoms: C_20  and  N_22 
REMARK    7  A    between atoms: N_22  and  C_23 
REMARK    8  A    between atoms: C_23  and  C_24 
REMARK    9  A    between atoms: C_27  and  C_30 
REMARK   10  A    between atoms: C_40  and  C_41 
ROOT
ATOM      1  C   LIG d   1       5.993  -4.953  -6.047  0.00  0.00     0.008 C 
ATOM      2  C   LIG d   1       4.537  -4.605  -5.827  0.00  0.00    -0.044 C 
ATOM      3  C   LIG d   1       4.447  -3.405  -4.866  0.00  0.00    -0.049 C 
ATOM      4  C   LIG d   1       5.500  -2.370  -5.249  0.00  0.00    -0.029 C 
ATOM      5  H   LIG d   1       5.453  -2.326  -6.348  0.00  0.00     0.031 H 
ATOM      6  C   LIG d   1       6.894  -2.873  -4.940  0.00  0.00    -0.034 C 
ATOM      7  H   LIG d   1       7.581  -2.551  -5.724  0.00  0.00     0.031 H 
ATOM      8  C   LIG d   1       6.845  -4.397  -4.889  0.00  0.00    -0.029 C 
ATOM      9  H   LIG d   1       6.433  -4.722  -3.923  0.00  0.00     0.031 H 
ATOM     10  C   LIG d   1       8.200  -5.085  -5.123  0.00  0.00    -0.046 C 
ATOM     11  C   LIG d   1       7.809  -6.511  -5.590  0.00  0.00    -0.015 C 
ATOM     12  C   LIG d   1       6.308  -6.459  -5.964  0.00  0.00     0.109 C 
ATOM     13  H   LIG d   1       5.703  -6.927  -5.194  0.00  0.00     0.074 H 
ATOM     14  C   LIG d   1       7.429  -2.388  -3.597  0.00  0.00    -0.046 C 
ATOM     15  C   LIG d   1       7.363  -0.872  -3.488  0.00  0.00    -0.030 C 
ATOM     16  C   LIG d   1       5.920  -0.447  -3.667  0.00  0.00    -0.060 C 
ATOM     17  C   LIG d   1       5.393   0.366  -2.751  0.00  0.00    -0.019 C 
ATOM     18  C   LIG d   1       4.017   0.853  -2.873  0.00  0.00     0.156 C 
ATOM     19  O   LIG d   1       3.475   1.438  -1.954  0.00  0.00    -0.293 OA
ATOM     20  C   LIG d   1       3.290   0.608  -4.178  0.00  0.00     0.011 C 
ATOM     21  C   LIG d   1       3.650  -0.788  -4.681  0.00  0.00    -0.037 C 
ATOM     22  C   LIG d   1       5.153  -0.963  -4.838  0.00  0.00    -0.007 C 
ATOM     23  H   LIG d   1       4.012  -5.458  -5.390  0.00  0.00     0.027 H 
ATOM     24  H   LIG d   1       4.068  -4.346  -6.778  0.00  0.00     0.027 H 
ATOM     25  H   LIG d   1       4.611  -3.740  -3.844  0.00  0.00     0.027 H 
ATOM     26  H   LIG d   1       3.449  -2.974  -4.948  0.00  0.00     0.027 H 
ATOM     27  H   LIG d   1       8.768  -5.133  -4.192  0.00  0.00     0.027 H 
ATOM     28  H   LIG d   1       8.777  -4.568  -5.889  0.00  0.00     0.027 H 
ATOM     29  H   LIG d   1       7.967  -7.225  -4.782  0.00  0.00     0.030 H 
ATOM     30  H   LIG d   1       8.400  -6.794  -6.460  0.00  0.00     0.030 H 
ATOM     31  H   LIG d   1       6.836  -2.832  -2.799  0.00  0.00     0.027 H 
ATOM     32  H   LIG d   1       8.465  -2.710  -3.494  0.00  0.00     0.027 H 
ATOM     33  H   LIG d   1       7.718  -0.558  -2.505  0.00  0.00     0.031 H 
ATOM     34  H   LIG d   1       7.983  -0.418  -4.260  0.00  0.00     0.031 H 
ATOM     35  H   LIG d   1       5.994   0.670  -1.903  0.00  0.00     0.065 H 
ATOM     36  H   LIG d   1       3.562   1.298  -4.847  0.00  0.00     0.035 H 
ATOM     37  H   LIG d   1       2.209   0.663  -4.007  0.00  0.00     0.035 H 
ATOM     38  H   LIG d   1       3.169  -0.959  -5.643  0.00  0.00     0.028 H 
ATOM     39  H   LIG d   1       3.281  -1.519  -3.958  0.00  0.00     0.028 H 
ENDROOT
BRANCH  12  40
ATOM     40  O   LIG d   1       6.085  -7.083  -7.253  0.00  0.00    -0.461 OA
BRANCH  40  41
ATOM     41  C   LIG d   1       5.169  -8.063  -7.305  0.00  0.00     0.308 C 
ATOM     42  O   LIG d   1       5.235  -8.994  -6.539  0.00  0.00    -0.251 OA
BRANCH  41  43
ATOM     43  C   LIG d   1       4.056  -8.001  -8.320  0.00  0.00     0.053 C 
ATOM     44  H   LIG d   1       3.113  -7.800  -7.812  0.00  0.00     0.038 H 
ATOM     45  H   LIG d   1       3.989  -8.954  -8.845  0.00  0.00     0.038 H 
BRANCH  43  46
ATOM     46  C   LIG d   1       4.343  -6.882  -9.325  0.00  0.00     0.034 C 
ATOM     47  H   LIG d   1       4.654  -7.319 -10.274  0.00  0.00     0.036 H 
ATOM     48  H   LIG d   1       5.138  -6.244  -8.940  0.00  0.00     0.036 H 
BRANCH  46  49
ATOM     49  C   LIG d   1       3.096  -6.062  -9.533  0.00  0.00     0.214 C 
ATOM     50  O   LIG d   1       2.005  -6.556  -9.338  0.00  0.00    -0.276 OA
ATOM     51  N   LIG d   1       3.193  -4.780  -9.937  0.00  0.00    -0.311 N 
ATOM     52  H   LIG d   1       4.066  -4.386 -10.093  0.00  0.00     0.149 HD
BRANCH  51  53
ATOM     53  C   LIG d   1       1.981  -3.983 -10.140  0.00  0.00     0.037 C 
ATOM     54  H   LIG d   1       1.176  -4.383  -9.523  0.00  0.00     0.051 H 
ATOM     55  H   LIG d   1       1.690  -4.024 -11.189  0.00  0.00     0.051 H 
BRANCH  53  56
ATOM     56  C   LIG d   1       2.249  -2.552  -9.747  0.00  0.00    -0.030 A 
ATOM     57  C   LIG d   1       3.257  -2.263  -8.845  0.00  0.00    -0.057 A 
ATOM     58  C   LIG d   1       3.511  -0.955  -8.485  0.00  0.00    -0.053 A 
ATOM     59  H   LIG d   1       3.850  -3.062  -8.425  0.00  0.00     0.062 H 
ATOM     60  C   LIG d   1       2.740   0.076  -9.027  0.00  0.00    -0.003 A 
ATOM     61  H   LIG d   1       4.300  -0.730  -7.785  0.00  0.00     0.062 H 
ATOM     62  C   LIG d   1       1.724  -0.223  -9.937  0.00  0.00    -0.053 A 
ATOM     63  C   LIG d   1       1.485  -1.535 -10.291  0.00  0.00    -0.057 A 
ATOM     64  H   LIG d   1       1.126   0.570 -10.361  0.00  0.00     0.062 H 
ATOM     65  H   LIG d   1       0.699  -1.768 -10.996  0.00  0.00     0.062 H 
BRANCH  60  66
ATOM     66  C   LIG d   1       3.001   1.479  -8.642  0.00  0.00     0.072 C 
ATOM     67  O   LIG d   1       2.896   1.820  -7.481  0.00  0.00    -0.545 OA
ATOM     68  O   LIG d   1       3.363   2.377  -9.579  0.00  0.00    -0.545 OA
ENDBRANCH  60  66
ENDBRANCH  53  56
ENDBRANCH  51  53
ENDBRANCH  46  49
ENDBRANCH  43  46
ENDBRANCH  41  43
ENDBRANCH  40  41
ENDBRANCH  12  40
BRANCH   1  69
ATOM     69  C   LIG d   1       6.473  -4.441  -7.404  0.00  0.00    -0.056 C 
ATOM     70  H   LIG d   1       7.296  -3.741  -7.259  0.00  0.00     0.024 H 
ATOM     71  H   LIG d   1       6.814  -5.281  -8.011  0.00  0.00     0.024 H 
ATOM     72  H   LIG d   1       5.652  -3.936  -7.913  0.00  0.00     0.024 H 
ENDBRANCH   1  69
BRANCH  22  73
ATOM     73  C   LIG d   1       5.556  -0.081  -6.028  0.00  0.00    -0.056 C 
ATOM     74  H   LIG d   1       4.794  -0.149  -6.805  0.00  0.00     0.024 H 
ATOM     75  H   LIG d   1       5.648   0.953  -5.699  0.00  0.00     0.024 H 
ATOM     76  H   LIG d   1       6.511  -0.422  -6.426  0.00  0.00     0.024 H 
ENDBRANCH  22  73
TORSDOF 10
ENDMDL
MODEL 4
REMARK VINA RESULT:      -6.9      3.164      6.973
REMARK  10 active torsions:
REMARK  status: ('A' for Active; 'I' for Inactive)
REMARK    1  A    between atoms: C_1  and  C_2 
REMARK    2  A    between atoms: C_13  and  O_15 
REMARK    3  A    between atoms: O_15  and  C_16 
REMARK    4  A    between atoms: C_16  and  C_18 
REMARK    5  A    between atoms: C_18  and  C_19 
REMARK    6  A    between atoms: C_19  and  C_20 
REMARK       I    between atoms: C_20  and  N_22 
REMARK    7  A    between atoms: N_22  and  C_23 
REMARK    8  A    between atoms: C_23  and  C_24 
REMARK    9  A    between atoms: C_27  and  C_30 
REMARK   10  A    between atoms: C_40  and  C_41 
ROOT
ATOM      1  C   LIG d   1       7.296  -0.315  -4.922  0.00  0.00     0.008 C 
ATOM      2  C   LIG d   1       6.974   0.898  -4.076  0.00  0.00    -0.044 C 
ATOM      3  C   LIG d   1       8.226   1.788  -3.978  0.00  0.00    -0.049 C 
ATOM      4  C   LIG d   1       8.888   1.885  -5.349  0.00  0.00    -0.029 C 
ATOM      5  H   LIG d   1       8.048   2.020  -6.049  0.00  0.00     0.031 H 
ATOM      6  C   LIG d   1       9.514   0.564  -5.744  0.00  0.00    -0.034 C 
ATOM      7  H   LIG d   1       9.373   0.397  -6.813  0.00  0.00     0.031 H 
ATOM      8  C   LIG d   1       8.821  -0.541  -4.953  0.00  0.00    -0.029 C 
ATOM      9  H   LIG d   1       9.222  -0.572  -3.930  0.00  0.00     0.031 H 
ATOM     10  C   LIG d   1       8.928  -1.939  -5.586  0.00  0.00    -0.046 C 
ATOM     11  C   LIG d   1       7.733  -2.711  -4.970  0.00  0.00    -0.015 C 
ATOM     12  C   LIG d   1       6.799  -1.651  -4.337  0.00  0.00     0.109 C 
ATOM     13  H   LIG d   1       6.898  -1.648  -3.257  0.00  0.00     0.074 H 
ATOM     14  C   LIG d   1      11.004   0.482  -5.432  0.00  0.00    -0.046 C 
ATOM     15  C   LIG d   1      11.765   1.648  -6.048  0.00  0.00    -0.030 C 
ATOM     16  C   LIG d   1      11.179   2.935  -5.502  0.00  0.00    -0.060 C 
ATOM     17  C   LIG d   1      12.021   3.830  -4.987  0.00  0.00    -0.019 C 
ATOM     18  C   LIG d   1      11.539   5.115  -4.475  0.00  0.00     0.156 C 
ATOM     19  O   LIG d   1      12.270   5.852  -3.839  0.00  0.00    -0.293 OA
ATOM     20  C   LIG d   1      10.103   5.501  -4.761  0.00  0.00     0.011 C 
ATOM     21  C   LIG d   1       9.231   4.255  -4.633  0.00  0.00    -0.037 C 
ATOM     22  C   LIG d   1       9.702   3.136  -5.549  0.00  0.00    -0.007 C 
ATOM     23  H   LIG d   1       6.675   0.583  -3.073  0.00  0.00     0.027 H 
ATOM     24  H   LIG d   1       6.159   1.464  -4.531  0.00  0.00     0.027 H 
ATOM     25  H   LIG d   1       8.924   1.364  -3.259  0.00  0.00     0.027 H 
ATOM     26  H   LIG d   1       7.918   2.778  -3.639  0.00  0.00     0.027 H 
ATOM     27  H   LIG d   1       9.871  -2.413  -5.304  0.00  0.00     0.027 H 
ATOM     28  H   LIG d   1       8.843  -1.888  -6.670  0.00  0.00     0.027 H 
ATOM     29  H   LIG d   1       8.087  -3.400  -4.204  0.00  0.00     0.030 H 
ATOM     30  H   LIG d   1       7.201  -3.258  -5.749  0.00  0.00     0.030 H 
ATOM     31  H   LIG d   1      11.141   0.494  -4.352  0.00  0.00     0.027 H 
ATOM     32  H   LIG d   1      11.397  -0.453  -5.832  0.00  0.00     0.027 H 
ATOM     33  H   LIG d   1      12.820   1.582  -5.778  0.00  0.00     0.031 H 
ATOM     34  H   LIG d   1      11.665   1.624  -7.132  0.00  0.00     0.031 H 
ATOM     35  H   LIG d   1      13.079   3.603  -4.946  0.00  0.00     0.065 H 
ATOM     36  H   LIG d   1      10.036   5.877  -5.685  0.00  0.00     0.035 H 
ATOM     37  H   LIG d   1       9.775   6.249  -4.031  0.00  0.00     0.035 H 
ATOM     38  H   LIG d   1       8.201   4.509  -4.882  0.00  0.00     0.028 H 
ATOM     39  H   LIG d   1       9.276   3.909  -3.599  0.00  0.00     0.028 H 
ENDROOT
BRANCH  12  40
ATOM     40  O   LIG d   1       5.425  -1.884  -4.735  0.00  0.00    -0.461 OA
BRANCH  40  41
ATOM     41  C   LIG d   1       4.654  -2.578  -3.883  0.00  0.00     0.308 C 
ATOM     42  O   LIG d   1       4.329  -3.711  -4.147  0.00  0.00    -0.251 OA
BRANCH  41  43
ATOM     43  C   LIG d   1       4.194  -1.944  -2.595  0.00  0.00     0.053 C 
ATOM     44  H   LIG d   1       4.909  -1.179  -2.292  0.00  0.00     0.038 H 
ATOM     45  H   LIG d   1       4.128  -2.706  -1.818  0.00  0.00     0.038 H 
BRANCH  43  46
ATOM     46  C   LIG d   1       2.819  -1.304  -2.802  0.00  0.00     0.034 C 
ATOM     47  H   LIG d   1       2.382  -1.063  -1.834  0.00  0.00     0.036 H 
ATOM     48  H   LIG d   1       2.171  -2.003  -3.331  0.00  0.00     0.036 H 
BRANCH  46  49
ATOM     49  C   LIG d   1       2.969  -0.044  -3.615  0.00  0.00     0.214 C 
ATOM     50  O   LIG d   1       3.383   0.969  -3.093  0.00  0.00    -0.276 OA
ATOM     51  N   LIG d   1       2.642  -0.043  -4.923  0.00  0.00    -0.311 N 
ATOM     52  H   LIG d   1       2.310  -0.854  -5.340  0.00  0.00     0.149 HD
BRANCH  51  53
ATOM     53  C   LIG d   1       2.787   1.182  -5.713  0.00  0.00     0.037 C 
ATOM     54  H   LIG d   1       3.686   1.712  -5.398  0.00  0.00     0.051 H 
ATOM     55  H   LIG d   1       1.917   1.819  -5.559  0.00  0.00     0.051 H 
BRANCH  53  56
ATOM     56  C   LIG d   1       2.900   0.827  -7.173  0.00  0.00    -0.030 A 
ATOM     57  C   LIG d   1       2.851   1.824  -8.130  0.00  0.00    -0.057 A 
ATOM     58  C   LIG d   1       2.960   1.507  -9.469  0.00  0.00    -0.053 A 
ATOM     59  H   LIG d   1       2.732   2.855  -7.829  0.00  0.00     0.062 H 
ATOM     60  C   LIG d   1       3.109   0.173  -9.856  0.00  0.00    -0.003 A 
ATOM     61  H   LIG d   1       2.925   2.286 -10.214  0.00  0.00     0.062 H 
ATOM     62  C   LIG d   1       3.159  -0.829  -8.885  0.00  0.00    -0.053 A 
ATOM     63  C   LIG d   1       3.054  -0.496  -7.550  0.00  0.00    -0.057 A 
ATOM     64  H   LIG d   1       3.277  -1.862  -9.177  0.00  0.00     0.062 H 
ATOM     65  H   LIG d   1       3.093  -1.270  -6.797  0.00  0.00     0.062 H 
BRANCH  60  66
ATOM     66  C   LIG d   1       3.220  -0.176 -11.288  0.00  0.00     0.072 C 
ATOM     67  O   LIG d   1       2.318  -0.773 -11.839  0.00  0.00    -0.545 OA
ATOM     68  O   LIG d   1       4.319   0.175 -11.983  0.00  0.00    -0.545 OA
ENDBRANCH  60  66
ENDBRANCH  53  56
ENDBRANCH  51  53
ENDBRANCH  46  49
ENDBRANCH  43  46
ENDBRANCH  41  43
ENDBRANCH  40  41
ENDBRANCH  12  40
BRANCH   1  69
ATOM     69  C   LIG d   1       6.714  -0.165  -6.327  0.00  0.00    -0.056 C 
ATOM     70  H   LIG d   1       7.250   0.619  -6.862  0.00  0.00     0.024 H 
ATOM     71  H   LIG d   1       6.817  -1.107  -6.866  0.00  0.00     0.024 H 
ATOM     72  H   LIG d   1       5.659   0.100  -6.257  0.00  0.00     0.024 H 
ENDBRANCH   1  69
BRANCH  22  73
ATOM     73  C   LIG d   1       9.385   3.602  -6.977  0.00  0.00    -0.056 C 
ATOM     74  H   LIG d   1      10.085   4.386  -7.267  0.00  0.00     0.024 H 
ATOM     75  H   LIG d   1       9.478   2.761  -7.663  0.00  0.00     0.024 H 
ATOM     76  H   LIG d   1       8.368   3.991  -7.016  0.00  0.00     0.024 H 
ENDBRANCH  22  73
TORSDOF 10
ENDMDL
MODEL 5
REMARK VINA RESULT:      -6.7      8.405     11.923
REMARK  10 active torsions:
REMARK  status: ('A' for Active; 'I' for Inactive)
REMARK    1  A    between atoms: C_1  and  C_2 
REMARK    2  A    between atoms: C_13  and  O_15 
REMARK    3  A    between atoms: O_15  and  C_16 
REMARK    4  A    between atoms: C_16  and  C_18 
REMARK    5  A    between atoms: C_18  and  C_19 
REMARK    6  A    between atoms: C_19  and  C_20 
REMARK       I    between atoms: C_20  and  N_22 
REMARK    7  A    between atoms: N_22  and  C_23 
REMARK    8  A    between atoms: C_23  and  C_24 
REMARK    9  A    between atoms: C_27  and  C_30 
REMARK   10  A    between atoms: C_40  and  C_41 
ROOT
ATOM      1  C   LIG d   1      10.249   9.060  -4.674  0.00  0.00     0.008 C 
ATOM      2  C   LIG d   1       9.870   7.692  -4.151  0.00  0.00    -0.044 C 
ATOM      3  C   LIG d   1       9.331   6.841  -5.315  0.00  0.00    -0.049 C 
ATOM      4  C   LIG d   1      10.213   7.045  -6.543  0.00  0.00    -0.029 C 
ATOM      5  H   LIG d   1      11.240   7.027  -6.146  0.00  0.00     0.031 H 
ATOM      6  C   LIG d   1      10.040   8.438  -7.110  0.00  0.00    -0.034 C 
ATOM      7  H   LIG d   1      11.003   8.812  -7.461  0.00  0.00     0.031 H 
ATOM      8  C   LIG d   1       9.510   9.338  -5.998  0.00  0.00    -0.029 C 
ATOM      9  H   LIG d   1       8.430   9.174  -5.872  0.00  0.00     0.031 H 
ATOM     10  C   LIG d   1       9.778  10.837  -6.211  0.00  0.00    -0.046 C 
ATOM     11  C   LIG d   1       9.694  11.429  -4.781  0.00  0.00    -0.015 C 
ATOM     12  C   LIG d   1       9.766  10.234  -3.801  0.00  0.00     0.109 C 
ATOM     13  H   LIG d   1       8.786  10.016  -3.388  0.00  0.00     0.074 H 
ATOM     14  C   LIG d   1       9.045   8.503  -8.264  0.00  0.00    -0.046 C 
ATOM     15  C   LIG d   1       9.402   7.510  -9.361  0.00  0.00    -0.030 C 
ATOM     16  C   LIG d   1       9.420   6.122  -8.754  0.00  0.00    -0.060 C 
ATOM     17  C   LIG d   1       8.717   5.168  -9.366  0.00  0.00    -0.019 C 
ATOM     18  C   LIG d   1       8.714   3.792  -8.866  0.00  0.00     0.156 C 
ATOM     19  O   LIG d   1       7.935   2.966  -9.305  0.00  0.00    -0.293 OA
ATOM     20  C   LIG d   1       9.710   3.426  -7.786  0.00  0.00     0.011 C 
ATOM     21  C   LIG d   1       9.815   4.591  -6.807  0.00  0.00    -0.037 C 
ATOM     22  C   LIG d   1      10.199   5.887  -7.505  0.00  0.00    -0.007 C 
ATOM     23  H   LIG d   1       9.096   7.788  -3.384  0.00  0.00     0.027 H 
ATOM     24  H   LIG d   1      10.744   7.204  -3.716  0.00  0.00     0.027 H 
ATOM     25  H   LIG d   1       8.307   7.134  -5.542  0.00  0.00     0.027 H 
ATOM     26  H   LIG d   1       9.346   5.794  -5.010  0.00  0.00     0.027 H 
ATOM     27  H   LIG d   1       9.008  11.274  -6.849  0.00  0.00     0.027 H 
ATOM     28  H   LIG d   1      10.763  11.003  -6.646  0.00  0.00     0.027 H 
ATOM     29  H   LIG d   1       8.751  11.961  -4.652  0.00  0.00     0.030 H 
ATOM     30  H   LIG d   1      10.531  12.105  -4.607  0.00  0.00     0.030 H 
ATOM     31  H   LIG d   1       8.049   8.278  -7.885  0.00  0.00     0.027 H 
ATOM     32  H   LIG d   1       9.051   9.512  -8.677  0.00  0.00     0.027 H 
ATOM     33  H   LIG d   1       8.654   7.555 -10.154  0.00  0.00     0.031 H 
ATOM     34  H   LIG d   1      10.382   7.749  -9.772  0.00  0.00     0.031 H 
ATOM     35  H   LIG d   1       8.139   5.417 -10.247  0.00  0.00     0.065 H 
ATOM     36  H   LIG d   1      10.600   3.242  -8.202  0.00  0.00     0.035 H 
ATOM     37  H   LIG d   1       9.358   2.535  -7.254  0.00  0.00     0.035 H 
ATOM     38  H   LIG d   1      10.564   4.359  -6.050  0.00  0.00     0.028 H 
ATOM     39  H   LIG d   1       8.845   4.723  -6.325  0.00  0.00     0.028 H 
ENDROOT
BRANCH  12  40
ATOM     40  O   LIG d   1      10.729  10.498  -2.750  0.00  0.00    -0.461 OA
BRANCH  40  41
ATOM     41  C   LIG d   1      10.239  10.779  -1.532  0.00  0.00     0.308 C 
ATOM     42  O   LIG d   1       9.983  11.921  -1.232  0.00  0.00    -0.251 OA
BRANCH  41  43
ATOM     43  C   LIG d   1      10.006   9.670  -0.539  0.00  0.00     0.053 C 
ATOM     44  H   LIG d   1       9.890   8.725  -1.070  0.00  0.00     0.038 H 
ATOM     45  H   LIG d   1       9.102   9.877   0.033  0.00  0.00     0.038 H 
BRANCH  43  46
ATOM     46  C   LIG d   1      11.202   9.577   0.412  0.00  0.00     0.034 C 
ATOM     47  H   LIG d   1      10.848   9.355   1.419  0.00  0.00     0.036 H 
ATOM     48  H   LIG d   1      11.737  10.526   0.415  0.00  0.00     0.036 H 
BRANCH  46  49
ATOM     49  C   LIG d   1      12.126   8.480  -0.049  0.00  0.00     0.214 C 
ATOM     50  O   LIG d   1      12.783   7.859   0.760  0.00  0.00    -0.276 OA
ATOM     51  N   LIG d   1      12.224   8.189  -1.361  0.00  0.00    -0.311 N 
ATOM     52  H   LIG d   1      11.699   8.686  -2.009  0.00  0.00     0.149 HD
BRANCH  51  53
ATOM     53  C   LIG d   1      13.123   7.123  -1.810  0.00  0.00     0.037 C 
ATOM     54  H   LIG d   1      13.748   6.800  -0.978  0.00  0.00     0.051 H 
ATOM     55  H   LIG d   1      13.755   7.496  -2.616  0.00  0.00     0.051 H 
BRANCH  53  56
ATOM     56  C   LIG d   1      12.309   5.956  -2.308  0.00  0.00    -0.030 A 
ATOM     57  C   LIG d   1      11.197   5.539  -1.600  0.00  0.00    -0.057 A 
ATOM     58  C   LIG d   1      10.445   4.475  -2.053  0.00  0.00    -0.053 A 
ATOM     59  H   LIG d   1      10.914   6.051  -0.691  0.00  0.00     0.062 H 
ATOM     60  C   LIG d   1      10.816   3.812  -3.225  0.00  0.00    -0.003 A 
ATOM     61  H   LIG d   1       9.575   4.153  -1.501  0.00  0.00     0.062 H 
ATOM     62  C   LIG d   1      11.939   4.238  -3.936  0.00  0.00    -0.053 A 
ATOM     63  C   LIG d   1      12.678   5.307  -3.474  0.00  0.00    -0.057 A 
ATOM     64  H   LIG d   1      12.229   3.732  -4.845  0.00  0.00     0.062 H 
ATOM     65  H   LIG d   1      13.548   5.639  -4.023  0.00  0.00     0.062 H 
BRANCH  60  66
ATOM     66  C   LIG d   1      10.019   2.667  -3.714  0.00  0.00     0.072 C 
ATOM     67  O   LIG d   1       8.878   2.512  -3.327  0.00  0.00    -0.545 OA
ATOM     68  O   LIG d   1      10.556   1.801  -4.595  0.00  0.00    -0.545 OA
ENDBRANCH  60  66
ENDBRANCH  53  56
ENDBRANCH  51  53
ENDBRANCH  46  49
ENDBRANCH  43  46
ENDBRANCH  41  43
ENDBRANCH  40  41
ENDBRANCH  12  40
BRANCH   1  69
ATOM     69  C   LIG d   1      11.765   9.178  -4.833  0.00  0.00    -0.056 C 
ATOM     70  H   LIG d   1      12.249   8.950  -3.884  0.00  0.00     0.024 H 
ATOM     71  H   LIG d   1      12.107   8.474  -5.593  0.00  0.00     0.024 H 
ATOM     72  H   LIG d   1      12.020  10.193  -5.137  0.00  0.00     0.024 H 
ENDBRANCH   1  69
BRANCH  22  73
ATOM     73  C   LIG d   1      11.659   5.708  -7.946  0.00  0.00    -0.056 C 
ATOM     74  H   LIG d   1      11.688   5.183  -8.901  0.00  0.00     0.024 H 
ATOM     75  H   LIG d   1      12.128   6.686  -8.055  0.00  0.00     0.024 H 
ATOM     76  H   LIG d   1      12.197   5.128  -7.197  0.00  0.00     0.024 H 
ENDBRANCH  22  73
TORSDOF 10
ENDMDL
MODEL 6
REMARK VINA RESULT:      -6.6      8.423     11.661
REMARK  10 active torsions:
REMARK  status: ('A' for Active; 'I' for Inactive)
REMARK    1  A    between atoms: C_1  and  C_2 
REMARK    2  A    between atoms: C_13  and  O_15 
REMARK    3  A    between atoms: O_15  and  C_16 
REMARK    4  A    between atoms: C_16  and  C_18 
REMARK    5  A    between atoms: C_18  and  C_19 
REMARK    6  A    between atoms: C_19  and  C_20 
REMARK       I    between atoms: C_20  and  N_22 
REMARK    7  A    between atoms: N_22  and  C_23 
REMARK    8  A    between atoms: C_23  and  C_24 
REMARK    9  A    between atoms: C_27  and  C_30 
REMARK   10  A    between atoms: C_40  and  C_41 
ROOT
ATOM      1  C   LIG d   1      10.515   8.227  -6.129  0.00  0.00     0.008 C 
ATOM      2  C   LIG d   1       9.757   7.861  -4.871  0.00  0.00    -0.044 C 
ATOM      3  C   LIG d   1       9.130   6.466  -5.050  0.00  0.00    -0.049 C 
ATOM      4  C   LIG d   1      10.144   5.536  -5.708  0.00  0.00    -0.029 C 
ATOM      5  H   LIG d   1      11.093   5.760  -5.196  0.00  0.00     0.031 H 
ATOM      6  C   LIG d   1      10.380   5.924  -7.152  0.00  0.00    -0.034 C 
ATOM      7  H   LIG d   1      11.434   5.790  -7.400  0.00  0.00     0.031 H 
ATOM      8  C   LIG d   1       9.994   7.391  -7.315  0.00  0.00    -0.029 C 
ATOM      9  H   LIG d   1       8.901   7.480  -7.392  0.00  0.00     0.031 H 
ATOM     10  C   LIG d   1      10.649   8.091  -8.517  0.00  0.00    -0.046 C 
ATOM     11  C   LIG d   1      10.586   9.595  -8.143  0.00  0.00    -0.015 C 
ATOM     12  C   LIG d   1      10.265   9.661  -6.630  0.00  0.00     0.109 C 
ATOM     13  H   LIG d   1       9.228   9.940  -6.469  0.00  0.00     0.074 H 
ATOM     14  C   LIG d   1       9.543   5.120  -8.141  0.00  0.00    -0.046 C 
ATOM     15  C   LIG d   1       9.737   3.623  -7.943  0.00  0.00    -0.030 C 
ATOM     16  C   LIG d   1       9.350   3.281  -6.519  0.00  0.00    -0.060 C 
ATOM     17  C   LIG d   1       8.489   2.279  -6.334  0.00  0.00    -0.019 C 
ATOM     18  C   LIG d   1       8.094   1.861  -4.986  0.00  0.00     0.156 C 
ATOM     19  O   LIG d   1       7.176   1.080  -4.816  0.00  0.00    -0.293 OA
ATOM     20  C   LIG d   1       8.863   2.427  -3.812  0.00  0.00     0.011 C 
ATOM     21  C   LIG d   1       9.168   3.896  -4.093  0.00  0.00    -0.037 C 
ATOM     22  C   LIG d   1       9.927   4.078  -5.399  0.00  0.00    -0.007 C 
ATOM     23  H   LIG d   1       8.966   8.593  -4.687  0.00  0.00     0.027 H 
ATOM     24  H   LIG d   1      10.437   7.848  -4.017  0.00  0.00     0.027 H 
ATOM     25  H   LIG d   1       8.238   6.541  -5.670  0.00  0.00     0.027 H 
ATOM     26  H   LIG d   1       8.854   6.086  -4.066  0.00  0.00     0.027 H 
ATOM     27  H   LIG d   1      10.075   7.903  -9.427  0.00  0.00     0.027 H 
ATOM     28  H   LIG d   1      11.679   7.765  -8.650  0.00  0.00     0.027 H 
ATOM     29  H   LIG d   1       9.799  10.089  -8.712  0.00  0.00     0.030 H 
ATOM     30  H   LIG d   1      11.546  10.069  -8.341  0.00  0.00     0.030 H 
ATOM     31  H   LIG d   1       8.492   5.368  -7.999  0.00  0.00     0.027 H 
ATOM     32  H   LIG d   1       9.841   5.389  -9.154  0.00  0.00     0.027 H 
ATOM     33  H   LIG d   1       9.101   3.075  -8.638  0.00  0.00     0.031 H 
ATOM     34  H   LIG d   1      10.779   3.358  -8.119  0.00  0.00     0.031 H 
ATOM     35  H   LIG d   1       8.075   1.769  -7.194  0.00  0.00     0.065 H 
ATOM     36  H   LIG d   1       9.713   1.915  -3.691  0.00  0.00     0.035 H 
ATOM     37  H   LIG d   1       8.251   2.351  -2.906  0.00  0.00     0.035 H 
ATOM     38  H   LIG d   1       9.762   4.304  -3.276  0.00  0.00     0.028 H 
ATOM     39  H   LIG d   1       8.222   4.437  -4.156  0.00  0.00     0.028 H 
ENDROOT
BRANCH  12  40
ATOM     40  O   LIG d   1      11.162  10.583  -5.961  0.00  0.00    -0.461 OA
BRANCH  40  41
ATOM     41  C   LIG d   1      10.609  11.659  -5.381  0.00  0.00     0.308 C 
ATOM     42  O   LIG d   1      11.264  12.660  -5.214  0.00  0.00    -0.251 OA
BRANCH  41  43
ATOM     43  C   LIG d   1       9.169  11.620  -4.938  0.00  0.00     0.053 C 
ATOM     44  H   LIG d   1       8.910  10.605  -4.635  0.00  0.00     0.038 H 
ATOM     45  H   LIG d   1       8.526  11.927  -5.763  0.00  0.00     0.038 H 
BRANCH  43  46
ATOM     46  C   LIG d   1       8.972  12.572  -3.755  0.00  0.00     0.034 C 
ATOM     47  H   LIG d   1       7.932  12.897  -3.721  0.00  0.00     0.036 H 
ATOM     48  H   LIG d   1       9.621  13.438  -3.876  0.00  0.00     0.036 H 
BRANCH  46  49
ATOM     49  C   LIG d   1       9.317  11.858  -2.474  0.00  0.00     0.214 C 
ATOM     50  O   LIG d   1      10.186  12.297  -1.750  0.00  0.00    -0.276 OA
ATOM     51  N   LIG d   1       8.662  10.731  -2.133  0.00  0.00    -0.311 N 
ATOM     52  H   LIG d   1       7.968  10.379  -2.713  0.00  0.00     0.149 HD
BRANCH  51  53
ATOM     53  C   LIG d   1       8.998  10.037  -0.888  0.00  0.00     0.037 C 
ATOM     54  H   LIG d   1       8.081   9.751  -0.372  0.00  0.00     0.051 H 
ATOM     55  H   LIG d   1       9.583  10.699  -0.249  0.00  0.00     0.051 H 
BRANCH  53  56
ATOM     56  C   LIG d   1       9.802   8.801  -1.202  0.00  0.00    -0.030 A 
ATOM     57  C   LIG d   1      11.147   8.912  -1.503  0.00  0.00    -0.057 A 
ATOM     58  C   LIG d   1      11.889   7.783  -1.786  0.00  0.00    -0.053 A 
ATOM     59  H   LIG d   1      11.619   9.883  -1.512  0.00  0.00     0.062 H 
ATOM     60  C   LIG d   1      11.276   6.529  -1.779  0.00  0.00    -0.003 A 
ATOM     61  H   LIG d   1      12.940   7.871  -2.017  0.00  0.00     0.062 H 
ATOM     62  C   LIG d   1       9.917   6.424  -1.473  0.00  0.00    -0.053 A 
ATOM     63  C   LIG d   1       9.189   7.560  -1.187  0.00  0.00    -0.057 A 
ATOM     64  H   LIG d   1       9.437   5.456  -1.463  0.00  0.00     0.062 H 
ATOM     65  H   LIG d   1       8.138   7.481  -0.950  0.00  0.00     0.062 H 
BRANCH  60  66
ATOM     66  C   LIG d   1      12.062   5.316  -2.087  0.00  0.00     0.072 C 
ATOM     67  O   LIG d   1      11.660   4.226  -1.735  0.00  0.00    -0.545 OA
ATOM     68  O   LIG d   1      13.222   5.421  -2.764  0.00  0.00    -0.545 OA
ENDBRANCH  60  66
ENDBRANCH  53  56
ENDBRANCH  51  53
ENDBRANCH  46  49
ENDBRANCH  43  46
ENDBRANCH  41  43
ENDBRANCH  40  41
ENDBRANCH  12  40
BRANCH   1  69
ATOM     69  C   LIG d   1      12.019   8.049  -5.925  0.00  0.00    -0.056 C 
ATOM     70  H   LIG d   1      12.553   8.442  -6.790  0.00  0.00     0.024 H 
ATOM     71  H   LIG d   1      12.331   8.588  -5.030  0.00  0.00     0.024 H 
ATOM     72  H   LIG d   1      12.247   6.990  -5.808  0.00  0.00     0.024 H 
ENDBRANCH   1  69
BRANCH  22  73
ATOM     73  C   LIG d   1      11.329   3.503  -5.151  0.00  0.00    -0.056 C 
ATOM     74  H   LIG d   1      11.343   2.448  -5.424  0.00  0.00     0.024 H 
ATOM     75  H   LIG d   1      12.056   4.044  -5.756  0.00  0.00     0.024 H 
ATOM     76  H   LIG d   1      11.584   3.608  -4.097  0.00  0.00     0.024 H 
ENDBRANCH  22  73
TORSDOF 10
ENDMDL
MODEL 7
REMARK VINA RESULT:      -6.5      7.756     11.582
REMARK  10 active torsions:
REMARK  status: ('A' for Active; 'I' for Inactive)
REMARK    1  A    between atoms: C_1  and  C_2 
REMARK    2  A    between atoms: C_13  and  O_15 
REMARK    3  A    between atoms: O_15  and  C_16 
REMARK    4  A    between atoms: C_16  and  C_18 
REMARK    5  A    between atoms: C_18  and  C_19 
REMARK    6  A    between atoms: C_19  and  C_20 
REMARK       I    between atoms: C_20  and  N_22 
REMARK    7  A    between atoms: N_22  and  C_23 
REMARK    8  A    between atoms: C_23  and  C_24 
REMARK    9  A    between atoms: C_27  and  C_30 
REMARK   10  A    between atoms: C_40  and  C_41 
ROOT
ATOM      1  C   LIG d   1      11.003   7.868  -3.149  0.00  0.00     0.008 C 
ATOM      2  C   LIG d   1      10.611   6.440  -3.458  0.00  0.00    -0.044 C 
ATOM      3  C   LIG d   1       9.931   6.393  -4.839  0.00  0.00    -0.049 C 
ATOM      4  C   LIG d   1      10.706   7.271  -5.815  0.00  0.00    -0.029 C 
ATOM      5  H   LIG d   1      11.764   7.047  -5.605  0.00  0.00     0.031 H 
ATOM      6  C   LIG d   1      10.546   8.737  -5.473  0.00  0.00    -0.034 C 
ATOM      7  H   LIG d   1      11.489   9.259  -5.644  0.00  0.00     0.031 H 
ATOM      8  C   LIG d   1      10.160   8.838  -4.001  0.00  0.00    -0.029 C 
ATOM      9  H   LIG d   1       9.090   8.616  -3.882  0.00  0.00     0.031 H 
ATOM     10  C   LIG d   1      10.474  10.196  -3.352  0.00  0.00    -0.046 C 
ATOM     11  C   LIG d   1      10.547   9.870  -1.838  0.00  0.00    -0.015 C 
ATOM     12  C   LIG d   1      10.654   8.330  -1.721  0.00  0.00     0.109 C 
ATOM     13  H   LIG d   1       9.707   7.902  -1.409  0.00  0.00     0.074 H 
ATOM     14  C   LIG d   1       9.454   9.432  -6.280  0.00  0.00    -0.046 C 
ATOM     15  C   LIG d   1       9.665   9.245  -7.775  0.00  0.00    -0.030 C 
ATOM     16  C   LIG d   1       9.676   7.758  -8.068  0.00  0.00    -0.060 C 
ATOM     17  C   LIG d   1       8.878   7.311  -9.038  0.00  0.00    -0.019 C 
ATOM     18  C   LIG d   1       8.859   5.894  -9.409  0.00  0.00     0.156 C 
ATOM     19  O   LIG d   1       8.007   5.453 -10.158  0.00  0.00    -0.293 OA
ATOM     20  C   LIG d   1       9.931   4.994  -8.833  0.00  0.00     0.011 C 
ATOM     21  C   LIG d   1      10.177   5.397  -7.382  0.00  0.00    -0.037 C 
ATOM     22  C   LIG d   1      10.554   6.866  -7.257  0.00  0.00    -0.007 C 
ATOM     23  H   LIG d   1       9.916   6.072  -2.700  0.00  0.00     0.027 H 
ATOM     24  H   LIG d   1      11.498   5.804  -3.467  0.00  0.00     0.027 H 
ATOM     25  H   LIG d   1       8.905   6.748  -4.755  0.00  0.00     0.027 H 
ATOM     26  H   LIG d   1       9.927   5.359  -5.185  0.00  0.00     0.027 H 
ATOM     27  H   LIG d   1       9.669  10.908  -3.548  0.00  0.00     0.027 H 
ATOM     28  H   LIG d   1      11.422  10.594  -3.711  0.00  0.00     0.027 H 
ATOM     29  H   LIG d   1       9.645  10.220  -1.337  0.00  0.00     0.030 H 
ATOM     30  H   LIG d   1      11.426  10.339  -1.397  0.00  0.00     0.030 H 
ATOM     31  H   LIG d   1       8.488   9.017  -5.997  0.00  0.00     0.027 H 
ATOM     32  H   LIG d   1       9.468  10.497  -6.047  0.00  0.00     0.027 H 
ATOM     33  H   LIG d   1       8.851   9.721  -8.323  0.00  0.00     0.031 H 
ATOM     34  H   LIG d   1      10.613   9.689  -8.074  0.00  0.00     0.031 H 
ATOM     35  H   LIG d   1       8.235   8.008  -9.560  0.00  0.00     0.065 H 
ATOM     36  H   LIG d   1      10.771   5.092  -9.367  0.00  0.00     0.035 H 
ATOM     37  H   LIG d   1       9.590   3.953  -8.868  0.00  0.00     0.035 H 
ATOM     38  H   LIG d   1      10.980   4.788  -6.970  0.00  0.00     0.028 H 
ATOM     39  H   LIG d   1       9.261   5.217  -6.816  0.00  0.00     0.028 H 
ENDROOT
BRANCH  12  40
ATOM     40  O   LIG d   1      11.719   7.964  -0.808  0.00  0.00    -0.461 OA
BRANCH  40  41
ATOM     41  C   LIG d   1      11.461   6.976   0.063  0.00  0.00     0.308 C 
ATOM     42  O   LIG d   1      10.615   7.124   0.913  0.00  0.00    -0.251 OA
BRANCH  41  43
ATOM     43  C   LIG d   1      12.226   5.680  -0.020  0.00  0.00     0.053 C 
ATOM     44  H   LIG d   1      11.685   4.979  -0.656  0.00  0.00     0.038 H 
ATOM     45  H   LIG d   1      12.331   5.255   0.979  0.00  0.00     0.038 H 
BRANCH  43  46
ATOM     46  C   LIG d   1      13.612   5.942  -0.612  0.00  0.00     0.034 C 
ATOM     47  H   LIG d   1      14.376   5.643   0.106  0.00  0.00     0.036 H 
ATOM     48  H   LIG d   1      13.717   7.004  -0.834  0.00  0.00     0.036 H 
BRANCH  46  49
ATOM     49  C   LIG d   1      13.775   5.145  -1.881  0.00  0.00     0.214 C 
ATOM     50  O   LIG d   1      14.706   5.372  -2.625  0.00  0.00    -0.276 OA
ATOM     51  N   LIG d   1      12.886   4.181  -2.190  0.00  0.00    -0.311 N 
ATOM     52  H   LIG d   1      12.141   4.001  -1.595  0.00  0.00     0.149 HD
BRANCH  51  53
ATOM     53  C   LIG d   1      13.043   3.407  -3.423  0.00  0.00     0.037 C 
ATOM     54  H   LIG d   1      13.666   2.534  -3.226  0.00  0.00     0.051 H 
ATOM     55  H   LIG d   1      13.517   4.027  -4.183  0.00  0.00     0.051 H 
BRANCH  53  56
ATOM     56  C   LIG d   1      11.690   2.957  -3.911  0.00  0.00    -0.030 A 
ATOM     57  C   LIG d   1      10.639   2.844  -3.019  0.00  0.00    -0.057 A 
ATOM     58  C   LIG d   1       9.396   2.438  -3.461  0.00  0.00    -0.053 A 
ATOM     59  H   LIG d   1      10.790   3.077  -1.975  0.00  0.00     0.062 H 
ATOM     60  C   LIG d   1       9.205   2.132  -4.809  0.00  0.00    -0.003 A 
ATOM     61  H   LIG d   1       8.576   2.353  -2.764  0.00  0.00     0.062 H 
ATOM     62  C   LIG d   1      10.270   2.249  -5.705  0.00  0.00    -0.053 A 
ATOM     63  C   LIG d   1      11.505   2.661  -5.250  0.00  0.00    -0.057 A 
ATOM     64  H   LIG d   1      10.127   2.017  -6.750  0.00  0.00     0.062 H 
ATOM     65  H   LIG d   1      12.331   2.753  -5.941  0.00  0.00     0.062 H 
BRANCH  60  66
ATOM     66  C   LIG d   1       7.878   1.691  -5.289  0.00  0.00     0.072 C 
ATOM     67  O   LIG d   1       7.644   1.655  -6.480  0.00  0.00    -0.545 OA
ATOM     68  O   LIG d   1       6.931   1.322  -4.404  0.00  0.00    -0.545 OA
ENDBRANCH  60  66
ENDBRANCH  53  56
ENDBRANCH  51  53
ENDBRANCH  46  49
ENDBRANCH  43  46
ENDBRANCH  41  43
ENDBRANCH  40  41
ENDBRANCH  12  40
BRANCH   1  69
ATOM     69  C   LIG d   1      12.502   8.077  -3.364  0.00  0.00    -0.056 C 
ATOM     70  H   LIG d   1      12.846   7.439  -4.177  0.00  0.00     0.024 H 
ATOM     71  H   LIG d   1      12.690   9.121  -3.617  0.00  0.00     0.024 H 
ATOM     72  H   LIG d   1      13.038   7.823  -2.450  0.00  0.00     0.024 H 
ENDBRANCH   1  69
BRANCH  22  73
ATOM     73  C   LIG d   1      11.958   6.991  -7.866  0.00  0.00    -0.056 C 
ATOM     74  H   LIG d   1      12.484   6.042  -7.763  0.00  0.00     0.024 H 
ATOM     75  H   LIG d   1      11.876   7.249  -8.921  0.00  0.00     0.024 H 
ATOM     76  H   LIG d   1      12.512   7.772  -7.344  0.00  0.00     0.024 H 
ENDBRANCH  22  73
TORSDOF 10
ENDMDL
MODEL 8
REMARK VINA RESULT:      -6.5      4.010      9.625
REMARK  10 active torsions:
REMARK  status: ('A' for Active; 'I' for Inactive)
REMARK    1  A    between atoms: C_1  and  C_2 
REMARK    2  A    between atoms: C_13  and  O_15 
REMARK    3  A    between atoms: O_15  and  C_16 
REMARK    4  A    between atoms: C_16  and  C_18 
REMARK    5  A    between atoms: C_18  and  C_19 
REMARK    6  A    between atoms: C_19  and  C_20 
REMARK       I    between atoms: C_20  and  N_22 
REMARK    7  A    between atoms: N_22  and  C_23 
REMARK    8  A    between atoms: C_23  and  C_24 
REMARK    9  A    between atoms: C_27  and  C_30 
REMARK   10  A    between atoms: C_40  and  C_41 
ROOT
ATOM      1  C   LIG d   1       5.860  -5.190  -5.718  0.00  0.00     0.008 C 
ATOM      2  C   LIG d   1       4.494  -4.944  -5.114  0.00  0.00    -0.044 C 
ATOM      3  C   LIG d   1       4.536  -3.641  -4.294  0.00  0.00    -0.049 C 
ATOM      4  C   LIG d   1       5.305  -2.577  -5.070  0.00  0.00    -0.029 C 
ATOM      5  H   LIG d   1       4.944  -2.681  -6.106  0.00  0.00     0.031 H 
ATOM      6  C   LIG d   1       6.779  -2.913  -5.138  0.00  0.00    -0.034 C 
ATOM      7  H   LIG d   1       7.173  -2.638  -6.117  0.00  0.00     0.031 H 
ATOM      8  C   LIG d   1       6.931  -4.416  -4.924  0.00  0.00    -0.029 C 
ATOM      9  H   LIG d   1       6.851  -4.648  -3.852  0.00  0.00     0.031 H 
ATOM     10  C   LIG d   1       8.237  -5.009  -5.478  0.00  0.00    -0.046 C 
ATOM     11  C   LIG d   1       7.905  -6.512  -5.665  0.00  0.00    -0.015 C 
ATOM     12  C   LIG d   1       6.365  -6.639  -5.582  0.00  0.00     0.109 C 
ATOM     13  H   LIG d   1       6.064  -7.054  -4.626  0.00  0.00     0.074 H 
ATOM     14  C   LIG d   1       7.610  -2.214  -4.068  0.00  0.00    -0.046 C 
ATOM     15  C   LIG d   1       7.395  -0.707  -4.095  0.00  0.00    -0.030 C 
ATOM     16  C   LIG d   1       5.919  -0.437  -3.882  0.00  0.00    -0.060 C 
ATOM     17  C   LIG d   1       5.580   0.440  -2.937  0.00  0.00    -0.019 C 
ATOM     18  C   LIG d   1       4.177   0.786  -2.695  0.00  0.00     0.156 C 
ATOM     19  O   LIG d   1       3.850   1.437  -1.719  0.00  0.00    -0.293 OA
ATOM     20  C   LIG d   1       3.145   0.311  -3.695  0.00  0.00     0.011 C 
ATOM     21  C   LIG d   1       3.514  -1.101  -4.142  0.00  0.00    -0.037 C 
ATOM     22  C   LIG d   1       4.921  -1.165  -4.717  0.00  0.00    -0.007 C 
ATOM     23  H   LIG d   1       4.221  -5.775  -4.459  0.00  0.00     0.027 H 
ATOM     24  H   LIG d   1       3.748  -4.852  -5.905  0.00  0.00     0.027 H 
ATOM     25  H   LIG d   1       5.022  -3.825  -3.337  0.00  0.00     0.027 H 
ATOM     26  H   LIG d   1       3.511  -3.313  -4.120  0.00  0.00     0.027 H 
ATOM     27  H   LIG d   1       9.047  -4.886  -4.756  0.00  0.00     0.027 H 
ATOM     28  H   LIG d   1       8.507  -4.548  -6.427  0.00  0.00     0.027 H 
ATOM     29  H   LIG d   1       8.370  -7.098  -4.873  0.00  0.00     0.030 H 
ATOM     30  H   LIG d   1       8.256  -6.853  -6.638  0.00  0.00     0.030 H 
ATOM     31  H   LIG d   1       7.325  -2.600  -3.090  0.00  0.00     0.027 H 
ATOM     32  H   LIG d   1       8.664  -2.428  -4.244  0.00  0.00     0.027 H 
ATOM     33  H   LIG d   1       7.973  -0.239  -3.297  0.00  0.00     0.031 H 
ATOM     34  H   LIG d   1       7.712  -0.305  -5.057  0.00  0.00     0.031 H 
ATOM     35  H   LIG d   1       6.354   0.903  -2.338  0.00  0.00     0.065 H 
ATOM     36  H   LIG d   1       3.132   0.930  -4.481  0.00  0.00     0.035 H 
ATOM     37  H   LIG d   1       2.158   0.295  -3.220  0.00  0.00     0.035 H 
ATOM     38  H   LIG d   1       2.805  -1.437  -4.897  0.00  0.00     0.028 H 
ATOM     39  H   LIG d   1       3.456  -1.761  -3.274  0.00  0.00     0.028 H 
ENDROOT
BRANCH  12  40
ATOM     40  O   LIG d   1       5.863  -7.442  -6.680  0.00  0.00    -0.461 OA
BRANCH  40  41
ATOM     41  C   LIG d   1       4.918  -8.350  -6.389  0.00  0.00     0.308 C 
ATOM     42  O   LIG d   1       4.207  -8.784  -7.263  0.00  0.00    -0.251 OA
BRANCH  41  43
ATOM     43  C   LIG d   1       4.745  -8.829  -4.970  0.00  0.00     0.053 C 
ATOM     44  H   LIG d   1       3.902  -8.311  -4.513  0.00  0.00     0.038 H 
ATOM     45  H   LIG d   1       5.652  -8.619  -4.402  0.00  0.00     0.038 H 
BRANCH  43  46
ATOM     46  C   LIG d   1       4.479 -10.337  -4.969  0.00  0.00     0.034 C 
ATOM     47  H   LIG d   1       4.743 -10.752  -5.942  0.00  0.00     0.036 H 
ATOM     48  H   LIG d   1       3.424 -10.518  -4.770  0.00  0.00     0.036 H 
BRANCH  46  49
ATOM     49  C   LIG d   1       5.314 -10.993  -3.900  0.00  0.00     0.214 C 
ATOM     50  O   LIG d   1       5.867 -12.049  -4.124  0.00  0.00    -0.276 OA
ATOM     51  N   LIG d   1       5.445 -10.407  -2.694  0.00  0.00    -0.311 N 
ATOM     52  H   LIG d   1       5.002  -9.563  -2.514  0.00  0.00     0.149 HD
BRANCH  51  53
ATOM     53  C   LIG d   1       6.256 -11.045  -1.654  0.00  0.00     0.037 C 
ATOM     54  H   LIG d   1       6.492 -12.066  -1.953  0.00  0.00     0.051 H 
ATOM     55  H   LIG d   1       5.699 -11.060  -0.717  0.00  0.00     0.051 H 
BRANCH  53  56
ATOM     56  C   LIG d   1       7.535 -10.270  -1.467  0.00  0.00    -0.030 A 
ATOM     57  C   LIG d   1       7.764  -9.128  -2.214  0.00  0.00    -0.057 A 
ATOM     58  C   LIG d   1       8.930  -8.411  -2.044  0.00  0.00    -0.053 A 
ATOM     59  H   LIG d   1       7.026  -8.795  -2.929  0.00  0.00     0.062 H 
ATOM     60  C   LIG d   1       9.885  -8.847  -1.122  0.00  0.00    -0.003 A 
ATOM     61  H   LIG d   1       9.106  -7.518  -2.624  0.00  0.00     0.062 H 
ATOM     62  C   LIG d   1       9.647  -9.999  -0.371  0.00  0.00    -0.053 A 
ATOM     63  C   LIG d   1       8.474 -10.703  -0.548  0.00  0.00    -0.057 A 
ATOM     64  H   LIG d   1      10.380 -10.340   0.346  0.00  0.00     0.062 H 
ATOM     65  H   LIG d   1       8.288 -11.596   0.033  0.00  0.00     0.062 H 
BRANCH  60  66
ATOM     66  C   LIG d   1      11.139  -8.087  -0.938  0.00  0.00     0.072 C 
ATOM     67  O   LIG d   1      11.509  -7.787   0.178  0.00  0.00    -0.545 OA
ATOM     68  O   LIG d   1      11.875  -7.734  -2.010  0.00  0.00    -0.545 OA
ENDBRANCH  60  66
ENDBRANCH  53  56
ENDBRANCH  51  53
ENDBRANCH  46  49
ENDBRANCH  43  46
ENDBRANCH  41  43
ENDBRANCH  40  41
ENDBRANCH  12  40
BRANCH   1  69
ATOM     69  C   LIG d   1       5.871  -4.819  -7.201  0.00  0.00    -0.056 C 
ATOM     70  H   LIG d   1       5.290  -5.548  -7.763  0.00  0.00     0.024 H 
ATOM     71  H   LIG d   1       5.434  -3.828  -7.330  0.00  0.00     0.024 H 
ATOM     72  H   LIG d   1       6.899  -4.812  -7.565  0.00  0.00     0.024 H 
ENDBRANCH   1  69
BRANCH  22  73
ATOM     73  C   LIG d   1       4.862  -0.413  -6.054  0.00  0.00    -0.056 C 
ATOM     74  H   LIG d   1       3.820  -0.239  -6.326  0.00  0.00     0.024 H 
ATOM     75  H   LIG d   1       5.377   0.542  -5.958  0.00  0.00     0.024 H 
ATOM     76  H   LIG d   1       5.344  -1.010  -6.828  0.00  0.00     0.024 H 
ENDBRANCH  22  73
TORSDOF 10
ENDMDL
MODEL 9
REMARK VINA RESULT:      -6.4      9.241     12.491
REMARK  10 active torsions:
REMARK  status: ('A' for Active; 'I' for Inactive)
REMARK    1  A    between atoms: C_1  and  C_2 
REMARK    2  A    between atoms: C_13  and  O_15 
REMARK    3  A    between atoms: O_15  and  C_16 
REMARK    4  A    between atoms: C_16  and  C_18 
REMARK    5  A    between atoms: C_18  and  C_19 
REMARK    6  A    between atoms: C_19  and  C_20 
REMARK       I    between atoms: C_20  and  N_22 
REMARK    7  A    between atoms: N_22  and  C_23 
REMARK    8  A    between atoms: C_23  and  C_24 
REMARK    9  A    between atoms: C_27  and  C_30 
REMARK   10  A    between atoms: C_40  and  C_41 
ROOT
ATOM      1  C   LIG d   1      10.315   5.904  -4.050  0.00  0.00     0.008 C 
ATOM      2  C   LIG d   1      11.361   6.947  -4.379  0.00  0.00    -0.044 C 
ATOM      3  C   LIG d   1      11.623   6.935  -5.896  0.00  0.00    -0.049 C 
ATOM      4  C   LIG d   1      10.296   6.828  -6.639  0.00  0.00    -0.029 C 
ATOM      5  H   LIG d   1       9.626   7.518  -6.101  0.00  0.00     0.031 H 
ATOM      6  C   LIG d   1       9.676   5.459  -6.450  0.00  0.00    -0.034 C 
ATOM      7  H   LIG d   1       8.594   5.557  -6.355  0.00  0.00     0.031 H 
ATOM      8  C   LIG d   1      10.253   4.852  -5.175  0.00  0.00    -0.029 C 
ATOM      9  H   LIG d   1      11.257   4.452  -5.377  0.00  0.00     0.031 H 
ATOM     10  C   LIG d   1       9.383   3.753  -4.544  0.00  0.00    -0.046 C 
ATOM     11  C   LIG d   1       9.844   3.727  -3.064  0.00  0.00    -0.015 C 
ATOM     12  C   LIG d   1      10.650   5.028  -2.828  0.00  0.00     0.109 C 
ATOM     13  H   LIG d   1      11.715   4.820  -2.795  0.00  0.00     0.074 H 
ATOM     14  C   LIG d   1       9.977   4.495  -7.592  0.00  0.00    -0.046 C 
ATOM     15  C   LIG d   1       9.583   5.088  -8.937  0.00  0.00    -0.030 C 
ATOM     16  C   LIG d   1      10.345   6.384  -9.123  0.00  0.00    -0.060 C 
ATOM     17  C   LIG d   1      11.017   6.551 -10.263  0.00  0.00    -0.019 C 
ATOM     18  C   LIG d   1      11.746   7.792 -10.537  0.00  0.00     0.156 C 
ATOM     19  O   LIG d   1      12.507   7.877 -11.483  0.00  0.00    -0.293 OA
ATOM     20  C   LIG d   1      11.524   8.966  -9.608  0.00  0.00     0.011 C 
ATOM     21  C   LIG d   1      11.423   8.443  -8.178  0.00  0.00    -0.037 C 
ATOM     22  C   LIG d   1      10.326   7.399  -8.031  0.00  0.00    -0.007 C 
ATOM     23  H   LIG d   1      12.290   6.722  -3.849  0.00  0.00     0.027 H 
ATOM     24  H   LIG d   1      11.009   7.936  -4.078  0.00  0.00     0.027 H 
ATOM     25  H   LIG d   1      12.260   6.090  -6.152  0.00  0.00     0.027 H 
ATOM     26  H   LIG d   1      12.130   7.862  -6.164  0.00  0.00     0.027 H 
ATOM     27  H   LIG d   1       9.582   2.790  -5.019  0.00  0.00     0.027 H 
ATOM     28  H   LIG d   1       8.325   3.997  -4.619  0.00  0.00     0.027 H 
ATOM     29  H   LIG d   1      10.478   2.859  -2.884  0.00  0.00     0.030 H 
ATOM     30  H   LIG d   1       8.978   3.701  -2.403  0.00  0.00     0.030 H 
ATOM     31  H   LIG d   1      11.044   4.273  -7.595  0.00  0.00     0.027 H 
ATOM     32  H   LIG d   1       9.420   3.572  -7.430  0.00  0.00     0.027 H 
ATOM     33  H   LIG d   1       9.843   4.392  -9.736  0.00  0.00     0.031 H 
ATOM     34  H   LIG d   1       8.511   5.280  -8.958  0.00  0.00     0.031 H 
ATOM     35  H   LIG d   1      11.023   5.756 -10.997  0.00  0.00     0.065 H 
ATOM     36  H   LIG d   1      10.681   9.439  -9.863  0.00  0.00     0.035 H 
ATOM     37  H   LIG d   1      12.374   9.654  -9.683  0.00  0.00     0.035 H 
ATOM     38  H   LIG d   1      11.217   9.273  -7.504  0.00  0.00     0.028 H 
ATOM     39  H   LIG d   1      12.380   7.990  -7.909  0.00  0.00     0.028 H 
ENDROOT
BRANCH  12  40
ATOM     40  O   LIG d   1      10.209   5.684  -1.613  0.00  0.00    -0.461 OA
BRANCH  40  41
ATOM     41  C   LIG d   1      11.141   5.921  -0.676  0.00  0.00     0.308 C 
ATOM     42  O   LIG d   1      12.130   5.230  -0.619  0.00  0.00    -0.251 OA
BRANCH  41  43
ATOM     43  C   LIG d   1      10.954   7.051   0.304  0.00  0.00     0.053 C 
ATOM     44  H   LIG d   1      11.392   6.776   1.263  0.00  0.00     0.038 H 
ATOM     45  H   LIG d   1       9.890   7.248   0.433  0.00  0.00     0.038 H 
BRANCH  43  46
ATOM     46  C   LIG d   1      11.645   8.309  -0.230  0.00  0.00     0.034 C 
ATOM     47  H   LIG d   1      12.190   8.063  -1.142  0.00  0.00     0.036 H 
ATOM     48  H   LIG d   1      12.341   8.686   0.519  0.00  0.00     0.036 H 
BRANCH  46  49
ATOM     49  C   LIG d   1      10.610   9.361  -0.530  0.00  0.00     0.214 C 
ATOM     50  O   LIG d   1      10.130  10.015   0.371  0.00  0.00    -0.276 OA
ATOM     51  N   LIG d   1      10.216   9.575  -1.801  0.00  0.00    -0.311 N 
ATOM     52  H   LIG d   1      10.599   9.051  -2.522  0.00  0.00     0.149 HD
BRANCH  51  53
ATOM     53  C   LIG d   1       9.209  10.598  -2.093  0.00  0.00     0.037 C 
ATOM     54  H   LIG d   1       9.324  11.430  -1.399  0.00  0.00     0.051 H 
ATOM     55  H   LIG d   1       8.213  10.169  -1.985  0.00  0.00     0.051 H 
BRANCH  53  56
ATOM     56  C   LIG d   1       9.392  11.096  -3.505  0.00  0.00    -0.030 A 
ATOM     57  C   LIG d   1       9.406  12.455  -3.760  0.00  0.00    -0.057 A 
ATOM     58  C   LIG d   1       9.579  12.916  -5.048  0.00  0.00    -0.053 A 
ATOM     59  H   LIG d   1       9.286  13.157  -2.948  0.00  0.00     0.062 H 
ATOM     60  C   LIG d   1       9.729  12.007  -6.097  0.00  0.00    -0.003 A 
ATOM     61  H   LIG d   1       9.593  13.977  -5.246  0.00  0.00     0.062 H 
ATOM     62  C   LIG d   1       9.715  10.636  -5.833  0.00  0.00    -0.053 A 
ATOM     63  C   LIG d   1       9.547  10.189  -4.539  0.00  0.00    -0.057 A 
ATOM     64  H   LIG d   1       9.834   9.927  -6.639  0.00  0.00     0.062 H 
ATOM     65  H   LIG d   1       9.536   9.128  -4.332  0.00  0.00     0.062 H 
BRANCH  60  66
ATOM     66  C   LIG d   1       9.909  12.493  -7.481  0.00  0.00     0.072 C 
ATOM     67  O   LIG d   1       9.012  13.096  -8.034  0.00  0.00    -0.545 OA
ATOM     68  O   LIG d   1      11.071  12.273  -8.126  0.00  0.00    -0.545 OA
ENDBRANCH  60  66
ENDBRANCH  53  56
ENDBRANCH  51  53
ENDBRANCH  46  49
ENDBRANCH  43  46
ENDBRANCH  41  43
ENDBRANCH  40  41
ENDBRANCH  12  40
BRANCH   1  69
ATOM     69  C   LIG d   1       8.955   6.559  -3.808  0.00  0.00    -0.056 C 
ATOM     70  H   LIG d   1       9.018   7.222  -2.946  0.00  0.00     0.024 H 
ATOM     71  H   LIG d   1       8.666   7.134  -4.689  0.00  0.00     0.024 H 
ATOM     72  H   LIG d   1       8.209   5.787  -3.618  0.00  0.00     0.024 H 
ENDBRANCH   1  69
BRANCH  22  73
ATOM     73  C   LIG d   1       9.001   8.160  -8.187  0.00  0.00    -0.056 C 
ATOM     74  H   LIG d   1       9.109   8.923  -8.958  0.00  0.00     0.024 H 
ATOM     75  H   LIG d   1       8.213   7.464  -8.473  0.00  0.00     0.024 H 
ATOM     76  H   LIG d   1       8.741   8.635  -7.241  0.00  0.00     0.024 H 
ENDBRANCH  22  73
TORSDOF 10
ENDMDL
