MODEL 1
REMARK VINA RESULT:      -4.7      0.000      0.000
REMARK  0 active torsions:
REMARK  status: ('A' for Active; 'I' for Inactive)
ROOT
ATOM      1  C   LIG d   1       4.175  -1.538  -2.201  0.00  0.00    -0.046 A 
ATOM      2  C   LIG d   1       4.131  -2.695  -2.950  0.00  0.00    -0.039 A 
ATOM      3  C   LIG d   1       4.357  -2.650  -4.325  0.00  0.00     0.038 A 
ATOM      4  C   LIG d   1       4.629  -1.415  -4.933  0.00  0.00     0.041 A 
ATOM      5  C   LIG d   1       4.669  -0.249  -4.159  0.00  0.00    -0.035 A 
ATOM      6  C   LIG d   1       4.444  -0.318  -2.802  0.00  0.00     0.019 A 
ATOM      7 BR   LIG d   1       4.501   1.257  -1.755  0.00  0.00    -0.050 Br
ATOM      8  C   LIG d   1       4.829  -1.630  -6.374  0.00  0.00     0.182 A 
ATOM      9  O   LIG d   1       5.083  -0.792  -7.213  0.00  0.00    -0.290 OA
ATOM     10  C   LIG d   1       4.653  -3.117  -6.586  0.00  0.00     0.072 A 
ATOM     11  N   LIG d   1       4.361  -3.674  -5.261  0.00  0.00    -0.336 N 
ATOM     12  H   LIG d   1       3.994  -1.583  -1.137  0.00  0.00     0.063 H 
ATOM     13  H   LIG d   1       3.921  -3.639  -2.470  0.00  0.00     0.064 H 
ATOM     14  H   LIG d   1       4.879   0.703  -4.625  0.00  0.00     0.064 H 
ATOM     15  H   LIG d   1       3.820  -3.305  -7.265  0.00  0.00     0.054 H 
ATOM     16  H   LIG d   1       5.569  -3.552  -6.984  0.00  0.00     0.054 H 
ATOM     17  H   LIG d   1       4.199  -4.610  -5.070  0.00  0.00     0.146 HD
ENDROOT
TORSDOF 0
ENDMDL
MODEL 2
REMARK VINA RESULT:      -4.7      3.096      3.889
REMARK  0 active torsions:
REMARK  status: ('A' for Active; 'I' for Inactive)
ROOT
ATOM      1  C   LIG d   1       6.036  -3.416  -4.640  0.00  0.00    -0.046 A 
ATOM      2  C   LIG d   1       4.700  -3.093  -4.527  0.00  0.00    -0.039 A 
ATOM      3  C   LIG d   1       4.309  -1.962  -3.812  0.00  0.00     0.038 A 
ATOM      4  C   LIG d   1       5.291  -1.159  -3.213  0.00  0.00     0.041 A 
ATOM      5  C   LIG d   1       6.644  -1.500  -3.336  0.00  0.00    -0.035 A 
ATOM      6  C   LIG d   1       7.007  -2.622  -4.048  0.00  0.00     0.019 A 
ATOM      7 BR   LIG d   1       8.834  -3.081  -4.217  0.00  0.00    -0.050 Br
ATOM      8  C   LIG d   1       4.633  -0.038  -2.525  0.00  0.00     0.182 A 
ATOM      9  O   LIG d   1       5.165   0.855  -1.901  0.00  0.00    -0.290 OA
ATOM     10  C   LIG d   1       3.152  -0.235  -2.764  0.00  0.00     0.072 A 
ATOM     11  N   LIG d   1       3.041  -1.454  -3.571  0.00  0.00    -0.336 N 
ATOM     12  H   LIG d   1       6.328  -4.296  -5.192  0.00  0.00     0.063 H 
ATOM     13  H   LIG d   1       3.955  -3.720  -4.993  0.00  0.00     0.064 H 
ATOM     14  H   LIG d   1       7.402  -0.882  -2.876  0.00  0.00     0.064 H 
ATOM     15  H   LIG d   1       2.632  -0.364  -1.815  0.00  0.00     0.054 H 
ATOM     16  H   LIG d   1       2.741   0.615  -3.307  0.00  0.00     0.054 H 
ATOM     17  H   LIG d   1       2.211  -1.843  -3.888  0.00  0.00     0.146 HD
ENDROOT
TORSDOF 0
ENDMDL
MODEL 3
REMARK VINA RESULT:      -4.6      2.601      3.120
REMARK  0 active torsions:
REMARK  status: ('A' for Active; 'I' for Inactive)
ROOT
ATOM      1  C   LIG d   1       2.609  -0.138  -3.910  0.00  0.00    -0.046 A 
ATOM      2  C   LIG d   1       2.354   0.600  -5.046  0.00  0.00    -0.039 A 
ATOM      3  C   LIG d   1       3.116   0.404  -6.198  0.00  0.00     0.038 A 
ATOM      4  C   LIG d   1       4.142  -0.553  -6.183  0.00  0.00     0.041 A 
ATOM      5  C   LIG d   1       4.390  -1.294  -5.021  0.00  0.00    -0.035 A 
ATOM      6  C   LIG d   1       3.624  -1.084  -3.896  0.00  0.00     0.019 A 
ATOM      7 BR   LIG d   1       3.957  -2.087  -2.327  0.00  0.00    -0.050 Br
ATOM      8  C   LIG d   1       4.791  -0.571  -7.502  0.00  0.00     0.182 A 
ATOM      9  O   LIG d   1       5.716  -1.272  -7.856  0.00  0.00    -0.290 OA
ATOM     10  C   LIG d   1       4.060   0.468  -8.324  0.00  0.00     0.072 A 
ATOM     11  N   LIG d   1       3.036   1.025  -7.435  0.00  0.00    -0.336 N 
ATOM     12  H   LIG d   1       2.016   0.024  -3.022  0.00  0.00     0.063 H 
ATOM     13  H   LIG d   1       1.561   1.332  -5.044  0.00  0.00     0.064 H 
ATOM     14  H   LIG d   1       5.180  -2.031  -5.008  0.00  0.00     0.064 H 
ATOM     15  H   LIG d   1       4.750   1.250  -8.641  0.00  0.00     0.054 H 
ATOM     16  H   LIG d   1       3.594   0.002  -9.192  0.00  0.00     0.054 H 
ATOM     17  H   LIG d   1       2.401   1.717  -7.676  0.00  0.00     0.146 HD
ENDROOT
TORSDOF 0
ENDMDL
MODEL 4
REMARK VINA RESULT:      -4.5      2.992      3.764
REMARK  0 active torsions:
REMARK  status: ('A' for Active; 'I' for Inactive)
ROOT
ATOM      1  C   LIG d   1       7.554  -0.481  -4.208  0.00  0.00    -0.046 A 
ATOM      2  C   LIG d   1       6.564  -1.436  -4.117  0.00  0.00    -0.039 A 
ATOM      3  C   LIG d   1       5.330  -1.116  -3.553  0.00  0.00     0.038 A 
ATOM      4  C   LIG d   1       5.111   0.188  -3.083  0.00  0.00     0.041 A 
ATOM      5  C   LIG d   1       6.127   1.147  -3.182  0.00  0.00    -0.035 A 
ATOM      6  C   LIG d   1       7.338   0.808  -3.743  0.00  0.00     0.019 A 
ATOM      7 BR   LIG d   1       8.709   2.103  -3.880  0.00  0.00    -0.050 Br
ATOM      8  C   LIG d   1       3.747   0.273  -2.540  0.00  0.00     0.182 A 
ATOM      9  O   LIG d   1       3.211   1.244  -2.049  0.00  0.00    -0.290 OA
ATOM     10  C   LIG d   1       3.154  -1.107  -2.725  0.00  0.00     0.072 A 
ATOM     11  N   LIG d   1       4.206  -1.906  -3.361  0.00  0.00    -0.336 N 
ATOM     12  H   LIG d   1       8.508  -0.740  -4.643  0.00  0.00     0.063 H 
ATOM     13  H   LIG d   1       6.746  -2.435  -4.482  0.00  0.00     0.064 H 
ATOM     14  H   LIG d   1       5.960   2.151  -2.820  0.00  0.00     0.064 H 
ATOM     15  H   LIG d   1       2.888  -1.535  -1.759  0.00  0.00     0.054 H 
ATOM     16  H   LIG d   1       2.277  -1.057  -3.370  0.00  0.00     0.054 H 
ATOM     17  H   LIG d   1       4.127  -2.840  -3.610  0.00  0.00     0.146 HD
ENDROOT
TORSDOF 0
ENDMDL
MODEL 5
REMARK VINA RESULT:      -4.4      2.588      2.976
REMARK  0 active torsions:
REMARK  status: ('A' for Active; 'I' for Inactive)
ROOT
ATOM      1  C   LIG d   1       6.591  -1.907  -3.391  0.00  0.00    -0.046 A 
ATOM      2  C   LIG d   1       7.266  -2.764  -4.234  0.00  0.00    -0.039 A 
ATOM      3  C   LIG d   1       6.568  -3.726  -4.964  0.00  0.00     0.038 A 
ATOM      4  C   LIG d   1       5.174  -3.807  -4.828  0.00  0.00     0.041 A 
ATOM      5  C   LIG d   1       4.502  -2.929  -3.967  0.00  0.00    -0.035 A 
ATOM      6  C   LIG d   1       5.213  -1.987  -3.257  0.00  0.00     0.019 A 
ATOM      7 BR   LIG d   1       4.307  -0.801  -2.096  0.00  0.00    -0.050 Br
ATOM      8  C   LIG d   1       4.676  -4.888  -5.692  0.00  0.00     0.182 A 
ATOM      9  O   LIG d   1       3.525  -5.245  -5.832  0.00  0.00    -0.290 OA
ATOM     10  C   LIG d   1       5.903  -5.458  -6.368  0.00  0.00     0.072 A 
ATOM     11  N   LIG d   1       7.034  -4.678  -5.858  0.00  0.00    -0.336 N 
ATOM     12  H   LIG d   1       7.141  -1.169  -2.827  0.00  0.00     0.063 H 
ATOM     13  H   LIG d   1       8.338  -2.691  -4.329  0.00  0.00     0.064 H 
ATOM     14  H   LIG d   1       3.429  -2.991  -3.862  0.00  0.00     0.064 H 
ATOM     15  H   LIG d   1       6.022  -6.510  -6.107  0.00  0.00     0.054 H 
ATOM     16  H   LIG d   1       5.824  -5.345  -7.450  0.00  0.00     0.054 H 
ATOM     17  H   LIG d   1       7.962  -4.807  -6.108  0.00  0.00     0.146 HD
ENDROOT
TORSDOF 0
ENDMDL
MODEL 6
REMARK VINA RESULT:      -4.4      3.384      4.339
REMARK  0 active torsions:
REMARK  status: ('A' for Active; 'I' for Inactive)
ROOT
ATOM      1  C   LIG d   1       7.243  -1.606  -4.007  0.00  0.00    -0.046 A 
ATOM      2  C   LIG d   1       6.993  -0.399  -3.391  0.00  0.00    -0.039 A 
ATOM      3  C   LIG d   1       5.688  -0.038  -3.057  0.00  0.00     0.038 A 
ATOM      4  C   LIG d   1       4.638  -0.919  -3.356  0.00  0.00     0.041 A 
ATOM      5  C   LIG d   1       4.908  -2.142  -3.983  0.00  0.00    -0.035 A 
ATOM      6  C   LIG d   1       6.205  -2.477  -4.303  0.00  0.00     0.019 A 
ATOM      7 BR   LIG d   1       6.570  -4.129  -5.148  0.00  0.00    -0.050 Br
ATOM      8  C   LIG d   1       3.373  -0.317  -2.909  0.00  0.00     0.182 A 
ATOM      9  O   LIG d   1       2.260  -0.791  -3.002  0.00  0.00    -0.290 OA
ATOM     10  C   LIG d   1       3.754   1.018  -2.307  0.00  0.00     0.072 A 
ATOM     11  N   LIG d   1       5.211   1.110  -2.441  0.00  0.00    -0.336 N 
ATOM     12  H   LIG d   1       8.256  -1.875  -4.266  0.00  0.00     0.063 H 
ATOM     13  H   LIG d   1       7.810   0.269  -3.166  0.00  0.00     0.064 H 
ATOM     14  H   LIG d   1       4.100  -2.821  -4.214  0.00  0.00     0.064 H 
ATOM     15  H   LIG d   1       3.273   1.828  -2.855  0.00  0.00     0.054 H 
ATOM     16  H   LIG d   1       3.469   1.053  -1.256  0.00  0.00     0.054 H 
ATOM     17  H   LIG d   1       5.755   1.856  -2.145  0.00  0.00     0.146 HD
ENDROOT
TORSDOF 0
ENDMDL
MODEL 7
REMARK VINA RESULT:      -4.4      3.219      4.249
REMARK  0 active torsions:
REMARK  status: ('A' for Active; 'I' for Inactive)
ROOT
ATOM      1  C   LIG d   1       2.747   0.311  -6.224  0.00  0.00    -0.046 A 
ATOM      2  C   LIG d   1       2.484   0.574  -4.896  0.00  0.00    -0.039 A 
ATOM      3  C   LIG d   1       3.326   0.077  -3.901  0.00  0.00     0.038 A 
ATOM      4  C   LIG d   1       4.441  -0.689  -4.270  0.00  0.00     0.041 A 
ATOM      5  C   LIG d   1       4.696  -0.948  -5.624  0.00  0.00    -0.035 A 
ATOM      6  C   LIG d   1       3.850  -0.447  -6.588  0.00  0.00     0.019 A 
ATOM      7 BR   LIG d   1       4.194  -0.794  -8.416  0.00  0.00    -0.050 Br
ATOM      8  C   LIG d   1       5.164  -1.091  -3.055  0.00  0.00     0.182 A 
ATOM      9  O   LIG d   1       6.174  -1.759  -2.987  0.00  0.00    -0.290 OA
ATOM     10  C   LIG d   1       4.380  -0.494  -1.906  0.00  0.00     0.072 A 
ATOM     11  N   LIG d   1       3.255   0.215  -2.523  0.00  0.00    -0.336 N 
ATOM     12  H   LIG d   1       2.087   0.697  -6.986  0.00  0.00     0.063 H 
ATOM     13  H   LIG d   1       1.623   1.165  -4.626  0.00  0.00     0.064 H 
ATOM     14  H   LIG d   1       5.554  -1.539  -5.909  0.00  0.00     0.064 H 
ATOM     15  H   LIG d   1       4.014  -1.283  -1.250  0.00  0.00     0.054 H 
ATOM     16  H   LIG d   1       5.004   0.204  -1.347  0.00  0.00     0.054 H 
ATOM     17  H   LIG d   1       2.569   0.704  -2.042  0.00  0.00     0.146 HD
ENDROOT
TORSDOF 0
ENDMDL
MODEL 8
REMARK VINA RESULT:      -4.3      9.120     10.031
REMARK  0 active torsions:
REMARK  status: ('A' for Active; 'I' for Inactive)
ROOT
ATOM      1  C   LIG d   1      10.596   7.453   0.104  0.00  0.00    -0.046 A 
ATOM      2  C   LIG d   1      11.138   6.186   0.048  0.00  0.00    -0.039 A 
ATOM      3  C   LIG d   1      10.881   5.359  -1.045  0.00  0.00     0.038 A 
ATOM      4  C   LIG d   1      10.066   5.835  -2.084  0.00  0.00     0.041 A 
ATOM      5  C   LIG d   1       9.522   7.124  -2.013  0.00  0.00    -0.035 A 
ATOM      6  C   LIG d   1       9.791   7.922  -0.923  0.00  0.00     0.019 A 
ATOM      7 BR   LIG d   1       9.059   9.664  -0.827  0.00  0.00    -0.050 Br
ATOM      8  C   LIG d   1       9.948   4.788  -3.110  0.00  0.00     0.182 A 
ATOM      9  O   LIG d   1       9.324   4.845  -4.148  0.00  0.00    -0.290 OA
ATOM     10  C   LIG d   1      10.771   3.627  -2.596  0.00  0.00     0.072 A 
ATOM     11  N   LIG d   1      11.314   4.068  -1.308  0.00  0.00    -0.336 N 
ATOM     12  H   LIG d   1      10.798   8.084   0.957  0.00  0.00     0.063 H 
ATOM     13  H   LIG d   1      11.763   5.833   0.854  0.00  0.00     0.064 H 
ATOM     14  H   LIG d   1       8.895   7.491  -2.812  0.00  0.00     0.064 H 
ATOM     15  H   LIG d   1      10.139   2.750  -2.458  0.00  0.00     0.054 H 
ATOM     16  H   LIG d   1      11.581   3.403  -3.290  0.00  0.00     0.054 H 
ATOM     17  H   LIG d   1      11.887   3.540  -0.731  0.00  0.00     0.146 HD
ENDROOT
TORSDOF 0
ENDMDL
MODEL 9
REMARK VINA RESULT:      -4.1      8.304      8.776
REMARK  0 active torsions:
REMARK  status: ('A' for Active; 'I' for Inactive)
ROOT
ATOM      1  C   LIG d   1       7.509  -9.552  -1.903  0.00  0.00    -0.046 A 
ATOM      2  C   LIG d   1       6.377 -10.288  -1.626  0.00  0.00    -0.039 A 
ATOM      3  C   LIG d   1       5.381 -10.436  -2.589  0.00  0.00     0.038 A 
ATOM      4  C   LIG d   1       5.547  -9.827  -3.842  0.00  0.00     0.041 A 
ATOM      5  C   LIG d   1       6.702  -9.081  -4.110  0.00  0.00    -0.035 A 
ATOM      6  C   LIG d   1       7.673  -8.950  -3.142  0.00  0.00     0.019 A 
ATOM      7 BR   LIG d   1       9.234  -7.944  -3.504  0.00  0.00    -0.050 Br
ATOM      8  C   LIG d   1       4.372 -10.127  -4.675  0.00  0.00     0.182 A 
ATOM      9  O   LIG d   1       4.169  -9.768  -5.815  0.00  0.00    -0.290 OA
ATOM     10  C   LIG d   1       3.473 -10.980  -3.807  0.00  0.00     0.072 A 
ATOM     11  N   LIG d   1       4.177 -11.122  -2.529  0.00  0.00    -0.336 N 
ATOM     12  H   LIG d   1       8.273  -9.440  -1.149  0.00  0.00     0.063 H 
ATOM     13  H   LIG d   1       6.262 -10.752  -0.658  0.00  0.00     0.064 H 
ATOM     14  H   LIG d   1       6.831  -8.611  -5.074  0.00  0.00     0.064 H 
ATOM     15  H   LIG d   1       2.514 -10.484  -3.656  0.00  0.00     0.054 H 
ATOM     16  H   LIG d   1       3.324 -11.958  -4.266  0.00  0.00     0.054 H 
ATOM     17  H   LIG d   1       3.851 -11.619  -1.762  0.00  0.00     0.146 HD
ENDROOT
TORSDOF 0
ENDMDL
