MODEL 1
REMARK VINA RESULT:      -6.7      0.000      0.000
REMARK  11 active torsions:
REMARK  status: ('A' for Active; 'I' for Inactive)
REMARK    1  A    between atoms: C_3  and  O_33 
REMARK    2  A    between atoms: C_6  and  C_7 
REMARK    3  A    between atoms: C_7  and  O_9 
REMARK    4  A    between atoms: O_9  and  C_10 
REMARK    5  A    between atoms: C_10  and  C_11 
REMARK    6  A    between atoms: C_13  and  O_32 
REMARK    7  A    between atoms: C_15  and  O_31 
REMARK    8  A    between atoms: C_17  and  O_30 
REMARK    9  A    between atoms: C_19  and  O_22 
REMARK   10  A    between atoms: O_22  and  C_23 
REMARK   11  A    between atoms: C_26  and  O_29 
ROOT
ATOM      1  C   LIG d   1      10.311   4.135  -3.793  0.00  0.00     0.125 C 
ATOM      2  H   LIG d   1      11.347   4.338  -4.068  0.00  0.00     0.066 H 
ATOM      3  C   LIG d   1      10.113   4.418  -2.302  0.00  0.00     0.113 C 
ATOM      4  H   LIG d   1       9.089   4.176  -2.018  0.00  0.00     0.065 H 
ATOM      5  C   LIG d   1      10.382   5.901  -2.032  0.00  0.00     0.115 C 
ATOM      6  H   LIG d   1      11.421   6.133  -2.269  0.00  0.00     0.065 H 
ATOM      7  C   LIG d   1       9.456   6.746  -2.912  0.00  0.00     0.145 C 
ATOM      8  H   LIG d   1       8.418   6.551  -2.640  0.00  0.00     0.068 H 
ATOM      9  C   LIG d   1       9.679   6.372  -4.380  0.00  0.00     0.231 C 
ATOM     10  H   LIG d   1      10.706   6.605  -4.661  0.00  0.00     0.108 H 
ATOM     11  O   LIG d   1       9.442   4.974  -4.556  0.00  0.00    -0.330 OA
ENDROOT
BRANCH   1  12
ATOM     12  C   LIG d   1       9.986   2.668  -4.082  0.00  0.00     0.121 C 
ATOM     13  H   LIG d   1      10.808   2.040  -3.739  0.00  0.00     0.072 H 
ATOM     14  H   LIG d   1       9.848   2.530  -5.155  0.00  0.00     0.072 H 
BRANCH  12  15
ATOM     15  O   LIG d   1       8.787   2.301  -3.397  0.00  0.00    -0.459 OA
BRANCH  15  16
ATOM     16  C   LIG d   1       7.786   1.797  -4.144  0.00  0.00     0.339 C 
ATOM     17  O   LIG d   1       7.676   2.117  -5.311  0.00  0.00    -0.245 OA
BRANCH  16  18
ATOM     18  C   LIG d   1       6.820   0.856  -3.544  0.00  0.00     0.059 A 
ATOM     19  C   LIG d   1       7.014  -0.523  -3.671  0.00  0.00    -0.044 A 
ATOM     20  C   LIG d   1       6.110  -1.396  -3.109  0.00  0.00    -0.019 A 
ATOM     21  H   LIG d   1       7.872  -0.902  -4.206  0.00  0.00     0.063 H 
ATOM     22  C   LIG d   1       5.008  -0.910  -2.416  0.00  0.00     0.117 A 
ATOM     23  H   LIG d   1       6.259  -2.462  -3.207  0.00  0.00     0.065 H 
ATOM     24  C   LIG d   1       4.812   0.460  -2.288  0.00  0.00    -0.019 A 
ATOM     25  C   LIG d   1       5.710   1.341  -2.847  0.00  0.00    -0.044 A 
ATOM     26  H   LIG d   1       3.954   0.835  -1.749  0.00  0.00     0.065 H 
ATOM     27  H   LIG d   1       5.557   2.405  -2.748  0.00  0.00     0.063 H 
BRANCH  22  28
ATOM     28  O   LIG d   1       4.120  -1.775  -1.864  0.00  0.00    -0.507 OA
ATOM     29  H   LIG d   1       3.690  -1.440  -1.065  0.00  0.00     0.292 HD
ENDBRANCH  22  28
ENDBRANCH  16  18
ENDBRANCH  15  16
ENDBRANCH  12  15
ENDBRANCH   1  12
BRANCH   3  30
ATOM     30  O   LIG d   1      11.022   3.619  -1.540  0.00  0.00    -0.386 OA
ATOM     31  H   LIG d   1      11.248   2.776  -1.956  0.00  0.00     0.210 HD
ENDBRANCH   3  30
BRANCH   9  32
ATOM     32  O   LIG d   1       8.778   7.116  -5.203  0.00  0.00    -0.461 OA
BRANCH  32  33
ATOM     33  C   LIG d   1       9.322   7.825  -6.228  0.00  0.00     0.124 A 
ATOM     34  C   LIG d   1       9.756   7.170  -7.371  0.00  0.00    -0.016 A 
ATOM     35  C   LIG d   1      10.304   7.892  -8.414  0.00  0.00    -0.017 A 
ATOM     36  H   LIG d   1       9.663   6.097  -7.447  0.00  0.00     0.066 H 
ATOM     37  C   LIG d   1      10.428   9.270  -8.315  0.00  0.00     0.117 A 
ATOM     38  H   LIG d   1      10.637   7.383  -9.306  0.00  0.00     0.066 H 
ATOM     39  C   LIG d   1       9.998   9.924  -7.170  0.00  0.00    -0.017 A 
ATOM     40  C   LIG d   1       9.446   9.203  -6.128  0.00  0.00    -0.016 A 
ATOM     41  H   LIG d   1      10.094  10.997  -7.092  0.00  0.00     0.066 H 
ATOM     42  H   LIG d   1       9.111   9.712  -5.236  0.00  0.00     0.066 H 
BRANCH  37  43
ATOM     43  O   LIG d   1      10.970   9.979  -9.340  0.00  0.00    -0.507 OA
ATOM     44  H   LIG d   1      10.379  10.094 -10.096  0.00  0.00     0.292 HD
ENDBRANCH  37  43
ENDBRANCH  32  33
ENDBRANCH   9  32
BRANCH   5  45
ATOM     45  O   LIG d   1      10.131   6.190  -0.655  0.00  0.00    -0.386 OA
ATOM     46  H   LIG d   1       9.621   5.508  -0.197  0.00  0.00     0.210 HD
ENDBRANCH   5  45
BRANCH   7  47
ATOM     47  O   LIG d   1       9.747   8.132  -2.721  0.00  0.00    -0.383 OA
ATOM     48  H   LIG d   1      10.028   8.590  -3.525  0.00  0.00     0.210 HD
ENDBRANCH   7  47
TORSDOF 11
ENDMDL
MODEL 2
REMARK VINA RESULT:      -6.5      6.638      9.596
REMARK  11 active torsions:
REMARK  status: ('A' for Active; 'I' for Inactive)
REMARK    1  A    between atoms: C_3  and  O_33 
REMARK    2  A    between atoms: C_6  and  C_7 
REMARK    3  A    between atoms: C_7  and  O_9 
REMARK    4  A    between atoms: O_9  and  C_10 
REMARK    5  A    between atoms: C_10  and  C_11 
REMARK    6  A    between atoms: C_13  and  O_32 
REMARK    7  A    between atoms: C_15  and  O_31 
REMARK    8  A    between atoms: C_17  and  O_30 
REMARK    9  A    between atoms: C_19  and  O_22 
REMARK   10  A    between atoms: O_22  and  C_23 
REMARK   11  A    between atoms: C_26  and  O_29 
ROOT
ATOM      1  C   LIG d   1       5.025  -3.401  -6.614  0.00  0.00     0.125 C 
ATOM      2  H   LIG d   1       4.232  -3.137  -5.914  0.00  0.00     0.066 H 
ATOM      3  C   LIG d   1       4.987  -4.907  -6.885  0.00  0.00     0.113 C 
ATOM      4  H   LIG d   1       5.805  -5.178  -7.552  0.00  0.00     0.065 H 
ATOM      5  C   LIG d   1       3.650  -5.265  -7.542  0.00  0.00     0.115 C 
ATOM      6  H   LIG d   1       2.834  -5.041  -6.855  0.00  0.00     0.065 H 
ATOM      7  C   LIG d   1       3.484  -4.439  -8.821  0.00  0.00     0.145 C 
ATOM      8  H   LIG d   1       4.272  -4.701  -9.528  0.00  0.00     0.068 H 
ATOM      9  C   LIG d   1       3.581  -2.951  -8.475  0.00  0.00     0.231 C 
ATOM     10  H   LIG d   1       2.769  -2.682  -7.799  0.00  0.00     0.108 H 
ATOM     11  O   LIG d   1       4.835  -2.692  -7.839  0.00  0.00    -0.330 OA
ENDROOT
BRANCH   1  12
ATOM     12  C   LIG d   1       6.381  -3.025  -6.012  0.00  0.00     0.121 C 
ATOM     13  H   LIG d   1       6.506  -1.943  -6.048  0.00  0.00     0.072 H 
ATOM     14  H   LIG d   1       7.177  -3.502  -6.585  0.00  0.00     0.072 H 
BRANCH  12  15
ATOM     15  O   LIG d   1       6.440  -3.468  -4.655  0.00  0.00    -0.459 OA
BRANCH  15  16
ATOM     16  C   LIG d   1       6.881  -2.581  -3.742  0.00  0.00     0.339 C 
ATOM     17  O   LIG d   1       8.018  -2.656  -3.321  0.00  0.00    -0.245 OA
BRANCH  16  18
ATOM     18  C   LIG d   1       5.982  -1.520  -3.250  0.00  0.00     0.059 A 
ATOM     19  C   LIG d   1       4.716  -1.847  -2.754  0.00  0.00    -0.044 A 
ATOM     20  C   LIG d   1       3.881  -0.854  -2.296  0.00  0.00    -0.019 A 
ATOM     21  H   LIG d   1       4.396  -2.878  -2.727  0.00  0.00     0.063 H 
ATOM     22  C   LIG d   1       4.294   0.473  -2.326  0.00  0.00     0.117 A 
ATOM     23  H   LIG d   1       2.903  -1.106  -1.913  0.00  0.00     0.065 H 
ATOM     24  C   LIG d   1       5.551   0.804  -2.818  0.00  0.00    -0.019 A 
ATOM     25  C   LIG d   1       6.392  -0.184  -3.279  0.00  0.00    -0.044 A 
ATOM     26  H   LIG d   1       5.869   1.835  -2.840  0.00  0.00     0.065 H 
ATOM     27  H   LIG d   1       7.369   0.073  -3.662  0.00  0.00     0.063 H 
BRANCH  22  28
ATOM     28  O   LIG d   1       3.467   1.450  -1.873  0.00  0.00    -0.507 OA
ATOM     29  H   LIG d   1       3.928   2.216  -1.505  0.00  0.00     0.292 HD
ENDBRANCH  22  28
ENDBRANCH  16  18
ENDBRANCH  15  16
ENDBRANCH  12  15
ENDBRANCH   1  12
BRANCH   3  30
ATOM     30  O   LIG d   1       5.121  -5.618  -5.652  0.00  0.00    -0.386 OA
ATOM     31  H   LIG d   1       4.308  -5.656  -5.130  0.00  0.00     0.210 HD
ENDBRANCH   3  30
BRANCH   9  32
ATOM     32  O   LIG d   1       3.484  -2.176  -9.671  0.00  0.00    -0.461 OA
BRANCH  32  33
ATOM     33  C   LIG d   1       3.618  -0.829  -9.546  0.00  0.00     0.124 A 
ATOM     34  C   LIG d   1       2.763  -0.121  -8.715  0.00  0.00    -0.016 A 
ATOM     35  C   LIG d   1       2.903   1.248  -8.584  0.00  0.00    -0.017 A 
ATOM     36  H   LIG d   1       1.990  -0.639  -8.167  0.00  0.00     0.066 H 
ATOM     37  C   LIG d   1       3.893   1.914  -9.292  0.00  0.00     0.117 A 
ATOM     38  H   LIG d   1       2.241   1.799  -7.933  0.00  0.00     0.066 H 
ATOM     39  C   LIG d   1       4.745   1.206 -10.126  0.00  0.00    -0.017 A 
ATOM     40  C   LIG d   1       4.607  -0.162 -10.253  0.00  0.00    -0.016 A 
ATOM     41  H   LIG d   1       5.516   1.725 -10.677  0.00  0.00     0.066 H 
ATOM     42  H   LIG d   1       5.271  -0.714 -10.903  0.00  0.00     0.066 H 
BRANCH  37  43
ATOM     43  O   LIG d   1       4.028   3.261  -9.166  0.00  0.00    -0.507 OA
ATOM     44  H   LIG d   1       3.680   3.764  -9.915  0.00  0.00     0.292 HD
ENDBRANCH  37  43
ENDBRANCH  32  33
ENDBRANCH   9  32
BRANCH   5  45
ATOM     45  O   LIG d   1       3.633  -6.658  -7.864  0.00  0.00    -0.386 OA
ATOM     46  H   LIG d   1       3.008  -6.892  -8.563  0.00  0.00     0.210 HD
ENDBRANCH   5  45
BRANCH   7  47
ATOM     47  O   LIG d   1       2.209  -4.713  -9.405  0.00  0.00    -0.383 OA
ATOM     48  H   LIG d   1       2.168  -5.551  -9.886  0.00  0.00     0.210 HD
ENDBRANCH   7  47
TORSDOF 11
ENDMDL
MODEL 3
REMARK VINA RESULT:      -6.5      7.343     10.761
REMARK  11 active torsions:
REMARK  status: ('A' for Active; 'I' for Inactive)
REMARK    1  A    between atoms: C_3  and  O_33 
REMARK    2  A    between atoms: C_6  and  C_7 
REMARK    3  A    between atoms: C_7  and  O_9 
REMARK    4  A    between atoms: O_9  and  C_10 
REMARK    5  A    between atoms: C_10  and  C_11 
REMARK    6  A    between atoms: C_13  and  O_32 
REMARK    7  A    between atoms: C_15  and  O_31 
REMARK    8  A    between atoms: C_17  and  O_30 
REMARK    9  A    between atoms: C_19  and  O_22 
REMARK   10  A    between atoms: O_22  and  C_23 
REMARK   11  A    between atoms: C_26  and  O_29 
ROOT
ATOM      1  C   LIG d   1       5.244  -2.200  -7.181  0.00  0.00     0.125 C 
ATOM      2  H   LIG d   1       6.234  -2.630  -7.334  0.00  0.00     0.066 H 
ATOM      3  C   LIG d   1       4.203  -3.037  -7.928  0.00  0.00     0.113 C 
ATOM      4  H   LIG d   1       3.219  -2.584  -7.809  0.00  0.00     0.065 H 
ATOM      5  C   LIG d   1       4.188  -4.455  -7.348  0.00  0.00     0.115 C 
ATOM      6  H   LIG d   1       5.157  -4.926  -7.510  0.00  0.00     0.065 H 
ATOM      7  C   LIG d   1       3.902  -4.377  -5.845  0.00  0.00     0.145 C 
ATOM      8  H   LIG d   1       2.911  -3.952  -5.684  0.00  0.00     0.068 H 
ATOM      9  C   LIG d   1       4.955  -3.487  -5.178  0.00  0.00     0.231 C 
ATOM     10  H   LIG d   1       5.941  -3.935  -5.305  0.00  0.00     0.108 H 
ATOM     11  O   LIG d   1       4.937  -2.193  -5.786  0.00  0.00    -0.330 OA
ENDROOT
BRANCH   1  12
ATOM     12  C   LIG d   1       5.224  -0.765  -7.714  0.00  0.00     0.121 C 
ATOM     13  H   LIG d   1       5.242  -0.783  -8.803  0.00  0.00     0.072 H 
ATOM     14  H   LIG d   1       6.098  -0.228  -7.345  0.00  0.00     0.072 H 
BRANCH  12  15
ATOM     15  O   LIG d   1       4.037  -0.108  -7.267  0.00  0.00    -0.459 OA
BRANCH  15  16
ATOM     16  C   LIG d   1       3.380   0.648  -8.169  0.00  0.00     0.339 C 
ATOM     17  O   LIG d   1       3.164   1.821  -7.938  0.00  0.00    -0.245 OA
BRANCH  16  18
ATOM     18  C   LIG d   1       2.921   0.049  -9.436  0.00  0.00     0.059 A 
ATOM     19  C   LIG d   1       3.654   0.247 -10.611  0.00  0.00    -0.044 A 
ATOM     20  C   LIG d   1       3.221  -0.313 -11.791  0.00  0.00    -0.019 A 
ATOM     21  H   LIG d   1       4.559   0.836 -10.591  0.00  0.00     0.063 H 
ATOM     22  C   LIG d   1       2.060  -1.076 -11.818  0.00  0.00     0.117 A 
ATOM     23  H   LIG d   1       3.787  -0.161 -12.699  0.00  0.00     0.065 H 
ATOM     24  C   LIG d   1       1.328  -1.275 -10.653  0.00  0.00    -0.019 A 
ATOM     25  C   LIG d   1       1.753  -0.717  -9.467  0.00  0.00    -0.044 A 
ATOM     26  H   LIG d   1       0.426  -1.868 -10.676  0.00  0.00     0.065 H 
ATOM     27  H   LIG d   1       1.184  -0.872  -8.562  0.00  0.00     0.063 H 
BRANCH  22  28
ATOM     28  O   LIG d   1       1.638  -1.627 -12.983  0.00  0.00    -0.507 OA
ATOM     29  H   LIG d   1       0.746  -1.998 -12.943  0.00  0.00     0.292 HD
ENDBRANCH  22  28
ENDBRANCH  16  18
ENDBRANCH  15  16
ENDBRANCH  12  15
ENDBRANCH   1  12
BRANCH   3  30
ATOM     30  O   LIG d   1       4.540  -3.091  -9.316  0.00  0.00    -0.386 OA
ATOM     31  H   LIG d   1       3.865  -3.509  -9.868  0.00  0.00     0.210 HD
ENDBRANCH   3  30
BRANCH   9  32
ATOM     32  O   LIG d   1       4.663  -3.365  -3.785  0.00  0.00    -0.461 OA
BRANCH  32  33
ATOM     33  C   LIG d   1       4.386  -2.117  -3.320  0.00  0.00     0.124 A 
ATOM     34  C   LIG d   1       3.100  -1.608  -3.425  0.00  0.00    -0.016 A 
ATOM     35  C   LIG d   1       2.818  -0.342  -2.948  0.00  0.00    -0.017 A 
ATOM     36  H   LIG d   1       2.319  -2.202  -3.876  0.00  0.00     0.066 H 
ATOM     37  C   LIG d   1       3.823   0.422  -2.373  0.00  0.00     0.117 A 
ATOM     38  H   LIG d   1       1.816   0.053  -3.025  0.00  0.00     0.066 H 
ATOM     39  C   LIG d   1       5.109  -0.086  -2.272  0.00  0.00    -0.017 A 
ATOM     40  C   LIG d   1       5.390  -1.353  -2.746  0.00  0.00    -0.016 A 
ATOM     41  H   LIG d   1       5.892   0.509  -1.825  0.00  0.00     0.066 H 
ATOM     42  H   LIG d   1       6.393  -1.749  -2.668  0.00  0.00     0.066 H 
BRANCH  37  43
ATOM     43  O   LIG d   1       3.545   1.669  -1.907  0.00  0.00    -0.507 OA
ATOM     44  H   LIG d   1       4.328   2.183  -1.666  0.00  0.00     0.292 HD
ENDBRANCH  37  43
ENDBRANCH  32  33
ENDBRANCH   9  32
BRANCH   5  45
ATOM     45  O   LIG d   1       3.169  -5.224  -7.991  0.00  0.00    -0.386 OA
ATOM     46  H   LIG d   1       3.248  -6.177  -7.849  0.00  0.00     0.210 HD
ENDBRANCH   5  45
BRANCH   7  47
ATOM     47  O   LIG d   1       3.956  -5.688  -5.279  0.00  0.00    -0.383 OA
ATOM     48  H   LIG d   1       4.417  -6.336  -5.829  0.00  0.00     0.210 HD
ENDBRANCH   7  47
TORSDOF 11
ENDMDL
MODEL 4
REMARK VINA RESULT:      -6.4      5.635      7.835
REMARK  11 active torsions:
REMARK  status: ('A' for Active; 'I' for Inactive)
REMARK    1  A    between atoms: C_3  and  O_33 
REMARK    2  A    between atoms: C_6  and  C_7 
REMARK    3  A    between atoms: C_7  and  O_9 
REMARK    4  A    between atoms: O_9  and  C_10 
REMARK    5  A    between atoms: C_10  and  C_11 
REMARK    6  A    between atoms: C_13  and  O_32 
REMARK    7  A    between atoms: C_15  and  O_31 
REMARK    8  A    between atoms: C_17  and  O_30 
REMARK    9  A    between atoms: C_19  and  O_22 
REMARK   10  A    between atoms: O_22  and  C_23 
REMARK   11  A    between atoms: C_26  and  O_29 
ROOT
ATOM      1  C   LIG d   1       7.388  -2.020  -6.226  0.00  0.00     0.125 C 
ATOM      2  H   LIG d   1       8.155  -2.161  -6.988  0.00  0.00     0.066 H 
ATOM      3  C   LIG d   1       8.019  -1.408  -4.973  0.00  0.00     0.113 C 
ATOM      4  H   LIG d   1       7.261  -1.305  -4.197  0.00  0.00     0.065 H 
ATOM      5  C   LIG d   1       8.587  -0.028  -5.320  0.00  0.00     0.115 C 
ATOM      6  H   LIG d   1       9.380  -0.135  -6.060  0.00  0.00     0.065 H 
ATOM      7  C   LIG d   1       7.466   0.844  -5.893  0.00  0.00     0.145 C 
ATOM      8  H   LIG d   1       6.696   0.993  -5.134  0.00  0.00     0.068 H 
ATOM      9  C   LIG d   1       6.855   0.144  -7.110  0.00  0.00     0.231 C 
ATOM     10  H   LIG d   1       7.616   0.032  -7.883  0.00  0.00     0.108 H 
ATOM     11  O   LIG d   1       6.375  -1.146  -6.724  0.00  0.00    -0.330 OA
ENDROOT
BRANCH   1  12
ATOM     12  C   LIG d   1       6.766  -3.374  -5.874  0.00  0.00     0.121 C 
ATOM     13  H   LIG d   1       7.499  -4.163  -6.036  0.00  0.00     0.072 H 
ATOM     14  H   LIG d   1       5.896  -3.550  -6.509  0.00  0.00     0.072 H 
BRANCH  12  15
ATOM     15  O   LIG d   1       6.363  -3.371  -4.503  0.00  0.00    -0.459 OA
BRANCH  15  16
ATOM     16  C   LIG d   1       5.049  -3.210  -4.253  0.00  0.00     0.339 C 
ATOM     17  O   LIG d   1       4.266  -4.103  -4.513  0.00  0.00    -0.245 OA
BRANCH  16  18
ATOM     18  C   LIG d   1       4.559  -1.949  -3.665  0.00  0.00     0.059 A 
ATOM     19  C   LIG d   1       4.818  -1.655  -2.322  0.00  0.00    -0.044 A 
ATOM     20  C   LIG d   1       4.359  -0.477  -1.778  0.00  0.00    -0.019 A 
ATOM     21  H   LIG d   1       5.379  -2.349  -1.715  0.00  0.00     0.063 H 
ATOM     22  C   LIG d   1       3.642   0.420  -2.560  0.00  0.00     0.117 A 
ATOM     23  H   LIG d   1       4.559  -0.249  -0.741  0.00  0.00     0.065 H 
ATOM     24  C   LIG d   1       3.382   0.132  -3.895  0.00  0.00    -0.019 A 
ATOM     25  C   LIG d   1       3.836  -1.045  -4.447  0.00  0.00    -0.044 A 
ATOM     26  H   LIG d   1       2.824   0.831  -4.500  0.00  0.00     0.065 H 
ATOM     27  H   LIG d   1       3.634  -1.269  -5.484  0.00  0.00     0.063 H 
BRANCH  22  28
ATOM     28  O   LIG d   1       3.192   1.581  -2.020  0.00  0.00    -0.507 OA
ATOM     29  H   LIG d   1       2.477   1.997  -2.520  0.00  0.00     0.292 HD
ENDBRANCH  22  28
ENDBRANCH  16  18
ENDBRANCH  15  16
ENDBRANCH  12  15
ENDBRANCH   1  12
BRANCH   3  30
ATOM     30  O   LIG d   1       9.071  -2.255  -4.505  0.00  0.00    -0.386 OA
ATOM     31  H   LIG d   1       9.592  -2.662  -5.211  0.00  0.00     0.210 HD
ENDBRANCH   3  30
BRANCH   9  32
ATOM     32  O   LIG d   1       5.772   0.926  -7.616  0.00  0.00    -0.461 OA
BRANCH  32  33
ATOM     33  C   LIG d   1       4.735   0.251  -8.178  0.00  0.00     0.124 A 
ATOM     34  C   LIG d   1       3.458   0.375  -7.649  0.00  0.00    -0.016 A 
ATOM     35  C   LIG d   1       2.403  -0.307  -8.224  0.00  0.00    -0.017 A 
ATOM     36  H   LIG d   1       3.289   1.006  -6.790  0.00  0.00     0.066 H 
ATOM     37  C   LIG d   1       2.622  -1.123  -9.325  0.00  0.00     0.117 A 
ATOM     38  H   LIG d   1       1.409  -0.207  -7.815  0.00  0.00     0.066 H 
ATOM     39  C   LIG d   1       3.899  -1.250  -9.851  0.00  0.00    -0.017 A 
ATOM     40  C   LIG d   1       4.953  -0.565  -9.278  0.00  0.00    -0.016 A 
ATOM     41  H   LIG d   1       4.069  -1.885 -10.707  0.00  0.00     0.066 H 
ATOM     42  H   LIG d   1       5.948  -0.664  -9.688  0.00  0.00     0.066 H 
BRANCH  37  43
ATOM     43  O   LIG d   1       1.584  -1.797  -9.888  0.00  0.00    -0.507 OA
ATOM     44  H   LIG d   1       1.511  -1.681 -10.845  0.00  0.00     0.292 HD
ENDBRANCH  37  43
ENDBRANCH  32  33
ENDBRANCH   9  32
BRANCH   5  45
ATOM     45  O   LIG d   1       9.115   0.582  -4.140  0.00  0.00    -0.386 OA
ATOM     46  H   LIG d   1       9.964   1.025  -4.273  0.00  0.00     0.210 HD
ENDBRANCH   5  45
BRANCH   7  47
ATOM     47  O   LIG d   1       7.998   2.111  -6.286  0.00  0.00    -0.383 OA
ATOM     48  H   LIG d   1       8.294   2.145  -7.205  0.00  0.00     0.210 HD
ENDBRANCH   7  47
TORSDOF 11
ENDMDL
MODEL 5
REMARK VINA RESULT:      -6.4      1.682      8.625
REMARK  11 active torsions:
REMARK  status: ('A' for Active; 'I' for Inactive)
REMARK    1  A    between atoms: C_3  and  O_33 
REMARK    2  A    between atoms: C_6  and  C_7 
REMARK    3  A    between atoms: C_7  and  O_9 
REMARK    4  A    between atoms: O_9  and  C_10 
REMARK    5  A    between atoms: C_10  and  C_11 
REMARK    6  A    between atoms: C_13  and  O_32 
REMARK    7  A    between atoms: C_15  and  O_31 
REMARK    8  A    between atoms: C_17  and  O_30 
REMARK    9  A    between atoms: C_19  and  O_22 
REMARK   10  A    between atoms: O_22  and  C_23 
REMARK   11  A    between atoms: C_26  and  O_29 
ROOT
ATOM      1  C   LIG d   1      10.151   2.434  -3.425  0.00  0.00     0.125 C 
ATOM      2  H   LIG d   1      10.464   1.405  -3.243  0.00  0.00     0.066 H 
ATOM      3  C   LIG d   1      10.395   2.788  -4.894  0.00  0.00     0.113 C 
ATOM      4  H   LIG d   1      10.120   3.828  -5.069  0.00  0.00     0.065 H 
ATOM      5  C   LIG d   1       9.538   1.877  -5.780  0.00  0.00     0.115 C 
ATOM      6  H   LIG d   1       9.846   0.840  -5.643  0.00  0.00     0.065 H 
ATOM      7  C   LIG d   1       8.068   2.031  -5.380  0.00  0.00     0.145 C 
ATOM      8  H   LIG d   1       7.746   3.056  -5.565  0.00  0.00     0.068 H 
ATOM      9  C   LIG d   1       7.914   1.707  -3.892  0.00  0.00     0.231 C 
ATOM     10  H   LIG d   1       8.198   0.669  -3.716  0.00  0.00     0.108 H 
ATOM     11  O   LIG d   1       8.761   2.569  -3.128  0.00  0.00    -0.330 OA
ENDROOT
BRANCH   1  12
ATOM     12  C   LIG d   1      10.958   3.379  -2.532  0.00  0.00     0.121 C 
ATOM     13  H   LIG d   1      11.928   2.932  -2.315  0.00  0.00     0.072 H 
ATOM     14  H   LIG d   1      10.418   3.545  -1.599  0.00  0.00     0.072 H 
BRANCH  12  15
ATOM     15  O   LIG d   1      11.145   4.626  -3.204  0.00  0.00    -0.459 OA
BRANCH  15  16
ATOM     16  C   LIG d   1      10.427   5.674  -2.757  0.00  0.00     0.339 C 
ATOM     17  O   LIG d   1      10.024   5.692  -1.611  0.00  0.00    -0.245 OA
BRANCH  16  18
ATOM     18  C   LIG d   1      10.129   6.802  -3.660  0.00  0.00     0.059 A 
ATOM     19  C   LIG d   1      10.494   8.103  -3.302  0.00  0.00    -0.044 A 
ATOM     20  C   LIG d   1      10.214   9.152  -4.148  0.00  0.00    -0.019 A 
ATOM     21  H   LIG d   1      10.998   8.284  -2.364  0.00  0.00     0.063 H 
ATOM     22  C   LIG d   1       9.570   8.919  -5.358  0.00  0.00     0.117 A 
ATOM     23  H   LIG d   1      10.495  10.157  -3.872  0.00  0.00     0.065 H 
ATOM     24  C   LIG d   1       9.205   7.627  -5.718  0.00  0.00    -0.019 A 
ATOM     25  C   LIG d   1       9.481   6.572  -4.877  0.00  0.00    -0.044 A 
ATOM     26  H   LIG d   1       8.705   7.450  -6.659  0.00  0.00     0.065 H 
ATOM     27  H   LIG d   1       9.197   5.569  -5.157  0.00  0.00     0.063 H 
BRANCH  22  28
ATOM     28  O   LIG d   1       9.296   9.956  -6.190  0.00  0.00    -0.507 OA
ATOM     29  H   LIG d   1       9.884  10.715  -6.079  0.00  0.00     0.292 HD
ENDBRANCH  22  28
ENDBRANCH  16  18
ENDBRANCH  15  16
ENDBRANCH  12  15
ENDBRANCH   1  12
BRANCH   3  30
ATOM     30  O   LIG d   1      11.777   2.599  -5.209  0.00  0.00    -0.386 OA
ATOM     31  H   LIG d   1      12.383   2.981  -4.559  0.00  0.00     0.210 HD
ENDBRANCH   3  30
BRANCH   9  32
ATOM     32  O   LIG d   1       6.555   1.902  -3.499  0.00  0.00    -0.461 OA
BRANCH  32  33
ATOM     33  C   LIG d   1       5.840   0.792  -3.174  0.00  0.00     0.124 A 
ATOM     34  C   LIG d   1       4.559   0.918  -2.660  0.00  0.00    -0.016 A 
ATOM     35  C   LIG d   1       3.831  -0.210  -2.334  0.00  0.00    -0.017 A 
ATOM     36  H   LIG d   1       4.128   1.898  -2.516  0.00  0.00     0.066 H 
ATOM     37  C   LIG d   1       4.386  -1.469  -2.513  0.00  0.00     0.117 A 
ATOM     38  H   LIG d   1       2.831  -0.112  -1.937  0.00  0.00     0.066 H 
ATOM     39  C   LIG d   1       5.669  -1.595  -3.024  0.00  0.00    -0.017 A 
ATOM     40  C   LIG d   1       6.395  -0.466  -3.353  0.00  0.00    -0.016 A 
ATOM     41  H   LIG d   1       6.101  -2.575  -3.164  0.00  0.00     0.066 H 
ATOM     42  H   LIG d   1       7.395  -0.564  -3.751  0.00  0.00     0.066 H 
BRANCH  37  43
ATOM     43  O   LIG d   1       3.671  -2.579  -2.189  0.00  0.00    -0.507 OA
ATOM     44  H   LIG d   1       3.114  -2.913  -2.905  0.00  0.00     0.292 HD
ENDBRANCH  37  43
ENDBRANCH  32  33
ENDBRANCH   9  32
BRANCH   5  45
ATOM     45  O   LIG d   1       9.705   2.248  -7.150  0.00  0.00    -0.386 OA
ATOM     46  H   LIG d   1       8.960   2.004  -7.716  0.00  0.00     0.210 HD
ENDBRANCH   5  45
BRANCH   7  47
ATOM     47  O   LIG d   1       7.266   1.134  -6.151  0.00  0.00    -0.383 OA
ATOM     48  H   LIG d   1       6.680   0.576  -5.622  0.00  0.00     0.210 HD
ENDBRANCH   7  47
TORSDOF 11
ENDMDL
MODEL 6
REMARK VINA RESULT:      -6.4      6.898     10.103
REMARK  11 active torsions:
REMARK  status: ('A' for Active; 'I' for Inactive)
REMARK    1  A    between atoms: C_3  and  O_33 
REMARK    2  A    between atoms: C_6  and  C_7 
REMARK    3  A    between atoms: C_7  and  O_9 
REMARK    4  A    between atoms: O_9  and  C_10 
REMARK    5  A    between atoms: C_10  and  C_11 
REMARK    6  A    between atoms: C_13  and  O_32 
REMARK    7  A    between atoms: C_15  and  O_31 
REMARK    8  A    between atoms: C_17  and  O_30 
REMARK    9  A    between atoms: C_19  and  O_22 
REMARK   10  A    between atoms: O_22  and  C_23 
REMARK   11  A    between atoms: C_26  and  O_29 
ROOT
ATOM      1  C   LIG d   1       6.731  -2.475  -6.064  0.00  0.00     0.125 C 
ATOM      2  H   LIG d   1       7.561  -2.992  -5.580  0.00  0.00     0.066 H 
ATOM      3  C   LIG d   1       6.273  -3.277  -7.285  0.00  0.00     0.113 C 
ATOM      4  H   LIG d   1       5.471  -2.741  -7.793  0.00  0.00     0.065 H 
ATOM      5  C   LIG d   1       5.763  -4.646  -6.825  0.00  0.00     0.115 C 
ATOM      6  H   LIG d   1       6.577  -5.202  -6.361  0.00  0.00     0.065 H 
ATOM      7  C   LIG d   1       4.637  -4.443  -5.806  0.00  0.00     0.145 C 
ATOM      8  H   LIG d   1       3.801  -3.931  -6.284  0.00  0.00     0.068 H 
ATOM      9  C   LIG d   1       5.158  -3.596  -4.642  0.00  0.00     0.231 C 
ATOM     10  H   LIG d   1       5.967  -4.127  -4.141  0.00  0.00     0.108 H 
ATOM     11  O   LIG d   1       5.646  -2.349  -5.144  0.00  0.00    -0.330 OA
ENDROOT
BRANCH   1  12
ATOM     12  C   LIG d   1       7.187  -1.084  -6.509  0.00  0.00     0.121 C 
ATOM     13  H   LIG d   1       8.274  -1.025  -6.458  0.00  0.00     0.072 H 
ATOM     14  H   LIG d   1       6.752  -0.331  -5.850  0.00  0.00     0.072 H 
BRANCH  12  15
ATOM     15  O   LIG d   1       6.758  -0.848  -7.851  0.00  0.00    -0.459 OA
BRANCH  15  16
ATOM     16  C   LIG d   1       5.962   0.219  -8.060  0.00  0.00     0.339 C 
ATOM     17  O   LIG d   1       6.359   1.336  -7.794  0.00  0.00    -0.245 OA
BRANCH  16  18
ATOM     18  C   LIG d   1       4.606   0.030  -8.610  0.00  0.00     0.059 A 
ATOM     19  C   LIG d   1       4.363   0.257  -9.968  0.00  0.00    -0.044 A 
ATOM     20  C   LIG d   1       3.096   0.079 -10.477  0.00  0.00    -0.019 A 
ATOM     21  H   LIG d   1       5.168   0.567 -10.617  0.00  0.00     0.063 H 
ATOM     22  C   LIG d   1       2.060  -0.325  -9.644  0.00  0.00     0.117 A 
ATOM     23  H   LIG d   1       2.908   0.254 -11.526  0.00  0.00     0.065 H 
ATOM     24  C   LIG d   1       2.297  -0.552  -8.293  0.00  0.00    -0.019 A 
ATOM     25  C   LIG d   1       3.561  -0.376  -7.775  0.00  0.00    -0.044 A 
ATOM     26  H   LIG d   1       1.490  -0.866  -7.648  0.00  0.00     0.065 H 
ATOM     27  H   LIG d   1       3.745  -0.551  -6.725  0.00  0.00     0.063 H 
BRANCH  22  28
ATOM     28  O   LIG d   1       0.813  -0.500 -10.150  0.00  0.00    -0.507 OA
ATOM     29  H   LIG d   1       0.295   0.314 -10.210  0.00  0.00     0.292 HD
ENDBRANCH  22  28
ENDBRANCH  16  18
ENDBRANCH  15  16
ENDBRANCH  12  15
ENDBRANCH   1  12
BRANCH   3  30
ATOM     30  O   LIG d   1       7.372  -3.452  -8.182  0.00  0.00    -0.386 OA
ATOM     31  H   LIG d   1       7.321  -4.258  -8.715  0.00  0.00     0.210 HD
ENDBRANCH   3  30
BRANCH   9  32
ATOM     32  O   LIG d   1       4.098  -3.355  -3.716  0.00  0.00    -0.461 OA
BRANCH  32  33
ATOM     33  C   LIG d   1       3.929  -2.075  -3.289  0.00  0.00     0.124 A 
ATOM     34  C   LIG d   1       4.606  -1.624  -2.166  0.00  0.00    -0.016 A 
ATOM     35  C   LIG d   1       4.439  -0.322  -1.735  0.00  0.00    -0.017 A 
ATOM     36  H   LIG d   1       5.266  -2.289  -1.629  0.00  0.00     0.066 H 
ATOM     37  C   LIG d   1       3.587   0.531  -2.422  0.00  0.00     0.117 A 
ATOM     38  H   LIG d   1       4.969   0.031  -0.863  0.00  0.00     0.066 H 
ATOM     39  C   LIG d   1       2.907   0.078  -3.542  0.00  0.00    -0.017 A 
ATOM     40  C   LIG d   1       3.078  -1.222  -3.975  0.00  0.00    -0.016 A 
ATOM     41  H   LIG d   1       2.243   0.742  -4.076  0.00  0.00     0.066 H 
ATOM     42  H   LIG d   1       2.548  -1.575  -4.848  0.00  0.00     0.066 H 
BRANCH  37  43
ATOM     43  O   LIG d   1       3.419   1.811  -1.995  0.00  0.00    -0.507 OA
ATOM     44  H   LIG d   1       3.813   2.475  -2.577  0.00  0.00     0.292 HD
ENDBRANCH  37  43
ENDBRANCH  32  33
ENDBRANCH   9  32
BRANCH   5  45
ATOM     45  O   LIG d   1       5.267  -5.374  -7.950  0.00  0.00    -0.386 OA
ATOM     46  H   LIG d   1       5.584  -5.046  -8.802  0.00  0.00     0.210 HD
ENDBRANCH   5  45
BRANCH   7  47
ATOM     47  O   LIG d   1       4.200  -5.712  -5.317  0.00  0.00    -0.383 OA
ATOM     48  H   LIG d   1       4.731  -6.458  -5.627  0.00  0.00     0.210 HD
ENDBRANCH   7  47
TORSDOF 11
ENDMDL
MODEL 7
REMARK VINA RESULT:      -6.3      4.064      6.668
REMARK  11 active torsions:
REMARK  status: ('A' for Active; 'I' for Inactive)
REMARK    1  A    between atoms: C_3  and  O_33 
REMARK    2  A    between atoms: C_6  and  C_7 
REMARK    3  A    between atoms: C_7  and  O_9 
REMARK    4  A    between atoms: O_9  and  C_10 
REMARK    5  A    between atoms: C_10  and  C_11 
REMARK    6  A    between atoms: C_13  and  O_32 
REMARK    7  A    between atoms: C_15  and  O_31 
REMARK    8  A    between atoms: C_17  and  O_30 
REMARK    9  A    between atoms: C_19  and  O_22 
REMARK   10  A    between atoms: O_22  and  C_23 
REMARK   11  A    between atoms: C_26  and  O_29 
ROOT
ATOM      1  C   LIG d   1      12.008   6.225  -1.837  0.00  0.00     0.125 C 
ATOM      2  H   LIG d   1      13.051   5.972  -1.643  0.00  0.00     0.066 H 
ATOM      3  C   LIG d   1      11.108   5.463  -0.861  0.00  0.00     0.113 C 
ATOM      4  H   LIG d   1      10.064   5.684  -1.081  0.00  0.00     0.065 H 
ATOM      5  C   LIG d   1      11.434   5.902   0.569  0.00  0.00     0.115 C 
ATOM      6  H   LIG d   1      12.464   5.636   0.807  0.00  0.00     0.065 H 
ATOM      7  C   LIG d   1      11.258   7.420   0.679  0.00  0.00     0.145 C 
ATOM      8  H   LIG d   1      10.216   7.680   0.491  0.00  0.00     0.068 H 
ATOM      9  C   LIG d   1      12.153   8.106  -0.357  0.00  0.00     0.231 C 
ATOM     10  H   LIG d   1      13.197   7.877  -0.143  0.00  0.00     0.108 H 
ATOM     11  O   LIG d   1      11.818   7.629  -1.662  0.00  0.00    -0.330 OA
ENDROOT
BRANCH   1  12
ATOM     12  C   LIG d   1      11.649   5.836  -3.273  0.00  0.00     0.121 C 
ATOM     13  H   LIG d   1      12.146   4.901  -3.531  0.00  0.00     0.072 H 
ATOM     14  H   LIG d   1      11.976   6.622  -3.955  0.00  0.00     0.072 H 
BRANCH  12  15
ATOM     15  O   LIG d   1      10.234   5.670  -3.382  0.00  0.00    -0.459 OA
BRANCH  15  16
ATOM     16  C   LIG d   1       9.730   5.511  -4.621  0.00  0.00     0.339 C 
ATOM     17  O   LIG d   1       9.370   4.413  -4.995  0.00  0.00    -0.245 OA
BRANCH  16  18
ATOM     18  C   LIG d   1       9.618   6.671  -5.526  0.00  0.00     0.059 A 
ATOM     19  C   LIG d   1       9.403   7.950  -5.003  0.00  0.00    -0.044 A 
ATOM     20  C   LIG d   1       9.299   9.029  -5.851  0.00  0.00    -0.019 A 
ATOM     21  H   LIG d   1       9.321   8.091  -3.935  0.00  0.00     0.063 H 
ATOM     22  C   LIG d   1       9.410   8.849  -7.225  0.00  0.00     0.117 A 
ATOM     23  H   LIG d   1       9.133  10.017  -5.448  0.00  0.00     0.065 H 
ATOM     24  C   LIG d   1       9.624   7.580  -7.749  0.00  0.00    -0.019 A 
ATOM     25  C   LIG d   1       9.728   6.495  -6.908  0.00  0.00    -0.044 A 
ATOM     26  H   LIG d   1       9.709   7.444  -8.817  0.00  0.00     0.065 H 
ATOM     27  H   LIG d   1       9.893   5.508  -7.316  0.00  0.00     0.063 H 
BRANCH  22  28
ATOM     28  O   LIG d   1       9.308   9.916  -8.058  0.00  0.00    -0.507 OA
ATOM     29  H   LIG d   1       8.992  10.722  -7.628  0.00  0.00     0.292 HD
ENDBRANCH  22  28
ENDBRANCH  16  18
ENDBRANCH  15  16
ENDBRANCH  12  15
ENDBRANCH   1  12
BRANCH   3  30
ATOM     30  O   LIG d   1      11.338   4.059  -0.996  0.00  0.00    -0.386 OA
ATOM     31  H   LIG d   1      11.385   3.754  -1.913  0.00  0.00     0.210 HD
ENDBRANCH   3  30
BRANCH   9  32
ATOM     32  O   LIG d   1      11.952   9.519  -0.298  0.00  0.00    -0.461 OA
BRANCH  32  33
ATOM     33  C   LIG d   1      10.897  10.021  -0.994  0.00  0.00     0.124 A 
ATOM     34  C   LIG d   1      11.114  10.724  -2.170  0.00  0.00    -0.016 A 
ATOM     35  C   LIG d   1      10.042  11.231  -2.879  0.00  0.00    -0.017 A 
ATOM     36  H   LIG d   1      12.121  10.873  -2.532  0.00  0.00     0.066 H 
ATOM     37  C   LIG d   1       8.750  11.045  -2.410  0.00  0.00     0.117 A 
ATOM     38  H   LIG d   1      10.211  11.774  -3.797  0.00  0.00     0.066 H 
ATOM     39  C   LIG d   1       8.534  10.346  -1.232  0.00  0.00    -0.017 A 
ATOM     40  C   LIG d   1       9.606   9.836  -0.525  0.00  0.00    -0.016 A 
ATOM     41  H   LIG d   1       7.528  10.201  -0.867  0.00  0.00     0.066 H 
ATOM     42  H   LIG d   1       9.437   9.291   0.393  0.00  0.00     0.066 H 
BRANCH  37  43
ATOM     43  O   LIG d   1       7.696  11.547  -3.106  0.00  0.00    -0.507 OA
ATOM     44  H   LIG d   1       6.887  11.639  -2.585  0.00  0.00     0.292 HD
ENDBRANCH  37  43
ENDBRANCH  32  33
ENDBRANCH   9  32
BRANCH   5  45
ATOM     45  O   LIG d   1      10.550   5.249   1.483  0.00  0.00    -0.386 OA
ATOM     46  H   LIG d   1      10.635   4.286   1.492  0.00  0.00     0.210 HD
ENDBRANCH   5  45
BRANCH   7  47
ATOM     47  O   LIG d   1      11.627   7.850   1.991  0.00  0.00    -0.383 OA
ATOM     48  H   LIG d   1      11.267   8.712   2.238  0.00  0.00     0.210 HD
ENDBRANCH   7  47
TORSDOF 11
ENDMDL
MODEL 8
REMARK VINA RESULT:      -6.3      3.438      8.858
REMARK  11 active torsions:
REMARK  status: ('A' for Active; 'I' for Inactive)
REMARK    1  A    between atoms: C_3  and  O_33 
REMARK    2  A    between atoms: C_6  and  C_7 
REMARK    3  A    between atoms: C_7  and  O_9 
REMARK    4  A    between atoms: O_9  and  C_10 
REMARK    5  A    between atoms: C_10  and  C_11 
REMARK    6  A    between atoms: C_13  and  O_32 
REMARK    7  A    between atoms: C_15  and  O_31 
REMARK    8  A    between atoms: C_17  and  O_30 
REMARK    9  A    between atoms: C_19  and  O_22 
REMARK   10  A    between atoms: O_22  and  C_23 
REMARK   11  A    between atoms: C_26  and  O_29 
ROOT
ATOM      1  C   LIG d   1      10.068   3.708  -2.773  0.00  0.00     0.125 C 
ATOM      2  H   LIG d   1      10.071   3.246  -1.786  0.00  0.00     0.066 H 
ATOM      3  C   LIG d   1      11.377   3.377  -3.496  0.00  0.00     0.113 C 
ATOM      4  H   LIG d   1      11.392   3.872  -4.466  0.00  0.00     0.065 H 
ATOM      5  C   LIG d   1      11.471   1.860  -3.693  0.00  0.00     0.115 C 
ATOM      6  H   LIG d   1      11.506   1.367  -2.722  0.00  0.00     0.065 H 
ATOM      7  C   LIG d   1      10.240   1.379  -4.468  0.00  0.00     0.145 C 
ATOM      8  H   LIG d   1      10.233   1.834  -5.459  0.00  0.00     0.068 H 
ATOM      9  C   LIG d   1       8.976   1.789  -3.707  0.00  0.00     0.231 C 
ATOM     10  H   LIG d   1       8.965   1.301  -2.733  0.00  0.00     0.108 H 
ATOM     11  O   LIG d   1       8.966   3.207  -3.531  0.00  0.00    -0.330 OA
ENDROOT
BRANCH   1  12
ATOM     12  C   LIG d   1       9.938   5.226  -2.625  0.00  0.00     0.121 C 
ATOM     13  H   LIG d   1       8.918   5.527  -2.865  0.00  0.00     0.072 H 
ATOM     14  H   LIG d   1      10.631   5.718  -3.307  0.00  0.00     0.072 H 
BRANCH  12  15
ATOM     15  O   LIG d   1      10.243   5.601  -1.281  0.00  0.00    -0.459 OA
BRANCH  15  16
ATOM     16  C   LIG d   1      11.126   6.604  -1.112  0.00  0.00     0.339 C 
ATOM     17  O   LIG d   1      12.305   6.422  -1.341  0.00  0.00    -0.245 OA
BRANCH  16  18
ATOM     18  C   LIG d   1      10.662   7.925  -0.647  0.00  0.00     0.059 A 
ATOM     19  C   LIG d   1       9.457   8.452  -1.122  0.00  0.00    -0.044 A 
ATOM     20  C   LIG d   1       9.028   9.685  -0.685  0.00  0.00    -0.019 A 
ATOM     21  H   LIG d   1       8.863   7.891  -1.828  0.00  0.00     0.063 H 
ATOM     22  C   LIG d   1       9.789  10.405   0.228  0.00  0.00     0.117 A 
ATOM     23  H   LIG d   1       8.098  10.092  -1.052  0.00  0.00     0.065 H 
ATOM     24  C   LIG d   1      10.988   9.885   0.703  0.00  0.00    -0.019 A 
ATOM     25  C   LIG d   1      11.425   8.653   0.270  0.00  0.00    -0.044 A 
ATOM     26  H   LIG d   1      11.577  10.447   1.412  0.00  0.00     0.065 H 
ATOM     27  H   LIG d   1      12.357   8.250   0.639  0.00  0.00     0.063 H 
BRANCH  22  28
ATOM     28  O   LIG d   1       9.362  11.619   0.657  0.00  0.00    -0.507 OA
ATOM     29  H   LIG d   1       9.194  11.664   1.608  0.00  0.00     0.292 HD
ENDBRANCH  22  28
ENDBRANCH  16  18
ENDBRANCH  15  16
ENDBRANCH  12  15
ENDBRANCH   1  12
BRANCH   3  30
ATOM     30  O   LIG d   1      12.483   3.828  -2.712  0.00  0.00    -0.386 OA
ATOM     31  H   LIG d   1      12.911   3.129  -2.197  0.00  0.00     0.210 HD
ENDBRANCH   3  30
BRANCH   9  32
ATOM     32  O   LIG d   1       7.823   1.392  -4.452  0.00  0.00    -0.461 OA
BRANCH  32  33
ATOM     33  C   LIG d   1       6.901   0.633  -3.803  0.00  0.00     0.124 A 
ATOM     34  C   LIG d   1       5.897   1.241  -3.065  0.00  0.00    -0.016 A 
ATOM     35  C   LIG d   1       4.957   0.469  -2.409  0.00  0.00    -0.017 A 
ATOM     36  H   LIG d   1       5.847   2.318  -3.005  0.00  0.00     0.066 H 
ATOM     37  C   LIG d   1       5.023  -0.915  -2.483  0.00  0.00     0.117 A 
ATOM     38  H   LIG d   1       4.172   0.943  -1.839  0.00  0.00     0.066 H 
ATOM     39  C   LIG d   1       6.030  -1.523  -3.217  0.00  0.00    -0.017 A 
ATOM     40  C   LIG d   1       6.967  -0.751  -3.876  0.00  0.00    -0.016 A 
ATOM     41  H   LIG d   1       6.082  -2.600  -3.274  0.00  0.00     0.066 H 
ATOM     42  H   LIG d   1       7.752  -1.224  -4.448  0.00  0.00     0.066 H 
BRANCH  37  43
ATOM     43  O   LIG d   1       4.100  -1.674  -1.834  0.00  0.00    -0.507 OA
ATOM     44  H   LIG d   1       3.408  -2.028  -2.408  0.00  0.00     0.292 HD
ENDBRANCH  37  43
ENDBRANCH  32  33
ENDBRANCH   9  32
BRANCH   5  45
ATOM     45  O   LIG d   1      12.655   1.547  -4.430  0.00  0.00    -0.386 OA
ATOM     46  H   LIG d   1      12.819   0.599  -4.526  0.00  0.00     0.210 HD
ENDBRANCH   5  45
BRANCH   7  47
ATOM     47  O   LIG d   1      10.282  -0.043  -4.597  0.00  0.00    -0.383 OA
ATOM     48  H   LIG d   1      11.163  -0.396  -4.783  0.00  0.00     0.210 HD
ENDBRANCH   7  47
TORSDOF 11
ENDMDL
MODEL 9
REMARK VINA RESULT:      -6.3      6.875     12.924
REMARK  11 active torsions:
REMARK  status: ('A' for Active; 'I' for Inactive)
REMARK    1  A    between atoms: C_3  and  O_33 
REMARK    2  A    between atoms: C_6  and  C_7 
REMARK    3  A    between atoms: C_7  and  O_9 
REMARK    4  A    between atoms: O_9  and  C_10 
REMARK    5  A    between atoms: C_10  and  C_11 
REMARK    6  A    between atoms: C_13  and  O_32 
REMARK    7  A    between atoms: C_15  and  O_31 
REMARK    8  A    between atoms: C_17  and  O_30 
REMARK    9  A    between atoms: C_19  and  O_22 
REMARK   10  A    between atoms: O_22  and  C_23 
REMARK   11  A    between atoms: C_26  and  O_29 
ROOT
ATOM      1  C   LIG d   1       8.951  -5.484  -3.581  0.00  0.00     0.125 C 
ATOM      2  H   LIG d   1       8.334  -5.270  -2.707  0.00  0.00     0.066 H 
ATOM      3  C   LIG d   1      10.416  -5.601  -3.155  0.00  0.00     0.113 C 
ATOM      4  H   LIG d   1      11.038  -5.774  -4.033  0.00  0.00     0.065 H 
ATOM      5  C   LIG d   1      10.565  -6.775  -2.182  0.00  0.00     0.115 C 
ATOM      6  H   LIG d   1       9.982  -6.579  -1.282  0.00  0.00     0.065 H 
ATOM      7  C   LIG d   1      10.052  -8.051  -2.857  0.00  0.00     0.145 C 
ATOM      8  H   LIG d   1      10.667  -8.274  -3.729  0.00  0.00     0.068 H 
ATOM      9  C   LIG d   1       8.600  -7.839  -3.295  0.00  0.00     0.231 C 
ATOM     10  H   LIG d   1       7.980  -7.656  -2.417  0.00  0.00     0.108 H 
ATOM     11  O   LIG d   1       8.528  -6.713  -4.173  0.00  0.00    -0.330 OA
ENDROOT
BRANCH   1  12
ATOM     12  C   LIG d   1       8.803  -4.351  -4.599  0.00  0.00     0.121 C 
ATOM     13  H   LIG d   1       8.135  -4.668  -5.400  0.00  0.00     0.072 H 
ATOM     14  H   LIG d   1       9.781  -4.108  -5.016  0.00  0.00     0.072 H 
BRANCH  12  15
ATOM     15  O   LIG d   1       8.261  -3.198  -3.953  0.00  0.00    -0.459 OA
BRANCH  15  16
ATOM     16  C   LIG d   1       6.966  -2.914  -4.195  0.00  0.00     0.339 C 
ATOM     17  O   LIG d   1       6.329  -3.597  -4.972  0.00  0.00    -0.245 OA
BRANCH  16  18
ATOM     18  C   LIG d   1       6.323  -1.771  -3.519  0.00  0.00     0.059 A 
ATOM     19  C   LIG d   1       6.860  -0.487  -3.650  0.00  0.00    -0.044 A 
ATOM     20  C   LIG d   1       6.256   0.576  -3.017  0.00  0.00    -0.019 A 
ATOM     21  H   LIG d   1       7.745  -0.329  -4.248  0.00  0.00     0.063 H 
ATOM     22  C   LIG d   1       5.114   0.375  -2.251  0.00  0.00     0.117 A 
ATOM     23  H   LIG d   1       6.670   1.569  -3.118  0.00  0.00     0.065 H 
ATOM     24  C   LIG d   1       4.577  -0.900  -2.119  0.00  0.00    -0.019 A 
ATOM     25  C   LIG d   1       5.175  -1.970  -2.747  0.00  0.00    -0.044 A 
ATOM     26  H   LIG d   1       3.690  -1.054  -1.523  0.00  0.00     0.065 H 
ATOM     27  H   LIG d   1       4.758  -2.960  -2.644  0.00  0.00     0.063 H 
BRANCH  22  28
ATOM     28  O   LIG d   1       4.521   1.426  -1.630  0.00  0.00    -0.507 OA
ATOM     29  H   LIG d   1       3.988   1.180  -0.862  0.00  0.00     0.292 HD
ENDBRANCH  22  28
ENDBRANCH  16  18
ENDBRANCH  15  16
ENDBRANCH  12  15
ENDBRANCH   1  12
BRANCH   3  30
ATOM     30  O   LIG d   1      10.825  -4.391  -2.512  0.00  0.00    -0.386 OA
ATOM     31  H   LIG d   1      11.501  -3.897  -2.996  0.00  0.00     0.210 HD
ENDBRANCH   3  30
BRANCH   9  32
ATOM     32  O   LIG d   1       8.133  -9.005  -3.974  0.00  0.00    -0.461 OA
BRANCH  32  33
ATOM     33  C   LIG d   1       6.859  -9.403  -3.713  0.00  0.00     0.124 A 
ATOM     34  C   LIG d   1       6.586 -10.149  -2.576  0.00  0.00    -0.016 A 
ATOM     35  C   LIG d   1       5.291 -10.549  -2.307  0.00  0.00    -0.017 A 
ATOM     36  H   LIG d   1       7.384 -10.415  -1.899  0.00  0.00     0.066 H 
ATOM     37  C   LIG d   1       4.266 -10.212  -3.179  0.00  0.00     0.117 A 
ATOM     38  H   LIG d   1       5.077 -11.126  -1.420  0.00  0.00     0.066 H 
ATOM     39  C   LIG d   1       4.540  -9.470  -4.318  0.00  0.00    -0.017 A 
ATOM     40  C   LIG d   1       5.835  -9.067  -4.584  0.00  0.00    -0.016 A 
ATOM     41  H   LIG d   1       3.743  -9.208  -4.998  0.00  0.00     0.066 H 
ATOM     42  H   LIG d   1       6.049  -8.489  -5.472  0.00  0.00     0.066 H 
BRANCH  37  43
ATOM     43  O   LIG d   1       2.992 -10.610  -2.917  0.00  0.00    -0.507 OA
ATOM     44  H   LIG d   1       2.880 -11.030  -2.054  0.00  0.00     0.292 HD
ENDBRANCH  37  43
ENDBRANCH  32  33
ENDBRANCH   9  32
BRANCH   5  45
ATOM     45  O   LIG d   1      11.942  -6.936  -1.834  0.00  0.00    -0.386 OA
ATOM     46  H   LIG d   1      12.519  -7.118  -2.588  0.00  0.00     0.210 HD
ENDBRANCH   5  45
BRANCH   7  47
ATOM     47  O   LIG d   1      10.120  -9.140  -1.934  0.00  0.00    -0.383 OA
ATOM     48  H   LIG d   1      10.602  -8.938  -1.121  0.00  0.00     0.210 HD
ENDBRANCH   7  47
TORSDOF 11
ENDMDL
MODEL 10
REMARK VINA RESULT:      -6.2      1.423      8.428
REMARK  11 active torsions:
REMARK  status: ('A' for Active; 'I' for Inactive)
REMARK    1  A    between atoms: C_3  and  O_33 
REMARK    2  A    between atoms: C_6  and  C_7 
REMARK    3  A    between atoms: C_7  and  O_9 
REMARK    4  A    between atoms: O_9  and  C_10 
REMARK    5  A    between atoms: C_10  and  C_11 
REMARK    6  A    between atoms: C_13  and  O_32 
REMARK    7  A    between atoms: C_15  and  O_31 
REMARK    8  A    between atoms: C_17  and  O_30 
REMARK    9  A    between atoms: C_19  and  O_22 
REMARK   10  A    between atoms: O_22  and  C_23 
REMARK   11  A    between atoms: C_26  and  O_29 
ROOT
ATOM      1  C   LIG d   1      10.190   3.592  -2.708  0.00  0.00     0.125 C 
ATOM      2  H   LIG d   1      10.241   3.063  -1.756  0.00  0.00     0.066 H 
ATOM      3  C   LIG d   1      11.424   3.251  -3.548  0.00  0.00     0.113 C 
ATOM      4  H   LIG d   1      11.394   3.810  -4.482  0.00  0.00     0.065 H 
ATOM      5  C   LIG d   1      11.426   1.749  -3.850  0.00  0.00     0.115 C 
ATOM      6  H   LIG d   1      11.506   1.189  -2.917  0.00  0.00     0.065 H 
ATOM      7  C   LIG d   1      10.120   1.379  -4.558  0.00  0.00     0.145 C 
ATOM      8  H   LIG d   1      10.064   1.901  -5.515  0.00  0.00     0.068 H 
ATOM      9  C   LIG d   1       8.936   1.794  -3.680  0.00  0.00     0.231 C 
ATOM     10  H   LIG d   1       8.971   1.241  -2.741  0.00  0.00     0.108 H 
ATOM     11  O   LIG d   1       9.012   3.196  -3.411  0.00  0.00    -0.330 OA
ENDROOT
BRANCH   1  12
ATOM     12  C   LIG d   1      10.148   5.100  -2.453  0.00  0.00     0.121 C 
ATOM     13  H   LIG d   1      10.782   5.341  -1.599  0.00  0.00     0.072 H 
ATOM     14  H   LIG d   1       9.123   5.404  -2.241  0.00  0.00     0.072 H 
BRANCH  12  15
ATOM     15  O   LIG d   1      10.622   5.793  -3.609  0.00  0.00    -0.459 OA
BRANCH  15  16
ATOM     16  C   LIG d   1      10.103   7.014  -3.845  0.00  0.00     0.339 C 
ATOM     17  O   LIG d   1       9.849   7.757  -2.917  0.00  0.00    -0.245 OA
BRANCH  16  18
ATOM     18  C   LIG d   1       9.843   7.449  -5.230  0.00  0.00     0.059 A 
ATOM     19  C   LIG d   1       9.833   6.514  -6.269  0.00  0.00    -0.044 A 
ATOM     20  C   LIG d   1       9.589   6.925  -7.559  0.00  0.00    -0.019 A 
ATOM     21  H   LIG d   1      10.014   5.470  -6.058  0.00  0.00     0.063 H 
ATOM     22  C   LIG d   1       9.351   8.266  -7.831  0.00  0.00     0.117 A 
ATOM     23  H   LIG d   1       9.582   6.202  -8.362  0.00  0.00     0.065 H 
ATOM     24  C   LIG d   1       9.359   9.200  -6.802  0.00  0.00    -0.019 A 
ATOM     25  C   LIG d   1       9.603   8.798  -5.507  0.00  0.00    -0.044 A 
ATOM     26  H   LIG d   1       9.173  10.242  -7.016  0.00  0.00     0.065 H 
ATOM     27  H   LIG d   1       9.610   9.524  -4.708  0.00  0.00     0.063 H 
BRANCH  22  28
ATOM     28  O   LIG d   1       9.109   8.667  -9.105  0.00  0.00    -0.507 OA
ATOM     29  H   LIG d   1       9.030   9.625  -9.208  0.00  0.00     0.292 HD
ENDBRANCH  22  28
ENDBRANCH  16  18
ENDBRANCH  15  16
ENDBRANCH  12  15
ENDBRANCH   1  12
BRANCH   3  30
ATOM     30  O   LIG d   1      12.606   3.595  -2.822  0.00  0.00    -0.386 OA
ATOM     31  H   LIG d   1      13.419   3.230  -3.198  0.00  0.00     0.210 HD
ENDBRANCH   3  30
BRANCH   9  32
ATOM     32  O   LIG d   1       7.714   1.503  -4.359  0.00  0.00    -0.461 OA
BRANCH  32  33
ATOM     33  C   LIG d   1       6.826   0.699  -3.715  0.00  0.00     0.124 A 
ATOM     34  C   LIG d   1       6.941  -0.680  -3.815  0.00  0.00    -0.016 A 
ATOM     35  C   LIG d   1       6.042  -1.497  -3.156  0.00  0.00    -0.017 A 
ATOM     36  H   LIG d   1       7.734  -1.115  -4.405  0.00  0.00     0.066 H 
ATOM     37  C   LIG d   1       5.019  -0.938  -2.403  0.00  0.00     0.117 A 
ATOM     38  H   LIG d   1       6.133  -2.570  -3.230  0.00  0.00     0.066 H 
ATOM     39  C   LIG d   1       4.903   0.441  -2.307  0.00  0.00    -0.017 A 
ATOM     40  C   LIG d   1       5.804   1.257  -2.963  0.00  0.00    -0.016 A 
ATOM     41  H   LIG d   1       4.107   0.876  -1.721  0.00  0.00     0.066 H 
ATOM     42  H   LIG d   1       5.713   2.331  -2.888  0.00  0.00     0.066 H 
BRANCH  37  43
ATOM     43  O   LIG d   1       4.133  -1.742  -1.759  0.00  0.00    -0.507 OA
ATOM     44  H   LIG d   1       3.627  -1.295  -1.067  0.00  0.00     0.292 HD
ENDBRANCH  37  43
ENDBRANCH  32  33
ENDBRANCH   9  32
BRANCH   5  45
ATOM     45  O   LIG d   1      12.536   1.432  -4.693  0.00  0.00    -0.386 OA
ATOM     46  H   LIG d   1      12.389   0.668  -5.266  0.00  0.00     0.210 HD
ENDBRANCH   5  45
BRANCH   7  47
ATOM     47  O   LIG d   1      10.079  -0.031  -4.782  0.00  0.00    -0.383 OA
ATOM     48  H   LIG d   1       9.927  -0.553  -3.982  0.00  0.00     0.210 HD
ENDBRANCH   7  47
TORSDOF 11
ENDMDL
