MODEL 1
REMARK VINA RESULT:      -5.9      0.000      0.000
REMARK  5 active torsions:
REMARK  status: ('A' for Active; 'I' for Inactive)
REMARK    1  A    between atoms: C_1  and  C_2 
REMARK    2  A    between atoms: C_3  and  C_20 
REMARK    3  A    between atoms: C_9  and  C_18 
REMARK    4  A    between atoms: C_10  and  C_17 
REMARK    5  A    between atoms: C_13  and  N_16 
ROOT
ATOM      1  C   LIG d   1       3.785  -1.058  -3.593  0.00  0.00     0.048 A 
ATOM      2  C   LIG d   1       4.906  -0.371  -3.090  0.00  0.00     0.019 A 
ATOM      3  C   LIG d   1       6.176  -0.915  -3.227  0.00  0.00    -0.042 A 
ATOM      4  C   LIG d   1       6.293  -2.160  -3.880  0.00  0.00     0.004 A 
ATOM      5  C   LIG d   1       7.537  -2.767  -4.054  0.00  0.00    -0.043 A 
ATOM      6  C   LIG d   1       7.619  -3.998  -4.703  0.00  0.00     0.004 A 
ATOM      7  C   LIG d   1       8.862  -4.636  -4.895  0.00  0.00    -0.042 A 
ATOM      8  C   LIG d   1       8.870  -5.860  -5.550  0.00  0.00     0.019 A 
ATOM      9  C   LIG d   1       7.662  -6.428  -5.999  0.00  0.00     0.048 A 
ATOM     10  N   LIG d   1       6.509  -5.841  -5.825  0.00  0.00    -0.249 NA
ATOM     11  C   LIG d   1       6.408  -4.657  -5.202  0.00  0.00     0.094 A 
ATOM     12  C   LIG d   1       5.160  -4.045  -5.032  0.00  0.00     0.077 A 
ATOM     13  C   LIG d   1       5.074  -2.810  -4.375  0.00  0.00     0.094 A 
ATOM     14  N   LIG d   1       3.887  -2.211  -4.198  0.00  0.00    -0.249 NA
ATOM     15  H   LIG d   1       7.046  -0.402  -2.847  0.00  0.00     0.063 H 
ATOM     16  H   LIG d   1       8.431  -2.284  -3.688  0.00  0.00     0.063 H 
ATOM     17  H   LIG d   1       9.779  -4.187  -4.545  0.00  0.00     0.063 H 
ENDROOT
BRANCH   1  18
ATOM     18  C   LIG d   1       2.420  -0.442  -3.427  0.00  0.00    -0.022 C 
ATOM     19  H   LIG d   1       2.209   0.209  -4.277  0.00  0.00     0.029 H 
ATOM     20  H   LIG d   1       1.668  -1.230  -3.377  0.00  0.00     0.029 H 
ATOM     21  H   LIG d   1       2.395   0.143  -2.508  0.00  0.00     0.029 H 
ENDBRANCH   1  18
BRANCH   2  22
ATOM     22  C   LIG d   1       4.731   0.929  -2.415  0.00  0.00     0.073 C 
ATOM     23  O   LIG d   1       4.783   0.996  -1.202  0.00  0.00    -0.545 OA
ATOM     24  O   LIG d   1       4.513   2.043  -3.141  0.00  0.00    -0.545 OA
ENDBRANCH   2  22
BRANCH  12  25
ATOM     25  N   LIG d   1       4.006  -4.664  -5.508  0.00  0.00    -0.355 N 
ATOM     26  H   LIG d   1       3.307  -4.133  -5.919  0.00  0.00     0.142 HD
ATOM     27  H   LIG d   1       3.904  -5.624  -5.428  0.00  0.00     0.142 HD
ENDBRANCH  12  25
BRANCH   9  28
ATOM     28  C   LIG d   1       7.702  -7.758  -6.706  0.00  0.00    -0.022 C 
ATOM     29  H   LIG d   1       6.685  -8.095  -6.903  0.00  0.00     0.029 H 
ATOM     30  H   LIG d   1       8.239  -7.652  -7.649  0.00  0.00     0.029 H 
ATOM     31  H   LIG d   1       8.211  -8.488  -6.077  0.00  0.00     0.029 H 
ENDBRANCH   9  28
BRANCH   8  32
ATOM     32  C   LIG d   1      10.145  -6.568  -5.775  0.00  0.00     0.073 C 
ATOM     33  O   LIG d   1      10.799  -6.340  -6.772  0.00  0.00    -0.545 OA
ATOM     34  O   LIG d   1      10.583  -7.469  -4.873  0.00  0.00    -0.545 OA
ENDBRANCH   8  32
TORSDOF 5
ENDMDL
MODEL 2
REMARK VINA RESULT:      -5.9      0.165      7.224
REMARK  5 active torsions:
REMARK  status: ('A' for Active; 'I' for Inactive)
REMARK    1  A    between atoms: C_1  and  C_2 
REMARK    2  A    between atoms: C_3  and  C_20 
REMARK    3  A    between atoms: C_9  and  C_18 
REMARK    4  A    between atoms: C_10  and  C_17 
REMARK    5  A    between atoms: C_13  and  N_16 
ROOT
ATOM      1  C   LIG d   1       7.822  -6.364  -5.861  0.00  0.00     0.048 A 
ATOM      2  C   LIG d   1       9.013  -5.754  -5.424  0.00  0.00     0.019 A 
ATOM      3  C   LIG d   1       8.972  -4.517  -4.794  0.00  0.00    -0.042 A 
ATOM      4  C   LIG d   1       7.710  -3.911  -4.614  0.00  0.00     0.004 A 
ATOM      5  C   LIG d   1       7.593  -2.669  -3.990  0.00  0.00    -0.043 A 
ATOM      6  C   LIG d   1       6.332  -2.096  -3.827  0.00  0.00     0.004 A 
ATOM      7  C   LIG d   1       6.179  -0.842  -3.199  0.00  0.00    -0.042 A 
ATOM      8  C   LIG d   1       4.895  -0.332  -3.070  0.00  0.00     0.019 A 
ATOM      9  C   LIG d   1       3.794  -1.060  -3.558  0.00  0.00     0.048 A 
ATOM     10  N   LIG d   1       3.929  -2.221  -4.140  0.00  0.00    -0.249 NA
ATOM     11  C   LIG d   1       5.133  -2.790  -4.307  0.00  0.00     0.094 A 
ATOM     12  C   LIG d   1       5.252  -4.039  -4.929  0.00  0.00     0.077 A 
ATOM     13  C   LIG d   1       6.519  -4.614  -5.099  0.00  0.00     0.094 A 
ATOM     14  N   LIG d   1       6.653  -5.808  -5.697  0.00  0.00    -0.249 NA
ATOM     15  H   LIG d   1       9.875  -4.034  -4.454  0.00  0.00     0.063 H 
ATOM     16  H   LIG d   1       8.474  -2.155  -3.634  0.00  0.00     0.063 H 
ATOM     17  H   LIG d   1       7.035  -0.296  -2.829  0.00  0.00     0.063 H 
ENDROOT
BRANCH   1  18
ATOM     18  C   LIG d   1       7.901  -7.706  -6.542  0.00  0.00    -0.022 C 
ATOM     19  H   LIG d   1       8.640  -8.328  -6.036  0.00  0.00     0.029 H 
ATOM     20  H   LIG d   1       6.926  -8.193  -6.500  0.00  0.00     0.029 H 
ATOM     21  H   LIG d   1       8.194  -7.568  -7.583  0.00  0.00     0.029 H 
ENDBRANCH   1  18
BRANCH   2  22
ATOM     22  C   LIG d   1      10.308  -6.428  -5.636  0.00  0.00     0.073 C 
ATOM     23  O   LIG d   1      10.957  -6.197  -6.637  0.00  0.00    -0.545 OA
ATOM     24  O   LIG d   1      10.771  -7.302  -4.721  0.00  0.00    -0.545 OA
ENDBRANCH   2  22
BRANCH  12  25
ATOM     25  N   LIG d   1       4.116  -4.705  -5.383  0.00  0.00    -0.355 N 
ATOM     26  H   LIG d   1       3.942  -4.772  -6.334  0.00  0.00     0.142 HD
ATOM     27  H   LIG d   1       3.500  -5.101  -4.748  0.00  0.00     0.142 HD
ENDBRANCH  12  25
BRANCH   9  28
ATOM     28  C   LIG d   1       2.412  -0.480  -3.404  0.00  0.00    -0.022 C 
ATOM     29  H   LIG d   1       2.254  -0.189  -2.366  0.00  0.00     0.029 H 
ATOM     30  H   LIG d   1       2.311   0.395  -4.047  0.00  0.00     0.029 H 
ATOM     31  H   LIG d   1       1.671  -1.228  -3.689  0.00  0.00     0.029 H 
ENDBRANCH   9  28
BRANCH   8  32
ATOM     32  C   LIG d   1       4.683   0.976  -2.421  0.00  0.00     0.073 C 
ATOM     33  O   LIG d   1       4.764   1.076  -1.213  0.00  0.00    -0.545 OA
ATOM     34  O   LIG d   1       4.399   2.061  -3.169  0.00  0.00    -0.545 OA
ENDBRANCH   8  32
TORSDOF 5
ENDMDL
MODEL 3
REMARK VINA RESULT:      -5.9      2.534      7.364
REMARK  5 active torsions:
REMARK  status: ('A' for Active; 'I' for Inactive)
REMARK    1  A    between atoms: C_1  and  C_2 
REMARK    2  A    between atoms: C_3  and  C_20 
REMARK    3  A    between atoms: C_9  and  C_18 
REMARK    4  A    between atoms: C_10  and  C_17 
REMARK    5  A    between atoms: C_13  and  N_16 
ROOT
ATOM      1  C   LIG d   1       6.618  -6.371  -6.510  0.00  0.00     0.048 A 
ATOM      2  C   LIG d   1       5.323  -6.642  -6.031  0.00  0.00     0.019 A 
ATOM      3  C   LIG d   1       4.627  -5.675  -5.317  0.00  0.00    -0.042 A 
ATOM      4  C   LIG d   1       5.261  -4.434  -5.098  0.00  0.00     0.004 A 
ATOM      5  C   LIG d   1       4.623  -3.416  -4.389  0.00  0.00    -0.043 A 
ATOM      6  C   LIG d   1       5.277  -2.201  -4.189  0.00  0.00     0.004 A 
ATOM      7  C   LIG d   1       4.658  -1.152  -3.478  0.00  0.00    -0.042 A 
ATOM      8  C   LIG d   1       5.367   0.031  -3.317  0.00  0.00     0.019 A 
ATOM      9  C   LIG d   1       6.661   0.156  -3.855  0.00  0.00     0.048 A 
ATOM     10  N   LIG d   1       7.239  -0.811  -4.515  0.00  0.00    -0.249 NA
ATOM     11  C   LIG d   1       6.628  -1.988  -4.718  0.00  0.00     0.094 A 
ATOM     12  C   LIG d   1       7.266  -3.009  -5.434  0.00  0.00     0.077 A 
ATOM     13  C   LIG d   1       6.613  -4.233  -5.631  0.00  0.00     0.094 A 
ATOM     14  N   LIG d   1       7.210  -5.225  -6.310  0.00  0.00    -0.249 NA
ATOM     15  H   LIG d   1       3.634  -5.867  -4.942  0.00  0.00     0.063 H 
ATOM     16  H   LIG d   1       3.628  -3.569  -3.999  0.00  0.00     0.063 H 
ATOM     17  H   LIG d   1       3.664  -1.264  -3.072  0.00  0.00     0.063 H 
ENDROOT
BRANCH   1  18
ATOM     18  C   LIG d   1       7.347  -7.442  -7.280  0.00  0.00    -0.022 C 
ATOM     19  H   LIG d   1       8.393  -7.156  -7.399  0.00  0.00     0.029 H 
ATOM     20  H   LIG d   1       7.288  -8.385  -6.737  0.00  0.00     0.029 H 
ATOM     21  H   LIG d   1       6.889  -7.558  -8.263  0.00  0.00     0.029 H 
ENDBRANCH   1  18
BRANCH   2  22
ATOM     22  C   LIG d   1       4.703  -7.956  -6.286  0.00  0.00     0.073 C 
ATOM     23  O   LIG d   1       4.870  -8.870  -5.502  0.00  0.00    -0.545 OA
ATOM     24  O   LIG d   1       3.951  -8.145  -7.389  0.00  0.00    -0.545 OA
ENDBRANCH   2  22
BRANCH  12  25
ATOM     25  N   LIG d   1       8.547  -2.811  -5.943  0.00  0.00    -0.355 N 
ATOM     26  H   LIG d   1       9.241  -3.466  -5.775  0.00  0.00     0.142 HD
ATOM     27  H   LIG d   1       8.744  -2.018  -6.464  0.00  0.00     0.142 HD
ENDBRANCH  12  25
BRANCH   9  28
ATOM     28  C   LIG d   1       7.406   1.452  -3.664  0.00  0.00    -0.022 C 
ATOM     29  H   LIG d   1       7.019   1.967  -2.785  0.00  0.00     0.029 H 
ATOM     30  H   LIG d   1       8.468   1.244  -3.526  0.00  0.00     0.029 H 
ATOM     31  H   LIG d   1       7.271   2.082  -4.543  0.00  0.00     0.029 H 
ENDBRANCH   9  28
BRANCH   8  32
ATOM     32  C   LIG d   1       4.763   1.158  -2.580  0.00  0.00     0.073 C 
ATOM     33  O   LIG d   1       4.880   1.227  -1.373  0.00  0.00    -0.545 OA
ATOM     34  O   LIG d   1       4.082   2.111  -3.247  0.00  0.00    -0.545 OA
ENDBRANCH   8  32
TORSDOF 5
ENDMDL
MODEL 4
REMARK VINA RESULT:      -5.9      2.512      3.333
REMARK  5 active torsions:
REMARK  status: ('A' for Active; 'I' for Inactive)
REMARK    1  A    between atoms: C_1  and  C_2 
REMARK    2  A    between atoms: C_3  and  C_20 
REMARK    3  A    between atoms: C_9  and  C_18 
REMARK    4  A    between atoms: C_10  and  C_17 
REMARK    5  A    between atoms: C_13  and  N_16 
ROOT
ATOM      1  C   LIG d   1       6.628   0.118  -3.792  0.00  0.00     0.048 A 
ATOM      2  C   LIG d   1       5.321  -0.006  -3.282  0.00  0.00     0.019 A 
ATOM      3  C   LIG d   1       4.611  -1.186  -3.463  0.00  0.00    -0.042 A 
ATOM      4  C   LIG d   1       5.243  -2.234  -4.164  0.00  0.00     0.004 A 
ATOM      5  C   LIG d   1       4.590  -3.447  -4.384  0.00  0.00    -0.043 A 
ATOM      6  C   LIG d   1       5.241  -4.464  -5.082  0.00  0.00     0.004 A 
ATOM      7  C   LIG d   1       4.609  -5.703  -5.318  0.00  0.00    -0.042 A 
ATOM      8  C   LIG d   1       5.316  -6.670  -6.019  0.00  0.00     0.019 A 
ATOM      9  C   LIG d   1       6.622  -6.401  -6.470  0.00  0.00     0.048 A 
ATOM     10  N   LIG d   1       7.212  -5.257  -6.253  0.00  0.00    -0.249 NA
ATOM     11  C   LIG d   1       6.604  -4.265  -5.585  0.00  0.00     0.094 A 
ATOM     12  C   LIG d   1       7.260  -3.049  -5.359  0.00  0.00     0.077 A 
ATOM     13  C   LIG d   1       6.605  -2.023  -4.663  0.00  0.00     0.094 A 
ATOM     14  N   LIG d   1       7.216  -0.849  -4.443  0.00  0.00    -0.249 NA
ATOM     15  H   LIG d   1       3.609  -1.297  -3.079  0.00  0.00     0.063 H 
ATOM     16  H   LIG d   1       3.586  -3.598  -4.014  0.00  0.00     0.063 H 
ATOM     17  H   LIG d   1       3.606  -5.893  -4.965  0.00  0.00     0.063 H 
ENDROOT
BRANCH   1  18
ATOM     18  C   LIG d   1       7.371   1.411  -3.581  0.00  0.00    -0.022 C 
ATOM     19  H   LIG d   1       7.025   2.151  -4.303  0.00  0.00     0.029 H 
ATOM     20  H   LIG d   1       7.187   1.775  -2.570  0.00  0.00     0.029 H 
ATOM     21  H   LIG d   1       8.439   1.242  -3.718  0.00  0.00     0.029 H 
ENDBRANCH   1  18
BRANCH   2  22
ATOM     22  C   LIG d   1       4.705   1.120  -2.555  0.00  0.00     0.073 C 
ATOM     23  O   LIG d   1       4.851   1.220  -1.353  0.00  0.00    -0.545 OA
ATOM     24  O   LIG d   1       3.977   2.037  -3.223  0.00  0.00    -0.545 OA
ENDBRANCH   2  22
BRANCH  12  25
ATOM     25  N   LIG d   1       8.557  -2.856  -5.831  0.00  0.00    -0.355 N 
ATOM     26  H   LIG d   1       8.713  -2.282  -6.596  0.00  0.00     0.142 HD
ATOM     27  H   LIG d   1       9.302  -3.296  -5.393  0.00  0.00     0.142 HD
ENDBRANCH  12  25
BRANCH   9  28
ATOM     28  C   LIG d   1       7.364  -7.470  -7.228  0.00  0.00    -0.022 C 
ATOM     29  H   LIG d   1       7.395  -8.383  -6.633  0.00  0.00     0.029 H 
ATOM     30  H   LIG d   1       6.854  -7.668  -8.171  0.00  0.00     0.029 H 
ATOM     31  H   LIG d   1       8.382  -7.134  -7.429  0.00  0.00     0.029 H 
ENDBRANCH   9  28
BRANCH   8  32
ATOM     32  C   LIG d   1       4.698  -7.982  -6.293  0.00  0.00     0.073 C 
ATOM     33  O   LIG d   1       3.990  -8.128  -7.269  0.00  0.00    -0.545 OA
ATOM     34  O   LIG d   1       4.919  -9.018  -5.460  0.00  0.00    -0.545 OA
ENDBRANCH   8  32
TORSDOF 5
ENDMDL
MODEL 5
REMARK VINA RESULT:      -5.5     11.120     14.311
REMARK  5 active torsions:
REMARK  status: ('A' for Active; 'I' for Inactive)
REMARK    1  A    between atoms: C_1  and  C_2 
REMARK    2  A    between atoms: C_3  and  C_20 
REMARK    3  A    between atoms: C_9  and  C_18 
REMARK    4  A    between atoms: C_10  and  C_17 
REMARK    5  A    between atoms: C_13  and  N_16 
ROOT
ATOM      1  C   LIG d   1      10.995   7.934  -2.621  0.00  0.00     0.048 A 
ATOM      2  C   LIG d   1      10.544   6.602  -2.575  0.00  0.00     0.019 A 
ATOM      3  C   LIG d   1      10.442   5.942  -1.358  0.00  0.00    -0.042 A 
ATOM      4  C   LIG d   1      10.802   6.650  -0.191  0.00  0.00     0.004 A 
ATOM      5  C   LIG d   1      10.725   6.051   1.066  0.00  0.00    -0.043 A 
ATOM      6  C   LIG d   1      11.089   6.778   2.199  0.00  0.00     0.004 A 
ATOM      7  C   LIG d   1      11.021   6.201   3.484  0.00  0.00    -0.042 A 
ATOM      8  C   LIG d   1      11.398   6.982   4.568  0.00  0.00     0.019 A 
ATOM      9  C   LIG d   1      11.831   8.306   4.366  0.00  0.00     0.048 A 
ATOM     10  N   LIG d   1      11.895   8.846   3.180  0.00  0.00    -0.249 NA
ATOM     11  C   LIG d   1      11.551   8.164   2.076  0.00  0.00     0.094 A 
ATOM     12  C   LIG d   1      11.623   8.766   0.814  0.00  0.00     0.077 A 
ATOM     13  C   LIG d   1      11.263   8.036  -0.327  0.00  0.00     0.094 A 
ATOM     14  N   LIG d   1      11.330   8.594  -1.545  0.00  0.00    -0.249 NA
ATOM     15  H   LIG d   1      10.098   4.920  -1.304  0.00  0.00     0.063 H 
ATOM     16  H   LIG d   1      10.385   5.031   1.160  0.00  0.00     0.063 H 
ATOM     17  H   LIG d   1      10.686   5.184   3.622  0.00  0.00     0.063 H 
ENDROOT
BRANCH   1  18
ATOM     18  C   LIG d   1      11.096   8.622  -3.957  0.00  0.00    -0.022 C 
ATOM     19  H   LIG d   1      10.545   9.562  -3.925  0.00  0.00     0.029 H 
ATOM     20  H   LIG d   1      12.143   8.822  -4.186  0.00  0.00     0.029 H 
ATOM     21  H   LIG d   1      10.672   7.979  -4.729  0.00  0.00     0.029 H 
ENDBRANCH   1  18
BRANCH   2  22
ATOM     22  C   LIG d   1      10.179   5.904  -3.823  0.00  0.00     0.073 C 
ATOM     23  O   LIG d   1      10.954   5.116  -4.327  0.00  0.00    -0.545 OA
ATOM     24  O   LIG d   1       8.987   6.142  -4.404  0.00  0.00    -0.545 OA
ENDBRANCH   2  22
BRANCH  12  25
ATOM     25  N   LIG d   1      12.056  10.084   0.691  0.00  0.00    -0.355 N 
ATOM     26  H   LIG d   1      12.851  10.286   0.174  0.00  0.00     0.142 HD
ATOM     27  H   LIG d   1      11.563  10.799   1.123  0.00  0.00     0.142 HD
ENDBRANCH  12  25
BRANCH   9  28
ATOM     28  C   LIG d   1      12.234   9.130   5.562  0.00  0.00    -0.022 C 
ATOM     29  H   LIG d   1      12.525   8.467   6.378  0.00  0.00     0.029 H 
ATOM     30  H   LIG d   1      13.076   9.769   5.296  0.00  0.00     0.029 H 
ATOM     31  H   LIG d   1      11.394   9.748   5.878  0.00  0.00     0.029 H 
ENDBRANCH   9  28
BRANCH   8  32
ATOM     32  C   LIG d   1      11.345   6.424   5.933  0.00  0.00     0.073 C 
ATOM     33  O   LIG d   1      12.224   5.680   6.320  0.00  0.00    -0.545 OA
ATOM     34  O   LIG d   1      10.322   6.741   6.752  0.00  0.00    -0.545 OA
ENDBRANCH   8  32
TORSDOF 5
ENDMDL
MODEL 6
REMARK VINA RESULT:      -5.4      7.131      9.498
REMARK  5 active torsions:
REMARK  status: ('A' for Active; 'I' for Inactive)
REMARK    1  A    between atoms: C_1  and  C_2 
REMARK    2  A    between atoms: C_3  and  C_20 
REMARK    3  A    between atoms: C_9  and  C_18 
REMARK    4  A    between atoms: C_10  and  C_17 
REMARK    5  A    between atoms: C_13  and  N_16 
ROOT
ATOM      1  C   LIG d   1      11.499  -9.335  -0.542  0.00  0.00     0.048 A 
ATOM      2  C   LIG d   1      10.944 -10.153   0.460  0.00  0.00     0.019 A 
ATOM      3  C   LIG d   1       9.625 -10.576   0.363  0.00  0.00    -0.042 A 
ATOM      4  C   LIG d   1       8.880 -10.160  -0.761  0.00  0.00     0.004 A 
ATOM      5  C   LIG d   1       7.550 -10.547  -0.924  0.00  0.00    -0.043 A 
ATOM      6  C   LIG d   1       6.840 -10.118  -2.045  0.00  0.00     0.004 A 
ATOM      7  C   LIG d   1       5.494 -10.493  -2.239  0.00  0.00    -0.042 A 
ATOM      8  C   LIG d   1       4.849 -10.031  -3.378  0.00  0.00     0.019 A 
ATOM      9  C   LIG d   1       5.537  -9.214  -4.296  0.00  0.00     0.048 A 
ATOM     10  N   LIG d   1       6.782  -8.865  -4.122  0.00  0.00    -0.249 NA
ATOM     11  C   LIG d   1       7.483  -9.265  -3.050  0.00  0.00     0.094 A 
ATOM     12  C   LIG d   1       8.820  -8.883  -2.887  0.00  0.00     0.077 A 
ATOM     13  C   LIG d   1       9.534  -9.307  -1.758  0.00  0.00     0.094 A 
ATOM     14  N   LIG d   1      10.814  -8.946  -1.583  0.00  0.00    -0.249 NA
ATOM     15  H   LIG d   1       9.184 -11.204   1.122  0.00  0.00     0.063 H 
ATOM     16  H   LIG d   1       7.074 -11.175  -0.186  0.00  0.00     0.063 H 
ATOM     17  H   LIG d   1       4.981 -11.120  -1.525  0.00  0.00     0.063 H 
ENDROOT
BRANCH   1  18
ATOM     18  C   LIG d   1      12.933  -8.891  -0.407  0.00  0.00    -0.022 C 
ATOM     19  H   LIG d   1      13.512  -9.677   0.078  0.00  0.00     0.029 H 
ATOM     20  H   LIG d   1      13.347  -8.692  -1.396  0.00  0.00     0.029 H 
ATOM     21  H   LIG d   1      12.976  -7.983   0.195  0.00  0.00     0.029 H 
ENDBRANCH   1  18
BRANCH   2  22
ATOM     22  C   LIG d   1      11.765 -10.562   1.616  0.00  0.00     0.073 C 
ATOM     23  O   LIG d   1      12.404 -11.594   1.573  0.00  0.00    -0.545 OA
ATOM     24  O   LIG d   1      11.805  -9.791   2.721  0.00  0.00    -0.545 OA
ENDBRANCH   2  22
BRANCH  12  25
ATOM     25  N   LIG d   1       9.438  -8.077  -3.841  0.00  0.00    -0.355 N 
ATOM     26  H   LIG d   1       8.940  -7.361  -4.265  0.00  0.00     0.142 HD
ATOM     27  H   LIG d   1      10.364  -8.233  -4.081  0.00  0.00     0.142 HD
ENDBRANCH  12  25
BRANCH   9  28
ATOM     28  C   LIG d   1       4.810  -8.727  -5.523  0.00  0.00    -0.022 C 
ATOM     29  H   LIG d   1       3.900  -8.207  -5.223  0.00  0.00     0.029 H 
ATOM     30  H   LIG d   1       5.453  -8.045  -6.079  0.00  0.00     0.029 H 
ATOM     31  H   LIG d   1       4.550  -9.578  -6.153  0.00  0.00     0.029 H 
ENDBRANCH   9  28
BRANCH   8  32
ATOM     32  C   LIG d   1       3.441 -10.394  -3.627  0.00  0.00     0.073 C 
ATOM     33  O   LIG d   1       3.174 -11.338  -4.343  0.00  0.00    -0.545 OA
ATOM     34  O   LIG d   1       2.450  -9.678  -3.058  0.00  0.00    -0.545 OA
ENDBRANCH   8  32
TORSDOF 5
ENDMDL
MODEL 7
REMARK VINA RESULT:      -5.3     10.057     14.016
REMARK  5 active torsions:
REMARK  status: ('A' for Active; 'I' for Inactive)
REMARK    1  A    between atoms: C_1  and  C_2 
REMARK    2  A    between atoms: C_3  and  C_20 
REMARK    3  A    between atoms: C_9  and  C_18 
REMARK    4  A    between atoms: C_10  and  C_17 
REMARK    5  A    between atoms: C_13  and  N_16 
ROOT
ATOM      1  C   LIG d   1       9.890   5.174  -4.510  0.00  0.00     0.048 A 
ATOM      2  C   LIG d   1       9.878   4.492  -3.278  0.00  0.00     0.019 A 
ATOM      3  C   LIG d   1       9.975   5.201  -2.088  0.00  0.00    -0.042 A 
ATOM      4  C   LIG d   1      10.082   6.606  -2.164  0.00  0.00     0.004 A 
ATOM      5  C   LIG d   1      10.183   7.382  -1.010  0.00  0.00    -0.043 A 
ATOM      6  C   LIG d   1      10.288   8.769  -1.119  0.00  0.00     0.004 A 
ATOM      7  C   LIG d   1      10.390   9.581   0.030  0.00  0.00    -0.042 A 
ATOM      8  C   LIG d   1      10.491  10.954  -0.152  0.00  0.00     0.019 A 
ATOM      9  C   LIG d   1      10.491  11.494  -1.452  0.00  0.00     0.048 A 
ATOM     10  N   LIG d   1      10.396  10.747  -2.518  0.00  0.00    -0.249 NA
ATOM     11  C   LIG d   1      10.294   9.412  -2.436  0.00  0.00     0.094 A 
ATOM     12  C   LIG d   1      10.188   8.632  -3.594  0.00  0.00     0.077 A 
ATOM     13  C   LIG d   1      10.087   7.238  -3.487  0.00  0.00     0.094 A 
ATOM     14  N   LIG d   1       9.990   6.474  -4.586  0.00  0.00    -0.249 NA
ATOM     15  H   LIG d   1       9.968   4.694  -1.136  0.00  0.00     0.063 H 
ATOM     16  H   LIG d   1      10.178   6.911  -0.038  0.00  0.00     0.063 H 
ATOM     17  H   LIG d   1      10.389   9.150   1.020  0.00  0.00     0.063 H 
ENDROOT
BRANCH   1  18
ATOM     18  C   LIG d   1       9.785   4.376  -5.783  0.00  0.00    -0.022 C 
ATOM     19  H   LIG d   1       8.914   3.723  -5.732  0.00  0.00     0.029 H 
ATOM     20  H   LIG d   1       9.682   5.055  -6.631  0.00  0.00     0.029 H 
ATOM     21  H   LIG d   1      10.685   3.773  -5.909  0.00  0.00     0.029 H 
ENDBRANCH   1  18
BRANCH   2  22
ATOM     22  C   LIG d   1       9.764   3.021  -3.251  0.00  0.00     0.073 C 
ATOM     23  O   LIG d   1      10.762   2.336  -3.147  0.00  0.00    -0.545 OA
ATOM     24  O   LIG d   1       8.553   2.437  -3.344  0.00  0.00    -0.545 OA
ENDBRANCH   2  22
BRANCH  12  25
ATOM     25  N   LIG d   1      10.188   9.238  -4.848  0.00  0.00    -0.355 N 
ATOM     26  H   LIG d   1      10.911   9.833  -5.098  0.00  0.00     0.142 HD
ATOM     27  H   LIG d   1       9.465   9.064  -5.470  0.00  0.00     0.142 HD
ENDBRANCH  12  25
BRANCH   9  28
ATOM     28  C   LIG d   1      10.602  12.988  -1.618  0.00  0.00    -0.022 C 
ATOM     29  H   LIG d   1      10.459  13.248  -2.667  0.00  0.00     0.029 H 
ATOM     30  H   LIG d   1       9.839  13.479  -1.014  0.00  0.00     0.029 H 
ATOM     31  H   LIG d   1      11.590  13.317  -1.295  0.00  0.00     0.029 H 
ENDBRANCH   9  28
BRANCH   8  32
ATOM     32  C   LIG d   1      10.601  11.847   1.017  0.00  0.00     0.073 C 
ATOM     33  O   LIG d   1      11.649  11.922   1.628  0.00  0.00    -0.545 OA
ATOM     34  O   LIG d   1       9.539  12.579   1.407  0.00  0.00    -0.545 OA
ENDBRANCH   8  32
TORSDOF 5
ENDMDL
MODEL 8
REMARK VINA RESULT:      -5.3     10.132     12.577
REMARK  5 active torsions:
REMARK  status: ('A' for Active; 'I' for Inactive)
REMARK    1  A    between atoms: C_1  and  C_2 
REMARK    2  A    between atoms: C_3  and  C_20 
REMARK    3  A    between atoms: C_9  and  C_18 
REMARK    4  A    between atoms: C_10  and  C_17 
REMARK    5  A    between atoms: C_13  and  N_16 
ROOT
ATOM      1  C   LIG d   1      10.558  11.565  -1.447  0.00  0.00     0.048 A 
ATOM      2  C   LIG d   1      10.541  11.031  -0.144  0.00  0.00     0.019 A 
ATOM      3  C   LIG d   1      10.424   9.661   0.046  0.00  0.00    -0.042 A 
ATOM      4  C   LIG d   1      10.326   8.842  -1.100  0.00  0.00     0.004 A 
ATOM      5  C   LIG d   1      10.206   7.457  -0.985  0.00  0.00    -0.043 A 
ATOM      6  C   LIG d   1      10.111   6.676  -2.137  0.00  0.00     0.004 A 
ATOM      7  C   LIG d   1       9.990   5.273  -2.054  0.00  0.00    -0.042 A 
ATOM      8  C   LIG d   1       9.900   4.558  -3.240  0.00  0.00     0.019 A 
ATOM      9  C   LIG d   1       9.930   5.233  -4.475  0.00  0.00     0.048 A 
ATOM     10  N   LIG d   1      10.042   6.531  -4.557  0.00  0.00    -0.249 NA
ATOM     11  C   LIG d   1      10.135   7.301  -3.463  0.00  0.00     0.094 A 
ATOM     12  C   LIG d   1      10.260   8.691  -3.576  0.00  0.00     0.077 A 
ATOM     13  C   LIG d   1      10.351   9.479  -2.420  0.00  0.00     0.094 A 
ATOM     14  N   LIG d   1      10.466  10.813  -2.510  0.00  0.00    -0.249 NA
ATOM     15  H   LIG d   1      10.410   9.234   1.037  0.00  0.00     0.063 H 
ATOM     16  H   LIG d   1      10.189   6.994  -0.010  0.00  0.00     0.063 H 
ATOM     17  H   LIG d   1       9.969   4.770  -1.098  0.00  0.00     0.063 H 
ENDROOT
BRANCH   1  18
ATOM     18  C   LIG d   1      10.684  13.056  -1.619  0.00  0.00    -0.022 C 
ATOM     19  H   LIG d   1       9.791  13.442  -2.113  0.00  0.00     0.029 H 
ATOM     20  H   LIG d   1      10.792  13.528  -0.642  0.00  0.00     0.029 H 
ATOM     21  H   LIG d   1      11.560  13.278  -2.229  0.00  0.00     0.029 H 
ENDBRANCH   1  18
BRANCH   2  22
ATOM     22  C   LIG d   1      10.647  11.929   1.022  0.00  0.00     0.073 C 
ATOM     23  O   LIG d   1      11.688  11.997   1.644  0.00  0.00    -0.545 OA
ATOM     24  O   LIG d   1       9.588  12.673   1.398  0.00  0.00    -0.545 OA
ENDBRANCH   2  22
BRANCH  12  25
ATOM     25  N   LIG d   1      10.289   9.290  -4.834  0.00  0.00    -0.355 N 
ATOM     26  H   LIG d   1      10.232  10.255  -4.911  0.00  0.00     0.142 HD
ATOM     27  H   LIG d   1      10.365   8.742  -5.630  0.00  0.00     0.142 HD
ENDBRANCH  12  25
BRANCH   9  28
ATOM     28  C   LIG d   1       9.829   4.430  -5.746  0.00  0.00    -0.022 C 
ATOM     29  H   LIG d   1      10.629   3.690  -5.772  0.00  0.00     0.029 H 
ATOM     30  H   LIG d   1       8.865   3.924  -5.781  0.00  0.00     0.029 H 
ATOM     31  H   LIG d   1       9.923   5.095  -6.604  0.00  0.00     0.029 H 
ENDBRANCH   9  28
BRANCH   8  32
ATOM     32  C   LIG d   1       9.771   3.088  -3.207  0.00  0.00     0.073 C 
ATOM     33  O   LIG d   1      10.754   2.396  -3.037  0.00  0.00    -0.545 OA
ATOM     34  O   LIG d   1       8.562   2.514  -3.367  0.00  0.00    -0.545 OA
ENDBRANCH   8  32
TORSDOF 5
ENDMDL
MODEL 9
REMARK VINA RESULT:      -5.3     10.374     13.859
REMARK  5 active torsions:
REMARK  status: ('A' for Active; 'I' for Inactive)
REMARK    1  A    between atoms: C_1  and  C_2 
REMARK    2  A    between atoms: C_3  and  C_20 
REMARK    3  A    between atoms: C_9  and  C_18 
REMARK    4  A    between atoms: C_10  and  C_17 
REMARK    5  A    between atoms: C_13  and  N_16 
ROOT
ATOM      1  C   LIG d   1       9.707   4.780  -4.169  0.00  0.00     0.048 A 
ATOM      2  C   LIG d   1       9.758   4.453  -5.538  0.00  0.00     0.019 A 
ATOM      3  C   LIG d   1       9.813   5.458  -6.493  0.00  0.00    -0.042 A 
ATOM      4  C   LIG d   1       9.816   6.796  -6.044  0.00  0.00     0.004 A 
ATOM      5  C   LIG d   1       9.869   7.857  -6.947  0.00  0.00    -0.043 A 
ATOM      6  C   LIG d   1       9.870   9.168  -6.471  0.00  0.00     0.004 A 
ATOM      7  C   LIG d   1       9.924  10.263  -7.359  0.00  0.00    -0.042 A 
ATOM      8  C   LIG d   1       9.923  11.540  -6.816  0.00  0.00     0.019 A 
ATOM      9  C   LIG d   1       9.867  11.713  -5.420  0.00  0.00     0.048 A 
ATOM     10  N   LIG d   1       9.817  10.704  -4.594  0.00  0.00    -0.249 NA
ATOM     11  C   LIG d   1       9.815   9.435  -5.030  0.00  0.00     0.094 A 
ATOM     12  C   LIG d   1       9.766   8.368  -4.124  0.00  0.00     0.077 A 
ATOM     13  C   LIG d   1       9.760   7.050  -4.601  0.00  0.00     0.094 A 
ATOM     14  N   LIG d   1       9.708   6.016  -3.748  0.00  0.00    -0.249 NA
ATOM     15  H   LIG d   1       9.852   5.225  -7.546  0.00  0.00     0.063 H 
ATOM     16  H   LIG d   1       9.910   7.664  -8.009  0.00  0.00     0.063 H 
ATOM     17  H   LIG d   1       9.967  10.113  -8.428  0.00  0.00     0.063 H 
ENDROOT
BRANCH   1  18
ATOM     18  C   LIG d   1       9.646   3.666  -3.157  0.00  0.00    -0.022 C 
ATOM     19  H   LIG d   1       8.938   3.928  -2.370  0.00  0.00     0.029 H 
ATOM     20  H   LIG d   1       9.323   2.747  -3.646  0.00  0.00     0.029 H 
ATOM     21  H   LIG d   1      10.635   3.518  -2.721  0.00  0.00     0.029 H 
ENDBRANCH   1  18
BRANCH   2  22
ATOM     22  C   LIG d   1       9.753   3.038  -5.957  0.00  0.00     0.073 C 
ATOM     23  O   LIG d   1      10.802   2.445  -6.108  0.00  0.00    -0.545 OA
ATOM     24  O   LIG d   1       8.584   2.403  -6.175  0.00  0.00    -0.545 OA
ENDBRANCH   2  22
BRANCH  12  25
ATOM     25  N   LIG d   1       9.719   8.616  -2.755  0.00  0.00    -0.355 N 
ATOM     26  H   LIG d   1       9.955   7.916  -2.128  0.00  0.00     0.142 HD
ATOM     27  H   LIG d   1       9.449   9.489  -2.429  0.00  0.00     0.142 HD
ENDBRANCH  12  25
BRANCH   9  28
ATOM     28  C   LIG d   1       9.866  13.112  -4.860  0.00  0.00    -0.022 C 
ATOM     29  H   LIG d   1      10.838  13.326  -4.416  0.00  0.00     0.029 H 
ATOM     30  H   LIG d   1       9.667  13.824  -5.661  0.00  0.00     0.029 H 
ATOM     31  H   LIG d   1       9.092  13.197  -4.097  0.00  0.00     0.029 H 
ENDBRANCH   9  28
BRANCH   8  32
ATOM     32  C   LIG d   1       9.977  12.719  -7.703  0.00  0.00     0.073 C 
ATOM     33  O   LIG d   1       8.951  13.202  -8.135  0.00  0.00    -0.545 OA
ATOM     34  O   LIG d   1      11.168  13.258  -8.033  0.00  0.00    -0.545 OA
ENDBRANCH   8  32
TORSDOF 5
ENDMDL
MODEL 10
REMARK VINA RESULT:      -5.2      8.710     12.577
REMARK  5 active torsions:
REMARK  status: ('A' for Active; 'I' for Inactive)
REMARK    1  A    between atoms: C_1  and  C_2 
REMARK    2  A    between atoms: C_3  and  C_20 
REMARK    3  A    between atoms: C_9  and  C_18 
REMARK    4  A    between atoms: C_10  and  C_17 
REMARK    5  A    between atoms: C_13  and  N_16 
ROOT
ATOM      1  C   LIG d   1      10.153   2.828  -3.949  0.00  0.00     0.048 A 
ATOM      2  C   LIG d   1       9.496   3.585  -4.938  0.00  0.00     0.019 A 
ATOM      3  C   LIG d   1       9.291   4.945  -4.753  0.00  0.00    -0.042 A 
ATOM      4  C   LIG d   1       9.760   5.526  -3.555  0.00  0.00     0.004 A 
ATOM      5  C   LIG d   1       9.588   6.886  -3.301  0.00  0.00    -0.043 A 
ATOM      6  C   LIG d   1      10.062   7.430  -2.107  0.00  0.00     0.004 A 
ATOM      7  C   LIG d   1       9.906   8.802  -1.821  0.00  0.00    -0.042 A 
ATOM      8  C   LIG d   1      10.402   9.275  -0.615  0.00  0.00     0.019 A 
ATOM      9  C   LIG d   1      11.038   8.394   0.280  0.00  0.00     0.048 A 
ATOM     10  N   LIG d   1      11.187   7.124   0.021  0.00  0.00    -0.249 NA
ATOM     11  C   LIG d   1      10.738   6.580  -1.121  0.00  0.00     0.094 A 
ATOM     12  C   LIG d   1      10.914   5.215  -1.380  0.00  0.00     0.077 A 
ATOM     13  C   LIG d   1      10.433   4.666  -2.576  0.00  0.00     0.094 A 
ATOM     14  N   LIG d   1      10.588   3.360  -2.839  0.00  0.00    -0.249 NA
ATOM     15  H   LIG d   1       8.789   5.540  -5.500  0.00  0.00     0.063 H 
ATOM     16  H   LIG d   1       9.091   7.515  -4.025  0.00  0.00     0.063 H 
ATOM     17  H   LIG d   1       9.415   9.464  -2.519  0.00  0.00     0.063 H 
ENDROOT
BRANCH   1  18
ATOM     18  C   LIG d   1      10.359   1.353  -4.180  0.00  0.00    -0.022 C 
ATOM     19  H   LIG d   1       9.598   0.983  -4.867  0.00  0.00     0.029 H 
ATOM     20  H   LIG d   1      11.348   1.187  -4.608  0.00  0.00     0.029 H 
ATOM     21  H   LIG d   1      10.280   0.823  -3.231  0.00  0.00     0.029 H 
ENDBRANCH   1  18
BRANCH   2  22
ATOM     22  C   LIG d   1       9.025   2.931  -6.174  0.00  0.00     0.073 C 
ATOM     23  O   LIG d   1       9.636   3.082  -7.213  0.00  0.00    -0.545 OA
ATOM     24  O   LIG d   1       7.914   2.168  -6.152  0.00  0.00    -0.545 OA
ENDBRANCH   2  22
BRANCH  12  25
ATOM     25  N   LIG d   1      11.559   4.405  -0.449  0.00  0.00    -0.355 N 
ATOM     26  H   LIG d   1      11.149   4.237   0.413  0.00  0.00     0.142 HD
ATOM     27  H   LIG d   1      12.418   4.010  -0.664  0.00  0.00     0.142 HD
ENDBRANCH  12  25
BRANCH   9  28
ATOM     28  C   LIG d   1      11.567   8.937   1.583  0.00  0.00    -0.022 C 
ATOM     29  H   LIG d   1      11.235   9.968   1.708  0.00  0.00     0.029 H 
ATOM     30  H   LIG d   1      11.192   8.331   2.408  0.00  0.00     0.029 H 
ATOM     31  H   LIG d   1      12.657   8.905   1.574  0.00  0.00     0.029 H 
ENDBRANCH   9  28
BRANCH   8  32
ATOM     32  C   LIG d   1      10.262  10.703  -0.268  0.00  0.00     0.073 C 
ATOM     33  O   LIG d   1       9.377  11.062   0.482  0.00  0.00    -0.545 OA
ATOM     34  O   LIG d   1      11.117  11.608  -0.784  0.00  0.00    -0.545 OA
ENDBRANCH   8  32
TORSDOF 5
ENDMDL
