MODEL 1
REMARK VINA RESULT:      -6.1      0.000      0.000
REMARK  7 active torsions:
REMARK  status: ('A' for Active; 'I' for Inactive)
REMARK    1  A    between atoms: C_1  and  C_2 
REMARK    2  A    between atoms: C_3  and  O_23 
REMARK    3  A    between atoms: C_10  and  C_11 
REMARK    4  A    between atoms: C_15  and  O_19 
REMARK    5  A    between atoms: C_16  and  O_17 
REMARK    6  A    between atoms: O_17  and  C_18 
REMARK    7  A    between atoms: O_19  and  C_20 
ROOT
ATOM      1  C   LIG d   1       3.213  -2.398  -9.379  0.00  0.00     0.034 A 
ATOM      2  C   LIG d   1       2.996  -2.311 -10.745  0.00  0.00     0.123 A 
ATOM      3  C   LIG d   1       2.692  -1.088 -11.338  0.00  0.00    -0.019 A 
ATOM      4  C   LIG d   1       2.603   0.041 -10.573  0.00  0.00    -0.044 A 
ATOM      5  C   LIG d   1       2.819  -0.031  -9.197  0.00  0.00     0.068 A 
ATOM      6  C   LIG d   1       3.127  -1.258  -8.589  0.00  0.00     0.146 A 
ATOM      7  O   LIG d   1       3.291  -1.079  -7.260  0.00  0.00    -0.451 OA
ATOM      8  C   LIG d   1       3.113   0.215  -6.900  0.00  0.00     0.176 A 
ATOM      9  C   LIG d   1       3.209   0.719  -5.644  0.00  0.00    -0.005 C 
ATOM     10  C   LIG d   1       2.793   0.973  -8.118  0.00  0.00     0.232 A 
ATOM     11  O   LIG d   1       2.559   2.165  -8.215  0.00  0.00    -0.283 OA
ATOM     12  H   LIG d   1       2.524  -1.033 -12.403  0.00  0.00     0.065 H 
ATOM     13  H   LIG d   1       2.366   0.989 -11.035  0.00  0.00     0.063 H 
ATOM     14  H   LIG d   1       2.930   1.764  -5.448  0.00  0.00     0.066 H 
ENDROOT
BRANCH   9  15
ATOM     15  C   LIG d   1       3.686  -0.131  -4.547  0.00  0.00     0.024 A 
ATOM     16  C   LIG d   1       5.063  -0.292  -4.325  0.00  0.00     0.169 A 
ATOM     17  C   LIG d   1       5.502  -1.100  -3.283  0.00  0.00     0.162 A 
ATOM     18  C   LIG d   1       4.583  -1.741  -2.469  0.00  0.00    -0.016 A 
ATOM     19  C   LIG d   1       3.223  -1.585  -2.687  0.00  0.00    -0.058 A 
ATOM     20  H   LIG d   1       4.928  -2.368  -1.660  0.00  0.00     0.066 H 
ATOM     21  C   LIG d   1       2.771  -0.788  -3.714  0.00  0.00    -0.051 A 
ATOM     22  H   LIG d   1       2.515  -2.094  -2.049  0.00  0.00     0.062 H 
ATOM     23  H   LIG d   1       1.710  -0.671  -3.880  0.00  0.00     0.062 H 
BRANCH  16  24
ATOM     24  O   LIG d   1       5.961   0.340  -5.124  0.00  0.00    -0.491 OA
BRANCH  24  25
ATOM     25  C   LIG d   1       6.534  -0.424  -6.188  0.00  0.00     0.079 C 
ATOM     26  H   LIG d   1       6.512   0.166  -7.116  0.00  0.00     0.066 H 
ATOM     27  H   LIG d   1       5.955  -1.349  -6.328  0.00  0.00     0.066 H 
ATOM     28  H   LIG d   1       7.575  -0.677  -5.938  0.00  0.00     0.066 H 
ENDBRANCH  24  25
ENDBRANCH  16  24
BRANCH  17  29
ATOM     29  O   LIG d   1       6.835  -1.259  -3.062  0.00  0.00    -0.491 OA
BRANCH  29  30
ATOM     30  C   LIG d   1       7.408  -2.514  -3.437  0.00  0.00     0.079 C 
ATOM     31  H   LIG d   1       7.284  -3.234  -2.615  0.00  0.00     0.066 H 
ATOM     32  H   LIG d   1       8.478  -2.379  -3.648  0.00  0.00     0.066 H 
ATOM     33  H   LIG d   1       6.901  -2.894  -4.336  0.00  0.00     0.066 H 
ENDBRANCH  29  30
ENDBRANCH  17  29
ENDBRANCH   9  15
BRANCH   1  34
ATOM     34  C   LIG d   1       3.543  -3.727  -8.751  0.00  0.00    -0.033 C 
ATOM     35  H   LIG d   1       3.902  -4.420  -9.527  0.00  0.00     0.028 H 
ATOM     36  H   LIG d   1       2.642  -4.142  -8.276  0.00  0.00     0.028 H 
ATOM     37  H   LIG d   1       4.327  -3.590  -7.992  0.00  0.00     0.028 H 
ENDBRANCH   1  34
BRANCH   2  38
ATOM     38  O   LIG d   1       3.081  -3.427 -11.512  0.00  0.00    -0.506 OA
ATOM     39  H   LIG d   1       2.212  -3.760 -12.098  0.00  0.00     0.292 HD
ENDBRANCH   2  38
TORSDOF 7
ENDMDL
MODEL 2
REMARK VINA RESULT:      -6.1      1.487      6.571
REMARK  7 active torsions:
REMARK  status: ('A' for Active; 'I' for Inactive)
REMARK    1  A    between atoms: C_1  and  C_2 
REMARK    2  A    between atoms: C_3  and  O_23 
REMARK    3  A    between atoms: C_10  and  C_11 
REMARK    4  A    between atoms: C_15  and  O_19 
REMARK    5  A    between atoms: C_16  and  O_17 
REMARK    6  A    between atoms: O_17  and  C_18 
REMARK    7  A    between atoms: O_19  and  C_20 
ROOT
ATOM      1  C   LIG d   1       6.351  -1.037  -4.667  0.00  0.00     0.034 A 
ATOM      2  C   LIG d   1       6.606  -1.512  -3.391  0.00  0.00     0.123 A 
ATOM      3  C   LIG d   1       5.586  -1.587  -2.446  0.00  0.00    -0.019 A 
ATOM      4  C   LIG d   1       4.319  -1.189  -2.771  0.00  0.00    -0.044 A 
ATOM      5  C   LIG d   1       4.048  -0.707  -4.052  0.00  0.00     0.068 A 
ATOM      6  C   LIG d   1       5.069  -0.628  -5.013  0.00  0.00     0.146 A 
ATOM      7  O   LIG d   1       4.569  -0.135  -6.167  0.00  0.00    -0.451 OA
ATOM      8  C   LIG d   1       3.246   0.137  -6.068  0.00  0.00     0.176 A 
ATOM      9  C   LIG d   1       2.455   0.640  -7.050  0.00  0.00    -0.005 C 
ATOM     10  C   LIG d   1       2.824  -0.206  -4.703  0.00  0.00     0.232 A 
ATOM     11  O   LIG d   1       1.712  -0.101  -4.218  0.00  0.00    -0.283 OA
ATOM     12  H   LIG d   1       5.796  -1.958  -1.455  0.00  0.00     0.065 H 
ATOM     13  H   LIG d   1       3.530  -1.247  -2.037  0.00  0.00     0.063 H 
ATOM     14  H   LIG d   1       1.420   0.933  -6.825  0.00  0.00     0.066 H 
ENDROOT
BRANCH   9  15
ATOM     15  C   LIG d   1       2.982   0.792  -8.411  0.00  0.00     0.024 A 
ATOM     16  C   LIG d   1       3.038  -0.314  -9.274  0.00  0.00     0.169 A 
ATOM     17  C   LIG d   1       3.539  -0.157 -10.561  0.00  0.00     0.162 A 
ATOM     18  C   LIG d   1       3.979   1.085 -10.987  0.00  0.00    -0.016 A 
ATOM     19  C   LIG d   1       3.926   2.178 -10.136  0.00  0.00    -0.058 A 
ATOM     20  H   LIG d   1       4.367   1.203 -11.988  0.00  0.00     0.066 H 
ATOM     21  C   LIG d   1       3.432   2.041  -8.858  0.00  0.00    -0.051 A 
ATOM     22  H   LIG d   1       4.276   3.142 -10.476  0.00  0.00     0.062 H 
ATOM     23  H   LIG d   1       3.393   2.896  -8.200  0.00  0.00     0.062 H 
BRANCH  16  24
ATOM     24  O   LIG d   1       2.604  -1.531  -8.853  0.00  0.00    -0.491 OA
BRANCH  24  25
ATOM     25  C   LIG d   1       3.603  -2.502  -8.537  0.00  0.00     0.079 C 
ATOM     26  H   LIG d   1       4.600  -2.043  -8.616  0.00  0.00     0.066 H 
ATOM     27  H   LIG d   1       3.532  -3.345  -9.241  0.00  0.00     0.066 H 
ATOM     28  H   LIG d   1       3.448  -2.868  -7.511  0.00  0.00     0.066 H 
ENDBRANCH  24  25
ENDBRANCH  16  24
BRANCH  17  29
ATOM     29  O   LIG d   1       3.596  -1.224 -11.402  0.00  0.00    -0.491 OA
BRANCH  29  30
ATOM     30  C   LIG d   1       2.749  -1.188 -12.554  0.00  0.00     0.079 C 
ATOM     31  H   LIG d   1       3.083  -1.946 -13.278  0.00  0.00     0.066 H 
ATOM     32  H   LIG d   1       2.802  -0.192 -13.016  0.00  0.00     0.066 H 
ATOM     33  H   LIG d   1       1.713  -1.400 -12.253  0.00  0.00     0.066 H 
ENDBRANCH  29  30
ENDBRANCH  17  29
ENDBRANCH   9  15
BRANCH   1  34
ATOM     34  C   LIG d   1       7.464  -0.962  -5.680  0.00  0.00    -0.033 C 
ATOM     35  H   LIG d   1       7.156  -0.317  -6.516  0.00  0.00     0.028 H 
ATOM     36  H   LIG d   1       7.685  -1.972  -6.057  0.00  0.00     0.028 H 
ATOM     37  H   LIG d   1       8.364  -0.543  -5.206  0.00  0.00     0.028 H 
ENDBRANCH   1  34
BRANCH   2  38
ATOM     38  O   LIG d   1       7.860  -1.909  -3.059  0.00  0.00    -0.506 OA
ATOM     39  H   LIG d   1       8.378  -1.442  -2.208  0.00  0.00     0.292 HD
ENDBRANCH   2  38
TORSDOF 7
ENDMDL
MODEL 3
REMARK VINA RESULT:      -5.4      2.010      6.328
REMARK  7 active torsions:
REMARK  status: ('A' for Active; 'I' for Inactive)
REMARK    1  A    between atoms: C_1  and  C_2 
REMARK    2  A    between atoms: C_3  and  O_23 
REMARK    3  A    between atoms: C_10  and  C_11 
REMARK    4  A    between atoms: C_15  and  O_19 
REMARK    5  A    between atoms: C_16  and  O_17 
REMARK    6  A    between atoms: O_17  and  C_18 
REMARK    7  A    between atoms: O_19  and  C_20 
ROOT
ATOM      1  C   LIG d   1       5.724  -2.540  -5.882  0.00  0.00     0.034 A 
ATOM      2  C   LIG d   1       6.200  -2.740  -4.597  0.00  0.00     0.123 A 
ATOM      3  C   LIG d   1       5.755  -1.944  -3.544  0.00  0.00    -0.019 A 
ATOM      4  C   LIG d   1       4.841  -0.954  -3.772  0.00  0.00    -0.044 A 
ATOM      5  C   LIG d   1       4.353  -0.741  -5.061  0.00  0.00     0.068 A 
ATOM      6  C   LIG d   1       4.794  -1.537  -6.129  0.00  0.00     0.146 A 
ATOM      7  O   LIG d   1       4.186  -1.146  -7.270  0.00  0.00    -0.451 OA
ATOM      8  C   LIG d   1       3.336  -0.112  -7.059  0.00  0.00     0.176 A 
ATOM      9  C   LIG d   1       2.577   0.507  -7.999  0.00  0.00    -0.005 C 
ATOM     10  C   LIG d   1       3.391   0.221  -5.629  0.00  0.00     0.232 A 
ATOM     11  O   LIG d   1       2.778   1.096  -5.043  0.00  0.00    -0.283 OA
ATOM     12  H   LIG d   1       6.134  -2.109  -2.547  0.00  0.00     0.065 H 
ATOM     13  H   LIG d   1       4.497  -0.338  -2.954  0.00  0.00     0.063 H 
ATOM     14  H   LIG d   1       2.011   1.413  -7.738  0.00  0.00     0.066 H 
ENDROOT
BRANCH   9  15
ATOM     15  C   LIG d   1       2.511  -0.033  -9.361  0.00  0.00     0.024 A 
ATOM     16  C   LIG d   1       3.467   0.345 -10.317  0.00  0.00     0.169 A 
ATOM     17  C   LIG d   1       3.393  -0.174 -11.605  0.00  0.00     0.162 A 
ATOM     18  C   LIG d   1       2.382  -1.059 -11.939  0.00  0.00    -0.016 A 
ATOM     19  C   LIG d   1       1.437  -1.432 -10.997  0.00  0.00    -0.058 A 
ATOM     20  H   LIG d   1       2.329  -1.460 -12.940  0.00  0.00     0.066 H 
ATOM     21  C   LIG d   1       1.494  -0.929  -9.716  0.00  0.00    -0.051 A 
ATOM     22  H   LIG d   1       0.649  -2.120 -11.269  0.00  0.00     0.062 H 
ATOM     23  H   LIG d   1       0.755  -1.223  -8.987  0.00  0.00     0.062 H 
BRANCH  16  24
ATOM     24  O   LIG d   1       4.459   1.212  -9.986  0.00  0.00    -0.491 OA
BRANCH  24  25
ATOM     25  C   LIG d   1       5.758   0.658  -9.766  0.00  0.00     0.079 C 
ATOM     26  H   LIG d   1       6.475   1.119 -10.461  0.00  0.00     0.066 H 
ATOM     27  H   LIG d   1       5.727  -0.428  -9.938  0.00  0.00     0.066 H 
ATOM     28  H   LIG d   1       6.071   0.857  -8.731  0.00  0.00     0.066 H 
ENDBRANCH  24  25
ENDBRANCH  16  24
BRANCH  17  29
ATOM     29  O   LIG d   1       4.316   0.188 -12.536  0.00  0.00    -0.491 OA
BRANCH  29  30
ATOM     30  C   LIG d   1       4.468  -0.674 -13.667  0.00  0.00     0.079 C 
ATOM     31  H   LIG d   1       4.063  -0.179 -14.562  0.00  0.00     0.066 H 
ATOM     32  H   LIG d   1       3.923  -1.612 -13.489  0.00  0.00     0.066 H 
ATOM     33  H   LIG d   1       5.535  -0.893 -13.820  0.00  0.00     0.066 H 
ENDBRANCH  29  30
ENDBRANCH  17  29
ENDBRANCH   9  15
BRANCH   1  34
ATOM     34  C   LIG d   1       6.213  -3.409  -7.012  0.00  0.00    -0.033 C 
ATOM     35  H   LIG d   1       5.450  -3.444  -7.803  0.00  0.00     0.028 H 
ATOM     36  H   LIG d   1       6.402  -4.426  -6.637  0.00  0.00     0.028 H 
ATOM     37  H   LIG d   1       7.145  -2.990  -7.419  0.00  0.00     0.028 H 
ENDBRANCH   1  34
BRANCH   2  38
ATOM     38  O   LIG d   1       7.109  -3.720  -4.361  0.00  0.00    -0.506 OA
ATOM     39  H   LIG d   1       6.978  -4.397  -3.503  0.00  0.00     0.292 HD
ENDBRANCH   2  38
TORSDOF 7
ENDMDL
MODEL 4
REMARK VINA RESULT:      -5.4      2.132      3.611
REMARK  7 active torsions:
REMARK  status: ('A' for Active; 'I' for Inactive)
REMARK    1  A    between atoms: C_1  and  C_2 
REMARK    2  A    between atoms: C_3  and  O_23 
REMARK    3  A    between atoms: C_10  and  C_11 
REMARK    4  A    between atoms: C_15  and  O_19 
REMARK    5  A    between atoms: C_16  and  O_17 
REMARK    6  A    between atoms: O_17  and  C_18 
REMARK    7  A    between atoms: O_19  and  C_20 
ROOT
ATOM      1  C   LIG d   1       3.764  -2.268  -9.008  0.00  0.00     0.034 A 
ATOM      2  C   LIG d   1       3.383  -2.863 -10.200  0.00  0.00     0.123 A 
ATOM      3  C   LIG d   1       3.194  -4.240 -10.277  0.00  0.00    -0.019 A 
ATOM      4  C   LIG d   1       3.385  -5.021  -9.171  0.00  0.00    -0.044 A 
ATOM      5  C   LIG d   1       3.769  -4.437  -7.964  0.00  0.00     0.068 A 
ATOM      6  C   LIG d   1       3.962  -3.049  -7.876  0.00  0.00     0.146 A 
ATOM      7  O   LIG d   1       4.329  -2.719  -6.618  0.00  0.00    -0.451 OA
ATOM      8  C   LIG d   1       4.404  -3.807  -5.814  0.00  0.00     0.176 A 
ATOM      9  C   LIG d   1       4.744  -3.811  -4.500  0.00  0.00    -0.005 C 
ATOM     10  C   LIG d   1       4.056  -4.982  -6.625  0.00  0.00     0.232 A 
ATOM     11  O   LIG d   1       4.013  -6.147  -6.270  0.00  0.00    -0.283 OA
ATOM     12  H   LIG d   1       2.898  -4.692 -11.211  0.00  0.00     0.065 H 
ATOM     13  H   LIG d   1       3.239  -6.089  -9.232  0.00  0.00     0.063 H 
ATOM     14  H   LIG d   1       4.888  -4.765  -3.973  0.00  0.00     0.066 H 
ENDROOT
BRANCH   9  15
ATOM     15  C   LIG d   1       4.918  -2.543  -3.783  0.00  0.00     0.024 A 
ATOM     16  C   LIG d   1       6.106  -1.808  -3.927  0.00  0.00     0.169 A 
ATOM     17  C   LIG d   1       6.259  -0.608  -3.243  0.00  0.00     0.162 A 
ATOM     18  C   LIG d   1       5.243  -0.143  -2.424  0.00  0.00    -0.016 A 
ATOM     19  C   LIG d   1       4.070  -0.867  -2.280  0.00  0.00    -0.058 A 
ATOM     20  H   LIG d   1       5.365   0.791  -1.895  0.00  0.00     0.066 H 
ATOM     21  C   LIG d   1       3.901  -2.057  -2.951  0.00  0.00    -0.051 A 
ATOM     22  H   LIG d   1       3.286  -0.497  -1.636  0.00  0.00     0.062 H 
ATOM     23  H   LIG d   1       2.986  -2.618  -2.834  0.00  0.00     0.062 H 
BRANCH  16  24
ATOM     24  O   LIG d   1       7.099  -2.267  -4.732  0.00  0.00    -0.491 OA
BRANCH  24  25
ATOM     25  C   LIG d   1       8.116  -3.062  -4.118  0.00  0.00     0.079 C 
ATOM     26  H   LIG d   1       7.808  -4.117  -4.118  0.00  0.00     0.066 H 
ATOM     27  H   LIG d   1       8.270  -2.725  -3.082  0.00  0.00     0.066 H 
ATOM     28  H   LIG d   1       9.056  -2.954  -4.681  0.00  0.00     0.066 H 
ENDBRANCH  24  25
ENDBRANCH  16  24
BRANCH  17  29
ATOM     29  O   LIG d   1       7.407   0.109  -3.378  0.00  0.00    -0.491 OA
BRANCH  29  30
ATOM     30  C   LIG d   1       7.274   1.473  -3.785  0.00  0.00     0.079 C 
ATOM     31  H   LIG d   1       6.553   1.983  -3.130  0.00  0.00     0.066 H 
ATOM     32  H   LIG d   1       6.917   1.512  -4.824  0.00  0.00     0.066 H 
ATOM     33  H   LIG d   1       8.252   1.973  -3.714  0.00  0.00     0.066 H 
ENDBRANCH  29  30
ENDBRANCH  17  29
ENDBRANCH   9  15
BRANCH   1  34
ATOM     34  C   LIG d   1       3.964  -0.776  -8.940  0.00  0.00    -0.033 C 
ATOM     35  H   LIG d   1       3.102  -0.270  -9.401  0.00  0.00     0.028 H 
ATOM     36  H   LIG d   1       4.882  -0.504  -9.481  0.00  0.00     0.028 H 
ATOM     37  H   LIG d   1       4.052  -0.466  -7.889  0.00  0.00     0.028 H 
ENDBRANCH   1  34
BRANCH   2  38
ATOM     38  O   LIG d   1       3.191  -2.096 -11.303  0.00  0.00    -0.506 OA
ATOM     39  H   LIG d   1       4.035  -1.544 -11.744  0.00  0.00     0.292 HD
ENDBRANCH   2  38
TORSDOF 7
ENDMDL
MODEL 5
REMARK VINA RESULT:      -5.4      2.132      6.719
REMARK  7 active torsions:
REMARK  status: ('A' for Active; 'I' for Inactive)
REMARK    1  A    between atoms: C_1  and  C_2 
REMARK    2  A    between atoms: C_3  and  O_23 
REMARK    3  A    between atoms: C_10  and  C_11 
REMARK    4  A    between atoms: C_15  and  O_19 
REMARK    5  A    between atoms: C_16  and  O_17 
REMARK    6  A    between atoms: O_17  and  C_18 
REMARK    7  A    between atoms: O_19  and  C_20 
ROOT
ATOM      1  C   LIG d   1       3.470   0.186  -3.992  0.00  0.00     0.034 A 
ATOM      2  C   LIG d   1       3.752   0.413  -2.655  0.00  0.00     0.123 A 
ATOM      3  C   LIG d   1       4.630  -0.419  -1.964  0.00  0.00    -0.019 A 
ATOM      4  C   LIG d   1       5.222  -1.473  -2.602  0.00  0.00    -0.044 A 
ATOM      5  C   LIG d   1       4.947  -1.714  -3.948  0.00  0.00     0.068 A 
ATOM      6  C   LIG d   1       4.065  -0.882  -4.655  0.00  0.00     0.146 A 
ATOM      7  O   LIG d   1       3.957  -1.311  -5.931  0.00  0.00    -0.451 OA
ATOM      8  C   LIG d   1       4.721  -2.405  -6.160  0.00  0.00     0.176 A 
ATOM      9  C   LIG d   1       4.833  -3.074  -7.337  0.00  0.00    -0.005 C 
ATOM     10  C   LIG d   1       5.403  -2.741  -4.902  0.00  0.00     0.232 A 
ATOM     11  O   LIG d   1       6.173  -3.662  -4.694  0.00  0.00    -0.283 OA
ATOM     12  H   LIG d   1       4.841  -0.232  -0.922  0.00  0.00     0.065 H 
ATOM     13  H   LIG d   1       5.901  -2.118  -2.065  0.00  0.00     0.063 H 
ATOM     14  H   LIG d   1       5.391  -4.020  -7.380  0.00  0.00     0.066 H 
ENDROOT
BRANCH   9  15
ATOM     15  C   LIG d   1       4.210  -2.532  -8.550  0.00  0.00     0.024 A 
ATOM     16  C   LIG d   1       4.752  -1.399  -9.176  0.00  0.00     0.169 A 
ATOM     17  C   LIG d   1       4.153  -0.896 -10.325  0.00  0.00     0.162 A 
ATOM     18  C   LIG d   1       3.027  -1.512 -10.847  0.00  0.00    -0.016 A 
ATOM     19  C   LIG d   1       2.490  -2.631 -10.229  0.00  0.00    -0.058 A 
ATOM     20  H   LIG d   1       2.565  -1.119 -11.740  0.00  0.00     0.066 H 
ATOM     21  C   LIG d   1       3.071  -3.143  -9.090  0.00  0.00    -0.051 A 
ATOM     22  H   LIG d   1       1.609  -3.101 -10.641  0.00  0.00     0.062 H 
ATOM     23  H   LIG d   1       2.647  -4.014  -8.613  0.00  0.00     0.062 H 
BRANCH  16  24
ATOM     24  O   LIG d   1       5.857  -0.798  -8.663  0.00  0.00    -0.491 OA
BRANCH  24  25
ATOM     25  C   LIG d   1       7.119  -1.187  -9.209  0.00  0.00     0.079 C 
ATOM     26  H   LIG d   1       6.964  -1.669 -10.185  0.00  0.00     0.066 H 
ATOM     27  H   LIG d   1       7.613  -1.894  -8.526  0.00  0.00     0.066 H 
ATOM     28  H   LIG d   1       7.754  -0.297  -9.336  0.00  0.00     0.066 H 
ENDBRANCH  24  25
ENDBRANCH  16  24
BRANCH  17  29
ATOM     29  O   LIG d   1       4.673   0.201 -10.938  0.00  0.00    -0.491 OA
BRANCH  29  30
ATOM     30  C   LIG d   1       4.056   1.458 -10.649  0.00  0.00     0.079 C 
ATOM     31  H   LIG d   1       4.756   2.087 -10.080  0.00  0.00     0.066 H 
ATOM     32  H   LIG d   1       3.146   1.292 -10.056  0.00  0.00     0.066 H 
ATOM     33  H   LIG d   1       3.794   1.962 -11.591  0.00  0.00     0.066 H 
ENDBRANCH  29  30
ENDBRANCH  17  29
ENDBRANCH   9  15
BRANCH   1  34
ATOM     34  C   LIG d   1       2.520   1.095  -4.727  0.00  0.00    -0.033 C 
ATOM     35  H   LIG d   1       1.542   0.601  -4.823  0.00  0.00     0.028 H 
ATOM     36  H   LIG d   1       2.922   1.313  -5.728  0.00  0.00     0.028 H 
ATOM     37  H   LIG d   1       2.403   2.033  -4.167  0.00  0.00     0.028 H 
ENDBRANCH   1  34
BRANCH   2  38
ATOM     38  O   LIG d   1       3.169   1.456  -2.012  0.00  0.00    -0.506 OA
ATOM     39  H   LIG d   1       2.072   1.536  -1.975  0.00  0.00     0.292 HD
ENDBRANCH   2  38
TORSDOF 7
ENDMDL
MODEL 6
REMARK VINA RESULT:      -5.4      3.878      6.860
REMARK  7 active torsions:
REMARK  status: ('A' for Active; 'I' for Inactive)
REMARK    1  A    between atoms: C_1  and  C_2 
REMARK    2  A    between atoms: C_3  and  O_23 
REMARK    3  A    between atoms: C_10  and  C_11 
REMARK    4  A    between atoms: C_15  and  O_19 
REMARK    5  A    between atoms: C_16  and  O_17 
REMARK    6  A    between atoms: O_17  and  C_18 
REMARK    7  A    between atoms: O_19  and  C_20 
ROOT
ATOM      1  C   LIG d   1       9.683  -4.642  -3.310  0.00  0.00     0.034 A 
ATOM      2  C   LIG d   1      10.799  -5.357  -3.712  0.00  0.00     0.123 A 
ATOM      3  C   LIG d   1      10.954  -5.742  -5.041  0.00  0.00    -0.019 A 
ATOM      4  C   LIG d   1      10.000  -5.417  -5.965  0.00  0.00    -0.044 A 
ATOM      5  C   LIG d   1       8.870  -4.698  -5.574  0.00  0.00     0.068 A 
ATOM      6  C   LIG d   1       8.704  -4.304  -4.237  0.00  0.00     0.146 A 
ATOM      7  O   LIG d   1       7.543  -3.626  -4.103  0.00  0.00    -0.451 OA
ATOM      8  C   LIG d   1       6.882  -3.522  -5.280  0.00  0.00     0.176 A 
ATOM      9  C   LIG d   1       5.691  -2.902  -5.479  0.00  0.00    -0.005 C 
ATOM     10  C   LIG d   1       7.685  -4.208  -6.302  0.00  0.00     0.232 A 
ATOM     11  O   LIG d   1       7.430  -4.341  -7.486  0.00  0.00    -0.283 OA
ATOM     12  H   LIG d   1      11.828  -6.299  -5.342  0.00  0.00     0.065 H 
ATOM     13  H   LIG d   1      10.121  -5.717  -6.995  0.00  0.00     0.063 H 
ATOM     14  H   LIG d   1       5.187  -2.979  -6.453  0.00  0.00     0.066 H 
ENDROOT
BRANCH   9  15
ATOM     15  C   LIG d   1       5.077  -2.128  -4.394  0.00  0.00     0.024 A 
ATOM     16  C   LIG d   1       5.162  -0.727  -4.390  0.00  0.00     0.169 A 
ATOM     17  C   LIG d   1       4.576  -0.005  -3.357  0.00  0.00     0.162 A 
ATOM     18  C   LIG d   1       3.912  -0.668  -2.338  0.00  0.00    -0.016 A 
ATOM     19  C   LIG d   1       3.827  -2.052  -2.340  0.00  0.00    -0.058 A 
ATOM     20  H   LIG d   1       3.457  -0.104  -1.537  0.00  0.00     0.066 H 
ATOM     21  C   LIG d   1       4.402  -2.782  -3.356  0.00  0.00    -0.051 A 
ATOM     22  H   LIG d   1       3.311  -2.559  -1.538  0.00  0.00     0.062 H 
ATOM     23  H   LIG d   1       4.333  -3.860  -3.351  0.00  0.00     0.062 H 
BRANCH  16  24
ATOM     24  O   LIG d   1       5.813  -0.080  -5.392  0.00  0.00    -0.491 OA
BRANCH  24  25
ATOM     25  C   LIG d   1       7.186   0.248  -5.167  0.00  0.00     0.079 C 
ATOM     26  H   LIG d   1       7.308   0.639  -4.147  0.00  0.00     0.066 H 
ATOM     27  H   LIG d   1       7.505   1.011  -5.893  0.00  0.00     0.066 H 
ATOM     28  H   LIG d   1       7.803  -0.655  -5.290  0.00  0.00     0.066 H 
ENDBRANCH  24  25
ENDBRANCH  16  24
BRANCH  17  29
ATOM     29  O   LIG d   1       4.655   1.353  -3.347  0.00  0.00    -0.491 OA
BRANCH  29  30
ATOM     30  C   LIG d   1       3.454   2.069  -3.046  0.00  0.00     0.079 C 
ATOM     31  H   LIG d   1       3.421   2.993  -3.642  0.00  0.00     0.066 H 
ATOM     32  H   LIG d   1       3.436   2.321  -1.977  0.00  0.00     0.066 H 
ATOM     33  H   LIG d   1       2.584   1.443  -3.291  0.00  0.00     0.066 H 
ENDBRANCH  29  30
ENDBRANCH  17  29
ENDBRANCH   9  15
BRANCH   1  34
ATOM     34  C   LIG d   1       9.529  -4.231  -1.868  0.00  0.00    -0.033 C 
ATOM     35  H   LIG d   1       9.019  -3.257  -1.818  0.00  0.00     0.028 H 
ATOM     36  H   LIG d   1      10.522  -4.151  -1.402  0.00  0.00     0.028 H 
ATOM     37  H   LIG d   1       8.933  -4.985  -1.334  0.00  0.00     0.028 H 
ENDBRANCH   1  34
BRANCH   2  38
ATOM     38  O   LIG d   1      11.752  -5.684  -2.802  0.00  0.00    -0.506 OA
ATOM     39  H   LIG d   1      11.642  -5.372  -1.753  0.00  0.00     0.292 HD
ENDBRANCH   2  38
TORSDOF 7
ENDMDL
MODEL 7
REMARK VINA RESULT:      -5.2      4.953      7.525
REMARK  7 active torsions:
REMARK  status: ('A' for Active; 'I' for Inactive)
REMARK    1  A    between atoms: C_1  and  C_2 
REMARK    2  A    between atoms: C_3  and  O_23 
REMARK    3  A    between atoms: C_10  and  C_11 
REMARK    4  A    between atoms: C_15  and  O_19 
REMARK    5  A    between atoms: C_16  and  O_17 
REMARK    6  A    between atoms: O_17  and  C_18 
REMARK    7  A    between atoms: O_19  and  C_20 
ROOT
ATOM      1  C   LIG d   1       5.278   0.043  -3.032  0.00  0.00     0.034 A 
ATOM      2  C   LIG d   1       4.561  -1.138  -2.937  0.00  0.00     0.123 A 
ATOM      3  C   LIG d   1       5.067  -2.319  -3.475  0.00  0.00    -0.019 A 
ATOM      4  C   LIG d   1       6.280  -2.322  -4.105  0.00  0.00    -0.044 A 
ATOM      5  C   LIG d   1       7.012  -1.139  -4.208  0.00  0.00     0.068 A 
ATOM      6  C   LIG d   1       6.512   0.057  -3.670  0.00  0.00     0.146 A 
ATOM      7  O   LIG d   1       7.391   1.059  -3.892  0.00  0.00    -0.451 OA
ATOM      8  C   LIG d   1       8.487   0.628  -4.561  0.00  0.00     0.176 A 
ATOM      9  C   LIG d   1       9.549   1.387  -4.934  0.00  0.00    -0.005 C 
ATOM     10  C   LIG d   1       8.315  -0.809  -4.814  0.00  0.00     0.232 A 
ATOM     11  O   LIG d   1       9.079  -1.561  -5.394  0.00  0.00    -0.283 OA
ATOM     12  H   LIG d   1       4.499  -3.234  -3.395  0.00  0.00     0.065 H 
ATOM     13  H   LIG d   1       6.670  -3.238  -4.522  0.00  0.00     0.063 H 
ATOM     14  H   LIG d   1      10.332   0.959  -5.577  0.00  0.00     0.066 H 
ENDROOT
BRANCH   9  15
ATOM     15  C   LIG d   1       9.652   2.778  -4.479  0.00  0.00     0.024 A 
ATOM     16  C   LIG d   1       9.508   3.833  -5.393  0.00  0.00     0.169 A 
ATOM     17  C   LIG d   1       9.608   5.146  -4.949  0.00  0.00     0.162 A 
ATOM     18  C   LIG d   1       9.849   5.409  -3.611  0.00  0.00    -0.016 A 
ATOM     19  C   LIG d   1       9.993   4.369  -2.707  0.00  0.00    -0.058 A 
ATOM     20  H   LIG d   1       9.925   6.431  -3.270  0.00  0.00     0.066 H 
ATOM     21  C   LIG d   1       9.896   3.062  -3.129  0.00  0.00    -0.051 A 
ATOM     22  H   LIG d   1      10.185   4.585  -1.666  0.00  0.00     0.062 H 
ATOM     23  H   LIG d   1      10.010   2.256  -2.419  0.00  0.00     0.062 H 
BRANCH  16  24
ATOM     24  O   LIG d   1       9.271   3.571  -6.705  0.00  0.00    -0.491 OA
BRANCH  24  25
ATOM     25  C   LIG d   1      10.404   3.532  -7.574  0.00  0.00     0.079 C 
ATOM     26  H   LIG d   1      10.073   3.654  -8.616  0.00  0.00     0.066 H 
ATOM     27  H   LIG d   1      10.917   2.564  -7.464  0.00  0.00     0.066 H 
ATOM     28  H   LIG d   1      11.097   4.345  -7.312  0.00  0.00     0.066 H 
ENDBRANCH  24  25
ENDBRANCH  16  24
BRANCH  17  29
ATOM     29  O   LIG d   1       9.469   6.173  -5.830  0.00  0.00    -0.491 OA
BRANCH  29  30
ATOM     30  C   LIG d   1       9.496   7.497  -5.291  0.00  0.00     0.079 C 
ATOM     31  H   LIG d   1       8.874   7.536  -4.385  0.00  0.00     0.066 H 
ATOM     32  H   LIG d   1       9.103   8.204  -6.036  0.00  0.00     0.066 H 
ATOM     33  H   LIG d   1      10.531   7.769  -5.038  0.00  0.00     0.066 H 
ENDBRANCH  29  30
ENDBRANCH  17  29
ENDBRANCH   9  15
BRANCH   1  34
ATOM     34  C   LIG d   1       4.718   1.314  -2.445  0.00  0.00    -0.033 C 
ATOM     35  H   LIG d   1       4.086   1.069  -1.579  0.00  0.00     0.028 H 
ATOM     36  H   LIG d   1       4.116   1.834  -3.204  0.00  0.00     0.028 H 
ATOM     37  H   LIG d   1       5.545   1.964  -2.124  0.00  0.00     0.028 H 
ENDBRANCH   1  34
BRANCH   2  38
ATOM     38  O   LIG d   1       3.355  -1.146  -2.314  0.00  0.00    -0.506 OA
ATOM     39  H   LIG d   1       2.810  -2.092  -2.183  0.00  0.00     0.292 HD
ENDBRANCH   2  38
TORSDOF 7
ENDMDL
MODEL 8
REMARK VINA RESULT:      -5.2      2.237      3.135
REMARK  7 active torsions:
REMARK  status: ('A' for Active; 'I' for Inactive)
REMARK    1  A    between atoms: C_1  and  C_2 
REMARK    2  A    between atoms: C_3  and  O_23 
REMARK    3  A    between atoms: C_10  and  C_11 
REMARK    4  A    between atoms: C_15  and  O_19 
REMARK    5  A    between atoms: C_16  and  O_17 
REMARK    6  A    between atoms: O_17  and  C_18 
REMARK    7  A    between atoms: O_19  and  C_20 
ROOT
ATOM      1  C   LIG d   1       4.520  -0.101  -9.535  0.00  0.00     0.034 A 
ATOM      2  C   LIG d   1       3.927   0.918 -10.262  0.00  0.00     0.123 A 
ATOM      3  C   LIG d   1       3.064   1.820  -9.645  0.00  0.00    -0.019 A 
ATOM      4  C   LIG d   1       2.793   1.705  -8.310  0.00  0.00    -0.044 A 
ATOM      5  C   LIG d   1       3.382   0.683  -7.565  0.00  0.00     0.068 A 
ATOM      6  C   LIG d   1       4.254  -0.231  -8.178  0.00  0.00     0.146 A 
ATOM      7  O   LIG d   1       4.696  -1.122  -7.263  0.00  0.00    -0.451 OA
ATOM      8  C   LIG d   1       4.178  -0.880  -6.035  0.00  0.00     0.176 A 
ATOM      9  C   LIG d   1       4.426  -1.593  -4.906  0.00  0.00    -0.005 C 
ATOM     10  C   LIG d   1       3.297   0.290  -6.147  0.00  0.00     0.232 A 
ATOM     11  O   LIG d   1       2.641   0.818  -5.266  0.00  0.00    -0.283 OA
ATOM     12  H   LIG d   1       2.607   2.610 -10.221  0.00  0.00     0.065 H 
ATOM     13  H   LIG d   1       2.123   2.405  -7.832  0.00  0.00     0.063 H 
ATOM     14  H   LIG d   1       3.860  -1.381  -3.987  0.00  0.00     0.066 H 
ENDROOT
BRANCH   9  15
ATOM     15  C   LIG d   1       5.448  -2.646  -4.912  0.00  0.00     0.024 A 
ATOM     16  C   LIG d   1       6.710  -2.408  -4.347  0.00  0.00     0.169 A 
ATOM     17  C   LIG d   1       7.669  -3.413  -4.359  0.00  0.00     0.162 A 
ATOM     18  C   LIG d   1       7.378  -4.642  -4.926  0.00  0.00    -0.016 A 
ATOM     19  C   LIG d   1       6.133  -4.879  -5.486  0.00  0.00    -0.058 A 
ATOM     20  H   LIG d   1       8.126  -5.422  -4.933  0.00  0.00     0.066 H 
ATOM     21  C   LIG d   1       5.170  -3.895  -5.483  0.00  0.00    -0.051 A 
ATOM     22  H   LIG d   1       5.917  -5.840  -5.930  0.00  0.00     0.062 H 
ATOM     23  H   LIG d   1       4.202  -4.085  -5.921  0.00  0.00     0.062 H 
BRANCH  16  24
ATOM     24  O   LIG d   1       6.992  -1.201  -3.789  0.00  0.00    -0.491 OA
BRANCH  24  25
ATOM     25  C   LIG d   1       7.630  -0.234  -4.625  0.00  0.00     0.079 C 
ATOM     26  H   LIG d   1       8.721  -0.327  -4.527  0.00  0.00     0.066 H 
ATOM     27  H   LIG d   1       7.319   0.776  -4.321  0.00  0.00     0.066 H 
ATOM     28  H   LIG d   1       7.340  -0.406  -5.673  0.00  0.00     0.066 H 
ENDBRANCH  24  25
ENDBRANCH  16  24
BRANCH  17  29
ATOM     29  O   LIG d   1       8.895  -3.190  -3.812  0.00  0.00    -0.491 OA
BRANCH  29  30
ATOM     30  C   LIG d   1       9.420  -4.210  -2.960  0.00  0.00     0.079 C 
ATOM     31  H   LIG d   1       8.904  -4.179  -1.989  0.00  0.00     0.066 H 
ATOM     32  H   LIG d   1      10.496  -4.043  -2.808  0.00  0.00     0.066 H 
ATOM     33  H   LIG d   1       9.264  -5.194  -3.427  0.00  0.00     0.066 H 
ENDBRANCH  29  30
ENDBRANCH  17  29
ENDBRANCH   9  15
BRANCH   1  34
ATOM     34  C   LIG d   1       5.452  -1.069 -10.217  0.00  0.00    -0.033 C 
ATOM     35  H   LIG d   1       6.404  -1.109  -9.666  0.00  0.00     0.028 H 
ATOM     36  H   LIG d   1       5.638  -0.735 -11.248  0.00  0.00     0.028 H 
ATOM     37  H   LIG d   1       4.995  -2.069 -10.232  0.00  0.00     0.028 H 
ENDBRANCH   1  34
BRANCH   2  38
ATOM     38  O   LIG d   1       4.189   1.040 -11.588  0.00  0.00    -0.506 OA
ATOM     39  H   LIG d   1       5.213   0.890 -11.963  0.00  0.00     0.292 HD
ENDBRANCH   2  38
TORSDOF 7
ENDMDL
MODEL 9
REMARK VINA RESULT:      -5.2      3.559      5.523
REMARK  7 active torsions:
REMARK  status: ('A' for Active; 'I' for Inactive)
REMARK    1  A    between atoms: C_1  and  C_2 
REMARK    2  A    between atoms: C_3  and  O_23 
REMARK    3  A    between atoms: C_10  and  C_11 
REMARK    4  A    between atoms: C_15  and  O_19 
REMARK    5  A    between atoms: C_16  and  O_17 
REMARK    6  A    between atoms: O_17  and  C_18 
REMARK    7  A    between atoms: O_19  and  C_20 
ROOT
ATOM      1  C   LIG d   1       7.646   1.748  -7.781  0.00  0.00     0.034 A 
ATOM      2  C   LIG d   1       8.633   2.367  -8.531  0.00  0.00     0.123 A 
ATOM      3  C   LIG d   1       9.783   2.861  -7.919  0.00  0.00    -0.019 A 
ATOM      4  C   LIG d   1       9.946   2.739  -6.567  0.00  0.00    -0.044 A 
ATOM      5  C   LIG d   1       8.960   2.119  -5.800  0.00  0.00     0.068 A 
ATOM      6  C   LIG d   1       7.798   1.617  -6.406  0.00  0.00     0.146 A 
ATOM      7  O   LIG d   1       6.996   1.066  -5.468  0.00  0.00    -0.451 OA
ATOM      8  C   LIG d   1       7.537   1.154  -4.230  0.00  0.00     0.176 A 
ATOM      9  C   LIG d   1       6.983   0.696  -3.078  0.00  0.00    -0.005 C 
ATOM     10  C   LIG d   1       8.830   1.840  -4.358  0.00  0.00     0.232 A 
ATOM     11  O   LIG d   1       9.619   2.117  -3.472  0.00  0.00    -0.283 OA
ATOM     12  H   LIG d   1      10.545   3.341  -8.513  0.00  0.00     0.065 H 
ATOM     13  H   LIG d   1      10.838   3.123  -6.094  0.00  0.00     0.063 H 
ATOM     14  H   LIG d   1       7.455   0.925  -2.112  0.00  0.00     0.066 H 
ENDROOT
BRANCH   9  15
ATOM     15  C   LIG d   1       5.755  -0.106  -3.124  0.00  0.00     0.024 A 
ATOM     16  C   LIG d   1       5.774  -1.396  -3.674  0.00  0.00     0.169 A 
ATOM     17  C   LIG d   1       4.603  -2.146  -3.711  0.00  0.00     0.162 A 
ATOM     18  C   LIG d   1       3.427  -1.619  -3.206  0.00  0.00    -0.016 A 
ATOM     19  C   LIG d   1       3.406  -0.344  -2.663  0.00  0.00    -0.058 A 
ATOM     20  H   LIG d   1       2.520  -2.204  -3.236  0.00  0.00     0.066 H 
ATOM     21  C   LIG d   1       4.556   0.412  -2.617  0.00  0.00    -0.051 A 
ATOM     22  H   LIG d   1       2.482   0.060  -2.275  0.00  0.00     0.062 H 
ATOM     23  H   LIG d   1       4.532   1.405  -2.194  0.00  0.00     0.062 H 
BRANCH  16  24
ATOM     24  O   LIG d   1       6.930  -1.912  -4.168  0.00  0.00    -0.491 OA
BRANCH  24  25
ATOM     25  C   LIG d   1       7.706  -2.726  -3.286  0.00  0.00     0.079 C 
ATOM     26  H   LIG d   1       7.047  -3.179  -2.531  0.00  0.00     0.066 H 
ATOM     27  H   LIG d   1       8.464  -2.106  -2.786  0.00  0.00     0.066 H 
ATOM     28  H   LIG d   1       8.203  -3.520  -3.863  0.00  0.00     0.066 H 
ENDBRANCH  24  25
ENDBRANCH  16  24
BRANCH  17  29
ATOM     29  O   LIG d   1       4.615  -3.398  -4.243  0.00  0.00    -0.491 OA
BRANCH  29  30
ATOM     30  C   LIG d   1       4.576  -3.497  -5.669  0.00  0.00     0.079 C 
ATOM     31  H   LIG d   1       4.850  -4.518  -5.973  0.00  0.00     0.066 H 
ATOM     32  H   LIG d   1       5.287  -2.781  -6.105  0.00  0.00     0.066 H 
ATOM     33  H   LIG d   1       3.560  -3.269  -6.024  0.00  0.00     0.066 H 
ENDBRANCH  29  30
ENDBRANCH  17  29
ENDBRANCH   9  15
BRANCH   1  34
ATOM     34  C   LIG d   1       6.408   1.218  -8.457  0.00  0.00    -0.033 C 
ATOM     35  H   LIG d   1       6.673   0.349  -9.078  0.00  0.00     0.028 H 
ATOM     36  H   LIG d   1       5.972   2.003  -9.091  0.00  0.00     0.028 H 
ATOM     37  H   LIG d   1       5.676   0.914  -7.695  0.00  0.00     0.028 H 
ENDBRANCH   1  34
BRANCH   2  38
ATOM     38  O   LIG d   1       8.480   2.493  -9.873  0.00  0.00    -0.506 OA
ATOM     39  H   LIG d   1       7.471   2.519 -10.312  0.00  0.00     0.292 HD
ENDBRANCH   2  38
TORSDOF 7
ENDMDL
