MODEL 1
REMARK VINA RESULT:      -6.4      0.000      0.000
REMARK  14 active torsions:
REMARK  status: ('A' for Active; 'I' for Inactive)
REMARK    1  A    between atoms: C_1  and  C_2 
REMARK    2  A    between atoms: C_4  and  C_26 
REMARK    3  A    between atoms: C_6  and  C_23 
REMARK    4  A    between atoms: C_9  and  C_11 
REMARK    5  A    between atoms: C_11  and  C_12 
REMARK       I    between atoms: C_12  and  N_14 
REMARK    6  A    between atoms: N_14  and  C_15 
REMARK    7  A    between atoms: C_15  and  C_16 
REMARK    8  A    between atoms: C_16  and  N_17 
REMARK    9  A    between atoms: C_23  and  C_24 
REMARK   10  A    between atoms: C_23  and  C_25 
REMARK   11  A    between atoms: C_26  and  N_27 
REMARK       I    between atoms: N_27  and  C_28 
REMARK       I    between atoms: C_28  and  N_30 
REMARK   12  A    between atoms: N_30  and  C_31 
REMARK   13  A    between atoms: C_31  and  C_32 
REMARK   14  A    between atoms: C_31  and  C_33 
ROOT
ATOM      1  C   LIG d   1       6.921  -3.155  -4.169  0.00  0.00    -0.073 C 
ATOM      2  C   LIG d   1       7.322  -1.956  -3.896  0.00  0.00    -0.080 C 
ATOM      3  C   LIG d   1       6.408  -0.831  -3.503  0.00  0.00    -0.004 C 
ATOM      4  H   LIG d   1       6.484  -0.696  -2.415  0.00  0.00     0.036 H 
ATOM      5  C   LIG d   1       4.964  -1.171  -3.878  0.00  0.00    -0.030 C 
ATOM      6  H   LIG d   1       4.842  -1.135  -4.971  0.00  0.00     0.031 H 
ATOM      7  C   LIG d   1       4.645  -2.577  -3.355  0.00  0.00    -0.042 C 
ATOM      8  C   LIG d   1       5.484  -3.588  -4.140  0.00  0.00    -0.012 C 
ATOM      9  H   LIG d   1       5.435  -4.569  -3.647  0.00  0.00     0.035 H 
ATOM     10  H   LIG d   1       8.393  -1.709  -3.946  0.00  0.00     0.058 H 
ATOM     11  H   LIG d   1       4.891  -2.635  -2.284  0.00  0.00     0.027 H 
ATOM     12  H   LIG d   1       3.574  -2.787  -3.497  0.00  0.00     0.027 H 
ENDROOT
BRANCH   8  13
ATOM     13  C   LIG d   1       4.954  -3.684  -5.572  0.00  0.00     0.030 C 
ATOM     14  H   LIG d   1       4.108  -2.992  -5.697  0.00  0.00     0.036 H 
ATOM     15  H   LIG d   1       5.754  -3.415  -6.278  0.00  0.00     0.036 H 
BRANCH  13  16
ATOM     16  C   LIG d   1       4.497  -5.093  -5.846  0.00  0.00     0.214 C 
ATOM     17  O   LIG d   1       3.358  -5.302  -6.206  0.00  0.00    -0.276 OA
ATOM     18  N   LIG d   1       5.355  -6.122  -5.691  0.00  0.00    -0.310 N 
ATOM     19  H   LIG d   1       6.387  -5.932  -5.365  0.00  0.00     0.149 HD
BRANCH  18  20
ATOM     20  C   LIG d   1       4.911  -7.492  -5.958  0.00  0.00     0.052 C 
ATOM     21  H   LIG d   1       3.913  -7.646  -5.522  0.00  0.00     0.051 H 
ATOM     22  H   LIG d   1       4.866  -7.658  -7.045  0.00  0.00     0.051 H 
BRANCH  20  23
ATOM     23  C   LIG d   1       5.898  -8.479  -5.332  0.00  0.00    -0.016 C 
ATOM     24  H   LIG d   1       6.722  -8.669  -6.035  0.00  0.00     0.083 H 
ATOM     25  H   LIG d   1       6.301  -8.053  -4.401  0.00  0.00     0.083 H 
BRANCH  23  26
ATOM     26  N   LIG d   1       5.207  -9.741  -5.035  0.00  0.00     0.240 N 
ATOM     27  C   LIG d   1       4.197  -9.554  -3.984  0.00  0.00    -0.008 C 
ATOM     28  C   LIG d   1       3.545 -10.902  -3.664  0.00  0.00     0.088 C 
ATOM     29  H   LIG d   1       4.677  -9.153  -3.079  0.00  0.00     0.084 H 
ATOM     30  H   LIG d   1       3.430  -8.847  -4.334  0.00  0.00     0.084 H 
ATOM     31  O   LIG d   1       2.987 -11.452  -4.860  0.00  0.00    -0.369 OA
ATOM     32  H   LIG d   1       2.748 -10.758  -2.920  0.00  0.00     0.061 H 
ATOM     33  H   LIG d   1       4.302 -11.591  -3.261  0.00  0.00     0.061 H 
ATOM     34  C   LIG d   1       3.944 -11.647  -5.905  0.00  0.00     0.088 C 
ATOM     35  C   LIG d   1       4.599 -10.307  -6.247  0.00  0.00    -0.008 C 
ATOM     36  H   LIG d   1       3.439 -12.048  -6.797  0.00  0.00     0.061 H 
ATOM     37  H   LIG d   1       4.714 -12.358  -5.569  0.00  0.00     0.061 H 
ATOM     38  H   LIG d   1       3.839  -9.613  -6.635  0.00  0.00     0.084 H 
ATOM     39  H   LIG d   1       5.377 -10.462  -7.009  0.00  0.00     0.084 H 
ATOM     40  H   LIG d   1       5.958 -10.454  -4.663  0.00  0.00     0.204 HD
ENDBRANCH  23  26
ENDBRANCH  20  23
ENDBRANCH  18  20
ENDBRANCH  13  16
ENDBRANCH   8  13
BRANCH   1  41
ATOM     41  C   LIG d   1       7.961  -4.181  -4.538  0.00  0.00    -0.043 C 
ATOM     42  H   LIG d   1       7.507  -5.182  -4.530  0.00  0.00     0.027 H 
ATOM     43  H   LIG d   1       8.785  -4.146  -3.810  0.00  0.00     0.027 H 
ATOM     44  H   LIG d   1       8.351  -3.963  -5.544  0.00  0.00     0.027 H 
ENDBRANCH   1  41
BRANCH   5  45
ATOM     45  C   LIG d   1       4.011  -0.157  -3.244  0.00  0.00    -0.043 C 
ATOM     46  H   LIG d   1       4.064   0.792  -3.797  0.00  0.00     0.030 H 
BRANCH  45  47
ATOM     47  C   LIG d   1       2.580  -0.698  -3.296  0.00  0.00    -0.062 C 
ATOM     48  H   LIG d   1       1.915   0.066  -3.724  0.00  0.00     0.023 H 
ATOM     49  H   LIG d   1       2.246  -0.949  -2.279  0.00  0.00     0.023 H 
ATOM     50  H   LIG d   1       2.553  -1.600  -3.924  0.00  0.00     0.023 H 
ENDBRANCH  45  47
BRANCH  45  51
ATOM     51  C   LIG d   1       4.414   0.079  -1.787  0.00  0.00    -0.062 C 
ATOM     52  H   LIG d   1       5.144   0.900  -1.737  0.00  0.00     0.023 H 
ATOM     53  H   LIG d   1       4.864  -0.838  -1.377  0.00  0.00     0.023 H 
ATOM     54  H   LIG d   1       3.523   0.344  -1.198  0.00  0.00     0.023 H 
ENDBRANCH  45  51
ENDBRANCH   5  45
BRANCH   3  55
ATOM     55  C   LIG d   1       6.833   0.446  -4.231  0.00  0.00     0.020 C 
ATOM     56  H   LIG d   1       7.022   0.220  -5.290  0.00  0.00     0.047 H 
ATOM     57  H   LIG d   1       6.032   1.196  -4.154  0.00  0.00     0.047 H 
BRANCH  55  58
ATOM     58  N   LIG d   1       8.057   0.972  -3.618  0.00  0.00    -0.299 N 
ATOM     59  C   LIG d   1       8.533   2.176  -3.991  0.00  0.00     0.300 C 
ATOM     60  O   LIG d   1       7.949   2.826  -4.837  0.00  0.00    -0.253 OA
ATOM     61  N   LIG d   1       9.658   2.660  -3.429  0.00  0.00    -0.297 N 
ATOM     62  H   LIG d   1      10.187   2.071  -2.663  0.00  0.00     0.150 HD
ATOM     63  H   LIG d   1       8.585   0.384  -2.853  0.00  0.00     0.150 HD
BRANCH  61  64
ATOM     64  C   LIG d   1      10.176   3.968  -3.835  0.00  0.00     0.019 C 
ATOM     65  H   LIG d   1       9.630   4.267  -4.741  0.00  0.00     0.049 H 
BRANCH  64  66
ATOM     66  C   LIG d   1       9.945   4.980  -2.710  0.00  0.00    -0.047 C 
ATOM     67  H   LIG d   1      10.910   5.253  -2.258  0.00  0.00     0.025 H 
ATOM     68  H   LIG d   1       9.295   4.533  -1.942  0.00  0.00     0.025 H 
ATOM     69  H   LIG d   1       9.464   5.881  -3.118  0.00  0.00     0.025 H 
ENDBRANCH  64  66
BRANCH  64  70
ATOM     70  C   LIG d   1      11.675   3.857  -4.120  0.00  0.00    -0.047 C 
ATOM     71  H   LIG d   1      11.907   4.363  -5.069  0.00  0.00     0.025 H 
ATOM     72  H   LIG d   1      11.956   2.796  -4.193  0.00  0.00     0.025 H 
ATOM     73  H   LIG d   1      12.240   4.331  -3.304  0.00  0.00     0.025 H 
ENDBRANCH  64  70
ENDBRANCH  61  64
ENDBRANCH  55  58
ENDBRANCH   3  55
TORSDOF 14
ENDMDL
MODEL 2
REMARK VINA RESULT:      -6.4      7.259      9.920
REMARK  14 active torsions:
REMARK  status: ('A' for Active; 'I' for Inactive)
REMARK    1  A    between atoms: C_1  and  C_2 
REMARK    2  A    between atoms: C_4  and  C_26 
REMARK    3  A    between atoms: C_6  and  C_23 
REMARK    4  A    between atoms: C_9  and  C_11 
REMARK    5  A    between atoms: C_11  and  C_12 
REMARK       I    between atoms: C_12  and  N_14 
REMARK    6  A    between atoms: N_14  and  C_15 
REMARK    7  A    between atoms: C_15  and  C_16 
REMARK    8  A    between atoms: C_16  and  N_17 
REMARK    9  A    between atoms: C_23  and  C_24 
REMARK   10  A    between atoms: C_23  and  C_25 
REMARK   11  A    between atoms: C_26  and  N_27 
REMARK       I    between atoms: N_27  and  C_28 
REMARK       I    between atoms: C_28  and  N_30 
REMARK   12  A    between atoms: N_30  and  C_31 
REMARK   13  A    between atoms: C_31  and  C_32 
REMARK   14  A    between atoms: C_31  and  C_33 
ROOT
ATOM      1  C   LIG d   1       3.515   1.335  -9.926  0.00  0.00    -0.073 C 
ATOM      2  C   LIG d   1       3.837   0.935 -11.113  0.00  0.00    -0.080 C 
ATOM      3  C   LIG d   1       3.258  -0.280 -11.778  0.00  0.00    -0.004 C 
ATOM      4  H   LIG d   1       2.506   0.056 -12.507  0.00  0.00     0.036 H 
ATOM      5  C   LIG d   1       2.594  -1.183 -10.736  0.00  0.00    -0.030 C 
ATOM      6  H   LIG d   1       3.362  -1.664 -10.112  0.00  0.00     0.031 H 
ATOM      7  C   LIG d   1       1.665  -0.323  -9.870  0.00  0.00    -0.042 C 
ATOM      8  C   LIG d   1       2.525   0.634  -9.042  0.00  0.00    -0.012 C 
ATOM      9  H   LIG d   1       1.884   1.397  -8.578  0.00  0.00     0.035 H 
ATOM     10  H   LIG d   1       4.578   1.497 -11.701  0.00  0.00     0.058 H 
ATOM     11  H   LIG d   1       0.984   0.248 -10.517  0.00  0.00     0.027 H 
ATOM     12  H   LIG d   1       1.079  -0.974  -9.204  0.00  0.00     0.027 H 
ENDROOT
BRANCH   8  13
ATOM     13  C   LIG d   1       3.275  -0.157  -7.968  0.00  0.00     0.030 C 
ATOM     14  H   LIG d   1       2.987  -1.217  -8.026  0.00  0.00     0.036 H 
ATOM     15  H   LIG d   1       4.359  -0.063  -8.133  0.00  0.00     0.036 H 
BRANCH  13  16
ATOM     16  C   LIG d   1       2.926   0.387  -6.607  0.00  0.00     0.214 C 
ATOM     17  O   LIG d   1       2.744   1.577  -6.458  0.00  0.00    -0.276 OA
ATOM     18  N   LIG d   1       2.813  -0.449  -5.555  0.00  0.00    -0.310 N 
ATOM     19  H   LIG d   1       2.977  -1.527  -5.691  0.00  0.00     0.149 HD
BRANCH  18  20
ATOM     20  C   LIG d   1       2.473   0.081  -4.232  0.00  0.00     0.052 C 
ATOM     21  H   LIG d   1       2.754   1.143  -4.179  0.00  0.00     0.051 H 
ATOM     22  H   LIG d   1       1.391  -0.022  -4.063  0.00  0.00     0.051 H 
BRANCH  20  23
ATOM     23  C   LIG d   1       3.233  -0.701  -3.159  0.00  0.00    -0.016 C 
ATOM     24  H   LIG d   1       3.286  -0.103  -2.238  0.00  0.00     0.083 H 
ATOM     25  H   LIG d   1       2.708  -1.646  -2.953  0.00  0.00     0.083 H 
BRANCH  23  26
ATOM     26  N   LIG d   1       4.593  -0.990  -3.634  0.00  0.00     0.240 N 
ATOM     27  C   LIG d   1       5.589  -0.218  -2.879  0.00  0.00    -0.008 C 
ATOM     28  C   LIG d   1       6.984  -0.502  -3.445  0.00  0.00     0.088 C 
ATOM     29  H   LIG d   1       5.368   0.856  -2.969  0.00  0.00     0.084 H 
ATOM     30  H   LIG d   1       5.555  -0.511  -1.820  0.00  0.00     0.084 H 
ATOM     31  O   LIG d   1       7.236  -1.909  -3.393  0.00  0.00    -0.369 OA
ATOM     32  H   LIG d   1       7.740   0.028  -2.847  0.00  0.00     0.061 H 
ATOM     33  H   LIG d   1       7.035  -0.158  -4.489  0.00  0.00     0.061 H 
ATOM     34  C   LIG d   1       6.283  -2.691  -4.119  0.00  0.00     0.088 C 
ATOM     35  C   LIG d   1       4.883  -2.429  -3.560  0.00  0.00    -0.008 C 
ATOM     36  H   LIG d   1       6.527  -3.759  -4.013  0.00  0.00     0.061 H 
ATOM     37  H   LIG d   1       6.312  -2.412  -5.183  0.00  0.00     0.061 H 
ATOM     38  H   LIG d   1       4.836  -2.758  -2.511  0.00  0.00     0.084 H 
ATOM     39  H   LIG d   1       4.140  -2.983  -4.152  0.00  0.00     0.084 H 
ATOM     40  H   LIG d   1       4.651  -0.683  -4.689  0.00  0.00     0.204 HD
ENDBRANCH  23  26
ENDBRANCH  20  23
ENDBRANCH  18  20
ENDBRANCH  13  16
ENDBRANCH   8  13
BRANCH   1  41
ATOM     41  C   LIG d   1       4.175   2.582  -9.397  0.00  0.00    -0.043 C 
ATOM     42  H   LIG d   1       4.405   3.258 -10.233  0.00  0.00     0.027 H 
ATOM     43  H   LIG d   1       5.106   2.311  -8.877  0.00  0.00     0.027 H 
ATOM     44  H   LIG d   1       3.496   3.087  -8.694  0.00  0.00     0.027 H 
ENDBRANCH   1  41
BRANCH   5  45
ATOM     45  C   LIG d   1       1.780  -2.273 -11.438  0.00  0.00    -0.043 C 
ATOM     46  H   LIG d   1       2.442  -2.860 -12.092  0.00  0.00     0.030 H 
BRANCH  45  47
ATOM     47  C   LIG d   1       1.150  -3.194 -10.390  0.00  0.00    -0.062 C 
ATOM     48  H   LIG d   1       0.696  -4.061 -10.891  0.00  0.00     0.023 H 
ATOM     49  H   LIG d   1       0.376  -2.642  -9.836  0.00  0.00     0.023 H 
ATOM     50  H   LIG d   1       1.926  -3.538  -9.692  0.00  0.00     0.023 H 
ENDBRANCH  45  47
BRANCH  45  51
ATOM     51  C   LIG d   1       0.677  -1.625 -12.277  0.00  0.00    -0.062 C 
ATOM     52  H   LIG d   1       1.117  -1.185 -13.184  0.00  0.00     0.023 H 
ATOM     53  H   LIG d   1       0.184  -0.836 -11.689  0.00  0.00     0.023 H 
ATOM     54  H   LIG d   1      -0.063  -2.387 -12.561  0.00  0.00     0.023 H 
ENDBRANCH  45  51
ENDBRANCH   5  45
BRANCH   3  55
ATOM     55  C   LIG d   1       4.374  -1.054 -12.482  0.00  0.00     0.020 C 
ATOM     56  H   LIG d   1       5.174  -1.281 -11.761  0.00  0.00     0.047 H 
ATOM     57  H   LIG d   1       3.970  -1.993 -12.888  0.00  0.00     0.047 H 
BRANCH  55  58
ATOM     58  N   LIG d   1       4.918  -0.242 -13.574  0.00  0.00    -0.299 N 
ATOM     59  C   LIG d   1       4.374  -0.316 -14.804  0.00  0.00     0.300 C 
ATOM     60  O   LIG d   1       3.433  -1.059 -15.009  0.00  0.00    -0.253 OA
ATOM     61  N   LIG d   1       4.873   0.430 -15.809  0.00  0.00    -0.297 N 
ATOM     62  H   LIG d   1       5.725   1.102 -15.624  0.00  0.00     0.150 HD
ATOM     63  H   LIG d   1       5.769   0.430 -13.388  0.00  0.00     0.150 HD
BRANCH  61  64
ATOM     64  C   LIG d   1       4.281   0.348 -17.146  0.00  0.00     0.019 C 
ATOM     65  H   LIG d   1       3.669  -0.565 -17.175  0.00  0.00     0.049 H 
BRANCH  64  66
ATOM     66  C   LIG d   1       3.417   1.585 -17.398  0.00  0.00    -0.047 C 
ATOM     67  H   LIG d   1       3.182   1.657 -18.470  0.00  0.00     0.025 H 
ATOM     68  H   LIG d   1       3.964   2.485 -17.082  0.00  0.00     0.025 H 
ATOM     69  H   LIG d   1       2.482   1.503 -16.824  0.00  0.00     0.025 H 
ENDBRANCH  64  66
BRANCH  64  70
ATOM     70  C   LIG d   1       5.395   0.284 -18.193  0.00  0.00    -0.047 C 
ATOM     71  H   LIG d   1       5.359  -0.688 -18.709  0.00  0.00     0.025 H 
ATOM     72  H   LIG d   1       6.371   0.399 -17.698  0.00  0.00     0.025 H 
ATOM     73  H   LIG d   1       5.258   1.093 -18.926  0.00  0.00     0.025 H 
ENDBRANCH  64  70
ENDBRANCH  61  64
ENDBRANCH  55  58
ENDBRANCH   3  55
TORSDOF 14
ENDMDL
MODEL 3
REMARK VINA RESULT:      -6.3      4.073      6.261
REMARK  14 active torsions:
REMARK  status: ('A' for Active; 'I' for Inactive)
REMARK    1  A    between atoms: C_1  and  C_2 
REMARK    2  A    between atoms: C_4  and  C_26 
REMARK    3  A    between atoms: C_6  and  C_23 
REMARK    4  A    between atoms: C_9  and  C_11 
REMARK    5  A    between atoms: C_11  and  C_12 
REMARK       I    between atoms: C_12  and  N_14 
REMARK    6  A    between atoms: N_14  and  C_15 
REMARK    7  A    between atoms: C_15  and  C_16 
REMARK    8  A    between atoms: C_16  and  N_17 
REMARK    9  A    between atoms: C_23  and  C_24 
REMARK   10  A    between atoms: C_23  and  C_25 
REMARK   11  A    between atoms: C_26  and  N_27 
REMARK       I    between atoms: N_27  and  C_28 
REMARK       I    between atoms: C_28  and  N_30 
REMARK   12  A    between atoms: N_30  and  C_31 
REMARK   13  A    between atoms: C_31  and  C_32 
REMARK   14  A    between atoms: C_31  and  C_33 
ROOT
ATOM      1  C   LIG d   1       6.829  -2.473  -4.016  0.00  0.00    -0.073 C 
ATOM      2  C   LIG d   1       6.858  -1.423  -3.262  0.00  0.00    -0.080 C 
ATOM      3  C   LIG d   1       5.707  -0.473  -3.097  0.00  0.00    -0.004 C 
ATOM      4  H   LIG d   1       5.226  -0.688  -2.131  0.00  0.00     0.036 H 
ATOM      5  C   LIG d   1       4.696  -0.669  -4.228  0.00  0.00    -0.030 C 
ATOM      6  H   LIG d   1       5.114  -0.290  -5.174  0.00  0.00     0.031 H 
ATOM      7  C   LIG d   1       4.386  -2.166  -4.348  0.00  0.00    -0.042 C 
ATOM      8  C   LIG d   1       5.644  -2.885  -4.840  0.00  0.00    -0.012 C 
ATOM      9  H   LIG d   1       5.515  -3.971  -4.731  0.00  0.00     0.035 H 
ATOM     10  H   LIG d   1       7.767  -1.180  -2.691  0.00  0.00     0.058 H 
ATOM     11  H   LIG d   1       4.089  -2.559  -3.364  0.00  0.00     0.027 H 
ATOM     12  H   LIG d   1       3.564  -2.314  -5.064  0.00  0.00     0.027 H 
ENDROOT
BRANCH   8  13
ATOM     13  C   LIG d   1       5.894  -2.522  -6.306  0.00  0.00     0.030 C 
ATOM     14  H   LIG d   1       5.885  -1.428  -6.419  0.00  0.00     0.036 H 
ATOM     15  H   LIG d   1       6.874  -2.914  -6.618  0.00  0.00     0.036 H 
BRANCH  13  16
ATOM     16  C   LIG d   1       4.815  -3.128  -7.165  0.00  0.00     0.214 C 
ATOM     17  O   LIG d   1       4.461  -4.272  -6.976  0.00  0.00    -0.276 OA
ATOM     18  N   LIG d   1       4.242  -2.397  -8.142  0.00  0.00    -0.310 N 
ATOM     19  H   LIG d   1       4.563  -1.360  -8.312  0.00  0.00     0.149 HD
BRANCH  18  20
ATOM     20  C   LIG d   1       3.191  -2.986  -8.976  0.00  0.00     0.052 C 
ATOM     21  H   LIG d   1       3.651  -3.558  -9.795  0.00  0.00     0.051 H 
ATOM     22  H   LIG d   1       2.569  -3.656  -8.364  0.00  0.00     0.051 H 
BRANCH  20  23
ATOM     23  C   LIG d   1       2.319  -1.873  -9.559  0.00  0.00    -0.016 C 
ATOM     24  H   LIG d   1       2.004  -2.149 -10.577  0.00  0.00     0.083 H 
ATOM     25  H   LIG d   1       1.431  -1.733  -8.926  0.00  0.00     0.083 H 
BRANCH  23  26
ATOM     26  N   LIG d   1       3.088  -0.623  -9.608  0.00  0.00     0.240 N 
ATOM     27  C   LIG d   1       3.398  -0.248 -10.995  0.00  0.00    -0.008 C 
ATOM     28  C   LIG d   1       4.250   1.025 -10.996  0.00  0.00     0.088 C 
ATOM     29  H   LIG d   1       3.955  -1.064 -11.480  0.00  0.00     0.084 H 
ATOM     30  H   LIG d   1       2.463  -0.066 -11.544  0.00  0.00     0.084 H 
ATOM     31  O   LIG d   1       3.552   2.060 -10.299  0.00  0.00    -0.369 OA
ATOM     32  H   LIG d   1       4.437   1.342 -12.033  0.00  0.00     0.061 H 
ATOM     33  H   LIG d   1       5.209   0.827 -10.496  0.00  0.00     0.061 H 
ATOM     34  C   LIG d   1       3.235   1.728  -8.944  0.00  0.00     0.088 C 
ATOM     35  C   LIG d   1       2.373   0.463  -8.923  0.00  0.00    -0.008 C 
ATOM     36  H   LIG d   1       2.680   2.558  -8.482  0.00  0.00     0.061 H 
ATOM     37  H   LIG d   1       4.163   1.550  -8.382  0.00  0.00     0.061 H 
ATOM     38  H   LIG d   1       1.420   0.657  -9.437  0.00  0.00     0.084 H 
ATOM     39  H   LIG d   1       2.174   0.171  -7.881  0.00  0.00     0.084 H 
ATOM     40  H   LIG d   1       4.038  -0.794  -9.080  0.00  0.00     0.204 HD
ENDBRANCH  23  26
ENDBRANCH  20  23
ENDBRANCH  18  20
ENDBRANCH  13  16
ENDBRANCH   8  13
BRANCH   1  41
ATOM     41  C   LIG d   1       8.062  -3.338  -4.072  0.00  0.00    -0.043 C 
ATOM     42  H   LIG d   1       7.835  -4.327  -3.650  0.00  0.00     0.027 H 
ATOM     43  H   LIG d   1       8.867  -2.866  -3.488  0.00  0.00     0.027 H 
ATOM     44  H   LIG d   1       8.385  -3.451  -5.118  0.00  0.00     0.027 H 
ENDBRANCH   1  41
BRANCH   5  45
ATOM     45  C   LIG d   1       3.412   0.100  -3.916  0.00  0.00    -0.043 C 
ATOM     46  H   LIG d   1       3.665   1.057  -3.435  0.00  0.00     0.030 H 
BRANCH  45  47
ATOM     47  C   LIG d   1       2.649   0.369  -5.215  0.00  0.00    -0.062 C 
ATOM     48  H   LIG d   1       1.948   1.202  -5.062  0.00  0.00     0.023 H 
ATOM     49  H   LIG d   1       2.090  -0.534  -5.505  0.00  0.00     0.023 H 
ATOM     50  H   LIG d   1       3.361   0.630  -6.011  0.00  0.00     0.023 H 
ENDBRANCH  45  47
BRANCH  45  51
ATOM     51  C   LIG d   1       2.538  -0.730  -2.973  0.00  0.00    -0.062 C 
ATOM     52  H   LIG d   1       2.345  -1.714  -3.424  0.00  0.00     0.023 H 
ATOM     53  H   LIG d   1       1.582  -0.210  -2.805  0.00  0.00     0.023 H 
ATOM     54  H   LIG d   1       3.057  -0.862  -2.013  0.00  0.00     0.023 H 
ENDBRANCH  45  51
ENDBRANCH   5  45
BRANCH   3  55
ATOM     55  C   LIG d   1       6.228   0.965  -3.125  0.00  0.00     0.020 C 
ATOM     56  H   LIG d   1       5.387   1.662  -3.002  0.00  0.00     0.047 H 
ATOM     57  H   LIG d   1       6.948   1.111  -2.306  0.00  0.00     0.047 H 
BRANCH  55  58
ATOM     58  N   LIG d   1       6.889   1.220  -4.408  0.00  0.00    -0.299 N 
ATOM     59  C   LIG d   1       8.027   1.940  -4.449  0.00  0.00     0.300 C 
ATOM     60  O   LIG d   1       8.505   2.380  -3.421  0.00  0.00    -0.253 OA
ATOM     61  N   LIG d   1       8.634   2.174  -5.629  0.00  0.00    -0.297 N 
ATOM     62  H   LIG d   1       8.201   1.776  -6.559  0.00  0.00     0.150 HD
ATOM     63  H   LIG d   1       6.456   0.821  -5.338  0.00  0.00     0.150 HD
BRANCH  61  64
ATOM     64  C   LIG d   1       9.871   2.958  -5.673  0.00  0.00     0.019 C 
ATOM     65  H   LIG d   1      10.014   3.396  -4.675  0.00  0.00     0.049 H 
BRANCH  64  66
ATOM     66  C   LIG d   1      11.043   2.041  -6.031  0.00  0.00    -0.047 C 
ATOM     67  H   LIG d   1      11.898   2.266  -5.377  0.00  0.00     0.025 H 
ATOM     68  H   LIG d   1      11.331   2.207  -7.080  0.00  0.00     0.025 H 
ATOM     69  H   LIG d   1      10.743   0.991  -5.894  0.00  0.00     0.025 H 
ENDBRANCH  64  66
BRANCH  64  70
ATOM     70  C   LIG d   1       9.742   4.055  -6.731  0.00  0.00    -0.047 C 
ATOM     71  H   LIG d   1      10.568   3.969  -7.453  0.00  0.00     0.025 H 
ATOM     72  H   LIG d   1       9.783   5.041  -6.244  0.00  0.00     0.025 H 
ATOM     73  H   LIG d   1       8.782   3.946  -7.258  0.00  0.00     0.025 H 
ENDBRANCH  64  70
ENDBRANCH  61  64
ENDBRANCH  55  58
ENDBRANCH   3  55
TORSDOF 14
ENDMDL
MODEL 4
REMARK VINA RESULT:      -6.1      4.373     10.279
REMARK  14 active torsions:
REMARK  status: ('A' for Active; 'I' for Inactive)
REMARK    1  A    between atoms: C_1  and  C_2 
REMARK    2  A    between atoms: C_4  and  C_26 
REMARK    3  A    between atoms: C_6  and  C_23 
REMARK    4  A    between atoms: C_9  and  C_11 
REMARK    5  A    between atoms: C_11  and  C_12 
REMARK       I    between atoms: C_12  and  N_14 
REMARK    6  A    between atoms: N_14  and  C_15 
REMARK    7  A    between atoms: C_15  and  C_16 
REMARK    8  A    between atoms: C_16  and  N_17 
REMARK    9  A    between atoms: C_23  and  C_24 
REMARK   10  A    between atoms: C_23  and  C_25 
REMARK   11  A    between atoms: C_26  and  N_27 
REMARK       I    between atoms: N_27  and  C_28 
REMARK       I    between atoms: C_28  and  N_30 
REMARK   12  A    between atoms: N_30  and  C_31 
REMARK   13  A    between atoms: C_31  and  C_32 
REMARK   14  A    between atoms: C_31  and  C_33 
ROOT
ATOM      1  C   LIG d   1       5.370  -0.117  -2.673  0.00  0.00    -0.073 C 
ATOM      2  C   LIG d   1       4.784  -1.178  -3.125  0.00  0.00    -0.080 C 
ATOM      3  C   LIG d   1       5.428  -2.162  -4.058  0.00  0.00    -0.004 C 
ATOM      4  H   LIG d   1       5.729  -3.041  -3.470  0.00  0.00     0.036 H 
ATOM      5  C   LIG d   1       6.660  -1.537  -4.715  0.00  0.00    -0.030 C 
ATOM      6  H   LIG d   1       6.350  -0.770  -5.441  0.00  0.00     0.031 H 
ATOM      7  C   LIG d   1       7.528  -0.909  -3.617  0.00  0.00    -0.042 C 
ATOM      8  C   LIG d   1       6.773   0.284  -3.025  0.00  0.00    -0.012 C 
ATOM      9  H   LIG d   1       7.273   0.616  -2.105  0.00  0.00     0.035 H 
ATOM     10  H   LIG d   1       3.749  -1.404  -2.828  0.00  0.00     0.058 H 
ATOM     11  H   LIG d   1       7.726  -1.655  -2.834  0.00  0.00     0.027 H 
ATOM     12  H   LIG d   1       8.481  -0.572  -4.052  0.00  0.00     0.027 H 
ENDROOT
BRANCH   8  13
ATOM     13  C   LIG d   1       6.734   1.419  -4.051  0.00  0.00     0.030 C 
ATOM     14  H   LIG d   1       6.277   1.055  -4.983  0.00  0.00     0.036 H 
ATOM     15  H   LIG d   1       6.137   2.253  -3.652  0.00  0.00     0.036 H 
BRANCH  13  16
ATOM     16  C   LIG d   1       8.137   1.894  -4.329  0.00  0.00     0.214 C 
ATOM     17  O   LIG d   1       8.436   2.284  -5.437  0.00  0.00    -0.276 OA
ATOM     18  N   LIG d   1       9.057   1.887  -3.344  0.00  0.00    -0.310 N 
ATOM     19  H   LIG d   1       8.784   1.534  -2.339  0.00  0.00     0.149 HD
BRANCH  18  20
ATOM     20  C   LIG d   1      10.421   2.350  -3.614  0.00  0.00     0.052 C 
ATOM     21  H   LIG d   1      11.114   1.498  -3.563  0.00  0.00     0.051 H 
ATOM     22  H   LIG d   1      10.463   2.800  -4.617  0.00  0.00     0.051 H 
BRANCH  20  23
ATOM     23  C   LIG d   1      10.820   3.395  -2.570  0.00  0.00    -0.016 C 
ATOM     24  H   LIG d   1      10.615   3.003  -1.562  0.00  0.00     0.083 H 
ATOM     25  H   LIG d   1      11.893   3.617  -2.665  0.00  0.00     0.083 H 
BRANCH  23  26
ATOM     26  N   LIG d   1      10.045   4.624  -2.784  0.00  0.00     0.240 N 
ATOM     27  C   LIG d   1      10.367   5.635  -1.768  0.00  0.00    -0.008 C 
ATOM     28  C   LIG d   1       9.496   6.874  -1.993  0.00  0.00     0.088 C 
ATOM     29  H   LIG d   1      10.172   5.224  -0.766  0.00  0.00     0.084 H 
ATOM     30  H   LIG d   1      11.429   5.911  -1.849  0.00  0.00     0.084 H 
ATOM     31  O   LIG d   1       9.700   7.359  -3.323  0.00  0.00    -0.369 OA
ATOM     32  H   LIG d   1       9.773   7.656  -1.271  0.00  0.00     0.061 H 
ATOM     33  H   LIG d   1       8.437   6.609  -1.857  0.00  0.00     0.061 H 
ATOM     34  C   LIG d   1       9.394   6.398  -4.338  0.00  0.00     0.088 C 
ATOM     35  C   LIG d   1      10.266   5.156  -4.137  0.00  0.00    -0.008 C 
ATOM     36  H   LIG d   1       9.598   6.833  -5.328  0.00  0.00     0.061 H 
ATOM     37  H   LIG d   1       8.333   6.118  -4.272  0.00  0.00     0.061 H 
ATOM     38  H   LIG d   1      11.325   5.424  -4.257  0.00  0.00     0.084 H 
ATOM     39  H   LIG d   1       9.994   4.392  -4.880  0.00  0.00     0.084 H 
ATOM     40  H   LIG d   1       8.979   4.369  -2.686  0.00  0.00     0.204 HD
ENDBRANCH  23  26
ENDBRANCH  20  23
ENDBRANCH  18  20
ENDBRANCH  13  16
ENDBRANCH   8  13
BRANCH   1  41
ATOM     41  C   LIG d   1       4.597   0.772  -1.734  0.00  0.00    -0.043 C 
ATOM     42  H   LIG d   1       4.679   1.816  -2.066  0.00  0.00     0.027 H 
ATOM     43  H   LIG d   1       5.008   0.677  -0.717  0.00  0.00     0.027 H 
ATOM     44  H   LIG d   1       3.538   0.470  -1.730  0.00  0.00     0.027 H 
ENDBRANCH   1  41
BRANCH   5  45
ATOM     45  C   LIG d   1       7.459  -2.614  -5.450  0.00  0.00    -0.043 C 
ATOM     46  H   LIG d   1       6.820  -3.093  -6.206  0.00  0.00     0.030 H 
BRANCH  45  47
ATOM     47  C   LIG d   1       8.669  -1.974  -6.135  0.00  0.00    -0.062 C 
ATOM     48  H   LIG d   1       8.955  -1.062  -5.593  0.00  0.00     0.023 H 
ATOM     49  H   LIG d   1       8.409  -1.720  -7.173  0.00  0.00     0.023 H 
ATOM     50  H   LIG d   1       9.509  -2.683  -6.130  0.00  0.00     0.023 H 
ENDBRANCH  45  47
BRANCH  45  51
ATOM     51  C   LIG d   1       7.938  -3.666  -4.447  0.00  0.00    -0.062 C 
ATOM     52  H   LIG d   1       8.825  -3.290  -3.917  0.00  0.00     0.023 H 
ATOM     53  H   LIG d   1       8.196  -4.593  -4.982  0.00  0.00     0.023 H 
ATOM     54  H   LIG d   1       7.138  -3.873  -3.721  0.00  0.00     0.023 H 
ENDBRANCH  45  51
ENDBRANCH   5  45
BRANCH   3  55
ATOM     55  C   LIG d   1       4.425  -2.564  -5.142  0.00  0.00     0.020 C 
ATOM     56  H   LIG d   1       4.963  -2.998  -5.997  0.00  0.00     0.047 H 
ATOM     57  H   LIG d   1       3.723  -3.307  -4.735  0.00  0.00     0.047 H 
BRANCH  55  58
ATOM     58  N   LIG d   1       3.682  -1.380  -5.583  0.00  0.00    -0.299 N 
ATOM     59  C   LIG d   1       3.793  -0.950  -6.854  0.00  0.00     0.300 C 
ATOM     60  O   LIG d   1       4.512  -1.543  -7.636  0.00  0.00    -0.253 OA
ATOM     61  N   LIG d   1       3.110   0.139  -7.260  0.00  0.00    -0.297 N 
ATOM     62  H   LIG d   1       2.461   0.676  -6.552  0.00  0.00     0.150 HD
ATOM     63  H   LIG d   1       3.032  -0.844  -4.875  0.00  0.00     0.150 HD
BRANCH  61  64
ATOM     64  C   LIG d   1       3.233   0.607  -8.643  0.00  0.00     0.019 C 
ATOM     65  H   LIG d   1       4.221   0.291  -9.006  0.00  0.00     0.049 H 
BRANCH  64  66
ATOM     66  C   LIG d   1       2.122  -0.015  -9.492  0.00  0.00    -0.047 C 
ATOM     67  H   LIG d   1       2.503  -0.919  -9.989  0.00  0.00     0.025 H 
ATOM     68  H   LIG d   1       1.792   0.709 -10.252  0.00  0.00     0.025 H 
ATOM     69  H   LIG d   1       1.272  -0.283  -8.846  0.00  0.00     0.025 H 
ENDBRANCH  64  66
BRANCH  64  70
ATOM     70  C   LIG d   1       3.106   2.131  -8.677  0.00  0.00    -0.047 C 
ATOM     71  H   LIG d   1       3.595   2.520  -9.584  0.00  0.00     0.025 H 
ATOM     72  H   LIG d   1       3.592   2.560  -7.788  0.00  0.00     0.025 H 
ATOM     73  H   LIG d   1       2.043   2.412  -8.685  0.00  0.00     0.025 H 
ENDBRANCH  64  70
ENDBRANCH  61  64
ENDBRANCH  55  58
ENDBRANCH   3  55
TORSDOF 14
ENDMDL
MODEL 5
REMARK VINA RESULT:      -6.0      4.987     10.170
REMARK  14 active torsions:
REMARK  status: ('A' for Active; 'I' for Inactive)
REMARK    1  A    between atoms: C_1  and  C_2 
REMARK    2  A    between atoms: C_4  and  C_26 
REMARK    3  A    between atoms: C_6  and  C_23 
REMARK    4  A    between atoms: C_9  and  C_11 
REMARK    5  A    between atoms: C_11  and  C_12 
REMARK       I    between atoms: C_12  and  N_14 
REMARK    6  A    between atoms: N_14  and  C_15 
REMARK    7  A    between atoms: C_15  and  C_16 
REMARK    8  A    between atoms: C_16  and  N_17 
REMARK    9  A    between atoms: C_23  and  C_24 
REMARK   10  A    between atoms: C_23  and  C_25 
REMARK   11  A    between atoms: C_26  and  N_27 
REMARK       I    between atoms: N_27  and  C_28 
REMARK       I    between atoms: C_28  and  N_30 
REMARK   12  A    between atoms: N_30  and  C_31 
REMARK   13  A    between atoms: C_31  and  C_32 
REMARK   14  A    between atoms: C_31  and  C_33 
ROOT
ATOM      1  C   LIG d   1       4.163  -4.307 -10.060  0.00  0.00    -0.073 C 
ATOM      2  C   LIG d   1       3.294  -3.881 -10.919  0.00  0.00    -0.080 C 
ATOM      3  C   LIG d   1       2.625  -2.539 -10.844  0.00  0.00    -0.004 C 
ATOM      4  H   LIG d   1       3.110  -1.877 -11.576  0.00  0.00     0.036 H 
ATOM      5  C   LIG d   1       2.779  -1.951  -9.440  0.00  0.00    -0.030 C 
ATOM      6  H   LIG d   1       2.152  -2.509  -8.729  0.00  0.00     0.031 H 
ATOM      7  C   LIG d   1       4.255  -2.046  -9.034  0.00  0.00    -0.042 C 
ATOM      8  C   LIG d   1       4.618  -3.523  -8.864  0.00  0.00    -0.012 C 
ATOM      9  H   LIG d   1       5.709  -3.628  -8.783  0.00  0.00     0.035 H 
ATOM     10  H   LIG d   1       3.003  -4.516 -11.769  0.00  0.00     0.058 H 
ATOM     11  H   LIG d   1       4.881  -1.593  -9.817  0.00  0.00     0.027 H 
ATOM     12  H   LIG d   1       4.410  -1.509  -8.086  0.00  0.00     0.027 H 
ENDROOT
BRANCH   8  13
ATOM     13  C   LIG d   1       3.935  -4.071  -7.609  0.00  0.00     0.030 C 
ATOM     14  H   LIG d   1       2.933  -3.628  -7.514  0.00  0.00     0.036 H 
ATOM     15  H   LIG d   1       3.846  -5.165  -7.688  0.00  0.00     0.036 H 
BRANCH  13  16
ATOM     16  C   LIG d   1       4.758  -3.722  -6.396  0.00  0.00     0.214 C 
ATOM     17  O   LIG d   1       5.957  -3.902  -6.404  0.00  0.00    -0.276 OA
ATOM     18  N   LIG d   1       4.161  -3.206  -5.303  0.00  0.00    -0.310 N 
ATOM     19  H   LIG d   1       3.074  -3.041  -5.296  0.00  0.00     0.149 HD
BRANCH  18  20
ATOM     20  C   LIG d   1       4.962  -2.865  -4.124  0.00  0.00     0.052 C 
ATOM     21  H   LIG d   1       5.505  -3.757  -3.780  0.00  0.00     0.051 H 
ATOM     22  H   LIG d   1       5.681  -2.074  -4.385  0.00  0.00     0.051 H 
BRANCH  20  23
ATOM     23  C   LIG d   1       4.040  -2.368  -3.008  0.00  0.00    -0.016 C 
ATOM     24  H   LIG d   1       2.996  -2.400  -3.354  0.00  0.00     0.083 H 
ATOM     25  H   LIG d   1       4.153  -3.013  -2.125  0.00  0.00     0.083 H 
BRANCH  23  26
ATOM     26  N   LIG d   1       4.398  -0.988  -2.656  0.00  0.00     0.240 N 
ATOM     27  C   LIG d   1       5.536  -0.517  -3.458  0.00  0.00    -0.008 C 
ATOM     28  C   LIG d   1       5.913   0.901  -3.018  0.00  0.00     0.088 C 
ATOM     29  H   LIG d   1       6.393  -1.189  -3.309  0.00  0.00     0.084 H 
ATOM     30  H   LIG d   1       5.257  -0.511  -4.522  0.00  0.00     0.084 H 
ATOM     31  O   LIG d   1       4.771   1.753  -3.145  0.00  0.00    -0.369 OA
ATOM     32  H   LIG d   1       6.726   1.280  -3.654  0.00  0.00     0.061 H 
ATOM     33  H   LIG d   1       6.244   0.885  -1.970  0.00  0.00     0.061 H 
ATOM     34  C   LIG d   1       3.644   1.323  -2.375  0.00  0.00     0.088 C 
ATOM     35  C   LIG d   1       3.245  -0.089  -2.810  0.00  0.00    -0.008 C 
ATOM     36  H   LIG d   1       2.801   2.011  -2.542  0.00  0.00     0.061 H 
ATOM     37  H   LIG d   1       3.908   1.319  -1.308  0.00  0.00     0.061 H 
ATOM     38  H   LIG d   1       2.928  -0.076  -3.863  0.00  0.00     0.084 H 
ATOM     39  H   LIG d   1       2.415  -0.447  -2.182  0.00  0.00     0.084 H 
ATOM     40  H   LIG d   1       4.700  -0.980  -1.598  0.00  0.00     0.204 HD
ENDBRANCH  23  26
ENDBRANCH  20  23
ENDBRANCH  18  20
ENDBRANCH  13  16
ENDBRANCH   8  13
BRANCH   1  41
ATOM     41  C   LIG d   1       4.756  -5.675 -10.275  0.00  0.00    -0.043 C 
ATOM     42  H   LIG d   1       5.317  -5.687 -11.221  0.00  0.00     0.027 H 
ATOM     43  H   LIG d   1       3.949  -6.422 -10.317  0.00  0.00     0.027 H 
ATOM     44  H   LIG d   1       5.436  -5.915  -9.443  0.00  0.00     0.027 H 
ENDBRANCH   1  41
BRANCH   5  45
ATOM     45  C   LIG d   1       2.338  -0.487  -9.439  0.00  0.00    -0.043 C 
ATOM     46  H   LIG d   1       1.281  -0.422  -9.739  0.00  0.00     0.030 H 
BRANCH  45  47
ATOM     47  C   LIG d   1       2.506   0.097  -8.034  0.00  0.00    -0.062 C 
ATOM     48  H   LIG d   1       2.287  -0.681  -7.287  0.00  0.00     0.023 H 
ATOM     49  H   LIG d   1       1.811   0.939  -7.902  0.00  0.00     0.023 H 
ATOM     50  H   LIG d   1       3.539   0.449  -7.905  0.00  0.00     0.023 H 
ENDBRANCH  45  47
BRANCH  45  51
ATOM     51  C   LIG d   1       3.198   0.305 -10.426  0.00  0.00    -0.062 C 
ATOM     52  H   LIG d   1       2.653   1.205 -10.748  0.00  0.00     0.023 H 
ATOM     53  H   LIG d   1       3.423  -0.321 -11.302  0.00  0.00     0.023 H 
ATOM     54  H   LIG d   1       4.138   0.603  -9.937  0.00  0.00     0.023 H 
ENDBRANCH  45  51
ENDBRANCH   5  45
BRANCH   3  55
ATOM     55  C   LIG d   1       1.138  -2.694 -11.168  0.00  0.00     0.020 C 
ATOM     56  H   LIG d   1       0.651  -1.709 -11.138  0.00  0.00     0.047 H 
ATOM     57  H   LIG d   1       1.025  -3.129 -12.172  0.00  0.00     0.047 H 
BRANCH  55  58
ATOM     58  N   LIG d   1       0.513  -3.578 -10.179  0.00  0.00    -0.299 N 
ATOM     59  C   LIG d   1      -0.385  -4.502 -10.573  0.00  0.00     0.300 C 
ATOM     60  O   LIG d   1      -0.679  -4.601 -11.749  0.00  0.00    -0.253 OA
ATOM     61  N   LIG d   1      -0.960  -5.314  -9.665  0.00  0.00    -0.297 N 
ATOM     62  H   LIG d   1      -0.695  -5.223  -8.600  0.00  0.00     0.150 HD
ATOM     63  H   LIG d   1       0.778  -3.487  -9.115  0.00  0.00     0.150 HD
BRANCH  61  64
ATOM     64  C   LIG d   1      -1.938  -6.317 -10.094  0.00  0.00     0.019 C 
ATOM     65  H   LIG d   1      -2.154  -6.127 -11.154  0.00  0.00     0.049 H 
BRANCH  64  66
ATOM     66  C   LIG d   1      -1.346  -7.716  -9.907  0.00  0.00    -0.047 C 
ATOM     67  H   LIG d   1      -1.904  -8.436 -10.525  0.00  0.00     0.025 H 
ATOM     68  H   LIG d   1      -1.420  -8.008  -8.849  0.00  0.00     0.025 H 
ATOM     69  H   LIG d   1      -0.290  -7.712 -10.214  0.00  0.00     0.025 H 
ENDBRANCH  64  66
BRANCH  64  70
ATOM     70  C   LIG d   1      -3.207  -6.185  -9.251  0.00  0.00    -0.047 C 
ATOM     71  H   LIG d   1      -4.054  -6.639  -9.788  0.00  0.00     0.025 H 
ATOM     72  H   LIG d   1      -3.418  -5.120  -9.070  0.00  0.00     0.025 H 
ATOM     73  H   LIG d   1      -3.065  -6.699  -8.289  0.00  0.00     0.025 H 
ENDBRANCH  64  70
ENDBRANCH  61  64
ENDBRANCH  55  58
ENDBRANCH   3  55
TORSDOF 14
ENDMDL
MODEL 6
REMARK VINA RESULT:      -5.9      2.406      3.102
REMARK  14 active torsions:
REMARK  status: ('A' for Active; 'I' for Inactive)
REMARK    1  A    between atoms: C_1  and  C_2 
REMARK    2  A    between atoms: C_4  and  C_26 
REMARK    3  A    between atoms: C_6  and  C_23 
REMARK    4  A    between atoms: C_9  and  C_11 
REMARK    5  A    between atoms: C_11  and  C_12 
REMARK       I    between atoms: C_12  and  N_14 
REMARK    6  A    between atoms: N_14  and  C_15 
REMARK    7  A    between atoms: C_15  and  C_16 
REMARK    8  A    between atoms: C_16  and  N_17 
REMARK    9  A    between atoms: C_23  and  C_24 
REMARK   10  A    between atoms: C_23  and  C_25 
REMARK   11  A    between atoms: C_26  and  N_27 
REMARK       I    between atoms: N_27  and  C_28 
REMARK       I    between atoms: C_28  and  N_30 
REMARK   12  A    between atoms: N_30  and  C_31 
REMARK   13  A    between atoms: C_31  and  C_32 
REMARK   14  A    between atoms: C_31  and  C_33 
ROOT
ATOM      1  C   LIG d   1       6.618  -3.196  -4.396  0.00  0.00    -0.073 C 
ATOM      2  C   LIG d   1       7.140  -2.120  -3.902  0.00  0.00    -0.080 C 
ATOM      3  C   LIG d   1       6.343  -0.970  -3.360  0.00  0.00    -0.004 C 
ATOM      4  H   LIG d   1       6.365  -1.029  -2.262  0.00  0.00     0.036 H 
ATOM      5  C   LIG d   1       4.895  -1.055  -3.849  0.00  0.00    -0.030 C 
ATOM      6  H   LIG d   1       4.848  -0.821  -4.923  0.00  0.00     0.031 H 
ATOM      7  C   LIG d   1       4.379  -2.476  -3.591  0.00  0.00    -0.042 C 
ATOM      8  C   LIG d   1       5.141  -3.441  -4.503  0.00  0.00    -0.012 C 
ATOM      9  H   LIG d   1       4.944  -4.476  -4.191  0.00  0.00     0.035 H 
ATOM     10  H   LIG d   1       8.234  -2.007  -3.863  0.00  0.00     0.058 H 
ATOM     11  H   LIG d   1       4.548  -2.742  -2.538  0.00  0.00     0.027 H 
ATOM     12  H   LIG d   1       3.302  -2.521  -3.813  0.00  0.00     0.027 H 
ENDROOT
BRANCH   8  13
ATOM     13  C   LIG d   1       4.696  -3.227  -5.952  0.00  0.00     0.030 C 
ATOM     14  H   LIG d   1       3.833  -2.545  -5.973  0.00  0.00     0.036 H 
ATOM     15  H   LIG d   1       5.524  -2.790  -6.529  0.00  0.00     0.036 H 
BRANCH  13  16
ATOM     16  C   LIG d   1       4.307  -4.551  -6.558  0.00  0.00     0.214 C 
ATOM     17  O   LIG d   1       3.505  -5.264  -5.993  0.00  0.00    -0.276 OA
ATOM     18  N   LIG d   1       4.849  -4.941  -7.730  0.00  0.00    -0.310 N 
ATOM     19  H   LIG d   1       5.574  -4.293  -8.241  0.00  0.00     0.149 HD
BRANCH  18  20
ATOM     20  C   LIG d   1       4.469  -6.228  -8.319  0.00  0.00     0.052 C 
ATOM     21  H   LIG d   1       3.548  -6.592  -7.843  0.00  0.00     0.051 H 
ATOM     22  H   LIG d   1       4.300  -6.101  -9.399  0.00  0.00     0.051 H 
BRANCH  20  23
ATOM     23  C   LIG d   1       5.593  -7.241  -8.095  0.00  0.00    -0.016 C 
ATOM     24  H   LIG d   1       5.381  -8.156  -8.668  0.00  0.00     0.083 H 
ATOM     25  H   LIG d   1       6.548  -6.811  -8.431  0.00  0.00     0.083 H 
BRANCH  23  26
ATOM     26  N   LIG d   1       5.680  -7.568  -6.665  0.00  0.00     0.240 N 
ATOM     27  C   LIG d   1       4.770  -8.668  -6.320  0.00  0.00    -0.008 C 
ATOM     28  C   LIG d   1       4.848  -8.936  -4.813  0.00  0.00     0.088 C 
ATOM     29  H   LIG d   1       3.740  -8.393  -6.591  0.00  0.00     0.084 H 
ATOM     30  H   LIG d   1       5.064  -9.574  -6.871  0.00  0.00     0.084 H 
ATOM     31  O   LIG d   1       6.203  -9.221  -4.455  0.00  0.00    -0.369 OA
ATOM     32  H   LIG d   1       4.213  -9.796  -4.558  0.00  0.00     0.061 H 
ATOM     33  H   LIG d   1       4.502  -8.048  -4.264  0.00  0.00     0.061 H 
ATOM     34  C   LIG d   1       7.117  -8.168  -4.778  0.00  0.00     0.088 C 
ATOM     35  C   LIG d   1       7.062  -7.895  -6.283  0.00  0.00    -0.008 C 
ATOM     36  H   LIG d   1       8.137  -8.469  -4.497  0.00  0.00     0.061 H 
ATOM     37  H   LIG d   1       6.838  -7.258  -4.228  0.00  0.00     0.061 H 
ATOM     38  H   LIG d   1       7.393  -8.787  -6.833  0.00  0.00     0.084 H 
ATOM     39  H   LIG d   1       7.719  -7.048  -6.527  0.00  0.00     0.084 H 
ATOM     40  H   LIG d   1       5.370  -6.677  -6.099  0.00  0.00     0.204 HD
ENDBRANCH  23  26
ENDBRANCH  20  23
ENDBRANCH  18  20
ENDBRANCH  13  16
ENDBRANCH   8  13
BRANCH   1  41
ATOM     41  C   LIG d   1       7.550  -4.270  -4.893  0.00  0.00    -0.043 C 
ATOM     42  H   LIG d   1       8.225  -3.848  -5.651  0.00  0.00     0.027 H 
ATOM     43  H   LIG d   1       6.963  -5.088  -5.338  0.00  0.00     0.027 H 
ATOM     44  H   LIG d   1       8.143  -4.660  -4.051  0.00  0.00     0.027 H 
ENDBRANCH   1  41
BRANCH   5  45
ATOM     45  C   LIG d   1       4.031  -0.047  -3.089  0.00  0.00    -0.043 C 
ATOM     46  H   LIG d   1       4.140   0.948  -3.546  0.00  0.00     0.030 H 
BRANCH  45  47
ATOM     47  C   LIG d   1       2.564  -0.481  -3.155  0.00  0.00    -0.062 C 
ATOM     48  H   LIG d   1       2.022  -0.066  -2.294  0.00  0.00     0.023 H 
ATOM     49  H   LIG d   1       2.506  -1.579  -3.133  0.00  0.00     0.023 H 
ATOM     50  H   LIG d   1       2.114  -0.108  -4.086  0.00  0.00     0.023 H 
ENDBRANCH  45  47
BRANCH  45  51
ATOM     51  C   LIG d   1       4.480   0.010  -1.628  0.00  0.00    -0.062 C 
ATOM     52  H   LIG d   1       5.378   0.640  -1.545  0.00  0.00     0.023 H 
ATOM     53  H   LIG d   1       4.711  -1.007  -1.275  0.00  0.00     0.023 H 
ATOM     54  H   LIG d   1       3.675   0.437  -1.013  0.00  0.00     0.023 H 
ENDBRANCH  45  51
ENDBRANCH   5  45
BRANCH   3  55
ATOM     55  C   LIG d   1       6.962   0.346  -3.836  0.00  0.00     0.020 C 
ATOM     56  H   LIG d   1       6.650   1.162  -3.167  0.00  0.00     0.047 H 
ATOM     57  H   LIG d   1       8.059   0.261  -3.823  0.00  0.00     0.047 H 
BRANCH  55  58
ATOM     58  N   LIG d   1       6.509   0.634  -5.200  0.00  0.00    -0.299 N 
ATOM     59  C   LIG d   1       7.409   0.784  -6.191  0.00  0.00     0.300 C 
ATOM     60  O   LIG d   1       8.598   0.684  -5.953  0.00  0.00    -0.253 OA
ATOM     61  N   LIG d   1       6.994   1.049  -7.445  0.00  0.00    -0.297 N 
ATOM     62  H   LIG d   1       5.918   1.141  -7.660  0.00  0.00     0.150 HD
ATOM     63  H   LIG d   1       5.434   0.725  -5.414  0.00  0.00     0.150 HD
BRANCH  61  64
ATOM     64  C   LIG d   1       7.973   1.214  -8.522  0.00  0.00     0.019 C 
ATOM     65  H   LIG d   1       8.919   0.778  -8.171  0.00  0.00     0.049 H 
BRANCH  64  66
ATOM     66  C   LIG d   1       7.479   0.488  -9.775  0.00  0.00    -0.047 C 
ATOM     67  H   LIG d   1       7.810   1.034 -10.671  0.00  0.00     0.025 H 
ATOM     68  H   LIG d   1       6.380   0.440  -9.762  0.00  0.00     0.025 H 
ATOM     69  H   LIG d   1       7.890  -0.532  -9.796  0.00  0.00     0.025 H 
ENDBRANCH  64  66
BRANCH  64  70
ATOM     70  C   LIG d   1       8.146   2.702  -8.830  0.00  0.00    -0.047 C 
ATOM     71  H   LIG d   1       8.607   3.205  -7.967  0.00  0.00     0.025 H 
ATOM     72  H   LIG d   1       7.162   3.152  -9.032  0.00  0.00     0.025 H 
ATOM     73  H   LIG d   1       8.792   2.822  -9.712  0.00  0.00     0.025 H 
ENDBRANCH  64  70
ENDBRANCH  61  64
ENDBRANCH  55  58
ENDBRANCH   3  55
TORSDOF 14
ENDMDL
MODEL 7
REMARK VINA RESULT:      -5.8      5.885      7.688
REMARK  14 active torsions:
REMARK  status: ('A' for Active; 'I' for Inactive)
REMARK    1  A    between atoms: C_1  and  C_2 
REMARK    2  A    between atoms: C_4  and  C_26 
REMARK    3  A    between atoms: C_6  and  C_23 
REMARK    4  A    between atoms: C_9  and  C_11 
REMARK    5  A    between atoms: C_11  and  C_12 
REMARK       I    between atoms: C_12  and  N_14 
REMARK    6  A    between atoms: N_14  and  C_15 
REMARK    7  A    between atoms: C_15  and  C_16 
REMARK    8  A    between atoms: C_16  and  N_17 
REMARK    9  A    between atoms: C_23  and  C_24 
REMARK   10  A    between atoms: C_23  and  C_25 
REMARK   11  A    between atoms: C_26  and  N_27 
REMARK       I    between atoms: N_27  and  C_28 
REMARK       I    between atoms: C_28  and  N_30 
REMARK   12  A    between atoms: N_30  and  C_31 
REMARK   13  A    between atoms: C_31  and  C_32 
REMARK   14  A    between atoms: C_31  and  C_33 
ROOT
ATOM      1  C   LIG d   1       3.570   1.005  -9.190  0.00  0.00    -0.073 C 
ATOM      2  C   LIG d   1       4.688   0.838  -8.561  0.00  0.00    -0.080 C 
ATOM      3  C   LIG d   1       5.571  -0.365  -8.718  0.00  0.00    -0.004 C 
ATOM      4  H   LIG d   1       6.415  -0.086  -9.364  0.00  0.00     0.036 H 
ATOM      5  C   LIG d   1       4.789  -1.512  -9.362  0.00  0.00    -0.030 C 
ATOM      6  H   LIG d   1       4.056  -1.914  -8.647  0.00  0.00     0.031 H 
ATOM      7  C   LIG d   1       4.076  -0.973 -10.608  0.00  0.00    -0.042 C 
ATOM      8  C   LIG d   1       2.995   0.013 -10.159  0.00  0.00    -0.012 C 
ATOM      9  H   LIG d   1       2.617   0.567 -11.030  0.00  0.00     0.035 H 
ATOM     10  H   LIG d   1       5.043   1.607  -7.859  0.00  0.00     0.058 H 
ATOM     11  H   LIG d   1       4.804  -0.463 -11.255  0.00  0.00     0.027 H 
ATOM     12  H   LIG d   1       3.618  -1.808 -11.158  0.00  0.00     0.027 H 
ENDROOT
BRANCH   8  13
ATOM     13  C   LIG d   1       1.857  -0.756  -9.482  0.00  0.00     0.030 C 
ATOM     14  H   LIG d   1       2.260  -1.346  -8.647  0.00  0.00     0.036 H 
ATOM     15  H   LIG d   1       1.110  -0.044  -9.101  0.00  0.00     0.036 H 
BRANCH  13  16
ATOM     16  C   LIG d   1       1.208  -1.676 -10.483  0.00  0.00     0.214 C 
ATOM     17  O   LIG d   1       0.894  -1.258 -11.577  0.00  0.00    -0.276 OA
ATOM     18  N   LIG d   1       0.979  -2.966 -10.163  0.00  0.00    -0.310 N 
ATOM     19  H   LIG d   1       1.265  -3.345  -9.172  0.00  0.00     0.149 HD
BRANCH  18  20
ATOM     20  C   LIG d   1       0.349  -3.861 -11.137  0.00  0.00     0.052 C 
ATOM     21  H   LIG d   1      -0.647  -3.476 -11.399  0.00  0.00     0.051 H 
ATOM     22  H   LIG d   1       0.972  -3.915 -12.042  0.00  0.00     0.051 H 
BRANCH  20  23
ATOM     23  C   LIG d   1       0.211  -5.258 -10.530  0.00  0.00    -0.016 C 
ATOM     24  H   LIG d   1       0.864  -5.959 -11.071  0.00  0.00     0.083 H 
ATOM     25  H   LIG d   1       0.504  -5.228  -9.470  0.00  0.00     0.083 H 
BRANCH  23  26
ATOM     26  N   LIG d   1      -1.184  -5.705 -10.639  0.00  0.00     0.240 N 
ATOM     27  C   LIG d   1      -1.750  -5.994  -9.315  0.00  0.00    -0.008 C 
ATOM     28  C   LIG d   1      -3.182  -6.512  -9.479  0.00  0.00     0.088 C 
ATOM     29  H   LIG d   1      -1.138  -6.757  -8.812  0.00  0.00     0.084 H 
ATOM     30  H   LIG d   1      -1.758  -5.074  -8.711  0.00  0.00     0.084 H 
ATOM     31  O   LIG d   1      -3.953  -5.546 -10.199  0.00  0.00    -0.369 OA
ATOM     32  H   LIG d   1      -3.631  -6.675  -8.489  0.00  0.00     0.061 H 
ATOM     33  H   LIG d   1      -3.169  -7.460 -10.036  0.00  0.00     0.061 H 
ATOM     34  C   LIG d   1      -3.429  -5.242 -11.495  0.00  0.00     0.088 C 
ATOM     35  C   LIG d   1      -2.001  -4.710 -11.350  0.00  0.00    -0.008 C 
ATOM     36  H   LIG d   1      -4.058  -4.477 -11.976  0.00  0.00     0.061 H 
ATOM     37  H   LIG d   1      -3.422  -6.152 -12.112  0.00  0.00     0.061 H 
ATOM     38  H   LIG d   1      -2.012  -3.770 -10.780  0.00  0.00     0.084 H 
ATOM     39  H   LIG d   1      -1.572  -4.529 -12.347  0.00  0.00     0.084 H 
ATOM     40  H   LIG d   1      -1.192  -6.636 -11.225  0.00  0.00     0.204 HD
ENDBRANCH  23  26
ENDBRANCH  20  23
ENDBRANCH  18  20
ENDBRANCH  13  16
ENDBRANCH   8  13
BRANCH   1  41
ATOM     41  C   LIG d   1       2.798   2.273  -8.936  0.00  0.00    -0.043 C 
ATOM     42  H   LIG d   1       2.185   2.512  -9.817  0.00  0.00     0.027 H 
ATOM     43  H   LIG d   1       3.500   3.097  -8.742  0.00  0.00     0.027 H 
ATOM     44  H   LIG d   1       2.143   2.135  -8.062  0.00  0.00     0.027 H 
ENDBRANCH   1  41
BRANCH   5  45
ATOM     45  C   LIG d   1       5.749  -2.634  -9.762  0.00  0.00    -0.043 C 
ATOM     46  H   LIG d   1       6.365  -2.916  -8.896  0.00  0.00     0.030 H 
BRANCH  45  47
ATOM     47  C   LIG d   1       4.946  -3.848 -10.236  0.00  0.00    -0.062 C 
ATOM     48  H   LIG d   1       4.020  -3.507 -10.721  0.00  0.00     0.023 H 
ATOM     49  H   LIG d   1       4.697  -4.481  -9.372  0.00  0.00     0.023 H 
ATOM     50  H   LIG d   1       5.545  -4.425 -10.954  0.00  0.00     0.023 H 
ENDBRANCH  45  47
BRANCH  45  51
ATOM     51  C   LIG d   1       6.655  -2.148 -10.896  0.00  0.00    -0.062 C 
ATOM     52  H   LIG d   1       7.186  -1.239 -10.577  0.00  0.00     0.023 H 
ATOM     53  H   LIG d   1       6.045  -1.924 -11.784  0.00  0.00     0.023 H 
ATOM     54  H   LIG d   1       7.387  -2.932 -11.142  0.00  0.00     0.023 H 
ENDBRANCH  45  51
ENDBRANCH   5  45
BRANCH   3  55
ATOM     55  C   LIG d   1       6.077  -0.806  -7.342  0.00  0.00     0.020 C 
ATOM     56  H   LIG d   1       5.778  -1.848  -7.158  0.00  0.00     0.047 H 
ATOM     57  H   LIG d   1       7.173  -0.728  -7.312  0.00  0.00     0.047 H 
BRANCH  55  58
ATOM     58  N   LIG d   1       5.497   0.057  -6.309  0.00  0.00    -0.299 N 
ATOM     59  C   LIG d   1       5.154  -0.460  -5.113  0.00  0.00     0.300 C 
ATOM     60  O   LIG d   1       5.325  -1.644  -4.891  0.00  0.00    -0.253 OA
ATOM     61  N   LIG d   1       4.621   0.333  -4.164  0.00  0.00    -0.297 N 
ATOM     62  H   LIG d   1       4.465   1.404  -4.365  0.00  0.00     0.150 HD
ATOM     63  H   LIG d   1       5.342   1.128  -6.511  0.00  0.00     0.150 HD
BRANCH  61  64
ATOM     64  C   LIG d   1       4.248  -0.230  -2.864  0.00  0.00     0.019 C 
ATOM     65  H   LIG d   1       4.879  -1.114  -2.699  0.00  0.00     0.049 H 
BRANCH  64  66
ATOM     66  C   LIG d   1       4.486   0.813  -1.769  0.00  0.00    -0.047 C 
ATOM     67  H   LIG d   1       5.120   1.621  -2.164  0.00  0.00     0.025 H 
ATOM     68  H   LIG d   1       4.988   0.338  -0.913  0.00  0.00     0.025 H 
ATOM     69  H   LIG d   1       3.522   1.230  -1.443  0.00  0.00     0.025 H 
ENDBRANCH  64  66
BRANCH  64  70
ATOM     70  C   LIG d   1       2.768  -0.619  -2.882  0.00  0.00    -0.047 C 
ATOM     71  H   LIG d   1       2.660  -1.666  -2.561  0.00  0.00     0.025 H 
ATOM     72  H   LIG d   1       2.372  -0.508  -3.903  0.00  0.00     0.025 H 
ATOM     73  H   LIG d   1       2.207   0.034  -2.198  0.00  0.00     0.025 H 
ENDBRANCH  64  70
ENDBRANCH  61  64
ENDBRANCH  55  58
ENDBRANCH   3  55
TORSDOF 14
ENDMDL
MODEL 8
REMARK VINA RESULT:      -5.7      5.189      6.678
REMARK  14 active torsions:
REMARK  status: ('A' for Active; 'I' for Inactive)
REMARK    1  A    between atoms: C_1  and  C_2 
REMARK    2  A    between atoms: C_4  and  C_26 
REMARK    3  A    between atoms: C_6  and  C_23 
REMARK    4  A    between atoms: C_9  and  C_11 
REMARK    5  A    between atoms: C_11  and  C_12 
REMARK       I    between atoms: C_12  and  N_14 
REMARK    6  A    between atoms: N_14  and  C_15 
REMARK    7  A    between atoms: C_15  and  C_16 
REMARK    8  A    between atoms: C_16  and  N_17 
REMARK    9  A    between atoms: C_23  and  C_24 
REMARK   10  A    between atoms: C_23  and  C_25 
REMARK   11  A    between atoms: C_26  and  N_27 
REMARK       I    between atoms: N_27  and  C_28 
REMARK       I    between atoms: C_28  and  N_30 
REMARK   12  A    between atoms: N_30  and  C_31 
REMARK   13  A    between atoms: C_31  and  C_32 
REMARK   14  A    between atoms: C_31  and  C_33 
ROOT
ATOM      1  C   LIG d   1       7.099  -0.938  -5.703  0.00  0.00    -0.073 C 
ATOM      2  C   LIG d   1       5.997  -0.314  -5.967  0.00  0.00    -0.080 C 
ATOM      3  C   LIG d   1       4.848  -0.193  -5.008  0.00  0.00    -0.004 C 
ATOM      4  H   LIG d   1       4.872   0.817  -4.574  0.00  0.00     0.036 H 
ATOM      5  C   LIG d   1       4.980  -1.233  -3.894  0.00  0.00    -0.030 C 
ATOM      6  H   LIG d   1       4.781  -2.239  -4.294  0.00  0.00     0.031 H 
ATOM      7  C   LIG d   1       6.404  -1.159  -3.328  0.00  0.00    -0.042 C 
ATOM      8  C   LIG d   1       7.379  -1.637  -4.405  0.00  0.00    -0.012 C 
ATOM      9  H   LIG d   1       8.409  -1.396  -4.104  0.00  0.00     0.035 H 
ATOM     10  H   LIG d   1       5.859   0.170  -6.945  0.00  0.00     0.058 H 
ATOM     11  H   LIG d   1       6.633  -0.121  -3.047  0.00  0.00     0.027 H 
ATOM     12  H   LIG d   1       6.479  -1.804  -2.439  0.00  0.00     0.027 H 
ENDROOT
BRANCH   8  13
ATOM     13  C   LIG d   1       7.221  -3.147  -4.598  0.00  0.00     0.030 C 
ATOM     14  H   LIG d   1       6.388  -3.511  -3.979  0.00  0.00     0.036 H 
ATOM     15  H   LIG d   1       7.012  -3.362  -5.657  0.00  0.00     0.036 H 
BRANCH  13  16
ATOM     16  C   LIG d   1       8.494  -3.842  -4.188  0.00  0.00     0.214 C 
ATOM     17  O   LIG d   1       9.055  -4.588  -4.963  0.00  0.00    -0.276 OA
ATOM     18  N   LIG d   1       9.010  -3.633  -2.960  0.00  0.00    -0.310 N 
ATOM     19  H   LIG d   1       8.502  -2.957  -2.259  0.00  0.00     0.149 HD
BRANCH  18  20
ATOM     20  C   LIG d   1      10.248  -4.308  -2.562  0.00  0.00     0.052 C 
ATOM     21  H   LIG d   1      10.840  -4.546  -3.458  0.00  0.00     0.051 H 
ATOM     22  H   LIG d   1      10.830  -3.648  -1.902  0.00  0.00     0.051 H 
BRANCH  20  23
ATOM     23  C   LIG d   1       9.907  -5.601  -1.819  0.00  0.00    -0.016 C 
ATOM     24  H   LIG d   1       9.604  -5.363  -0.788  0.00  0.00     0.083 H 
ATOM     25  H   LIG d   1       9.081  -6.113  -2.334  0.00  0.00     0.083 H 
BRANCH  23  26
ATOM     26  N   LIG d   1      11.086  -6.477  -1.793  0.00  0.00     0.240 N 
ATOM     27  C   LIG d   1      10.863  -7.634  -0.914  0.00  0.00    -0.008 C 
ATOM     28  C   LIG d   1      12.135  -8.487  -0.869  0.00  0.00     0.088 C 
ATOM     29  H   LIG d   1      10.619  -7.284   0.099  0.00  0.00     0.084 H 
ATOM     30  H   LIG d   1      10.029  -8.236  -1.305  0.00  0.00     0.084 H 
ATOM     31  O   LIG d   1      12.488  -8.876  -2.199  0.00  0.00    -0.369 OA
ATOM     32  H   LIG d   1      11.955  -9.384  -0.260  0.00  0.00     0.061 H 
ATOM     33  H   LIG d   1      12.955  -7.902  -0.428  0.00  0.00     0.061 H 
ATOM     34  C   LIG d   1      12.713  -7.773  -3.081  0.00  0.00     0.088 C 
ATOM     35  C   LIG d   1      11.447  -6.915  -3.149  0.00  0.00    -0.008 C 
ATOM     36  H   LIG d   1      12.955  -8.149  -4.087  0.00  0.00     0.061 H 
ATOM     37  H   LIG d   1      13.550  -7.166  -2.706  0.00  0.00     0.061 H 
ATOM     38  H   LIG d   1      10.623  -7.505  -3.576  0.00  0.00     0.084 H 
ATOM     39  H   LIG d   1      11.634  -6.034  -3.780  0.00  0.00     0.084 H 
ATOM     40  H   LIG d   1      11.926  -5.896  -1.385  0.00  0.00     0.204 HD
ENDBRANCH  23  26
ENDBRANCH  20  23
ENDBRANCH  18  20
ENDBRANCH  13  16
ENDBRANCH   8  13
BRANCH   1  41
ATOM     41  C   LIG d   1       8.167  -0.964  -6.765  0.00  0.00    -0.043 C 
ATOM     42  H   LIG d   1       8.088  -1.897  -7.342  0.00  0.00     0.027 H 
ATOM     43  H   LIG d   1       9.158  -0.910  -6.290  0.00  0.00     0.027 H 
ATOM     44  H   LIG d   1       8.036  -0.104  -7.439  0.00  0.00     0.027 H 
ENDBRANCH   1  41
BRANCH   5  45
ATOM     45  C   LIG d   1       3.969  -0.938  -2.785  0.00  0.00    -0.043 C 
ATOM     46  H   LIG d   1       3.043  -0.543  -3.229  0.00  0.00     0.030 H 
BRANCH  45  47
ATOM     47  C   LIG d   1       3.659  -2.227  -2.020  0.00  0.00    -0.062 C 
ATOM     48  H   LIG d   1       2.996  -1.998  -1.173  0.00  0.00     0.023 H 
ATOM     49  H   LIG d   1       4.596  -2.665  -1.645  0.00  0.00     0.023 H 
ATOM     50  H   LIG d   1       3.163  -2.941  -2.692  0.00  0.00     0.023 H 
ENDBRANCH  45  47
BRANCH  45  51
ATOM     51  C   LIG d   1       4.556   0.097  -1.823  0.00  0.00    -0.062 C 
ATOM     52  H   LIG d   1       5.653   0.083  -1.894  0.00  0.00     0.023 H 
ATOM     53  H   LIG d   1       4.252  -0.144  -0.793  0.00  0.00     0.023 H 
ATOM     54  H   LIG d   1       4.185   1.098  -2.089  0.00  0.00     0.023 H 
ENDBRANCH  45  51
ENDBRANCH   5  45
BRANCH   3  55
ATOM     55  C   LIG d   1       3.534  -0.419  -5.759  0.00  0.00     0.020 C 
ATOM     56  H   LIG d   1       2.933  -1.171  -5.228  0.00  0.00     0.047 H 
ATOM     57  H   LIG d   1       2.975   0.526  -5.812  0.00  0.00     0.047 H 
BRANCH  55  58
ATOM     58  N   LIG d   1       3.823  -0.894  -7.115  0.00  0.00    -0.299 N 
ATOM     59  C   LIG d   1       3.316  -0.243  -8.180  0.00  0.00     0.300 C 
ATOM     60  O   LIG d   1       2.616   0.739  -8.015  0.00  0.00    -0.253 OA
ATOM     61  N   LIG d   1       3.581  -0.679  -9.426  0.00  0.00    -0.297 N 
ATOM     62  H   LIG d   1       4.213  -1.568  -9.575  0.00  0.00     0.150 HD
ATOM     63  H   LIG d   1       4.455  -1.782  -7.264  0.00  0.00     0.150 HD
BRANCH  61  64
ATOM     64  C   LIG d   1       3.028   0.029 -10.584  0.00  0.00     0.019 C 
ATOM     65  H   LIG d   1       2.477   0.900 -10.199  0.00  0.00     0.049 H 
BRANCH  64  66
ATOM     66  C   LIG d   1       4.169   0.476 -11.500  0.00  0.00    -0.047 C 
ATOM     67  H   LIG d   1       5.103   0.532 -10.923  0.00  0.00     0.025 H 
ATOM     68  H   LIG d   1       3.937   1.467 -11.918  0.00  0.00     0.025 H 
ATOM     69  H   LIG d   1       4.287  -0.249 -12.320  0.00  0.00     0.025 H 
ENDBRANCH  64  66
BRANCH  64  70
ATOM     70  C   LIG d   1       2.092  -0.904 -11.353  0.00  0.00    -0.047 C 
ATOM     71  H   LIG d   1       1.750  -0.405 -12.273  0.00  0.00     0.025 H 
ATOM     72  H   LIG d   1       1.222  -1.151 -10.726  0.00  0.00     0.025 H 
ATOM     73  H   LIG d   1       2.629  -1.828 -11.616  0.00  0.00     0.025 H 
ENDBRANCH  64  70
ENDBRANCH  61  64
ENDBRANCH  55  58
ENDBRANCH   3  55
TORSDOF 14
ENDMDL
MODEL 9
REMARK VINA RESULT:      -5.7      3.647      5.198
REMARK  14 active torsions:
REMARK  status: ('A' for Active; 'I' for Inactive)
REMARK    1  A    between atoms: C_1  and  C_2 
REMARK    2  A    between atoms: C_4  and  C_26 
REMARK    3  A    between atoms: C_6  and  C_23 
REMARK    4  A    between atoms: C_9  and  C_11 
REMARK    5  A    between atoms: C_11  and  C_12 
REMARK       I    between atoms: C_12  and  N_14 
REMARK    6  A    between atoms: N_14  and  C_15 
REMARK    7  A    between atoms: C_15  and  C_16 
REMARK    8  A    between atoms: C_16  and  N_17 
REMARK    9  A    between atoms: C_23  and  C_24 
REMARK   10  A    between atoms: C_23  and  C_25 
REMARK   11  A    between atoms: C_26  and  N_27 
REMARK       I    between atoms: N_27  and  C_28 
REMARK       I    between atoms: C_28  and  N_30 
REMARK   12  A    between atoms: N_30  and  C_31 
REMARK   13  A    between atoms: C_31  and  C_32 
REMARK   14  A    between atoms: C_31  and  C_33 
ROOT
ATOM      1  C   LIG d   1       6.625  -1.700  -6.087  0.00  0.00    -0.073 C 
ATOM      2  C   LIG d   1       5.807  -0.698  -6.114  0.00  0.00    -0.080 C 
ATOM      3  C   LIG d   1       4.815  -0.391  -5.030  0.00  0.00    -0.004 C 
ATOM      4  H   LIG d   1       5.214   0.438  -4.428  0.00  0.00     0.036 H 
ATOM      5  C   LIG d   1       4.612  -1.619  -4.139  0.00  0.00    -0.030 C 
ATOM      6  H   LIG d   1       4.053  -2.392  -4.688  0.00  0.00     0.031 H 
ATOM      7  C   LIG d   1       5.990  -2.152  -3.727  0.00  0.00    -0.042 C 
ATOM      8  C   LIG d   1       6.689  -2.703  -4.972  0.00  0.00    -0.012 C 
ATOM      9  H   LIG d   1       7.748  -2.894  -4.746  0.00  0.00     0.035 H 
ATOM     10  H   LIG d   1       5.813  -0.006  -6.969  0.00  0.00     0.058 H 
ATOM     11  H   LIG d   1       6.585  -1.335  -3.293  0.00  0.00     0.027 H 
ATOM     12  H   LIG d   1       5.866  -2.951  -2.981  0.00  0.00     0.027 H 
ENDROOT
BRANCH   8  13
ATOM     13  C   LIG d   1       5.996  -3.995  -5.412  0.00  0.00     0.030 C 
ATOM     14  H   LIG d   1       5.136  -4.192  -4.755  0.00  0.00     0.036 H 
ATOM     15  H   LIG d   1       5.648  -3.889  -6.450  0.00  0.00     0.036 H 
BRANCH  13  16
ATOM     16  C   LIG d   1       6.970  -5.142  -5.325  0.00  0.00     0.214 C 
ATOM     17  O   LIG d   1       8.126  -4.934  -5.023  0.00  0.00    -0.276 OA
ATOM     18  N   LIG d   1       6.556  -6.399  -5.580  0.00  0.00    -0.310 N 
ATOM     19  H   LIG d   1       5.508  -6.587  -5.852  0.00  0.00     0.149 HD
BRANCH  18  20
ATOM     20  C   LIG d   1       7.503  -7.514  -5.494  0.00  0.00     0.052 C 
ATOM     21  H   LIG d   1       8.259  -7.414  -6.286  0.00  0.00     0.051 H 
ATOM     22  H   LIG d   1       7.996  -7.501  -4.511  0.00  0.00     0.051 H 
BRANCH  20  23
ATOM     23  C   LIG d   1       6.752  -8.835  -5.670  0.00  0.00    -0.016 C 
ATOM     24  H   LIG d   1       6.060  -8.752  -6.521  0.00  0.00     0.083 H 
ATOM     25  H   LIG d   1       7.473  -9.644  -5.861  0.00  0.00     0.083 H 
BRANCH  23  26
ATOM     26  N   LIG d   1       5.993  -9.134  -4.449  0.00  0.00     0.240 N 
ATOM     27  C   LIG d   1       4.663  -9.670  -4.772  0.00  0.00    -0.008 C 
ATOM     28  C   LIG d   1       3.886  -9.910  -3.475  0.00  0.00     0.088 C 
ATOM     29  H   LIG d   1       4.119  -8.948  -5.399  0.00  0.00     0.084 H 
ATOM     30  H   LIG d   1       4.773 -10.619  -5.317  0.00  0.00     0.084 H 
ATOM     31  O   LIG d   1       4.635 -10.791  -2.633  0.00  0.00    -0.369 OA
ATOM     32  H   LIG d   1       2.912 -10.365  -3.708  0.00  0.00     0.061 H 
ATOM     33  H   LIG d   1       3.728  -8.953  -2.957  0.00  0.00     0.061 H 
ATOM     34  C   LIG d   1       5.935 -10.298  -2.298  0.00  0.00     0.088 C 
ATOM     35  C   LIG d   1       6.733 -10.063  -3.583  0.00  0.00    -0.008 C 
ATOM     36  H   LIG d   1       6.458 -11.037  -1.671  0.00  0.00     0.061 H 
ATOM     37  H   LIG d   1       5.839  -9.352  -1.746  0.00  0.00     0.061 H 
ATOM     38  H   LIG d   1       6.877 -11.018  -4.108  0.00  0.00     0.084 H 
ATOM     39  H   LIG d   1       7.713  -9.630  -3.334  0.00  0.00     0.084 H 
ATOM     40  H   LIG d   1       5.856  -8.190  -3.900  0.00  0.00     0.204 HD
ENDBRANCH  23  26
ENDBRANCH  20  23
ENDBRANCH  18  20
ENDBRANCH  13  16
ENDBRANCH   8  13
BRANCH   1  41
ATOM     41  C   LIG d   1       7.571  -1.871  -7.246  0.00  0.00    -0.043 C 
ATOM     42  H   LIG d   1       6.997  -2.052  -8.165  0.00  0.00     0.027 H 
ATOM     43  H   LIG d   1       8.235  -2.728  -7.054  0.00  0.00     0.027 H 
ATOM     44  H   LIG d   1       8.175  -0.959  -7.365  0.00  0.00     0.027 H 
ENDBRANCH   1  41
BRANCH   5  45
ATOM     45  C   LIG d   1       3.816  -1.230  -2.892  0.00  0.00    -0.043 C 
ATOM     46  H   LIG d   1       2.831  -0.844  -3.192  0.00  0.00     0.030 H 
BRANCH  45  47
ATOM     47  C   LIG d   1       3.634  -2.459  -1.999  0.00  0.00    -0.062 C 
ATOM     48  H   LIG d   1       3.610  -2.145  -0.945  0.00  0.00     0.023 H 
ATOM     49  H   LIG d   1       4.472  -3.154  -2.157  0.00  0.00     0.023 H 
ATOM     50  H   LIG d   1       2.689  -2.959  -2.254  0.00  0.00     0.023 H 
ENDBRANCH  45  47
BRANCH  45  51
ATOM     51  C   LIG d   1       4.575  -0.147  -2.121  0.00  0.00    -0.062 C 
ATOM     52  H   LIG d   1       4.844  -0.528  -1.125  0.00  0.00     0.023 H 
ATOM     53  H   LIG d   1       3.936   0.743  -2.014  0.00  0.00     0.023 H 
ATOM     54  H   LIG d   1       5.489   0.122  -2.670  0.00  0.00     0.023 H 
ENDBRANCH  45  51
ENDBRANCH   5  45
BRANCH   3  55
ATOM     55  C   LIG d   1       3.478   0.003  -5.662  0.00  0.00     0.020 C 
ATOM     56  H   LIG d   1       2.663  -0.198  -4.952  0.00  0.00     0.047 H 
ATOM     57  H   LIG d   1       3.492   1.074  -5.912  0.00  0.00     0.047 H 
BRANCH  55  58
ATOM     58  N   LIG d   1       3.266  -0.781  -6.882  0.00  0.00    -0.299 N 
ATOM     59  C   LIG d   1       2.899  -0.166  -8.023  0.00  0.00     0.300 C 
ATOM     60  O   LIG d   1       2.743   1.040  -8.040  0.00  0.00    -0.253 OA
ATOM     61  N   LIG d   1       2.703  -0.886  -9.145  0.00  0.00    -0.297 N 
ATOM     62  H   LIG d   1       2.844  -1.977  -9.129  0.00  0.00     0.150 HD
ATOM     63  H   LIG d   1       3.407  -1.872  -6.866  0.00  0.00     0.150 HD
BRANCH  61  64
ATOM     64  C   LIG d   1       2.303  -0.216 -10.385  0.00  0.00     0.019 C 
ATOM     65  H   LIG d   1       1.890   0.763 -10.106  0.00  0.00     0.049 H 
BRANCH  64  66
ATOM     66  C   LIG d   1       3.526  -0.047 -11.290  0.00  0.00    -0.047 C 
ATOM     67  H   LIG d   1       3.812   1.015 -11.325  0.00  0.00     0.025 H 
ATOM     68  H   LIG d   1       3.282  -0.394 -12.305  0.00  0.00     0.025 H 
ATOM     69  H   LIG d   1       4.363  -0.638 -10.891  0.00  0.00     0.025 H 
ENDBRANCH  64  66
BRANCH  64  70
ATOM     70  C   LIG d   1       1.251  -1.062 -11.104  0.00  0.00    -0.047 C 
ATOM     71  H   LIG d   1       0.720  -1.689 -10.372  0.00  0.00     0.025 H 
ATOM     72  H   LIG d   1       1.743  -1.706 -11.848  0.00  0.00     0.025 H 
ATOM     73  H   LIG d   1       0.531  -0.401 -11.610  0.00  0.00     0.025 H 
ENDBRANCH  64  70
ENDBRANCH  61  64
ENDBRANCH  55  58
ENDBRANCH   3  55
TORSDOF 14
ENDMDL
