MODEL 1
REMARK VINA RESULT:      -5.5      0.000      0.000
REMARK  10 active torsions:
REMARK  status: ('A' for Active; 'I' for Inactive)
REMARK    1  A    between atoms: C_1  and  C_2 
REMARK    2  A    between atoms: C_2  and  O_3 
REMARK    3  A    between atoms: O_3  and  C_4 
REMARK    4  A    between atoms: C_4  and  C_6 
REMARK    5  A    between atoms: C_8  and  C_21 
REMARK    6  A    between atoms: C_14  and  C_16 
REMARK    7  A    between atoms: C_14  and  C_17 
REMARK    8  A    between atoms: C_21  and  O_23 
REMARK    9  A    between atoms: O_23  and  C_24 
REMARK   10  A    between atoms: C_24  and  C_25 
ROOT
ATOM      1  C   LIG d   1       4.382  -0.446  -4.970  0.00  0.00     0.169 C 
ATOM      2  H   LIG d   1       5.048   0.309  -4.552  0.00  0.00     0.054 H 
ATOM      3  C   LIG d   1       5.081  -1.211  -6.122  0.00  0.00     0.119 C 
ATOM      4  H   LIG d   1       5.111  -2.280  -5.914  0.00  0.00     0.047 H 
ATOM      5  C   LIG d   1       4.160  -0.910  -7.321  0.00  0.00     0.132 C 
ATOM      6  C   LIG d   1       4.011  -2.151  -8.194  0.00  0.00     0.012 C 
ATOM      7  C   LIG d   1       3.143  -1.809  -9.411  0.00  0.00     0.052 C 
ATOM      8  O   LIG d   1       3.727  -0.713 -10.115  0.00  0.00    -0.374 OA
ATOM      9  C   LIG d   1       3.820   0.492  -9.353  0.00  0.00     0.068 C 
ATOM     10  C   LIG d   1       4.717   0.253  -8.134  0.00  0.00     0.017 C 
ATOM     11  O   LIG d   1       2.899  -0.554  -6.731  0.00  0.00    -0.456 OA
ATOM     12  C   LIG d   1       3.186   0.210  -5.643  0.00  0.00     0.323 C 
ATOM     13  O   LIG d   1       2.608   1.208  -5.282  0.00  0.00    -0.250 OA
ATOM     14  H   LIG d   1       4.994  -2.481  -8.531  0.00  0.00     0.033 H 
ATOM     15  H   LIG d   1       3.535  -2.946  -7.620  0.00  0.00     0.033 H 
ATOM     16  H   LIG d   1       3.085  -2.676 -10.071  0.00  0.00     0.056 H 
ATOM     17  H   LIG d   1       2.142  -1.536  -9.079  0.00  0.00     0.056 H 
ATOM     18  H   LIG d   1       4.739   1.151  -7.516  0.00  0.00     0.033 H 
ATOM     19  H   LIG d   1       5.728   0.015  -8.466  0.00  0.00     0.033 H 
ENDROOT
BRANCH   3  20
ATOM     20  C   LIG d   1       6.469  -0.673  -6.358  0.00  0.00     0.315 C 
ATOM     21  O   LIG d   1       7.298  -1.361  -6.903  0.00  0.00    -0.250 OA
BRANCH  20  22
ATOM     22  O   LIG d   1       6.784   0.570  -5.961  0.00  0.00    -0.465 OA
BRANCH  22  23
ATOM     23  C   LIG d   1       7.916   0.709  -5.101  0.00  0.00     0.090 C 
ATOM     24  H   LIG d   1       8.300  -0.278  -4.844  0.00  0.00     0.069 H 
ATOM     25  H   LIG d   1       8.692   1.280  -5.609  0.00  0.00     0.069 H 
BRANCH  23  26
ATOM     26  C   LIG d   1       7.498   1.441  -3.823  0.00  0.00    -0.031 C 
ATOM     27  H   LIG d   1       7.076   0.727  -3.116  0.00  0.00     0.026 H 
ATOM     28  H   LIG d   1       8.369   1.921  -3.378  0.00  0.00     0.026 H 
ATOM     29  H   LIG d   1       6.751   2.197  -4.066  0.00  0.00     0.026 H 
ENDBRANCH  23  26
ENDBRANCH  22  23
ENDBRANCH  20  22
ENDBRANCH   3  20
BRANCH   1  30
ATOM     30  C   LIG d   1       3.929  -1.403  -3.898  0.00  0.00     0.322 C 
ATOM     31  O   LIG d   1       3.974  -2.594  -4.093  0.00  0.00    -0.250 OA
BRANCH  30  32
ATOM     32  O   LIG d   1       3.476  -0.931  -2.726  0.00  0.00    -0.464 OA
BRANCH  32  33
ATOM     33  C   LIG d   1       4.453  -0.484  -1.784  0.00  0.00     0.090 C 
ATOM     34  H   LIG d   1       5.443  -0.808  -2.107  0.00  0.00     0.069 H 
ATOM     35  H   LIG d   1       4.235  -0.909  -0.804  0.00  0.00     0.069 H 
BRANCH  33  36
ATOM     36  C   LIG d   1       4.420   1.042  -1.699  0.00  0.00    -0.031 C 
ATOM     37  H   LIG d   1       4.057   1.344  -0.716  0.00  0.00     0.026 H 
ATOM     38  H   LIG d   1       5.424   1.438  -1.852  0.00  0.00     0.026 H 
ATOM     39  H   LIG d   1       3.754   1.435  -2.467  0.00  0.00     0.026 H 
ENDBRANCH  33  36
ENDBRANCH  32  33
ENDBRANCH  30  32
ENDBRANCH   1  30
BRANCH   9  40
ATOM     40  C   LIG d   1       4.421   1.601 -10.219  0.00  0.00    -0.036 C 
ATOM     41  H   LIG d   1       3.849   2.519 -10.083  0.00  0.00     0.026 H 
ATOM     42  H   LIG d   1       5.456   1.772  -9.924  0.00  0.00     0.026 H 
ATOM     43  H   LIG d   1       4.386   1.303 -11.268  0.00  0.00     0.026 H 
ENDBRANCH   9  40
BRANCH   9  44
ATOM     44  C   LIG d   1       2.424   0.908  -8.885  0.00  0.00    -0.036 C 
ATOM     45  H   LIG d   1       1.678   0.262  -9.347  0.00  0.00     0.026 H 
ATOM     46  H   LIG d   1       2.362   0.817  -7.800  0.00  0.00     0.026 H 
ATOM     47  H   LIG d   1       2.237   1.943  -9.173  0.00  0.00     0.026 H 
ENDBRANCH   9  44
TORSDOF 10
ENDMDL
MODEL 2
REMARK VINA RESULT:      -5.1      2.096      5.271
REMARK  10 active torsions:
REMARK  status: ('A' for Active; 'I' for Inactive)
REMARK    1  A    between atoms: C_1  and  C_2 
REMARK    2  A    between atoms: C_2  and  O_3 
REMARK    3  A    between atoms: O_3  and  C_4 
REMARK    4  A    between atoms: C_4  and  C_6 
REMARK    5  A    between atoms: C_8  and  C_21 
REMARK    6  A    between atoms: C_14  and  C_16 
REMARK    7  A    between atoms: C_14  and  C_17 
REMARK    8  A    between atoms: C_21  and  O_23 
REMARK    9  A    between atoms: O_23  and  C_24 
REMARK   10  A    between atoms: C_24  and  C_25 
ROOT
ATOM      1  C   LIG d   1       4.595  -0.435  -5.794  0.00  0.00     0.169 C 
ATOM      2  H   LIG d   1       4.426   0.260  -4.972  0.00  0.00     0.054 H 
ATOM      3  C   LIG d   1       4.377  -1.896  -5.326  0.00  0.00     0.119 C 
ATOM      4  H   LIG d   1       3.607  -2.383  -5.924  0.00  0.00     0.047 H 
ATOM      5  C   LIG d   1       5.757  -2.532  -5.584  0.00  0.00     0.132 C 
ATOM      6  C   LIG d   1       5.591  -3.948  -6.126  0.00  0.00     0.012 C 
ATOM      7  C   LIG d   1       6.975  -4.580  -6.315  0.00  0.00     0.052 C 
ATOM      8  O   LIG d   1       7.682  -4.549  -5.075  0.00  0.00    -0.374 OA
ATOM      9  C   LIG d   1       7.922  -3.234  -4.568  0.00  0.00     0.068 C 
ATOM     10  C   LIG d   1       6.581  -2.542  -4.301  0.00  0.00     0.017 C 
ATOM     11  O   LIG d   1       6.370  -1.684  -6.570  0.00  0.00    -0.456 OA
ATOM     12  C   LIG d   1       6.052  -0.406  -6.228  0.00  0.00     0.323 C 
ATOM     13  O   LIG d   1       6.780   0.558  -6.261  0.00  0.00    -0.250 OA
ATOM     14  H   LIG d   1       5.013  -4.543  -5.420  0.00  0.00     0.033 H 
ATOM     15  H   LIG d   1       5.073  -3.913  -7.084  0.00  0.00     0.033 H 
ATOM     16  H   LIG d   1       6.861  -5.613  -6.643  0.00  0.00     0.056 H 
ATOM     17  H   LIG d   1       7.532  -4.019  -7.066  0.00  0.00     0.056 H 
ATOM     18  H   LIG d   1       6.758  -1.517  -3.975  0.00  0.00     0.033 H 
ATOM     19  H   LIG d   1       6.039  -3.083  -3.525  0.00  0.00     0.033 H 
ENDROOT
BRANCH   3  20
ATOM     20  C   LIG d   1       4.025  -1.943  -3.861  0.00  0.00     0.315 C 
ATOM     21  O   LIG d   1       3.989  -3.002  -3.283  0.00  0.00    -0.250 OA
BRANCH  20  22
ATOM     22  O   LIG d   1       3.751  -0.807  -3.200  0.00  0.00    -0.465 OA
BRANCH  22  23
ATOM     23  C   LIG d   1       4.379  -0.630  -1.928  0.00  0.00     0.090 C 
ATOM     24  H   LIG d   1       3.738  -1.039  -1.147  0.00  0.00     0.069 H 
ATOM     25  H   LIG d   1       5.337  -1.148  -1.921  0.00  0.00     0.069 H 
BRANCH  23  26
ATOM     26  C   LIG d   1       4.603   0.862  -1.674  0.00  0.00    -0.031 C 
ATOM     27  H   LIG d   1       4.750   1.375  -2.624  0.00  0.00     0.026 H 
ATOM     28  H   LIG d   1       3.733   1.278  -1.167  0.00  0.00     0.026 H 
ATOM     29  H   LIG d   1       5.486   0.995  -1.048  0.00  0.00     0.026 H 
ENDBRANCH  23  26
ENDBRANCH  22  23
ENDBRANCH  20  22
ENDBRANCH   3  20
BRANCH   1  30
ATOM     30  C   LIG d   1       3.690  -0.110  -6.955  0.00  0.00     0.322 C 
ATOM     31  O   LIG d   1       3.280  -0.996  -7.667  0.00  0.00    -0.250 OA
BRANCH  30  32
ATOM     32  O   LIG d   1       3.339   1.163  -7.195  0.00  0.00    -0.464 OA
BRANCH  32  33
ATOM     33  C   LIG d   1       2.912   1.479  -8.522  0.00  0.00     0.090 C 
ATOM     34  H   LIG d   1       1.897   1.876  -8.492  0.00  0.00     0.069 H 
ATOM     35  H   LIG d   1       2.931   0.577  -9.134  0.00  0.00     0.069 H 
BRANCH  33  36
ATOM     36  C   LIG d   1       3.850   2.525  -9.124  0.00  0.00    -0.031 C 
ATOM     37  H   LIG d   1       4.532   2.889  -8.355  0.00  0.00     0.026 H 
ATOM     38  H   LIG d   1       4.424   2.076  -9.935  0.00  0.00     0.026 H 
ATOM     39  H   LIG d   1       3.264   3.358  -9.512  0.00  0.00     0.026 H 
ENDBRANCH  33  36
ENDBRANCH  32  33
ENDBRANCH  30  32
ENDBRANCH   1  30
BRANCH   9  40
ATOM     40  C   LIG d   1       8.717  -3.326  -3.264  0.00  0.00    -0.036 C 
ATOM     41  H   LIG d   1       9.123  -2.344  -3.017  0.00  0.00     0.026 H 
ATOM     42  H   LIG d   1       8.059  -3.658  -2.460  0.00  0.00     0.026 H 
ATOM     43  H   LIG d   1       9.533  -4.038  -3.385  0.00  0.00     0.026 H 
ENDBRANCH   9  40
BRANCH   9  44
ATOM     44  C   LIG d   1       8.716  -2.428  -5.596  0.00  0.00    -0.036 C 
ATOM     45  H   LIG d   1       9.686  -2.898  -5.756  0.00  0.00     0.026 H 
ATOM     46  H   LIG d   1       8.167  -2.399  -6.538  0.00  0.00     0.026 H 
ATOM     47  H   LIG d   1       8.861  -1.412  -5.229  0.00  0.00     0.026 H 
ENDBRANCH   9  44
TORSDOF 10
ENDMDL
MODEL 3
REMARK VINA RESULT:      -5.1      1.652      4.431
REMARK  10 active torsions:
REMARK  status: ('A' for Active; 'I' for Inactive)
REMARK    1  A    between atoms: C_1  and  C_2 
REMARK    2  A    between atoms: C_2  and  O_3 
REMARK    3  A    between atoms: O_3  and  C_4 
REMARK    4  A    between atoms: C_4  and  C_6 
REMARK    5  A    between atoms: C_8  and  C_21 
REMARK    6  A    between atoms: C_14  and  C_16 
REMARK    7  A    between atoms: C_14  and  C_17 
REMARK    8  A    between atoms: C_21  and  O_23 
REMARK    9  A    between atoms: O_23  and  C_24 
REMARK   10  A    between atoms: C_24  and  C_25 
ROOT
ATOM      1  C   LIG d   1       3.727  -1.190  -4.830  0.00  0.00     0.169 C 
ATOM      2  H   LIG d   1       2.995  -1.645  -5.496  0.00  0.00     0.054 H 
ATOM      3  C   LIG d   1       4.699  -0.284  -5.627  0.00  0.00     0.119 C 
ATOM      4  H   LIG d   1       4.676   0.737  -5.246  0.00  0.00     0.047 H 
ATOM      5  C   LIG d   1       6.065  -0.943  -5.347  0.00  0.00     0.132 C 
ATOM      6  C   LIG d   1       7.134   0.127  -5.149  0.00  0.00     0.012 C 
ATOM      7  C   LIG d   1       8.491  -0.553  -4.935  0.00  0.00     0.052 C 
ATOM      8  O   LIG d   1       8.772  -1.408  -6.044  0.00  0.00    -0.374 OA
ATOM      9  C   LIG d   1       7.831  -2.469  -6.220  0.00  0.00     0.068 C 
ATOM     10  C   LIG d   1       6.444  -1.875  -6.492  0.00  0.00     0.017 C 
ATOM     11  O   LIG d   1       5.867  -1.688  -4.134  0.00  0.00    -0.456 OA
ATOM     12  C   LIG d   1       4.633  -2.252  -4.226  0.00  0.00     0.323 C 
ATOM     13  O   LIG d   1       4.318  -3.371  -3.896  0.00  0.00    -0.250 OA
ATOM     14  H   LIG d   1       7.182   0.763  -6.033  0.00  0.00     0.033 H 
ATOM     15  H   LIG d   1       6.888   0.731  -4.276  0.00  0.00     0.033 H 
ATOM     16  H   LIG d   1       9.270   0.207  -4.856  0.00  0.00     0.056 H 
ATOM     17  H   LIG d   1       8.463  -1.142  -4.019  0.00  0.00     0.056 H 
ATOM     18  H   LIG d   1       5.711  -2.679  -6.564  0.00  0.00     0.033 H 
ATOM     19  H   LIG d   1       6.464  -1.315  -7.427  0.00  0.00     0.033 H 
ENDROOT
BRANCH   3  20
ATOM     20  C   LIG d   1       4.376  -0.314  -7.098  0.00  0.00     0.315 C 
ATOM     21  O   LIG d   1       3.734  -1.228  -7.557  0.00  0.00    -0.250 OA
BRANCH  20  22
ATOM     22  O   LIG d   1       4.802   0.676  -7.899  0.00  0.00    -0.465 OA
BRANCH  22  23
ATOM     23  C   LIG d   1       3.956   1.034  -8.994  0.00  0.00     0.090 C 
ATOM     24  H   LIG d   1       4.561   1.446  -9.801  0.00  0.00     0.069 H 
ATOM     25  H   LIG d   1       3.428   0.150  -9.349  0.00  0.00     0.069 H 
BRANCH  23  26
ATOM     26  C   LIG d   1       2.941   2.083  -8.532  0.00  0.00    -0.031 C 
ATOM     27  H   LIG d   1       2.551   1.805  -7.554  0.00  0.00     0.026 H 
ATOM     28  H   LIG d   1       3.429   3.055  -8.467  0.00  0.00     0.026 H 
ATOM     29  H   LIG d   1       2.122   2.135  -9.249  0.00  0.00     0.026 H 
ENDBRANCH  23  26
ENDBRANCH  22  23
ENDBRANCH  20  22
ENDBRANCH   3  20
BRANCH   1  30
ATOM     30  C   LIG d   1       3.038  -0.402  -3.745  0.00  0.00     0.322 C 
ATOM     31  O   LIG d   1       2.295  -0.960  -2.973  0.00  0.00    -0.250 OA
BRANCH  30  32
ATOM     32  O   LIG d   1       3.251   0.918  -3.637  0.00  0.00    -0.464 OA
BRANCH  32  33
ATOM     33  C   LIG d   1       3.570   1.420  -2.338  0.00  0.00     0.090 C 
ATOM     34  H   LIG d   1       2.795   1.119  -1.632  0.00  0.00     0.069 H 
ATOM     35  H   LIG d   1       3.626   2.508  -2.372  0.00  0.00     0.069 H 
BRANCH  33  36
ATOM     36  C   LIG d   1       4.916   0.853  -1.887  0.00  0.00    -0.031 C 
ATOM     37  H   LIG d   1       5.499   1.638  -1.404  0.00  0.00     0.026 H 
ATOM     38  H   LIG d   1       4.752   0.038  -1.183  0.00  0.00     0.026 H 
ATOM     39  H   LIG d   1       5.462   0.480  -2.754  0.00  0.00     0.026 H 
ENDBRANCH  33  36
ENDBRANCH  32  33
ENDBRANCH  30  32
ENDBRANCH   1  30
BRANCH   9  40
ATOM     40  C   LIG d   1       8.255  -3.337  -7.407  0.00  0.00    -0.036 C 
ATOM     41  H   LIG d   1       7.815  -4.330  -7.305  0.00  0.00     0.026 H 
ATOM     42  H   LIG d   1       7.908  -2.880  -8.334  0.00  0.00     0.026 H 
ATOM     43  H   LIG d   1       9.341  -3.421  -7.427  0.00  0.00     0.026 H 
ENDBRANCH   9  40
BRANCH   9  44
ATOM     44  C   LIG d   1       7.781  -3.323  -4.953  0.00  0.00    -0.036 C 
ATOM     45  H   LIG d   1       7.716  -4.376  -5.227  0.00  0.00     0.026 H 
ATOM     46  H   LIG d   1       8.684  -3.155  -4.366  0.00  0.00     0.026 H 
ATOM     47  H   LIG d   1       6.908  -3.047  -4.362  0.00  0.00     0.026 H 
ENDBRANCH   9  44
TORSDOF 10
ENDMDL
MODEL 4
REMARK VINA RESULT:      -4.9      1.917      5.390
REMARK  10 active torsions:
REMARK  status: ('A' for Active; 'I' for Inactive)
REMARK    1  A    between atoms: C_1  and  C_2 
REMARK    2  A    between atoms: C_2  and  O_3 
REMARK    3  A    between atoms: O_3  and  C_4 
REMARK    4  A    between atoms: C_4  and  C_6 
REMARK    5  A    between atoms: C_8  and  C_21 
REMARK    6  A    between atoms: C_14  and  C_16 
REMARK    7  A    between atoms: C_14  and  C_17 
REMARK    8  A    between atoms: C_21  and  O_23 
REMARK    9  A    between atoms: O_23  and  C_24 
REMARK   10  A    between atoms: C_24  and  C_25 
ROOT
ATOM      1  C   LIG d   1       4.340  -1.120  -7.862  0.00  0.00     0.169 C 
ATOM      2  H   LIG d   1       3.716  -1.960  -8.163  0.00  0.00     0.054 H 
ATOM      3  C   LIG d   1       5.548  -1.610  -7.024  0.00  0.00     0.119 C 
ATOM      4  H   LIG d   1       6.488  -1.309  -7.486  0.00  0.00     0.047 H 
ATOM      5  C   LIG d   1       5.335  -0.878  -5.684  0.00  0.00     0.132 C 
ATOM      6  C   LIG d   1       6.673  -0.404  -5.126  0.00  0.00     0.012 C 
ATOM      7  C   LIG d   1       6.442   0.264  -3.765  0.00  0.00     0.052 C 
ATOM      8  O   LIG d   1       5.780  -0.653  -2.894  0.00  0.00    -0.374 OA
ATOM      9  C   LIG d   1       4.490  -1.067  -3.347  0.00  0.00     0.068 C 
ATOM     10  C   LIG d   1       4.633  -1.794  -4.688  0.00  0.00     0.017 C 
ATOM     11  O   LIG d   1       4.500   0.245  -6.012  0.00  0.00    -0.456 OA
ATOM     12  C   LIG d   1       3.584  -0.207  -6.909  0.00  0.00     0.323 C 
ATOM     13  O   LIG d   1       2.406   0.062  -6.945  0.00  0.00    -0.250 OA
ATOM     14  H   LIG d   1       7.340  -1.258  -5.002  0.00  0.00     0.033 H 
ATOM     15  H   LIG d   1       7.121   0.314  -5.812  0.00  0.00     0.033 H 
ATOM     16  H   LIG d   1       7.402   0.549  -3.333  0.00  0.00     0.056 H 
ATOM     17  H   LIG d   1       5.824   1.153  -3.896  0.00  0.00     0.056 H 
ATOM     18  H   LIG d   1       3.645  -2.055  -5.069  0.00  0.00     0.033 H 
ATOM     19  H   LIG d   1       5.221  -2.701  -4.550  0.00  0.00     0.033 H 
ENDROOT
BRANCH   3  20
ATOM     20  C   LIG d   1       5.499  -3.105  -6.837  0.00  0.00     0.315 C 
ATOM     21  O   LIG d   1       4.440  -3.683  -6.871  0.00  0.00    -0.250 OA
BRANCH  20  22
ATOM     22  O   LIG d   1       6.633  -3.793  -6.633  0.00  0.00    -0.465 OA
BRANCH  22  23
ATOM     23  C   LIG d   1       6.719  -4.561  -5.431  0.00  0.00     0.090 C 
ATOM     24  H   LIG d   1       5.739  -4.601  -4.956  0.00  0.00     0.069 H 
ATOM     25  H   LIG d   1       7.051  -5.571  -5.668  0.00  0.00     0.069 H 
BRANCH  23  26
ATOM     26  C   LIG d   1       7.720  -3.904  -4.477  0.00  0.00    -0.031 C 
ATOM     27  H   LIG d   1       7.827  -4.519  -3.584  0.00  0.00     0.026 H 
ATOM     28  H   LIG d   1       8.685  -3.811  -4.972  0.00  0.00     0.026 H 
ATOM     29  H   LIG d   1       7.358  -2.915  -4.196  0.00  0.00     0.026 H 
ENDBRANCH  23  26
ENDBRANCH  22  23
ENDBRANCH  20  22
ENDBRANCH   3  20
BRANCH   1  30
ATOM     30  C   LIG d   1       4.812  -0.351  -9.070  0.00  0.00     0.322 C 
ATOM     31  O   LIG d   1       5.993  -0.170  -9.247  0.00  0.00    -0.250 OA
BRANCH  30  32
ATOM     32  O   LIG d   1       3.919   0.130  -9.949  0.00  0.00    -0.464 OA
BRANCH  32  33
ATOM     33  C   LIG d   1       4.160   1.438 -10.470  0.00  0.00     0.090 C 
ATOM     34  H   LIG d   1       3.657   1.545 -11.431  0.00  0.00     0.069 H 
ATOM     35  H   LIG d   1       5.232   1.584 -10.604  0.00  0.00     0.069 H 
BRANCH  33  36
ATOM     36  C   LIG d   1       3.621   2.484  -9.494  0.00  0.00    -0.031 C 
ATOM     37  H   LIG d   1       2.697   2.120  -9.044  0.00  0.00     0.026 H 
ATOM     38  H   LIG d   1       4.357   2.667  -8.711  0.00  0.00     0.026 H 
ATOM     39  H   LIG d   1       3.422   3.412 -10.029  0.00  0.00     0.026 H 
ENDBRANCH  33  36
ENDBRANCH  32  33
ENDBRANCH  30  32
ENDBRANCH   1  30
BRANCH   9  40
ATOM     40  C   LIG d   1       3.864  -2.011  -2.319  0.00  0.00    -0.036 C 
ATOM     41  H   LIG d   1       3.247  -1.438  -1.628  0.00  0.00     0.026 H 
ATOM     42  H   LIG d   1       3.246  -2.748  -2.832  0.00  0.00     0.026 H 
ATOM     43  H   LIG d   1       4.653  -2.520  -1.765  0.00  0.00     0.026 H 
ENDBRANCH   9  40
BRANCH   9  44
ATOM     44  C   LIG d   1       3.594   0.160  -3.526  0.00  0.00    -0.036 C 
ATOM     45  H   LIG d   1       3.994   0.990  -2.943  0.00  0.00     0.026 H 
ATOM     46  H   LIG d   1       3.564   0.438  -4.580  0.00  0.00     0.026 H 
ATOM     47  H   LIG d   1       2.586  -0.072  -3.183  0.00  0.00     0.026 H 
ENDBRANCH   9  44
TORSDOF 10
ENDMDL
MODEL 5
REMARK VINA RESULT:      -4.9      1.678      4.939
REMARK  10 active torsions:
REMARK  status: ('A' for Active; 'I' for Inactive)
REMARK    1  A    between atoms: C_1  and  C_2 
REMARK    2  A    between atoms: C_2  and  O_3 
REMARK    3  A    between atoms: O_3  and  C_4 
REMARK    4  A    between atoms: C_4  and  C_6 
REMARK    5  A    between atoms: C_8  and  C_21 
REMARK    6  A    between atoms: C_14  and  C_16 
REMARK    7  A    between atoms: C_14  and  C_17 
REMARK    8  A    between atoms: C_21  and  O_23 
REMARK    9  A    between atoms: O_23  and  C_24 
REMARK   10  A    between atoms: C_24  and  C_25 
ROOT
ATOM      1  C   LIG d   1       5.919  -2.382  -6.480  0.00  0.00     0.169 C 
ATOM      2  H   LIG d   1       6.984  -2.480  -6.272  0.00  0.00     0.054 H 
ATOM      3  C   LIG d   1       5.526  -0.890  -6.616  0.00  0.00     0.119 C 
ATOM      4  H   LIG d   1       5.075  -0.696  -7.590  0.00  0.00     0.047 H 
ATOM      5  C   LIG d   1       4.489  -0.720  -5.488  0.00  0.00     0.132 C 
ATOM      6  C   LIG d   1       3.346   0.176  -5.954  0.00  0.00     0.012 C 
ATOM      7  C   LIG d   1       2.362   0.379  -4.796  0.00  0.00     0.052 C 
ATOM      8  O   LIG d   1       3.059   0.922  -3.673  0.00  0.00    -0.374 OA
ATOM      9  C   LIG d   1       4.092   0.078  -3.161  0.00  0.00     0.068 C 
ATOM     10  C   LIG d   1       5.153  -0.139  -4.245  0.00  0.00     0.017 C 
ATOM     11  O   LIG d   1       4.012  -2.051  -5.229  0.00  0.00    -0.456 OA
ATOM     12  C   LIG d   1       5.097  -2.868  -5.296  0.00  0.00     0.323 C 
ATOM     13  O   LIG d   1       5.358  -3.793  -4.563  0.00  0.00    -0.250 OA
ATOM     14  H   LIG d   1       3.744   1.141  -6.267  0.00  0.00     0.033 H 
ATOM     15  H   LIG d   1       2.831  -0.296  -6.790  0.00  0.00     0.033 H 
ATOM     16  H   LIG d   1       1.576   1.070  -5.104  0.00  0.00     0.056 H 
ATOM     17  H   LIG d   1       1.919  -0.578  -4.522  0.00  0.00     0.056 H 
ATOM     18  H   LIG d   1       5.911  -0.833  -3.880  0.00  0.00     0.033 H 
ATOM     19  H   LIG d   1       5.621   0.813  -4.494  0.00  0.00     0.033 H 
ENDROOT
BRANCH   3  20
ATOM     20  C   LIG d   1       6.719   0.002  -6.393  0.00  0.00     0.315 C 
ATOM     21  O   LIG d   1       7.678  -0.413  -5.787  0.00  0.00    -0.250 OA
BRANCH  20  22
ATOM     22  O   LIG d   1       6.717   1.258  -6.866  0.00  0.00    -0.465 OA
BRANCH  22  23
ATOM     23  C   LIG d   1       6.959   1.424  -8.265  0.00  0.00     0.090 C 
ATOM     24  H   LIG d   1       7.740   2.170  -8.411  0.00  0.00     0.069 H 
ATOM     25  H   LIG d   1       7.277   0.475  -8.694  0.00  0.00     0.069 H 
BRANCH  23  26
ATOM     26  C   LIG d   1       5.674   1.890  -8.953  0.00  0.00    -0.031 C 
ATOM     27  H   LIG d   1       5.290   2.774  -8.446  0.00  0.00     0.026 H 
ATOM     28  H   LIG d   1       5.887   2.132  -9.994  0.00  0.00     0.026 H 
ATOM     29  H   LIG d   1       4.930   1.095  -8.911  0.00  0.00     0.026 H 
ENDBRANCH  23  26
ENDBRANCH  22  23
ENDBRANCH  20  22
ENDBRANCH   3  20
BRANCH   1  30
ATOM     30  C   LIG d   1       5.552  -3.143  -7.728  0.00  0.00     0.322 C 
ATOM     31  O   LIG d   1       5.877  -4.301  -7.847  0.00  0.00    -0.250 OA
BRANCH  30  32
ATOM     32  O   LIG d   1       4.862  -2.535  -8.705  0.00  0.00    -0.464 OA
BRANCH  32  33
ATOM     33  C   LIG d   1       3.470  -2.840  -8.804  0.00  0.00     0.090 C 
ATOM     34  H   LIG d   1       3.119  -3.248  -7.856  0.00  0.00     0.069 H 
ATOM     35  H   LIG d   1       3.313  -3.573  -9.595  0.00  0.00     0.069 H 
BRANCH  33  36
ATOM     36  C   LIG d   1       2.690  -1.565  -9.128  0.00  0.00    -0.031 C 
ATOM     37  H   LIG d   1       3.273  -0.944  -9.809  0.00  0.00     0.026 H 
ATOM     38  H   LIG d   1       1.742  -1.827  -9.598  0.00  0.00     0.026 H 
ATOM     39  H   LIG d   1       2.499  -1.012  -8.208  0.00  0.00     0.026 H 
ENDBRANCH  33  36
ENDBRANCH  32  33
ENDBRANCH  30  32
ENDBRANCH   1  30
BRANCH   9  40
ATOM     40  C   LIG d   1       4.737   0.742  -1.942  0.00  0.00    -0.036 C 
ATOM     41  H   LIG d   1       5.674   1.215  -2.239  0.00  0.00     0.026 H 
ATOM     42  H   LIG d   1       4.061   1.497  -1.540  0.00  0.00     0.026 H 
ATOM     43  H   LIG d   1       4.936  -0.012  -1.180  0.00  0.00     0.026 H 
ENDBRANCH   9  40
BRANCH   9  44
ATOM     44  C   LIG d   1       3.496  -1.270  -2.753  0.00  0.00    -0.036 C 
ATOM     45  H   LIG d   1       4.185  -1.785  -2.083  0.00  0.00     0.026 H 
ATOM     46  H   LIG d   1       2.546  -1.108  -2.244  0.00  0.00     0.026 H 
ATOM     47  H   LIG d   1       3.331  -1.879  -3.642  0.00  0.00     0.026 H 
ENDBRANCH   9  44
TORSDOF 10
ENDMDL
MODEL 6
REMARK VINA RESULT:      -4.9      2.547      3.924
REMARK  10 active torsions:
REMARK  status: ('A' for Active; 'I' for Inactive)
REMARK    1  A    between atoms: C_1  and  C_2 
REMARK    2  A    between atoms: C_2  and  O_3 
REMARK    3  A    between atoms: O_3  and  C_4 
REMARK    4  A    between atoms: C_4  and  C_6 
REMARK    5  A    between atoms: C_8  and  C_21 
REMARK    6  A    between atoms: C_14  and  C_16 
REMARK    7  A    between atoms: C_14  and  C_17 
REMARK    8  A    between atoms: C_21  and  O_23 
REMARK    9  A    between atoms: O_23  and  C_24 
REMARK   10  A    between atoms: C_24  and  C_25 
ROOT
ATOM      1  C   LIG d   1       6.035  -1.021  -3.216  0.00  0.00     0.169 C 
ATOM      2  H   LIG d   1       6.780  -1.357  -2.496  0.00  0.00     0.054 H 
ATOM      3  C   LIG d   1       6.029  -1.941  -4.463  0.00  0.00     0.119 C 
ATOM      4  H   LIG d   1       5.043  -2.377  -4.619  0.00  0.00     0.047 H 
ATOM      5  C   LIG d   1       6.379  -0.957  -5.597  0.00  0.00     0.132 C 
ATOM      6  C   LIG d   1       5.558  -1.276  -6.843  0.00  0.00     0.012 C 
ATOM      7  C   LIG d   1       5.969  -0.325  -7.973  0.00  0.00     0.052 C 
ATOM      8  O   LIG d   1       7.374  -0.439  -8.200  0.00  0.00    -0.374 OA
ATOM      9  C   LIG d   1       8.181  -0.079  -7.078  0.00  0.00     0.068 C 
ATOM     10  C   LIG d   1       7.870  -1.018  -5.908  0.00  0.00     0.017 C 
ATOM     11  O   LIG d   1       6.025   0.336  -5.079  0.00  0.00    -0.456 OA
ATOM     12  C   LIG d   1       6.406   0.344  -3.774  0.00  0.00     0.323 C 
ATOM     13  O   LIG d   1       6.934   1.252  -3.175  0.00  0.00    -0.250 OA
ATOM     14  H   LIG d   1       5.745  -2.305  -7.149  0.00  0.00     0.033 H 
ATOM     15  H   LIG d   1       4.499  -1.146  -6.625  0.00  0.00     0.033 H 
ATOM     16  H   LIG d   1       5.430  -0.589  -8.884  0.00  0.00     0.056 H 
ATOM     17  H   LIG d   1       5.727   0.700  -7.692  0.00  0.00     0.056 H 
ATOM     18  H   LIG d   1       8.437  -0.707  -5.030  0.00  0.00     0.033 H 
ATOM     19  H   LIG d   1       8.145  -2.038  -6.176  0.00  0.00     0.033 H 
ENDROOT
BRANCH   3  20
ATOM     20  C   LIG d   1       7.077  -3.017  -4.340  0.00  0.00     0.315 C 
ATOM     21  O   LIG d   1       7.033  -3.987  -5.058  0.00  0.00    -0.250 OA
BRANCH  20  22
ATOM     22  O   LIG d   1       8.058  -2.899  -3.432  0.00  0.00    -0.465 OA
BRANCH  22  23
ATOM     23  C   LIG d   1       9.207  -3.731  -3.606  0.00  0.00     0.090 C 
ATOM     24  H   LIG d   1       8.959  -4.555  -4.275  0.00  0.00     0.069 H 
ATOM     25  H   LIG d   1      10.019  -3.145  -4.035  0.00  0.00     0.069 H 
BRANCH  23  26
ATOM     26  C   LIG d   1       9.642  -4.289  -2.249  0.00  0.00    -0.031 C 
ATOM     27  H   LIG d   1       9.025  -5.151  -1.996  0.00  0.00     0.026 H 
ATOM     28  H   LIG d   1      10.687  -4.593  -2.300  0.00  0.00     0.026 H 
ATOM     29  H   LIG d   1       9.523  -3.521  -1.486  0.00  0.00     0.026 H 
ENDBRANCH  23  26
ENDBRANCH  22  23
ENDBRANCH  20  22
ENDBRANCH   3  20
BRANCH   1  30
ATOM     30  C   LIG d   1       4.667  -0.981  -2.583  0.00  0.00     0.322 C 
ATOM     31  O   LIG d   1       4.529  -0.520  -1.475  0.00  0.00    -0.250 OA
BRANCH  30  32
ATOM     32  O   LIG d   1       3.605  -1.456  -3.251  0.00  0.00    -0.464 OA
BRANCH  32  33
ATOM     33  C   LIG d   1       2.462  -0.604  -3.344  0.00  0.00     0.090 C 
ATOM     34  H   LIG d   1       2.409   0.031  -2.459  0.00  0.00     0.069 H 
ATOM     35  H   LIG d   1       1.559  -1.211  -3.410  0.00  0.00     0.069 H 
BRANCH  33  36
ATOM     36  C   LIG d   1       2.580   0.273  -4.592  0.00  0.00    -0.031 C 
ATOM     37  H   LIG d   1       3.542   0.093  -5.074  0.00  0.00     0.026 H 
ATOM     38  H   LIG d   1       1.776   0.029  -5.286  0.00  0.00     0.026 H 
ATOM     39  H   LIG d   1       2.509   1.323  -4.307  0.00  0.00     0.026 H 
ENDBRANCH  33  36
ENDBRANCH  32  33
ENDBRANCH  30  32
ENDBRANCH   1  30
BRANCH   9  40
ATOM     40  C   LIG d   1       9.660  -0.201  -7.450  0.00  0.00    -0.036 C 
ATOM     41  H   LIG d   1       9.854   0.371  -8.358  0.00  0.00     0.026 H 
ATOM     42  H   LIG d   1      10.273   0.189  -6.637  0.00  0.00     0.026 H 
ATOM     43  H   LIG d   1       9.907  -1.249  -7.622  0.00  0.00     0.026 H 
ENDBRANCH   9  40
BRANCH   9  44
ATOM     44  C   LIG d   1       7.874   1.363  -6.670  0.00  0.00    -0.036 C 
ATOM     45  H   LIG d   1       8.278   1.554  -5.676  0.00  0.00     0.026 H 
ATOM     46  H   LIG d   1       8.330   2.048  -7.386  0.00  0.00     0.026 H 
ATOM     47  H   LIG d   1       6.795   1.516  -6.658  0.00  0.00     0.026 H 
ENDBRANCH   9  44
TORSDOF 10
ENDMDL
MODEL 7
REMARK VINA RESULT:      -4.7      2.721      4.465
REMARK  10 active torsions:
REMARK  status: ('A' for Active; 'I' for Inactive)
REMARK    1  A    between atoms: C_1  and  C_2 
REMARK    2  A    between atoms: C_2  and  O_3 
REMARK    3  A    between atoms: O_3  and  C_4 
REMARK    4  A    between atoms: C_4  and  C_6 
REMARK    5  A    between atoms: C_8  and  C_21 
REMARK    6  A    between atoms: C_14  and  C_16 
REMARK    7  A    between atoms: C_14  and  C_17 
REMARK    8  A    between atoms: C_21  and  O_23 
REMARK    9  A    between atoms: O_23  and  C_24 
REMARK   10  A    between atoms: C_24  and  C_25 
ROOT
ATOM      1  C   LIG d   1       6.540   0.232  -3.334  0.00  0.00     0.169 C 
ATOM      2  H   LIG d   1       7.087  -0.303  -2.558  0.00  0.00     0.054 H 
ATOM      3  C   LIG d   1       6.228  -0.707  -4.526  0.00  0.00     0.119 C 
ATOM      4  H   LIG d   1       5.154  -0.758  -4.708  0.00  0.00     0.047 H 
ATOM      5  C   LIG d   1       6.950  -0.006  -5.694  0.00  0.00     0.132 C 
ATOM      6  C   LIG d   1       6.104  -0.088  -6.960  0.00  0.00     0.012 C 
ATOM      7  C   LIG d   1       6.870   0.561  -8.119  0.00  0.00     0.052 C 
ATOM      8  O   LIG d   1       8.138  -0.080  -8.266  0.00  0.00    -0.374 OA
ATOM      9  C   LIG d   1       8.990   0.036  -7.125  0.00  0.00     0.068 C 
ATOM     10  C   LIG d   1       8.319  -0.636  -5.922  0.00  0.00     0.017 C 
ATOM     11  O   LIG d   1       7.088   1.360  -5.268  0.00  0.00    -0.456 OA
ATOM     12  C   LIG d   1       7.409   1.320  -3.947  0.00  0.00     0.323 C 
ATOM     13  O   LIG d   1       8.220   2.008  -3.374  0.00  0.00    -0.250 OA
ATOM     14  H   LIG d   1       5.903  -1.132  -7.198  0.00  0.00     0.033 H 
ATOM     15  H   LIG d   1       5.164   0.440  -6.806  0.00  0.00     0.033 H 
ATOM     16  H   LIG d   1       6.298   0.450  -9.041  0.00  0.00     0.056 H 
ATOM     17  H   LIG d   1       7.020   1.620  -7.909  0.00  0.00     0.056 H 
ATOM     18  H   LIG d   1       8.936  -0.495  -5.034  0.00  0.00     0.033 H 
ATOM     19  H   LIG d   1       8.202  -1.702  -6.117  0.00  0.00     0.033 H 
ENDROOT
BRANCH   3  20
ATOM     20  C   LIG d   1       6.795  -2.083  -4.288  0.00  0.00     0.315 C 
ATOM     21  O   LIG d   1       7.576  -2.266  -3.385  0.00  0.00    -0.250 OA
BRANCH  20  22
ATOM     22  O   LIG d   1       6.434  -3.105  -5.080  0.00  0.00    -0.465 OA
BRANCH  22  23
ATOM     23  C   LIG d   1       5.042  -3.427  -5.128  0.00  0.00     0.090 C 
ATOM     24  H   LIG d   1       4.585  -3.206  -4.163  0.00  0.00     0.069 H 
ATOM     25  H   LIG d   1       4.559  -2.836  -5.904  0.00  0.00     0.069 H 
BRANCH  23  26
ATOM     26  C   LIG d   1       4.874  -4.916  -5.441  0.00  0.00    -0.031 C 
ATOM     27  H   LIG d   1       3.816  -5.143  -5.569  0.00  0.00     0.026 H 
ATOM     28  H   LIG d   1       5.412  -5.157  -6.357  0.00  0.00     0.026 H 
ATOM     29  H   LIG d   1       5.275  -5.507  -4.618  0.00  0.00     0.026 H 
ENDBRANCH  23  26
ENDBRANCH  22  23
ENDBRANCH  20  22
ENDBRANCH   3  20
BRANCH   1  30
ATOM     30  C   LIG d   1       5.270   0.820  -2.776  0.00  0.00     0.322 C 
ATOM     31  O   LIG d   1       4.774   1.791  -3.297  0.00  0.00    -0.250 OA
BRANCH  30  32
ATOM     32  O   LIG d   1       4.689   0.263  -1.702  0.00  0.00    -0.464 OA
BRANCH  32  33
ATOM     33  C   LIG d   1       4.322  -1.114  -1.802  0.00  0.00     0.090 C 
ATOM     34  H   LIG d   1       4.076  -1.498  -0.812  0.00  0.00     0.069 H 
ATOM     35  H   LIG d   1       5.154  -1.683  -2.216  0.00  0.00     0.069 H 
BRANCH  33  36
ATOM     36  C   LIG d   1       3.104  -1.252  -2.718  0.00  0.00    -0.031 C 
ATOM     37  H   LIG d   1       2.957  -2.301  -2.973  0.00  0.00     0.026 H 
ATOM     38  H   LIG d   1       2.219  -0.875  -2.206  0.00  0.00     0.026 H 
ATOM     39  H   LIG d   1       3.268  -0.677  -3.630  0.00  0.00     0.026 H 
ENDBRANCH  33  36
ENDBRANCH  32  33
ENDBRANCH  30  32
ENDBRANCH   1  30
BRANCH   9  40
ATOM     40  C   LIG d   1      10.327  -0.651  -7.412  0.00  0.00    -0.036 C 
ATOM     41  H   LIG d   1      10.808  -0.166  -8.262  0.00  0.00     0.026 H 
ATOM     42  H   LIG d   1      10.971  -0.572  -6.536  0.00  0.00     0.026 H 
ATOM     43  H   LIG d   1      10.154  -1.702  -7.643  0.00  0.00     0.026 H 
ENDBRANCH   9  40
BRANCH   9  44
ATOM     44  C   LIG d   1       9.230   1.514  -6.815  0.00  0.00    -0.036 C 
ATOM     45  H   LIG d   1       9.467   1.630  -5.758  0.00  0.00     0.026 H 
ATOM     46  H   LIG d   1      10.062   1.881  -7.417  0.00  0.00     0.026 H 
ATOM     47  H   LIG d   1       8.333   2.086  -7.051  0.00  0.00     0.026 H 
ENDBRANCH   9  44
TORSDOF 10
ENDMDL
MODEL 8
REMARK VINA RESULT:      -4.7      1.960      5.178
REMARK  10 active torsions:
REMARK  status: ('A' for Active; 'I' for Inactive)
REMARK    1  A    between atoms: C_1  and  C_2 
REMARK    2  A    between atoms: C_2  and  O_3 
REMARK    3  A    between atoms: O_3  and  C_4 
REMARK    4  A    between atoms: C_4  and  C_6 
REMARK    5  A    between atoms: C_8  and  C_21 
REMARK    6  A    between atoms: C_14  and  C_16 
REMARK    7  A    between atoms: C_14  and  C_17 
REMARK    8  A    between atoms: C_21  and  O_23 
REMARK    9  A    between atoms: O_23  and  C_24 
REMARK   10  A    between atoms: C_24  and  C_25 
ROOT
ATOM      1  C   LIG d   1       7.494   0.628  -5.726  0.00  0.00     0.169 C 
ATOM      2  H   LIG d   1       7.264   1.543  -6.272  0.00  0.00     0.054 H 
ATOM      3  C   LIG d   1       6.649  -0.554  -6.263  0.00  0.00     0.119 C 
ATOM      4  H   LIG d   1       7.291  -1.364  -6.608  0.00  0.00     0.047 H 
ATOM      5  C   LIG d   1       5.851  -0.980  -5.014  0.00  0.00     0.132 C 
ATOM      6  C   LIG d   1       5.747  -2.500  -4.949  0.00  0.00     0.012 C 
ATOM      7  C   LIG d   1       4.898  -2.894  -3.735  0.00  0.00     0.052 C 
ATOM      8  O   LIG d   1       3.620  -2.262  -3.825  0.00  0.00    -0.374 OA
ATOM      9  C   LIG d   1       3.671  -0.834  -3.816  0.00  0.00     0.068 C 
ATOM     10  C   LIG d   1       4.464  -0.347  -5.033  0.00  0.00     0.017 C 
ATOM     11  O   LIG d   1       6.618  -0.480  -3.906  0.00  0.00    -0.456 OA
ATOM     12  C   LIG d   1       7.066   0.750  -4.272  0.00  0.00     0.323 C 
ATOM     13  O   LIG d   1       7.115   1.742  -3.583  0.00  0.00    -0.250 OA
ATOM     14  H   LIG d   1       5.275  -2.872  -5.859  0.00  0.00     0.033 H 
ATOM     15  H   LIG d   1       6.743  -2.930  -4.852  0.00  0.00     0.033 H 
ATOM     16  H   LIG d   1       4.767  -3.977  -3.720  0.00  0.00     0.056 H 
ATOM     17  H   LIG d   1       5.399  -2.575  -2.821  0.00  0.00     0.056 H 
ATOM     18  H   LIG d   1       4.559   0.738  -4.996  0.00  0.00     0.033 H 
ATOM     19  H   LIG d   1       3.945  -0.636  -5.947  0.00  0.00     0.033 H 
ENDROOT
BRANCH   3  20
ATOM     20  C   LIG d   1       5.726  -0.097  -7.363  0.00  0.00     0.315 C 
ATOM     21  O   LIG d   1       5.068  -0.905  -7.973  0.00  0.00    -0.250 OA
BRANCH  20  22
ATOM     22  O   LIG d   1       5.636   1.207  -7.666  0.00  0.00    -0.465 OA
BRANCH  22  23
ATOM     23  C   LIG d   1       5.499   1.545  -9.048  0.00  0.00     0.090 C 
ATOM     24  H   LIG d   1       6.413   2.026  -9.396  0.00  0.00     0.069 H 
ATOM     25  H   LIG d   1       5.321   0.639  -9.627  0.00  0.00     0.069 H 
BRANCH  23  26
ATOM     26  C   LIG d   1       4.319   2.504  -9.224  0.00  0.00    -0.031 C 
ATOM     27  H   LIG d   1       4.289   3.200  -8.387  0.00  0.00     0.026 H 
ATOM     28  H   LIG d   1       4.438   3.058 -10.154  0.00  0.00     0.026 H 
ATOM     29  H   LIG d   1       3.391   1.934  -9.256  0.00  0.00     0.026 H 
ENDBRANCH  23  26
ENDBRANCH  22  23
ENDBRANCH  20  22
ENDBRANCH   3  20
BRANCH   1  30
ATOM     30  C   LIG d   1       8.965   0.312  -5.821  0.00  0.00     0.322 C 
ATOM     31  O   LIG d   1       9.778   1.075  -5.354  0.00  0.00    -0.250 OA
BRANCH  30  32
ATOM     32  O   LIG d   1       9.371  -0.816  -6.422  0.00  0.00    -0.464 OA
BRANCH  32  33
ATOM     33  C   LIG d   1      10.261  -1.659  -5.687  0.00  0.00     0.090 C 
ATOM     34  H   LIG d   1      10.920  -1.044  -5.074  0.00  0.00     0.069 H 
ATOM     35  H   LIG d   1      10.859  -2.250  -6.381  0.00  0.00     0.069 H 
BRANCH  33  36
ATOM     36  C   LIG d   1       9.452  -2.593  -4.787  0.00  0.00    -0.031 C 
ATOM     37  H   LIG d   1       8.628  -3.024  -5.355  0.00  0.00     0.026 H 
ATOM     38  H   LIG d   1      10.096  -3.393  -4.419  0.00  0.00     0.026 H 
ATOM     39  H   LIG d   1       9.054  -2.030  -3.942  0.00  0.00     0.026 H 
ENDBRANCH  33  36
ENDBRANCH  32  33
ENDBRANCH  30  32
ENDBRANCH   1  30
BRANCH   9  40
ATOM     40  C   LIG d   1       2.249  -0.272  -3.877  0.00  0.00    -0.036 C 
ATOM     41  H   LIG d   1       1.688  -0.610  -3.005  0.00  0.00     0.026 H 
ATOM     42  H   LIG d   1       2.289   0.818  -3.882  0.00  0.00     0.026 H 
ATOM     43  H   LIG d   1       1.757  -0.622  -4.784  0.00  0.00     0.026 H 
ENDBRANCH   9  40
BRANCH   9  44
ATOM     44  C   LIG d   1       4.356  -0.356  -2.536  0.00  0.00    -0.036 C 
ATOM     45  H   LIG d   1       5.416  -0.608  -2.574  0.00  0.00     0.026 H 
ATOM     46  H   LIG d   1       4.243   0.725  -2.445  0.00  0.00     0.026 H 
ATOM     47  H   LIG d   1       3.898  -0.842  -1.674  0.00  0.00     0.026 H 
ENDBRANCH   9  44
TORSDOF 10
ENDMDL
MODEL 9
REMARK VINA RESULT:      -4.7      1.807      5.465
REMARK  10 active torsions:
REMARK  status: ('A' for Active; 'I' for Inactive)
REMARK    1  A    between atoms: C_1  and  C_2 
REMARK    2  A    between atoms: C_2  and  O_3 
REMARK    3  A    between atoms: O_3  and  C_4 
REMARK    4  A    between atoms: C_4  and  C_6 
REMARK    5  A    between atoms: C_8  and  C_21 
REMARK    6  A    between atoms: C_14  and  C_16 
REMARK    7  A    between atoms: C_14  and  C_17 
REMARK    8  A    between atoms: C_21  and  O_23 
REMARK    9  A    between atoms: O_23  and  C_24 
REMARK   10  A    between atoms: C_24  and  C_25 
ROOT
ATOM      1  C   LIG d   1       4.621  -2.038  -7.948  0.00  0.00     0.169 C 
ATOM      2  H   LIG d   1       5.535  -2.067  -8.541  0.00  0.00     0.054 H 
ATOM      3  C   LIG d   1       4.250  -0.577  -7.591  0.00  0.00     0.119 C 
ATOM      4  H   LIG d   1       3.253  -0.330  -7.958  0.00  0.00     0.047 H 
ATOM      5  C   LIG d   1       4.277  -0.599  -6.050  0.00  0.00     0.132 C 
ATOM      6  C   LIG d   1       3.133   0.240  -5.491  0.00  0.00     0.012 C 
ATOM      7  C   LIG d   1       3.219   0.252  -3.960  0.00  0.00     0.052 C 
ATOM      8  O   LIG d   1       4.501   0.742  -3.563  0.00  0.00    -0.374 OA
ATOM      9  C   LIG d   1       5.598  -0.058  -4.007  0.00  0.00     0.068 C 
ATOM     10  C   LIG d   1       5.618  -0.085  -5.539  0.00  0.00     0.017 C 
ATOM     11  O   LIG d   1       4.103  -1.983  -5.703  0.00  0.00    -0.456 OA
ATOM     12  C   LIG d   1       4.839  -2.698  -6.596  0.00  0.00     0.323 C 
ATOM     13  O   LIG d   1       5.528  -3.663  -6.363  0.00  0.00    -0.250 OA
ATOM     14  H   LIG d   1       3.211   1.260  -5.867  0.00  0.00     0.033 H 
ATOM     15  H   LIG d   1       2.181  -0.192  -5.798  0.00  0.00     0.033 H 
ATOM     16  H   LIG d   1       2.441   0.902  -3.558  0.00  0.00     0.056 H 
ATOM     17  H   LIG d   1       3.082  -0.759  -3.579  0.00  0.00     0.056 H 
ATOM     18  H   LIG d   1       6.415  -0.745  -5.882  0.00  0.00     0.033 H 
ATOM     19  H   LIG d   1       5.791   0.922  -5.919  0.00  0.00     0.033 H 
ENDROOT
BRANCH   3  20
ATOM     20  C   LIG d   1       5.273   0.386  -8.136  0.00  0.00     0.315 C 
ATOM     21  O   LIG d   1       6.383  -0.004  -8.408  0.00  0.00    -0.250 OA
BRANCH  20  22
ATOM     22  O   LIG d   1       4.952   1.676  -8.319  0.00  0.00    -0.465 OA
BRANCH  22  23
ATOM     23  C   LIG d   1       3.742   1.948  -9.029  0.00  0.00     0.090 C 
ATOM     24  H   LIG d   1       2.929   1.362  -8.599  0.00  0.00     0.069 H 
ATOM     25  H   LIG d   1       3.506   3.009  -8.951  0.00  0.00     0.069 H 
BRANCH  23  26
ATOM     26  C   LIG d   1       3.918   1.571 -10.501  0.00  0.00    -0.031 C 
ATOM     27  H   LIG d   1       4.494   2.344 -11.008  0.00  0.00     0.026 H 
ATOM     28  H   LIG d   1       4.445   0.620 -10.571  0.00  0.00     0.026 H 
ATOM     29  H   LIG d   1       2.940   1.479 -10.972  0.00  0.00     0.026 H 
ENDBRANCH  23  26
ENDBRANCH  22  23
ENDBRANCH  20  22
ENDBRANCH   3  20
BRANCH   1  30
ATOM     30  C   LIG d   1       3.490  -2.706  -8.688  0.00  0.00     0.322 C 
ATOM     31  O   LIG d   1       3.549  -3.885  -8.944  0.00  0.00    -0.250 OA
BRANCH  30  32
ATOM     32  O   LIG d   1       2.418  -1.990  -9.062  0.00  0.00    -0.464 OA
BRANCH  32  33
ATOM     33  C   LIG d   1       1.726  -2.421 -10.235  0.00  0.00     0.090 C 
ATOM     34  H   LIG d   1       0.795  -2.912  -9.948  0.00  0.00     0.069 H 
ATOM     35  H   LIG d   1       2.350  -3.124 -10.788  0.00  0.00     0.069 H 
BRANCH  33  36
ATOM     36  C   LIG d   1       1.414  -1.212 -11.117  0.00  0.00    -0.031 C 
ATOM     37  H   LIG d   1       0.356  -0.962 -11.031  0.00  0.00     0.026 H 
ATOM     38  H   LIG d   1       2.015  -0.361 -10.796  0.00  0.00     0.026 H 
ATOM     39  H   LIG d   1       1.646  -1.450 -12.155  0.00  0.00     0.026 H 
ENDBRANCH  33  36
ENDBRANCH  32  33
ENDBRANCH  30  32
ENDBRANCH   1  30
BRANCH   9  40
ATOM     40  C   LIG d   1       6.909   0.539  -3.490  0.00  0.00    -0.036 C 
ATOM     41  H   LIG d   1       6.826   1.625  -3.461  0.00  0.00     0.026 H 
ATOM     42  H   LIG d   1       7.108   0.163  -2.487  0.00  0.00     0.026 H 
ATOM     43  H   LIG d   1       7.725   0.254  -4.154  0.00  0.00     0.026 H 
ENDBRANCH   9  40
BRANCH   9  44
ATOM     44  C   LIG d   1       5.440  -1.483  -3.474  0.00  0.00    -0.036 C 
ATOM     45  H   LIG d   1       4.410  -1.639  -3.154  0.00  0.00     0.026 H 
ATOM     46  H   LIG d   1       5.687  -2.195  -4.262  0.00  0.00     0.026 H 
ATOM     47  H   LIG d   1       6.110  -1.632  -2.628  0.00  0.00     0.026 H 
ENDBRANCH   9  44
TORSDOF 10
ENDMDL
MODEL 10
REMARK VINA RESULT:      -4.5      2.008      3.566
REMARK  10 active torsions:
REMARK  status: ('A' for Active; 'I' for Inactive)
REMARK    1  A    between atoms: C_1  and  C_2 
REMARK    2  A    between atoms: C_2  and  O_3 
REMARK    3  A    between atoms: O_3  and  C_4 
REMARK    4  A    between atoms: C_4  and  C_6 
REMARK    5  A    between atoms: C_8  and  C_21 
REMARK    6  A    between atoms: C_14  and  C_16 
REMARK    7  A    between atoms: C_14  and  C_17 
REMARK    8  A    between atoms: C_21  and  O_23 
REMARK    9  A    between atoms: O_23  and  C_24 
REMARK   10  A    between atoms: C_24  and  C_25 
ROOT
ATOM      1  C   LIG d   1       4.475  -0.847  -6.308  0.00  0.00     0.169 C 
ATOM      2  H   LIG d   1       4.932  -1.757  -5.919  0.00  0.00     0.054 H 
ATOM      3  C   LIG d   1       3.705  -1.143  -7.619  0.00  0.00     0.119 C 
ATOM      4  H   LIG d   1       2.656  -0.859  -7.525  0.00  0.00     0.047 H 
ATOM      5  C   LIG d   1       4.429  -0.239  -8.636  0.00  0.00     0.132 C 
ATOM      6  C   LIG d   1       3.423   0.385  -9.597  0.00  0.00     0.012 C 
ATOM      7  C   LIG d   1       4.173   1.228 -10.634  0.00  0.00     0.052 C 
ATOM      8  O   LIG d   1       5.132   0.409 -11.305  0.00  0.00    -0.374 OA
ATOM      9  C   LIG d   1       6.137  -0.138 -10.448  0.00  0.00     0.068 C 
ATOM     10  C   LIG d   1       5.475  -1.041  -9.402  0.00  0.00     0.017 C 
ATOM     11  O   LIG d   1       5.059   0.776  -7.837  0.00  0.00    -0.456 OA
ATOM     12  C   LIG d   1       5.544   0.149  -6.732  0.00  0.00     0.323 C 
ATOM     13  O   LIG d   1       6.608   0.342  -6.194  0.00  0.00    -0.250 OA
ATOM     14  H   LIG d   1       2.865  -0.403 -10.103  0.00  0.00     0.033 H 
ATOM     15  H   LIG d   1       2.734   1.021  -9.041  0.00  0.00     0.033 H 
ATOM     16  H   LIG d   1       3.464   1.625 -11.361  0.00  0.00     0.056 H 
ATOM     17  H   LIG d   1       4.683   2.051 -10.135  0.00  0.00     0.056 H 
ATOM     18  H   LIG d   1       6.231  -1.410  -8.708  0.00  0.00     0.033 H 
ATOM     19  H   LIG d   1       4.996  -1.884  -9.900  0.00  0.00     0.033 H 
ENDROOT
BRANCH   3  20
ATOM     20  C   LIG d   1       3.832  -2.596  -8.000  0.00  0.00     0.315 C 
ATOM     21  O   LIG d   1       3.128  -3.057  -8.866  0.00  0.00    -0.250 OA
BRANCH  20  22
ATOM     22  O   LIG d   1       4.727  -3.378  -7.376  0.00  0.00    -0.465 OA
BRANCH  22  23
ATOM     23  C   LIG d   1       4.216  -4.491  -6.641  0.00  0.00     0.090 C 
ATOM     24  H   LIG d   1       3.138  -4.381  -6.520  0.00  0.00     0.069 H 
ATOM     25  H   LIG d   1       4.430  -5.412  -7.181  0.00  0.00     0.069 H 
BRANCH  23  26
ATOM     26  C   LIG d   1       4.881  -4.541  -5.263  0.00  0.00    -0.031 C 
ATOM     27  H   LIG d   1       4.157  -4.255  -4.500  0.00  0.00     0.026 H 
ATOM     28  H   LIG d   1       5.234  -5.553  -5.068  0.00  0.00     0.026 H 
ATOM     29  H   LIG d   1       5.724  -3.851  -5.242  0.00  0.00     0.026 H 
ENDBRANCH  23  26
ENDBRANCH  22  23
ENDBRANCH  20  22
ENDBRANCH   3  20
BRANCH   1  30
ATOM     30  C   LIG d   1       3.557  -0.235  -5.281  0.00  0.00     0.322 C 
ATOM     31  O   LIG d   1       2.549   0.329  -5.633  0.00  0.00    -0.250 OA
BRANCH  30  32
ATOM     32  O   LIG d   1       3.861  -0.319  -3.976  0.00  0.00    -0.464 OA
BRANCH  32  33
ATOM     33  C   LIG d   1       3.023  -1.146  -3.167  0.00  0.00     0.090 C 
ATOM     34  H   LIG d   1       2.354  -1.722  -3.807  0.00  0.00     0.069 H 
ATOM     35  H   LIG d   1       2.434  -0.522  -2.496  0.00  0.00     0.069 H 
BRANCH  33  36
ATOM     36  C   LIG d   1       3.890  -2.102  -2.346  0.00  0.00    -0.031 C 
ATOM     37  H   LIG d   1       4.915  -2.073  -2.716  0.00  0.00     0.026 H 
ATOM     38  H   LIG d   1       3.874  -1.800  -1.299  0.00  0.00     0.026 H 
ATOM     39  H   LIG d   1       3.500  -3.116  -2.437  0.00  0.00     0.026 H 
ENDBRANCH  33  36
ENDBRANCH  32  33
ENDBRANCH  30  32
ENDBRANCH   1  30
BRANCH   9  40
ATOM     40  C   LIG d   1       7.126  -0.959 -11.279  0.00  0.00    -0.036 C 
ATOM     41  H   LIG d   1       8.018  -0.363 -11.475  0.00  0.00     0.026 H 
ATOM     42  H   LIG d   1       7.404  -1.858 -10.728  0.00  0.00     0.026 H 
ATOM     43  H   LIG d   1       6.661  -1.240 -12.224  0.00  0.00     0.026 H 
ENDBRANCH   9  40
BRANCH   9  44
ATOM     44  C   LIG d   1       6.881   0.998  -9.744  0.00  0.00    -0.036 C 
ATOM     45  H   LIG d   1       7.945   0.768  -9.707  0.00  0.00     0.026 H 
ATOM     46  H   LIG d   1       6.728   1.928 -10.293  0.00  0.00     0.026 H 
ATOM     47  H   LIG d   1       6.498   1.110  -8.729  0.00  0.00     0.026 H 
ENDBRANCH   9  44
TORSDOF 10
ENDMDL
