MODEL 1
REMARK VINA RESULT:      -6.2      0.000      0.000
REMARK  2 active torsions:
REMARK  status: ('A' for Active; 'I' for Inactive)
REMARK    1  A    between atoms: C_1  and  N_2 
REMARK    2  A    between atoms: C_14  and  N_15 
ROOT
ATOM      1  N   LIG d   1       3.983  -1.937  -8.079  0.00  0.00    -0.281 NA
ATOM      2  C   LIG d   1       3.923  -0.994  -9.197  0.00  0.00     0.017 C 
ATOM      3  C   LIG d   1       2.621  -0.191  -9.094  0.00  0.00    -0.033 C 
ATOM      4  C   LIG d   1       2.726   0.718  -7.865  0.00  0.00    -0.017 C 
ATOM      5  C   LIG d   1       3.233  -0.079  -6.689  0.00  0.00     0.062 A 
ATOM      6  C   LIG d   1       3.830  -1.328  -6.841  0.00  0.00     0.277 A 
ATOM      7  C   LIG d   1       4.178  -1.522  -4.541  0.00  0.00     0.216 A 
ATOM      8  C   LIG d   1       4.660  -2.254  -3.443  0.00  0.00     0.010 A 
ATOM      9  C   LIG d   1       4.540  -1.744  -2.185  0.00  0.00    -0.056 A 
ATOM     10  C   LIG d   1       3.948  -0.504  -1.967  0.00  0.00    -0.061 A 
ATOM     11  C   LIG d   1       3.471   0.234  -3.009  0.00  0.00    -0.046 A 
ATOM     12  C   LIG d   1       3.577  -0.261  -4.315  0.00  0.00     0.067 A 
ATOM     13  C   LIG d   1       3.096   0.472  -5.426  0.00  0.00     0.049 A 
ATOM     14  H   LIG d   1       4.775  -0.318  -9.151  0.00  0.00     0.046 H 
ATOM     15  H   LIG d   1       3.942  -1.543 -10.138  0.00  0.00     0.046 H 
ATOM     16  H   LIG d   1       2.489   0.415  -9.990  0.00  0.00     0.028 H 
ATOM     17  H   LIG d   1       1.775  -0.870  -8.979  0.00  0.00     0.028 H 
ATOM     18  H   LIG d   1       1.744   1.128  -7.631  0.00  0.00     0.032 H 
ATOM     19  H   LIG d   1       3.419   1.533  -8.077  0.00  0.00     0.032 H 
ATOM     20  H   LIG d   1       5.123  -3.217  -3.595  0.00  0.00     0.068 H 
ATOM     21  H   LIG d   1       4.912  -2.311  -1.345  0.00  0.00     0.062 H 
ATOM     22  H   LIG d   1       3.866  -0.122  -0.960  0.00  0.00     0.062 H 
ATOM     23  H   LIG d   1       3.012   1.195  -2.829  0.00  0.00     0.063 H 
ATOM     24  N   LIG d   1       4.310  -2.075  -5.796  0.00  0.00    -0.191 N 
ATOM     25  H   LIG d   1       4.745  -2.995  -5.941  0.00  0.00     0.455 HD
ENDROOT
BRANCH   1  26
ATOM     26  C   LIG d   1       5.218  -2.731  -8.125  0.00  0.00     0.006 C 
ATOM     27  H   LIG d   1       5.024  -3.677  -8.631  0.00  0.00     0.043 H 
ATOM     28  H   LIG d   1       5.984  -2.178  -8.670  0.00  0.00     0.043 H 
ATOM     29  H   LIG d   1       5.564  -2.926  -7.110  0.00  0.00     0.043 H 
ENDBRANCH   1  26
BRANCH  13  30
ATOM     30  N   LIG d   1       2.502   1.714  -5.253  0.00  0.00    -0.357 N 
ATOM     31  H   LIG d   1       1.683   1.930  -5.726  0.00  0.00     0.142 HD
ATOM     32  H   LIG d   1       2.905   2.366  -4.660  0.00  0.00     0.142 HD
ENDBRANCH  13  30
TORSDOF 2
ENDMDL
MODEL 2
REMARK VINA RESULT:      -6.1      1.215      2.869
REMARK  2 active torsions:
REMARK  status: ('A' for Active; 'I' for Inactive)
REMARK    1  A    between atoms: C_1  and  N_2 
REMARK    2  A    between atoms: C_14  and  N_15 
ROOT
ATOM      1  N   LIG d   1       3.986  -0.250  -7.801  0.00  0.00    -0.281 NA
ATOM      2  C   LIG d   1       3.593  -1.302  -8.741  0.00  0.00     0.017 C 
ATOM      3  C   LIG d   1       4.587  -2.464  -8.624  0.00  0.00    -0.033 C 
ATOM      4  C   LIG d   1       4.386  -3.116  -7.253  0.00  0.00    -0.017 C 
ATOM      5  C   LIG d   1       4.322  -2.049  -6.189  0.00  0.00     0.062 A 
ATOM      6  C   LIG d   1       4.122  -0.705  -6.498  0.00  0.00     0.277 A 
ATOM      7  C   LIG d   1       4.185  -0.104  -4.243  0.00  0.00     0.216 A 
ATOM      8  C   LIG d   1       4.114   0.885  -3.247  0.00  0.00     0.010 A 
ATOM      9  C   LIG d   1       4.251   0.537  -1.937  0.00  0.00    -0.056 A 
ATOM     10  C   LIG d   1       4.460  -0.788  -1.565  0.00  0.00    -0.061 A 
ATOM     11  C   LIG d   1       4.533  -1.773  -2.504  0.00  0.00    -0.046 A 
ATOM     12  C   LIG d   1       4.397  -1.450  -3.860  0.00  0.00     0.067 A 
ATOM     13  C   LIG d   1       4.465  -2.440  -4.868  0.00  0.00     0.049 A 
ATOM     14  H   LIG d   1       2.590  -1.652  -8.499  0.00  0.00     0.046 H 
ATOM     15  H   LIG d   1       3.608  -0.907  -9.757  0.00  0.00     0.046 H 
ATOM     16  H   LIG d   1       4.396  -3.194  -9.411  0.00  0.00     0.028 H 
ATOM     17  H   LIG d   1       5.607  -2.088  -8.708  0.00  0.00     0.028 H 
ATOM     18  H   LIG d   1       5.218  -3.788  -7.044  0.00  0.00     0.032 H 
ATOM     19  H   LIG d   1       3.454  -3.683  -7.255  0.00  0.00     0.032 H 
ATOM     20  H   LIG d   1       3.951   1.917  -3.519  0.00  0.00     0.068 H 
ATOM     21  H   LIG d   1       4.196   1.301  -1.176  0.00  0.00     0.062 H 
ATOM     22  H   LIG d   1       4.565  -1.038  -0.520  0.00  0.00     0.062 H 
ATOM     23  H   LIG d   1       4.696  -2.798  -2.205  0.00  0.00     0.063 H 
ATOM     24  N   LIG d   1       4.049   0.289  -5.556  0.00  0.00    -0.191 N 
ATOM     25  H   LIG d   1       3.901   1.273  -5.816  0.00  0.00     0.455 HD
ENDROOT
BRANCH   1  26
ATOM     26  C   LIG d   1       3.060   0.888  -7.868  0.00  0.00     0.006 C 
ATOM     27  H   LIG d   1       2.267   0.670  -8.583  0.00  0.00     0.043 H 
ATOM     28  H   LIG d   1       2.625   1.060  -6.883  0.00  0.00     0.043 H 
ATOM     29  H   LIG d   1       3.601   1.779  -8.186  0.00  0.00     0.043 H 
ENDBRANCH   1  26
BRANCH  13  30
ATOM     30  N   LIG d   1       4.668  -3.773  -4.541  0.00  0.00    -0.357 N 
ATOM     31  H   LIG d   1       5.265  -4.319  -5.077  0.00  0.00     0.142 HD
ATOM     32  H   LIG d   1       4.214  -4.159  -3.776  0.00  0.00     0.142 HD
ENDBRANCH  13  30
TORSDOF 2
ENDMDL
MODEL 3
REMARK VINA RESULT:      -6.0      3.650      4.745
REMARK  2 active torsions:
REMARK  status: ('A' for Active; 'I' for Inactive)
REMARK    1  A    between atoms: C_1  and  N_2 
REMARK    2  A    between atoms: C_14  and  N_15 
ROOT
ATOM      1  N   LIG d   1       8.827  -1.950  -4.737  0.00  0.00    -0.281 NA
ATOM      2  C   LIG d   1       8.975  -3.011  -5.735  0.00  0.00     0.017 C 
ATOM      3  C   LIG d   1       8.380  -4.306  -5.171  0.00  0.00    -0.033 C 
ATOM      4  C   LIG d   1       6.863  -4.120  -5.070  0.00  0.00    -0.017 C 
ATOM      5  C   LIG d   1       6.558  -2.790  -4.428  0.00  0.00     0.062 A 
ATOM      6  C   LIG d   1       7.519  -1.789  -4.301  0.00  0.00     0.277 A 
ATOM      7  C   LIG d   1       5.992  -0.353  -3.274  0.00  0.00     0.216 A 
ATOM      8  C   LIG d   1       5.699   0.889  -2.687  0.00  0.00     0.010 A 
ATOM      9  C   LIG d   1       4.445   1.135  -2.215  0.00  0.00    -0.056 A 
ATOM     10  C   LIG d   1       3.442   0.173  -2.306  0.00  0.00    -0.061 A 
ATOM     11  C   LIG d   1       3.691  -1.042  -2.871  0.00  0.00    -0.046 A 
ATOM     12  C   LIG d   1       4.970  -1.327  -3.366  0.00  0.00     0.067 A 
ATOM     13  C   LIG d   1       5.272  -2.575  -3.961  0.00  0.00     0.049 A 
ATOM     14  H   LIG d   1       8.447  -2.732  -6.646  0.00  0.00     0.046 H 
ATOM     15  H   LIG d   1      10.032  -3.158  -5.956  0.00  0.00     0.046 H 
ATOM     16  H   LIG d   1       8.606  -5.138  -5.838  0.00  0.00     0.028 H 
ATOM     17  H   LIG d   1       8.795  -4.503  -4.181  0.00  0.00     0.028 H 
ATOM     18  H   LIG d   1       6.438  -4.922  -4.466  0.00  0.00     0.032 H 
ATOM     19  H   LIG d   1       6.428  -4.149  -6.070  0.00  0.00     0.032 H 
ATOM     20  H   LIG d   1       6.465   1.646  -2.609  0.00  0.00     0.068 H 
ATOM     21  H   LIG d   1       4.225   2.091  -1.764  0.00  0.00     0.062 H 
ATOM     22  H   LIG d   1       2.456   0.393  -1.925  0.00  0.00     0.062 H 
ATOM     23  H   LIG d   1       2.907  -1.781  -2.937  0.00  0.00     0.063 H 
ATOM     24  N   LIG d   1       7.274  -0.566  -3.733  0.00  0.00    -0.191 N 
ATOM     25  H   LIG d   1       8.005   0.151  -3.653  0.00  0.00     0.455 HD
ENDROOT
BRANCH   1  26
ATOM     26  C   LIG d   1       9.376  -0.681  -5.231  0.00  0.00     0.006 C 
ATOM     27  H   LIG d   1       9.658  -0.053  -4.386  0.00  0.00     0.043 H 
ATOM     28  H   LIG d   1      10.256  -0.881  -5.844  0.00  0.00     0.043 H 
ATOM     29  H   LIG d   1       8.625  -0.168  -5.832  0.00  0.00     0.043 H 
ENDBRANCH   1  26
BRANCH  13  30
ATOM     30  N   LIG d   1       4.301  -3.560  -4.075  0.00  0.00    -0.357 N 
ATOM     31  H   LIG d   1       3.575  -3.455  -4.710  0.00  0.00     0.142 HD
ATOM     32  H   LIG d   1       4.349  -4.354  -3.520  0.00  0.00     0.142 HD
ENDBRANCH  13  30
TORSDOF 2
ENDMDL
MODEL 4
REMARK VINA RESULT:      -5.9      2.609      4.961
REMARK  2 active torsions:
REMARK  status: ('A' for Active; 'I' for Inactive)
REMARK    1  A    between atoms: C_1  and  N_2 
REMARK    2  A    between atoms: C_14  and  N_15 
ROOT
ATOM      1  N   LIG d   1       2.956  -0.201  -3.534  0.00  0.00    -0.281 NA
ATOM      2  C   LIG d   1       3.362   1.150  -3.144  0.00  0.00     0.017 C 
ATOM      3  C   LIG d   1       4.349   1.050  -1.974  0.00  0.00    -0.033 C 
ATOM      4  C   LIG d   1       5.643   0.428  -2.505  0.00  0.00    -0.017 C 
ATOM      5  C   LIG d   1       5.316  -0.784  -3.341  0.00  0.00     0.062 A 
ATOM      6  C   LIG d   1       4.030  -1.035  -3.813  0.00  0.00     0.277 A 
ATOM      7  C   LIG d   1       4.726  -2.988  -4.885  0.00  0.00     0.216 A 
ATOM      8  C   LIG d   1       4.430  -4.113  -5.674  0.00  0.00     0.010 A 
ATOM      9  C   LIG d   1       5.416  -4.997  -5.988  0.00  0.00    -0.056 A 
ATOM     10  C   LIG d   1       6.721  -4.807  -5.541  0.00  0.00    -0.061 A 
ATOM     11  C   LIG d   1       7.044  -3.726  -4.776  0.00  0.00    -0.046 A 
ATOM     12  C   LIG d   1       6.054  -2.797  -4.434  0.00  0.00     0.067 A 
ATOM     13  C   LIG d   1       6.345  -1.661  -3.642  0.00  0.00     0.049 A 
ATOM     14  H   LIG d   1       3.842   1.645  -3.986  0.00  0.00     0.046 H 
ATOM     15  H   LIG d   1       2.485   1.720  -2.836  0.00  0.00     0.046 H 
ATOM     16  H   LIG d   1       4.553   2.045  -1.578  0.00  0.00     0.028 H 
ATOM     17  H   LIG d   1       3.930   0.419  -1.190  0.00  0.00     0.028 H 
ATOM     18  H   LIG d   1       6.275   0.133  -1.668  0.00  0.00     0.032 H 
ATOM     19  H   LIG d   1       6.172   1.159  -3.118  0.00  0.00     0.032 H 
ATOM     20  H   LIG d   1       3.423  -4.274  -6.029  0.00  0.00     0.068 H 
ATOM     21  H   LIG d   1       5.183  -5.860  -6.594  0.00  0.00     0.062 H 
ATOM     22  H   LIG d   1       7.485  -5.523  -5.805  0.00  0.00     0.062 H 
ATOM     23  H   LIG d   1       8.059  -3.588  -4.433  0.00  0.00     0.063 H 
ATOM     24  N   LIG d   1       3.699  -2.121  -4.582  0.00  0.00    -0.191 N 
ATOM     25  H   LIG d   1       2.740  -2.278  -4.915  0.00  0.00     0.455 HD
ENDROOT
BRANCH   1  26
ATOM     26  C   LIG d   1       2.013  -0.164  -4.658  0.00  0.00     0.006 C 
ATOM     27  H   LIG d   1       1.623  -1.165  -4.840  0.00  0.00     0.043 H 
ATOM     28  H   LIG d   1       1.189   0.509  -4.419  0.00  0.00     0.043 H 
ATOM     29  H   LIG d   1       2.525   0.194  -5.552  0.00  0.00     0.043 H 
ENDBRANCH   1  26
BRANCH  13  30
ATOM     30  N   LIG d   1       7.633  -1.431  -3.178  0.00  0.00    -0.357 N 
ATOM     31  H   LIG d   1       7.895  -0.541  -2.895  0.00  0.00     0.142 HD
ATOM     32  H   LIG d   1       8.271  -2.160  -3.137  0.00  0.00     0.142 HD
ENDBRANCH  13  30
TORSDOF 2
ENDMDL
MODEL 5
REMARK VINA RESULT:      -5.9      1.060      5.376
REMARK  2 active torsions:
REMARK  status: ('A' for Active; 'I' for Inactive)
REMARK    1  A    between atoms: C_1  and  N_2 
REMARK    2  A    between atoms: C_14  and  N_15 
ROOT
ATOM      1  N   LIG d   1       3.374   0.176  -3.070  0.00  0.00    -0.281 NA
ATOM      2  C   LIG d   1       4.228  -0.483  -2.080  0.00  0.00     0.017 C 
ATOM      3  C   LIG d   1       4.054  -2.001  -2.211  0.00  0.00    -0.033 C 
ATOM      4  C   LIG d   1       4.663  -2.429  -3.549  0.00  0.00    -0.017 C 
ATOM      5  C   LIG d   1       4.187  -1.503  -4.640  0.00  0.00     0.062 A 
ATOM      6  C   LIG d   1       3.591  -0.275  -4.364  0.00  0.00     0.277 A 
ATOM      7  C   LIG d   1       3.339   0.195  -6.637  0.00  0.00     0.216 A 
ATOM      8  C   LIG d   1       2.908   1.059  -7.658  0.00  0.00     0.010 A 
ATOM      9  C   LIG d   1       3.065   0.696  -8.962  0.00  0.00    -0.056 A 
ATOM     10  C   LIG d   1       3.648  -0.521  -9.303  0.00  0.00    -0.061 A 
ATOM     11  C   LIG d   1       4.078  -1.383  -8.338  0.00  0.00    -0.046 A 
ATOM     12  C   LIG d   1       3.931  -1.041  -6.988  0.00  0.00     0.067 A 
ATOM     13  C   LIG d   1       4.364  -1.905  -5.954  0.00  0.00     0.049 A 
ATOM     14  H   LIG d   1       5.268  -0.217  -2.260  0.00  0.00     0.046 H 
ATOM     15  H   LIG d   1       3.937  -0.165  -1.079  0.00  0.00     0.046 H 
ATOM     16  H   LIG d   1       4.570  -2.504  -1.393  0.00  0.00     0.028 H 
ATOM     17  H   LIG d   1       2.993  -2.254  -2.190  0.00  0.00     0.028 H 
ATOM     18  H   LIG d   1       4.357  -3.449  -3.778  0.00  0.00     0.032 H 
ATOM     19  H   LIG d   1       5.751  -2.383  -3.483  0.00  0.00     0.032 H 
ATOM     20  H   LIG d   1       2.455   2.008  -7.410  0.00  0.00     0.068 H 
ATOM     21  H   LIG d   1       2.732   1.364  -9.743  0.00  0.00     0.062 H 
ATOM     22  H   LIG d   1       3.761  -0.785 -10.344  0.00  0.00     0.062 H 
ATOM     23  H   LIG d   1       4.528  -2.325  -8.614  0.00  0.00     0.063 H 
ATOM     24  N   LIG d   1       3.156   0.595  -5.331  0.00  0.00    -0.191 N 
ATOM     25  H   LIG d   1       2.718   1.494  -5.095  0.00  0.00     0.455 HD
ENDROOT
BRANCH   1  26
ATOM     26  C   LIG d   1       3.508   1.636  -2.992  0.00  0.00     0.006 C 
ATOM     27  H   LIG d   1       2.816   2.103  -3.693  0.00  0.00     0.043 H 
ATOM     28  H   LIG d   1       3.278   1.968  -1.979  0.00  0.00     0.043 H 
ATOM     29  H   LIG d   1       4.529   1.922  -3.245  0.00  0.00     0.043 H 
ENDBRANCH   1  26
BRANCH  13  30
ATOM     30  N   LIG d   1       4.953  -3.126  -6.250  0.00  0.00    -0.357 N 
ATOM     31  H   LIG d   1       4.858  -3.508  -7.137  0.00  0.00     0.142 HD
ATOM     32  H   LIG d   1       5.460  -3.597  -5.571  0.00  0.00     0.142 HD
ENDBRANCH  13  30
TORSDOF 2
ENDMDL
MODEL 6
REMARK VINA RESULT:      -5.7      4.105      4.670
REMARK  2 active torsions:
REMARK  status: ('A' for Active; 'I' for Inactive)
REMARK    1  A    between atoms: C_1  and  N_2 
REMARK    2  A    between atoms: C_14  and  N_15 
ROOT
ATOM      1  N   LIG d   1       8.559  -2.651  -5.048  0.00  0.00    -0.281 NA
ATOM      2  C   LIG d   1       9.906  -2.242  -5.452  0.00  0.00     0.017 C 
ATOM      3  C   LIG d   1       9.793  -1.034  -6.390  0.00  0.00    -0.033 C 
ATOM      4  C   LIG d   1       9.290   0.155  -5.566  0.00  0.00    -0.017 C 
ATOM      5  C   LIG d   1       8.117  -0.275  -4.722  0.00  0.00     0.062 A 
ATOM      6  C   LIG d   1       7.816  -1.617  -4.498  0.00  0.00     0.277 A 
ATOM      7  C   LIG d   1       5.984  -1.057  -3.162  0.00  0.00     0.216 A 
ATOM      8  C   LIG d   1       4.897  -1.452  -2.365  0.00  0.00     0.010 A 
ATOM      9  C   LIG d   1       4.099  -0.508  -1.794  0.00  0.00    -0.056 A 
ATOM     10  C   LIG d   1       4.343   0.849  -1.985  0.00  0.00    -0.061 A 
ATOM     11  C   LIG d   1       5.390   1.268  -2.751  0.00  0.00    -0.046 A 
ATOM     12  C   LIG d   1       6.230   0.323  -3.353  0.00  0.00     0.067 A 
ATOM     13  C   LIG d   1       7.328   0.713  -4.156  0.00  0.00     0.049 A 
ATOM     14  H   LIG d   1      10.484  -1.968  -4.571  0.00  0.00     0.046 H 
ATOM     15  H   LIG d   1      10.397  -3.065  -5.970  0.00  0.00     0.046 H 
ATOM     16  H   LIG d   1      10.771  -0.802  -6.813  0.00  0.00     0.028 H 
ATOM     17  H   LIG d   1       9.087  -1.253  -7.191  0.00  0.00     0.028 H 
ATOM     18  H   LIG d   1       8.982   0.957  -6.235  0.00  0.00     0.032 H 
ATOM     19  H   LIG d   1      10.092   0.511  -4.918  0.00  0.00     0.032 H 
ATOM     20  H   LIG d   1       4.695  -2.501  -2.206  0.00  0.00     0.068 H 
ATOM     21  H   LIG d   1       3.264  -0.817  -1.182  0.00  0.00     0.062 H 
ATOM     22  H   LIG d   1       3.696   1.578  -1.520  0.00  0.00     0.062 H 
ATOM     23  H   LIG d   1       5.571   2.323  -2.893  0.00  0.00     0.063 H 
ATOM     24  N   LIG d   1       6.763  -2.043  -3.729  0.00  0.00    -0.191 N 
ATOM     25  H   LIG d   1       6.567  -3.041  -3.583  0.00  0.00     0.455 HD
ENDROOT
BRANCH   1  26
ATOM     26  C   LIG d   1       8.609  -3.804  -4.140  0.00  0.00     0.006 C 
ATOM     27  H   LIG d   1       9.502  -3.738  -3.518  0.00  0.00     0.043 H 
ATOM     28  H   LIG d   1       7.723  -3.805  -3.505  0.00  0.00     0.043 H 
ATOM     29  H   LIG d   1       8.639  -4.725  -4.723  0.00  0.00     0.043 H 
ENDBRANCH   1  26
BRANCH  13  30
ATOM     30  N   LIG d   1       7.609   2.055  -4.369  0.00  0.00    -0.357 N 
ATOM     31  H   LIG d   1       8.126   2.325  -5.145  0.00  0.00     0.142 HD
ATOM     32  H   LIG d   1       7.289   2.723  -3.744  0.00  0.00     0.142 HD
ENDBRANCH  13  30
TORSDOF 2
ENDMDL
MODEL 7
REMARK VINA RESULT:      -5.7      0.857      4.576
REMARK  2 active torsions:
REMARK  status: ('A' for Active; 'I' for Inactive)
REMARK    1  A    between atoms: C_1  and  N_2 
REMARK    2  A    between atoms: C_14  and  N_15 
ROOT
ATOM      1  N   LIG d   1       4.744  -2.406  -4.006  0.00  0.00    -0.281 NA
ATOM      2  C   LIG d   1       4.130  -2.333  -2.678  0.00  0.00     0.017 C 
ATOM      3  C   LIG d   1       4.220  -0.888  -2.173  0.00  0.00    -0.033 C 
ATOM      4  C   LIG d   1       3.297  -0.029  -3.042  0.00  0.00    -0.017 C 
ATOM      5  C   LIG d   1       3.529  -0.350  -4.497  0.00  0.00     0.062 A 
ATOM      6  C   LIG d   1       4.212  -1.493  -4.905  0.00  0.00     0.277 A 
ATOM      7  C   LIG d   1       3.931  -0.945  -7.157  0.00  0.00     0.216 A 
ATOM      8  C   LIG d   1       4.134  -1.245  -8.514  0.00  0.00     0.010 A 
ATOM      9  C   LIG d   1       3.661  -0.400  -9.472  0.00  0.00    -0.056 A 
ATOM     10  C   LIG d   1       2.975   0.762  -9.129  0.00  0.00    -0.061 A 
ATOM     11  C   LIG d   1       2.760   1.084  -7.822  0.00  0.00    -0.046 A 
ATOM     12  C   LIG d   1       3.234   0.237  -6.812  0.00  0.00     0.067 A 
ATOM     13  C   LIG d   1       3.032   0.532  -5.442  0.00  0.00     0.049 A 
ATOM     14  H   LIG d   1       3.085  -2.634  -2.742  0.00  0.00     0.046 H 
ATOM     15  H   LIG d   1       4.660  -2.995  -1.994  0.00  0.00     0.046 H 
ATOM     16  H   LIG d   1       3.897  -0.840  -1.133  0.00  0.00     0.028 H 
ATOM     17  H   LIG d   1       5.246  -0.530  -2.258  0.00  0.00     0.028 H 
ATOM     18  H   LIG d   1       3.508   1.026  -2.864  0.00  0.00     0.032 H 
ATOM     19  H   LIG d   1       2.258  -0.239  -2.784  0.00  0.00     0.032 H 
ATOM     20  H   LIG d   1       4.662  -2.143  -8.797  0.00  0.00     0.068 H 
ATOM     21  H   LIG d   1       3.819  -0.636 -10.514  0.00  0.00     0.062 H 
ATOM     22  H   LIG d   1       2.610   1.415  -9.907  0.00  0.00     0.062 H 
ATOM     23  H   LIG d   1       2.228   1.988  -7.566  0.00  0.00     0.063 H 
ATOM     24  N   LIG d   1       4.432  -1.821  -6.218  0.00  0.00    -0.191 N 
ATOM     25  H   LIG d   1       4.941  -2.672  -6.487  0.00  0.00     0.455 HD
ENDROOT
BRANCH   1  26
ATOM     26  C   LIG d   1       4.678  -3.772  -4.541  0.00  0.00     0.006 C 
ATOM     27  H   LIG d   1       3.941  -4.347  -3.980  0.00  0.00     0.043 H 
ATOM     28  H   LIG d   1       4.389  -3.736  -5.592  0.00  0.00     0.043 H 
ATOM     29  H   LIG d   1       5.656  -4.246  -4.450  0.00  0.00     0.043 H 
ENDBRANCH   1  26
BRANCH  13  30
ATOM     30  N   LIG d   1       2.351   1.678  -5.057  0.00  0.00    -0.357 N 
ATOM     31  H   LIG d   1       2.844   2.452  -4.743  0.00  0.00     0.142 HD
ATOM     32  H   LIG d   1       1.383   1.705  -5.101  0.00  0.00     0.142 HD
ENDBRANCH  13  30
TORSDOF 2
ENDMDL
MODEL 8
REMARK VINA RESULT:      -5.6      4.084      5.352
REMARK  2 active torsions:
REMARK  status: ('A' for Active; 'I' for Inactive)
REMARK    1  A    between atoms: C_1  and  N_2 
REMARK    2  A    between atoms: C_14  and  N_15 
ROOT
ATOM      1  N   LIG d   1       9.193   1.259  -4.964  0.00  0.00    -0.281 NA
ATOM      2  C   LIG d   1       9.896   0.640  -6.089  0.00  0.00     0.017 C 
ATOM      3  C   LIG d   1      10.407  -0.738  -5.653  0.00  0.00    -0.033 C 
ATOM      4  C   LIG d   1       9.191  -1.646  -5.449  0.00  0.00    -0.017 C 
ATOM      5  C   LIG d   1       8.149  -0.920  -4.636  0.00  0.00     0.062 A 
ATOM      6  C   LIG d   1       8.187   0.459  -4.442  0.00  0.00     0.277 A 
ATOM      7  C   LIG d   1       6.231   0.406  -3.169  0.00  0.00     0.216 A 
ATOM      8  C   LIG d   1       5.250   1.079  -2.421  0.00  0.00     0.010 A 
ATOM      9  C   LIG d   1       4.229   0.375  -1.856  0.00  0.00    -0.056 A 
ATOM     10  C   LIG d   1       4.139  -1.005  -2.008  0.00  0.00    -0.061 A 
ATOM     11  C   LIG d   1       5.072  -1.690  -2.728  0.00  0.00    -0.046 A 
ATOM     12  C   LIG d   1       6.135  -0.997  -3.321  0.00  0.00     0.067 A 
ATOM     13  C   LIG d   1       7.125  -1.668  -4.078  0.00  0.00     0.049 A 
ATOM     14  H   LIG d   1       9.213   0.528  -6.930  0.00  0.00     0.046 H 
ATOM     15  H   LIG d   1      10.738   1.268  -6.383  0.00  0.00     0.046 H 
ATOM     16  H   LIG d   1      11.053  -1.154  -6.427  0.00  0.00     0.028 H 
ATOM     17  H   LIG d   1      10.962  -0.648  -4.718  0.00  0.00     0.028 H 
ATOM     18  H   LIG d   1       9.497  -2.551  -4.924  0.00  0.00     0.032 H 
ATOM     19  H   LIG d   1       8.772  -1.914  -6.420  0.00  0.00     0.032 H 
ATOM     20  H   LIG d   1       5.305   2.150  -2.295  0.00  0.00     0.068 H 
ATOM     21  H   LIG d   1       3.478   0.897  -1.282  0.00  0.00     0.062 H 
ATOM     22  H   LIG d   1       3.320  -1.540  -1.550  0.00  0.00     0.062 H 
ATOM     23  H   LIG d   1       4.993  -2.761  -2.839  0.00  0.00     0.063 H 
ATOM     24  N   LIG d   1       7.251   1.152  -3.718  0.00  0.00    -0.191 N 
ATOM     25  H   LIG d   1       7.308   2.170  -3.592  0.00  0.00     0.455 HD
ENDROOT
BRANCH   1  26
ATOM     26  C   LIG d   1       8.675   2.583  -5.331  0.00  0.00     0.006 C 
ATOM     27  H   LIG d   1       7.712   2.472  -5.828  0.00  0.00     0.043 H 
ATOM     28  H   LIG d   1       8.552   3.187  -4.431  0.00  0.00     0.043 H 
ATOM     29  H   LIG d   1       9.377   3.075  -6.004  0.00  0.00     0.043 H 
ENDBRANCH   1  26
BRANCH  13  30
ATOM     30  N   LIG d   1       7.071  -3.043  -4.257  0.00  0.00    -0.357 N 
ATOM     31  H   LIG d   1       7.713  -3.482  -4.836  0.00  0.00     0.142 HD
ATOM     32  H   LIG d   1       6.391  -3.565  -3.803  0.00  0.00     0.142 HD
ENDBRANCH  13  30
TORSDOF 2
ENDMDL
MODEL 9
REMARK VINA RESULT:      -5.6      2.921      4.004
REMARK  2 active torsions:
REMARK  status: ('A' for Active; 'I' for Inactive)
REMARK    1  A    between atoms: C_1  and  N_2 
REMARK    2  A    between atoms: C_14  and  N_15 
ROOT
ATOM      1  N   LIG d   1       6.701   0.602  -7.176  0.00  0.00    -0.281 NA
ATOM      2  C   LIG d   1       7.945   0.077  -7.742  0.00  0.00     0.017 C 
ATOM      3  C   LIG d   1       9.035   0.122  -6.664  0.00  0.00    -0.033 C 
ATOM      4  C   LIG d   1       8.672  -0.904  -5.587  0.00  0.00    -0.017 C 
ATOM      5  C   LIG d   1       7.218  -0.755  -5.216  0.00  0.00     0.062 A 
ATOM      6  C   LIG d   1       6.320  -0.039  -6.006  0.00  0.00     0.277 A 
ATOM      7  C   LIG d   1       4.557  -0.503  -4.547  0.00  0.00     0.216 A 
ATOM      8  C   LIG d   1       3.200  -0.378  -4.204  0.00  0.00     0.010 A 
ATOM      9  C   LIG d   1       2.735  -0.961  -3.064  0.00  0.00    -0.056 A 
ATOM     10  C   LIG d   1       3.583  -1.684  -2.230  0.00  0.00    -0.061 A 
ATOM     11  C   LIG d   1       4.904  -1.827  -2.533  0.00  0.00    -0.046 A 
ATOM     12  C   LIG d   1       5.415  -1.239  -3.697  0.00  0.00     0.067 A 
ATOM     13  C   LIG d   1       6.780  -1.363  -4.051  0.00  0.00     0.049 A 
ATOM     14  H   LIG d   1       7.793  -0.951  -8.066  0.00  0.00     0.046 H 
ATOM     15  H   LIG d   1       8.244   0.689  -8.593  0.00  0.00     0.046 H 
ATOM     16  H   LIG d   1      10.000  -0.130  -7.104  0.00  0.00     0.028 H 
ATOM     17  H   LIG d   1       9.079   1.119  -6.225  0.00  0.00     0.028 H 
ATOM     18  H   LIG d   1       9.291  -0.739  -4.705  0.00  0.00     0.032 H 
ATOM     19  H   LIG d   1       8.847  -1.909  -5.971  0.00  0.00     0.032 H 
ATOM     20  H   LIG d   1       2.529   0.178  -4.841  0.00  0.00     0.068 H 
ATOM     21  H   LIG d   1       1.691  -0.862  -2.804  0.00  0.00     0.062 H 
ATOM     22  H   LIG d   1       3.189  -2.137  -1.332  0.00  0.00     0.062 H 
ATOM     23  H   LIG d   1       5.554  -2.389  -1.879  0.00  0.00     0.063 H 
ATOM     24  N   LIG d   1       4.990   0.108  -5.704  0.00  0.00    -0.191 N 
ATOM     25  H   LIG d   1       4.354   0.643  -6.307  0.00  0.00     0.455 HD
ENDROOT
BRANCH   1  26
ATOM     26  C   LIG d   1       5.618   0.575  -8.167  0.00  0.00     0.006 C 
ATOM     27  H   LIG d   1       4.688   0.278  -7.682  0.00  0.00     0.043 H 
ATOM     28  H   LIG d   1       5.500   1.568  -8.603  0.00  0.00     0.043 H 
ATOM     29  H   LIG d   1       5.863  -0.139  -8.953  0.00  0.00     0.043 H 
ENDBRANCH   1  26
BRANCH  13  30
ATOM     30  N   LIG d   1       7.659  -2.077  -3.249  0.00  0.00    -0.357 N 
ATOM     31  H   LIG d   1       8.386  -1.620  -2.800  0.00  0.00     0.142 HD
ATOM     32  H   LIG d   1       7.546  -3.034  -3.139  0.00  0.00     0.142 HD
ENDBRANCH  13  30
TORSDOF 2
ENDMDL
MODEL 10
REMARK VINA RESULT:      -5.3     10.055     11.831
REMARK  2 active torsions:
REMARK  status: ('A' for Active; 'I' for Inactive)
REMARK    1  A    between atoms: C_1  and  N_2 
REMARK    2  A    between atoms: C_14  and  N_15 
ROOT
ATOM      1  N   LIG d   1      11.446   6.717   1.024  0.00  0.00    -0.281 NA
ATOM      2  C   LIG d   1      11.171   7.951   1.761  0.00  0.00     0.017 C 
ATOM      3  C   LIG d   1      11.654   9.143   0.925  0.00  0.00    -0.033 C 
ATOM      4  C   LIG d   1      10.748   9.251  -0.305  0.00  0.00    -0.017 C 
ATOM      5  C   LIG d   1      10.581   7.889  -0.931  0.00  0.00     0.062 A 
ATOM      6  C   LIG d   1      10.917   6.716  -0.258  0.00  0.00     0.277 A 
ATOM      7  C   LIG d   1      10.254   5.402  -2.071  0.00  0.00     0.216 A 
ATOM      8  C   LIG d   1      10.084   4.136  -2.655  0.00  0.00     0.010 A 
ATOM      9  C   LIG d   1       9.585   4.035  -3.918  0.00  0.00    -0.056 A 
ATOM     10  C   LIG d   1       9.237   5.170  -4.645  0.00  0.00    -0.061 A 
ATOM     11  C   LIG d   1       9.387   6.414  -4.109  0.00  0.00    -0.046 A 
ATOM     12  C   LIG d   1       9.898   6.553  -2.812  0.00  0.00     0.067 A 
ATOM     13  C   LIG d   1      10.069   7.826  -2.217  0.00  0.00     0.049 A 
ATOM     14  H   LIG d   1      10.100   8.040   1.939  0.00  0.00     0.046 H 
ATOM     15  H   LIG d   1      11.699   7.933   2.714  0.00  0.00     0.046 H 
ATOM     16  H   LIG d   1      11.589  10.058   1.514  0.00  0.00     0.028 H 
ATOM     17  H   LIG d   1      12.686   8.979   0.611  0.00  0.00     0.028 H 
ATOM     18  H   LIG d   1      11.197   9.931  -1.028  0.00  0.00     0.032 H 
ATOM     19  H   LIG d   1       9.773   9.634  -0.003  0.00  0.00     0.032 H 
ATOM     20  H   LIG d   1      10.348   3.245  -2.103  0.00  0.00     0.068 H 
ATOM     21  H   LIG d   1       9.457   3.059  -4.362  0.00  0.00     0.062 H 
ATOM     22  H   LIG d   1       8.842   5.063  -5.644  0.00  0.00     0.062 H 
ATOM     23  H   LIG d   1       9.114   7.288  -4.681  0.00  0.00     0.063 H 
ATOM     24  N   LIG d   1      10.769   5.463  -0.794  0.00  0.00    -0.191 N 
ATOM     25  H   LIG d   1      11.027   4.616  -0.272  0.00  0.00     0.455 HD
ENDROOT
BRANCH   1  26
ATOM     26  C   LIG d   1      10.994   5.541   1.780  0.00  0.00     0.006 C 
ATOM     27  H   LIG d   1      11.584   5.446   2.692  0.00  0.00     0.043 H 
ATOM     28  H   LIG d   1       9.941   5.659   2.038  0.00  0.00     0.043 H 
ATOM     29  H   LIG d   1      11.120   4.646   1.170  0.00  0.00     0.043 H 
ENDBRANCH   1  26
BRANCH  13  30
ATOM     30  N   LIG d   1       9.732   8.982  -2.905  0.00  0.00    -0.357 N 
ATOM     31  H   LIG d   1      10.318   9.322  -3.600  0.00  0.00     0.142 HD
ATOM     32  H   LIG d   1       8.910   9.451  -2.692  0.00  0.00     0.142 HD
ENDBRANCH  13  30
TORSDOF 2
ENDMDL
