MODEL 1
REMARK VINA RESULT:      -7.7      0.000      0.000
REMARK  2 active torsions:
REMARK  status: ('A' for Active; 'I' for Inactive)
REMARK    1  A    between atoms: C_12  and  C_16 
REMARK    2  A    between atoms: C_12  and  O_20 
ROOT
ATOM      1  C   LIG d   1       4.597  -0.477  -1.413  0.00  0.00    -0.047 C 
ATOM      2  C   LIG d   1       3.768   0.491  -2.262  0.00  0.00    -0.040 C 
ATOM      3  C   LIG d   1       4.665   1.134  -3.321  0.00  0.00    -0.046 C 
ATOM      4  C   LIG d   1       5.246   0.044  -4.229  0.00  0.00    -0.021 C 
ATOM      5  C   LIG d   1       6.074  -0.925  -3.378  0.00  0.00    -0.046 C 
ATOM      6  C   LIG d   1       5.178  -1.567  -2.317  0.00  0.00    -0.040 C 
ATOM      7  C   LIG d   1       4.038  -2.330  -2.991  0.00  0.00    -0.046 C 
ATOM      8  C   LIG d   1       3.208  -1.363  -3.843  0.00  0.00    -0.021 C 
ATOM      9  C   LIG d   1       2.627  -0.272  -2.936  0.00  0.00    -0.046 C 
ATOM     10  C   LIG d   1       4.105  -0.717  -4.884  0.00  0.00     0.083 C 
ATOM     11  C   LIG d   1       3.297   0.195  -5.832  0.00  0.00     0.031 C 
ATOM     12  C   LIG d   1       3.924  -0.067  -7.221  0.00  0.00     0.280 C 
ATOM     13  O   LIG d   1       4.144  -1.483  -7.384  0.00  0.00    -0.245 OA
ATOM     14  S   LIG d   1       4.750  -1.971  -6.048  0.00  0.00     0.166 S 
ATOM     15  O   LIG d   1       6.148  -1.786  -6.217  0.00  0.00    -0.227 OA
ATOM     16  H   LIG d   1       5.409   0.067  -0.930  0.00  0.00     0.027 H 
ATOM     17  H   LIG d   1       3.961  -0.933  -0.656  0.00  0.00     0.027 H 
ATOM     18  H   LIG d   1       3.355   1.271  -1.622  0.00  0.00     0.030 H 
ATOM     19  H   LIG d   1       4.078   1.831  -3.920  0.00  0.00     0.027 H 
ATOM     20  H   LIG d   1       5.478   1.672  -2.833  0.00  0.00     0.027 H 
ATOM     21  H   LIG d   1       5.872   0.500  -4.996  0.00  0.00     0.032 H 
ATOM     22  H   LIG d   1       6.495  -1.701  -4.016  0.00  0.00     0.027 H 
ATOM     23  H   LIG d   1       6.882  -0.379  -2.889  0.00  0.00     0.027 H 
ATOM     24  H   LIG d   1       5.768  -2.259  -1.716  0.00  0.00     0.030 H 
ATOM     25  H   LIG d   1       4.451  -3.112  -3.630  0.00  0.00     0.027 H 
ATOM     26  H   LIG d   1       3.403  -2.781  -2.230  0.00  0.00     0.027 H 
ATOM     27  H   LIG d   1       2.397  -1.905  -4.329  0.00  0.00     0.032 H 
ATOM     28  H   LIG d   1       1.997  -0.730  -2.173  0.00  0.00     0.027 H 
ATOM     29  H   LIG d   1       2.032   0.419  -3.532  0.00  0.00     0.027 H 
ATOM     30  H   LIG d   1       2.244  -0.087  -5.829  0.00  0.00     0.034 H 
ATOM     31  H   LIG d   1       3.415   1.241  -5.550  0.00  0.00     0.034 H 
ENDROOT
BRANCH  12  32
ATOM     32  C   LIG d   1       2.976   0.432  -8.313  0.00  0.00     0.445 C 
ATOM     33  F   LIG d   1       1.837  -0.379  -8.348  0.00  0.00    -0.165 F 
ATOM     34  F   LIG d   1       2.600   1.751  -8.037  0.00  0.00    -0.165 F 
ATOM     35  F   LIG d   1       3.623   0.380  -9.552  0.00  0.00    -0.165 F 
ENDBRANCH  12  32
BRANCH  12  36
ATOM     36  O   LIG d   1       5.172   0.624  -7.320  0.00  0.00    -0.357 OA
ATOM     37  H   LIG d   1       5.641   0.711  -6.479  0.00  0.00     0.213 HD
ENDBRANCH  12  36
TORSDOF 2
ENDMDL
MODEL 2
REMARK VINA RESULT:      -7.0      3.196      4.042
REMARK  2 active torsions:
REMARK  status: ('A' for Active; 'I' for Inactive)
REMARK    1  A    between atoms: C_12  and  C_16 
REMARK    2  A    between atoms: C_12  and  O_20 
ROOT
ATOM      1  C   LIG d   1       3.251   1.223  -2.692  0.00  0.00    -0.047 C 
ATOM      2  C   LIG d   1       2.737   0.075  -3.565  0.00  0.00    -0.040 C 
ATOM      3  C   LIG d   1       3.571  -0.004  -4.844  0.00  0.00    -0.046 C 
ATOM      4  C   LIG d   1       5.038  -0.266  -4.483  0.00  0.00    -0.021 C 
ATOM      5  C   LIG d   1       5.549   0.884  -3.609  0.00  0.00    -0.046 C 
ATOM      6  C   LIG d   1       4.715   0.964  -2.330  0.00  0.00    -0.040 C 
ATOM      7  C   LIG d   1       4.821  -0.350  -1.555  0.00  0.00    -0.046 C 
ATOM      8  C   LIG d   1       4.310  -1.501  -2.428  0.00  0.00    -0.021 C 
ATOM      9  C   LIG d   1       2.843  -1.239  -2.790  0.00  0.00    -0.046 C 
ATOM     10  C   LIG d   1       5.132  -1.567  -3.703  0.00  0.00     0.083 C 
ATOM     11  C   LIG d   1       4.720  -2.772  -4.575  0.00  0.00     0.031 C 
ATOM     12  C   LIG d   1       6.062  -3.308  -5.124  0.00  0.00     0.280 C 
ATOM     13  O   LIG d   1       7.039  -3.319  -4.064  0.00  0.00    -0.245 OA
ATOM     14  S   LIG d   1       6.875  -1.970  -3.327  0.00  0.00     0.166 S 
ATOM     15  O   LIG d   1       7.730  -1.084  -4.036  0.00  0.00    -0.227 OA
ATOM     16  H   LIG d   1       3.172   2.161  -3.243  0.00  0.00     0.027 H 
ATOM     17  H   LIG d   1       2.655   1.282  -1.782  0.00  0.00     0.027 H 
ATOM     18  H   LIG d   1       1.695   0.258  -3.828  0.00  0.00     0.030 H 
ATOM     19  H   LIG d   1       3.200  -0.815  -5.471  0.00  0.00     0.027 H 
ATOM     20  H   LIG d   1       3.494   0.938  -5.388  0.00  0.00     0.027 H 
ATOM     21  H   LIG d   1       5.633  -0.340  -5.394  0.00  0.00     0.032 H 
ATOM     22  H   LIG d   1       6.594   0.708  -3.351  0.00  0.00     0.027 H 
ATOM     23  H   LIG d   1       5.465   1.823  -4.157  0.00  0.00     0.027 H 
ATOM     24  H   LIG d   1       5.083   1.779  -1.707  0.00  0.00     0.030 H 
ATOM     25  H   LIG d   1       5.864  -0.532  -1.290  0.00  0.00     0.027 H 
ATOM     26  H   LIG d   1       4.222  -0.287  -0.648  0.00  0.00     0.027 H 
ATOM     27  H   LIG d   1       4.389  -2.441  -1.881  0.00  0.00     0.032 H 
ATOM     28  H   LIG d   1       2.249  -1.172  -1.879  0.00  0.00     0.027 H 
ATOM     29  H   LIG d   1       2.469  -2.056  -3.408  0.00  0.00     0.027 H 
ATOM     30  H   LIG d   1       4.225  -3.531  -3.968  0.00  0.00     0.034 H 
ATOM     31  H   LIG d   1       4.073  -2.451  -5.391  0.00  0.00     0.034 H 
ENDROOT
BRANCH  12  32
ATOM     32  C   LIG d   1       5.868  -4.730  -5.655  0.00  0.00     0.445 C 
ATOM     33  F   LIG d   1       4.715  -5.285  -5.088  0.00  0.00    -0.165 F 
ATOM     34  F   LIG d   1       5.732  -4.694  -7.046  0.00  0.00    -0.165 F 
ATOM     35  F   LIG d   1       6.977  -5.511  -5.314  0.00  0.00    -0.165 F 
ENDBRANCH  12  32
BRANCH  12  36
ATOM     36  O   LIG d   1       6.516  -2.462  -6.183  0.00  0.00    -0.357 OA
ATOM     37  H   LIG d   1       7.385  -2.702  -6.534  0.00  0.00     0.213 HD
ENDBRANCH  12  36
TORSDOF 2
ENDMDL
MODEL 3
REMARK VINA RESULT:      -6.7      2.595      5.512
REMARK  2 active torsions:
REMARK  status: ('A' for Active; 'I' for Inactive)
REMARK    1  A    between atoms: C_12  and  C_16 
REMARK    2  A    between atoms: C_12  and  O_20 
ROOT
ATOM      1  C   LIG d   1       3.251   0.077 -11.037  0.00  0.00    -0.047 C 
ATOM      2  C   LIG d   1       2.229   0.231  -9.907  0.00  0.00    -0.040 C 
ATOM      3  C   LIG d   1       2.263  -1.013  -9.017  0.00  0.00    -0.046 C 
ATOM      4  C   LIG d   1       3.662  -1.168  -8.410  0.00  0.00    -0.021 C 
ATOM      5  C   LIG d   1       4.683  -1.321  -9.542  0.00  0.00    -0.046 C 
ATOM      6  C   LIG d   1       4.648  -0.078 -10.433  0.00  0.00    -0.040 C 
ATOM      7  C   LIG d   1       4.986   1.164  -9.608  0.00  0.00    -0.046 C 
ATOM      8  C   LIG d   1       3.966   1.319  -8.475  0.00  0.00    -0.021 C 
ATOM      9  C   LIG d   1       2.566   1.473  -9.082  0.00  0.00    -0.046 C 
ATOM     10  C   LIG d   1       3.994   0.076  -7.602  0.00  0.00     0.083 C 
ATOM     11  C   LIG d   1       3.052   0.222  -6.389  0.00  0.00     0.031 C 
ATOM     12  C   LIG d   1       3.842  -0.426  -5.227  0.00  0.00     0.280 C 
ATOM     13  O   LIG d   1       5.217   0.000  -5.293  0.00  0.00    -0.245 OA
ATOM     14  S   LIG d   1       5.618  -0.100  -6.783  0.00  0.00     0.166 S 
ATOM     15  O   LIG d   1       6.079  -1.437  -6.925  0.00  0.00    -0.227 OA
ATOM     16  H   LIG d   1       3.008  -0.807 -11.628  0.00  0.00     0.027 H 
ATOM     17  H   LIG d   1       3.225   0.960 -11.673  0.00  0.00     0.027 H 
ATOM     18  H   LIG d   1       1.231   0.338 -10.333  0.00  0.00     0.030 H 
ATOM     19  H   LIG d   1       1.529  -0.908  -8.218  0.00  0.00     0.027 H 
ATOM     20  H   LIG d   1       2.026  -1.894  -9.614  0.00  0.00     0.027 H 
ATOM     21  H   LIG d   1       3.685  -2.044  -7.761  0.00  0.00     0.032 H 
ATOM     22  H   LIG d   1       5.681  -1.437  -9.120  0.00  0.00     0.027 H 
ATOM     23  H   LIG d   1       4.438  -2.202 -10.137  0.00  0.00     0.027 H 
ATOM     24  H   LIG d   1       5.379  -0.187 -11.235  0.00  0.00     0.030 H 
ATOM     25  H   LIG d   1       5.986   1.057  -9.183  0.00  0.00     0.027 H 
ATOM     26  H   LIG d   1       4.956   2.045 -10.248  0.00  0.00     0.027 H 
ATOM     27  H   LIG d   1       4.207   2.201  -7.881  0.00  0.00     0.032 H 
ATOM     28  H   LIG d   1       2.544   2.353  -9.725  0.00  0.00     0.027 H 
ATOM     29  H   LIG d   1       1.834   1.589  -8.284  0.00  0.00     0.027 H 
ATOM     30  H   LIG d   1       2.858   1.274  -6.179  0.00  0.00     0.034 H 
ATOM     31  H   LIG d   1       2.119  -0.313  -6.561  0.00  0.00     0.034 H 
ENDROOT
BRANCH  12  32
ATOM     32  C   LIG d   1       3.235   0.009  -3.891  0.00  0.00     0.445 C 
ATOM     33  F   LIG d   1       3.068   1.398  -3.885  0.00  0.00    -0.165 F 
ATOM     34  F   LIG d   1       1.993  -0.611  -3.720  0.00  0.00    -0.165 F 
ATOM     35  F   LIG d   1       4.090  -0.363  -2.849  0.00  0.00    -0.165 F 
ENDBRANCH  12  32
BRANCH  12  36
ATOM     36  O   LIG d   1       3.777  -1.849  -5.341  0.00  0.00    -0.357 OA
ATOM     37  H   LIG d   1       4.289  -2.209  -6.078  0.00  0.00     0.213 HD
ENDBRANCH  12  36
TORSDOF 2
ENDMDL
MODEL 4
REMARK VINA RESULT:      -6.7      3.732      4.929
REMARK  2 active torsions:
REMARK  status: ('A' for Active; 'I' for Inactive)
REMARK    1  A    between atoms: C_12  and  C_16 
REMARK    2  A    between atoms: C_12  and  O_20 
ROOT
ATOM      1  C   LIG d   1       2.619  -0.528  -2.846  0.00  0.00    -0.047 C 
ATOM      2  C   LIG d   1       3.495  -1.758  -2.593  0.00  0.00    -0.040 C 
ATOM      3  C   LIG d   1       3.923  -2.361  -3.932  0.00  0.00    -0.046 C 
ATOM      4  C   LIG d   1       4.729  -1.326  -4.725  0.00  0.00    -0.021 C 
ATOM      5  C   LIG d   1       3.850  -0.096  -4.976  0.00  0.00    -0.046 C 
ATOM      6  C   LIG d   1       3.421   0.507  -3.638  0.00  0.00    -0.040 C 
ATOM      7  C   LIG d   1       4.654   0.919  -2.833  0.00  0.00    -0.046 C 
ATOM      8  C   LIG d   1       5.534  -0.310  -2.580  0.00  0.00    -0.021 C 
ATOM      9  C   LIG d   1       4.728  -1.346  -1.787  0.00  0.00    -0.046 C 
ATOM     10  C   LIG d   1       5.945  -0.914  -3.912  0.00  0.00     0.083 C 
ATOM     11  C   LIG d   1       6.913  -2.100  -3.714  0.00  0.00     0.031 C 
ATOM     12  C   LIG d   1       7.943  -1.930  -4.855  0.00  0.00     0.280 C 
ATOM     13  O   LIG d   1       8.311  -0.540  -4.960  0.00  0.00    -0.245 OA
ATOM     14  S   LIG d   1       6.988   0.254  -4.855  0.00  0.00     0.166 S 
ATOM     15  O   LIG d   1       6.523   0.328  -6.196  0.00  0.00    -0.227 OA
ATOM     16  H   LIG d   1       1.738  -0.821  -3.418  0.00  0.00     0.027 H 
ATOM     17  H   LIG d   1       2.310  -0.099  -1.894  0.00  0.00     0.027 H 
ATOM     18  H   LIG d   1       2.926  -2.499  -2.032  0.00  0.00     0.030 H 
ATOM     19  H   LIG d   1       4.539  -3.243  -3.753  0.00  0.00     0.027 H 
ATOM     20  H   LIG d   1       3.039  -2.648  -4.502  0.00  0.00     0.027 H 
ATOM     21  H   LIG d   1       5.051  -1.759  -5.672  0.00  0.00     0.032 H 
ATOM     22  H   LIG d   1       4.414   0.644  -5.544  0.00  0.00     0.027 H 
ATOM     23  H   LIG d   1       2.966  -0.390  -5.543  0.00  0.00     0.027 H 
ATOM     24  H   LIG d   1       2.801   1.385  -3.819  0.00  0.00     0.030 H 
ATOM     25  H   LIG d   1       5.223   1.662  -3.393  0.00  0.00     0.027 H 
ATOM     26  H   LIG d   1       4.340   1.344  -1.880  0.00  0.00     0.027 H 
ATOM     27  H   LIG d   1       6.416  -0.019  -2.010  0.00  0.00     0.032 H 
ATOM     28  H   LIG d   1       4.413  -0.913  -0.838  0.00  0.00     0.027 H 
ATOM     29  H   LIG d   1       5.347  -2.223  -1.599  0.00  0.00     0.027 H 
ATOM     30  H   LIG d   1       7.404  -2.035  -2.743  0.00  0.00     0.034 H 
ATOM     31  H   LIG d   1       6.384  -3.047  -3.815  0.00  0.00     0.034 H 
ENDROOT
BRANCH  12  32
ATOM     32  C   LIG d   1       9.188  -2.766  -4.549  0.00  0.00     0.445 C 
ATOM     33  F   LIG d   1      10.324  -1.952  -4.620  0.00  0.00    -0.165 F 
ATOM     34  F   LIG d   1       9.082  -3.306  -3.263  0.00  0.00    -0.165 F 
ATOM     35  F   LIG d   1       9.297  -3.800  -5.483  0.00  0.00    -0.165 F 
ENDBRANCH  12  32
BRANCH  12  36
ATOM     36  O   LIG d   1       7.367  -2.366  -6.088  0.00  0.00    -0.357 OA
ATOM     37  H   LIG d   1       7.516  -3.302  -6.283  0.00  0.00     0.213 HD
ENDBRANCH  12  36
TORSDOF 2
ENDMDL
MODEL 5
REMARK VINA RESULT:      -6.5      3.880      5.089
REMARK  2 active torsions:
REMARK  status: ('A' for Active; 'I' for Inactive)
REMARK    1  A    between atoms: C_12  and  C_16 
REMARK    2  A    between atoms: C_12  and  O_20 
ROOT
ATOM      1  C   LIG d   1       6.934  -4.740  -6.823  0.00  0.00    -0.047 C 
ATOM      2  C   LIG d   1       6.565  -4.744  -5.337  0.00  0.00    -0.040 C 
ATOM      3  C   LIG d   1       7.355  -3.652  -4.614  0.00  0.00    -0.046 C 
ATOM      4  C   LIG d   1       7.005  -2.285  -5.215  0.00  0.00    -0.021 C 
ATOM      5  C   LIG d   1       7.375  -2.285  -6.702  0.00  0.00    -0.046 C 
ATOM      6  C   LIG d   1       6.586  -3.377  -7.425  0.00  0.00    -0.040 C 
ATOM      7  C   LIG d   1       5.085  -3.124  -7.274  0.00  0.00    -0.046 C 
ATOM      8  C   LIG d   1       4.714  -3.125  -5.787  0.00  0.00    -0.021 C 
ATOM      9  C   LIG d   1       5.065  -4.491  -5.185  0.00  0.00    -0.046 C 
ATOM     10  C   LIG d   1       5.511  -2.047  -5.071  0.00  0.00     0.083 C 
ATOM     11  C   LIG d   1       5.102  -1.942  -3.587  0.00  0.00     0.031 C 
ATOM     12  C   LIG d   1       5.107  -0.420  -3.309  0.00  0.00     0.280 C 
ATOM     13  O   LIG d   1       4.485   0.266  -4.414  0.00  0.00    -0.245 OA
ATOM     14  S   LIG d   1       5.058  -0.389  -5.692  0.00  0.00     0.166 S 
ATOM     15  O   LIG d   1       6.238   0.355  -5.960  0.00  0.00    -0.227 OA
ATOM     16  H   LIG d   1       8.004  -4.925  -6.932  0.00  0.00     0.027 H 
ATOM     17  H   LIG d   1       6.375  -5.520  -7.338  0.00  0.00     0.027 H 
ATOM     18  H   LIG d   1       6.815  -5.712  -4.904  0.00  0.00     0.030 H 
ATOM     19  H   LIG d   1       7.100  -3.660  -3.554  0.00  0.00     0.027 H 
ATOM     20  H   LIG d   1       8.423  -3.837  -4.731  0.00  0.00     0.027 H 
ATOM     21  H   LIG d   1       7.553  -1.502  -4.690  0.00  0.00     0.032 H 
ATOM     22  H   LIG d   1       7.133  -1.315  -7.137  0.00  0.00     0.027 H 
ATOM     23  H   LIG d   1       8.443  -2.475  -6.811  0.00  0.00     0.027 H 
ATOM     24  H   LIG d   1       6.846  -3.372  -8.483  0.00  0.00     0.030 H 
ATOM     25  H   LIG d   1       4.835  -2.155  -7.709  0.00  0.00     0.027 H 
ATOM     26  H   LIG d   1       4.531  -3.907  -7.788  0.00  0.00     0.027 H 
ATOM     27  H   LIG d   1       3.646  -2.939  -5.675  0.00  0.00     0.032 H 
ATOM     28  H   LIG d   1       4.510  -5.271  -5.708  0.00  0.00     0.027 H 
ATOM     29  H   LIG d   1       4.800  -4.502  -4.129  0.00  0.00     0.027 H 
ATOM     30  H   LIG d   1       4.105  -2.355  -3.434  0.00  0.00     0.034 H 
ATOM     31  H   LIG d   1       5.829  -2.448  -2.952  0.00  0.00     0.034 H 
ENDROOT
BRANCH  12  32
ATOM     32  C   LIG d   1       4.327  -0.132  -2.024  0.00  0.00     0.445 C 
ATOM     33  F   LIG d   1       4.376  -1.252  -1.188  0.00  0.00    -0.165 F 
ATOM     34  F   LIG d   1       4.898   0.965  -1.369  0.00  0.00    -0.165 F 
ATOM     35  F   LIG d   1       2.996   0.155  -2.341  0.00  0.00    -0.165 F 
ENDBRANCH  12  32
BRANCH  12  36
ATOM     36  O   LIG d   1       6.454   0.034  -3.162  0.00  0.00    -0.357 OA
ATOM     37  H   LIG d   1       6.530   0.940  -2.832  0.00  0.00     0.213 HD
ENDBRANCH  12  36
TORSDOF 2
ENDMDL
MODEL 6
REMARK VINA RESULT:      -6.3      3.785      5.028
REMARK  2 active torsions:
REMARK  status: ('A' for Active; 'I' for Inactive)
REMARK    1  A    between atoms: C_12  and  C_16 
REMARK    2  A    between atoms: C_12  and  O_20 
ROOT
ATOM      1  C   LIG d   1       8.470  -3.422  -6.647  0.00  0.00    -0.047 C 
ATOM      2  C   LIG d   1       8.386  -3.185  -5.137  0.00  0.00    -0.040 C 
ATOM      3  C   LIG d   1       8.406  -1.681  -4.856  0.00  0.00    -0.046 C 
ATOM      4  C   LIG d   1       7.201  -1.019  -5.535  0.00  0.00    -0.021 C 
ATOM      5  C   LIG d   1       7.287  -1.258  -7.046  0.00  0.00    -0.046 C 
ATOM      6  C   LIG d   1       7.269  -2.762  -7.327  0.00  0.00    -0.040 C 
ATOM      7  C   LIG d   1       5.977  -3.377  -6.787  0.00  0.00    -0.046 C 
ATOM      8  C   LIG d   1       5.890  -3.139  -5.276  0.00  0.00    -0.021 C 
ATOM      9  C   LIG d   1       7.095  -3.800  -4.596  0.00  0.00    -0.046 C 
ATOM     10  C   LIG d   1       5.924  -1.645  -5.001  0.00  0.00     0.083 C 
ATOM     11  C   LIG d   1       5.741  -1.348  -3.498  0.00  0.00     0.031 C 
ATOM     12  C   LIG d   1       4.829  -0.099  -3.476  0.00  0.00     0.280 C 
ATOM     13  O   LIG d   1       3.775  -0.264  -4.446  0.00  0.00    -0.245 OA
ATOM     14  S   LIG d   1       4.455  -0.825  -5.716  0.00  0.00     0.166 S 
ATOM     15  O   LIG d   1       4.860   0.335  -6.430  0.00  0.00    -0.227 OA
ATOM     16  H   LIG d   1       9.393  -2.986  -7.032  0.00  0.00     0.027 H 
ATOM     17  H   LIG d   1       8.460  -4.492  -6.848  0.00  0.00     0.027 H 
ATOM     18  H   LIG d   1       9.242  -3.651  -4.649  0.00  0.00     0.030 H 
ATOM     19  H   LIG d   1       8.356  -1.512  -3.780  0.00  0.00     0.027 H 
ATOM     20  H   LIG d   1       9.327  -1.250  -5.248  0.00  0.00     0.027 H 
ATOM     21  H   LIG d   1       7.203   0.050  -5.322  0.00  0.00     0.032 H 
ATOM     22  H   LIG d   1       6.437  -0.787  -7.538  0.00  0.00     0.027 H 
ATOM     23  H   LIG d   1       8.213  -0.828  -7.431  0.00  0.00     0.027 H 
ATOM     24  H   LIG d   1       7.325  -2.930  -8.403  0.00  0.00     0.030 H 
ATOM     25  H   LIG d   1       5.121  -2.912  -7.277  0.00  0.00     0.027 H 
ATOM     26  H   LIG d   1       5.973  -4.448  -6.988  0.00  0.00     0.027 H 
ATOM     27  H   LIG d   1       4.968  -3.572  -4.888  0.00  0.00     0.032 H 
ATOM     28  H   LIG d   1       7.088  -4.871  -4.805  0.00  0.00     0.027 H 
ATOM     29  H   LIG d   1       7.039  -3.640  -3.520  0.00  0.00     0.027 H 
ATOM     30  H   LIG d   1       5.254  -2.185  -2.999  0.00  0.00     0.034 H 
ATOM     31  H   LIG d   1       6.701  -1.128  -3.032  0.00  0.00     0.034 H 
ENDROOT
BRANCH  12  32
ATOM     32  C   LIG d   1       4.220   0.066  -2.082  0.00  0.00     0.445 C 
ATOM     33  F   LIG d   1       2.864   0.390  -2.201  0.00  0.00    -0.165 F 
ATOM     34  F   LIG d   1       4.353  -1.131  -1.371  0.00  0.00    -0.165 F 
ATOM     35  F   LIG d   1       4.886   1.090  -1.401  0.00  0.00    -0.165 F 
ENDBRANCH  12  32
BRANCH  12  36
ATOM     36  O   LIG d   1       5.599   1.061  -3.801  0.00  0.00    -0.357 OA
ATOM     37  H   LIG d   1       6.108   1.416  -3.060  0.00  0.00     0.213 HD
ENDBRANCH  12  36
TORSDOF 2
ENDMDL
MODEL 7
REMARK VINA RESULT:      -6.1      1.979      3.026
REMARK  2 active torsions:
REMARK  status: ('A' for Active; 'I' for Inactive)
REMARK    1  A    between atoms: C_12  and  C_16 
REMARK    2  A    between atoms: C_12  and  O_20 
ROOT
ATOM      1  C   LIG d   1       7.049  -2.556  -3.745  0.00  0.00    -0.047 C 
ATOM      2  C   LIG d   1       7.073  -2.132  -5.216  0.00  0.00    -0.040 C 
ATOM      3  C   LIG d   1       5.769  -2.561  -5.889  0.00  0.00    -0.046 C 
ATOM      4  C   LIG d   1       4.585  -1.882  -5.191  0.00  0.00    -0.021 C 
ATOM      5  C   LIG d   1       4.564  -2.307  -3.719  0.00  0.00    -0.046 C 
ATOM      6  C   LIG d   1       5.869  -1.880  -3.045  0.00  0.00    -0.040 C 
ATOM      7  C   LIG d   1       6.027  -0.361  -3.134  0.00  0.00    -0.046 C 
ATOM      8  C   LIG d   1       6.049   0.066  -4.605  0.00  0.00    -0.021 C 
ATOM      9  C   LIG d   1       7.232  -0.614  -5.305  0.00  0.00    -0.046 C 
ATOM     10  C   LIG d   1       4.758  -0.375  -5.273  0.00  0.00     0.083 C 
ATOM     11  C   LIG d   1       4.688   0.117  -6.735  0.00  0.00     0.031 C 
ATOM     12  C   LIG d   1       3.210   0.539  -6.912  0.00  0.00     0.280 C 
ATOM     13  O   LIG d   1       2.782   1.271  -5.747  0.00  0.00    -0.245 OA
ATOM     14  S   LIG d   1       3.323   0.482  -4.532  0.00  0.00     0.166 S 
ATOM     15  O   LIG d   1       2.300  -0.463  -4.252  0.00  0.00    -0.227 OA
ATOM     16  H   LIG d   1       6.939  -3.639  -3.681  0.00  0.00     0.027 H 
ATOM     17  H   LIG d   1       7.979  -2.254  -3.264  0.00  0.00     0.027 H 
ATOM     18  H   LIG d   1       7.911  -2.615  -5.718  0.00  0.00     0.030 H 
ATOM     19  H   LIG d   1       5.789  -2.268  -6.939  0.00  0.00     0.027 H 
ATOM     20  H   LIG d   1       5.661  -3.644  -5.818  0.00  0.00     0.027 H 
ATOM     21  H   LIG d   1       3.655  -2.172  -5.680  0.00  0.00     0.032 H 
ATOM     22  H   LIG d   1       3.722  -1.833  -3.215  0.00  0.00     0.027 H 
ATOM     23  H   LIG d   1       4.460  -3.391  -3.655  0.00  0.00     0.027 H 
ATOM     24  H   LIG d   1       5.850  -2.178  -1.997  0.00  0.00     0.030 H 
ATOM     25  H   LIG d   1       5.189   0.122  -2.629  0.00  0.00     0.027 H 
ATOM     26  H   LIG d   1       6.960  -0.065  -2.655  0.00  0.00     0.027 H 
ATOM     27  H   LIG d   1       6.157   1.148  -4.672  0.00  0.00     0.032 H 
ATOM     28  H   LIG d   1       8.162  -0.317  -4.818  0.00  0.00     0.027 H 
ATOM     29  H   LIG d   1       7.259  -0.313  -6.351  0.00  0.00     0.027 H 
ATOM     30  H   LIG d   1       5.349   0.971  -6.883  0.00  0.00     0.034 H 
ATOM     31  H   LIG d   1       4.940  -0.689  -7.422  0.00  0.00     0.034 H 
ENDROOT
BRANCH  12  32
ATOM     32  C   LIG d   1       3.077   1.427  -8.151  0.00  0.00     0.445 C 
ATOM     33  F   LIG d   1       2.219   0.815  -9.073  0.00  0.00    -0.165 F 
ATOM     34  F   LIG d   1       2.552   2.669  -7.780  0.00  0.00    -0.165 F 
ATOM     35  F   LIG d   1       4.335   1.607  -8.734  0.00  0.00    -0.165 F 
ENDBRANCH  12  32
BRANCH  12  36
ATOM     36  O   LIG d   1       2.397  -0.626  -7.070  0.00  0.00    -0.357 OA
ATOM     37  H   LIG d   1       2.761  -1.280  -7.683  0.00  0.00     0.213 HD
ENDBRANCH  12  36
TORSDOF 2
ENDMDL
MODEL 8
REMARK VINA RESULT:      -5.9      3.781      5.132
REMARK  2 active torsions:
REMARK  status: ('A' for Active; 'I' for Inactive)
REMARK    1  A    between atoms: C_12  and  C_16 
REMARK    2  A    between atoms: C_12  and  O_20 
ROOT
ATOM      1  C   LIG d   1       8.888  -0.946  -7.330  0.00  0.00    -0.047 C 
ATOM      2  C   LIG d   1       8.339  -0.171  -6.129  0.00  0.00    -0.040 C 
ATOM      3  C   LIG d   1       6.855   0.123  -6.349  0.00  0.00    -0.046 C 
ATOM      4  C   LIG d   1       6.087  -1.196  -6.488  0.00  0.00    -0.021 C 
ATOM      5  C   LIG d   1       6.639  -1.970  -7.690  0.00  0.00    -0.046 C 
ATOM      6  C   LIG d   1       8.124  -2.264  -7.471  0.00  0.00    -0.040 C 
ATOM      7  C   LIG d   1       8.308  -3.096  -6.201  0.00  0.00    -0.046 C 
ATOM      8  C   LIG d   1       7.758  -2.323  -4.998  0.00  0.00    -0.021 C 
ATOM      9  C   LIG d   1       8.525  -1.003  -4.859  0.00  0.00    -0.046 C 
ATOM     10  C   LIG d   1       6.287  -2.022  -5.227  0.00  0.00     0.083 C 
ATOM     11  C   LIG d   1       5.659  -1.328  -4.000  0.00  0.00     0.031 C 
ATOM     12  C   LIG d   1       4.258  -1.973  -3.887  0.00  0.00     0.280 C 
ATOM     13  O   LIG d   1       4.371  -3.395  -4.095  0.00  0.00    -0.245 OA
ATOM     14  S   LIG d   1       5.316  -3.568  -5.307  0.00  0.00     0.166 S 
ATOM     15  O   LIG d   1       4.446  -3.524  -6.430  0.00  0.00    -0.227 OA
ATOM     16  H   LIG d   1       8.760  -0.351  -8.235  0.00  0.00     0.027 H 
ATOM     17  H   LIG d   1       9.946  -1.153  -7.176  0.00  0.00     0.027 H 
ATOM     18  H   LIG d   1       8.880   0.770  -6.028  0.00  0.00     0.030 H 
ATOM     19  H   LIG d   1       6.465   0.684  -5.499  0.00  0.00     0.027 H 
ATOM     20  H   LIG d   1       6.731   0.713  -7.258  0.00  0.00     0.027 H 
ATOM     21  H   LIG d   1       5.025  -0.990  -6.627  0.00  0.00     0.032 H 
ATOM     22  H   LIG d   1       6.095  -2.909  -7.799  0.00  0.00     0.027 H 
ATOM     23  H   LIG d   1       6.516  -1.373  -8.594  0.00  0.00     0.027 H 
ATOM     24  H   LIG d   1       8.513  -2.819  -8.324  0.00  0.00     0.030 H 
ATOM     25  H   LIG d   1       7.769  -4.039  -6.304  0.00  0.00     0.027 H 
ATOM     26  H   LIG d   1       9.368  -3.298  -6.050  0.00  0.00     0.027 H 
ATOM     27  H   LIG d   1       7.883  -2.916  -4.092  0.00  0.00     0.032 H 
ATOM     28  H   LIG d   1       9.585  -1.211  -4.714  0.00  0.00     0.027 H 
ATOM     29  H   LIG d   1       8.143  -0.448  -4.003  0.00  0.00     0.027 H 
ATOM     30  H   LIG d   1       6.246  -1.531  -3.104  0.00  0.00     0.034 H 
ATOM     31  H   LIG d   1       5.574  -0.255  -4.168  0.00  0.00     0.034 H 
ENDROOT
BRANCH  12  32
ATOM     32  C   LIG d   1       3.682  -1.705  -2.494  0.00  0.00     0.445 C 
ATOM     33  F   LIG d   1       4.586  -0.932  -1.757  0.00  0.00    -0.165 F 
ATOM     34  F   LIG d   1       2.471  -1.015  -2.616  0.00  0.00    -0.165 F 
ATOM     35  F   LIG d   1       3.464  -2.920  -1.838  0.00  0.00    -0.165 F 
ENDBRANCH  12  32
BRANCH  12  36
ATOM     36  O   LIG d   1       3.393  -1.412  -4.877  0.00  0.00    -0.357 OA
ATOM     37  H   LIG d   1       2.452  -1.532  -4.691  0.00  0.00     0.213 HD
ENDBRANCH  12  36
TORSDOF 2
ENDMDL
MODEL 9
REMARK VINA RESULT:      -5.8      3.311      5.290
REMARK  2 active torsions:
REMARK  status: ('A' for Active; 'I' for Inactive)
REMARK    1  A    between atoms: C_12  and  C_16 
REMARK    2  A    between atoms: C_12  and  O_20 
ROOT
ATOM      1  C   LIG d   1       4.795  -1.575  -9.475  0.00  0.00    -0.047 C 
ATOM      2  C   LIG d   1       3.714  -1.979  -8.469  0.00  0.00    -0.040 C 
ATOM      3  C   LIG d   1       4.305  -2.957  -7.453  0.00  0.00    -0.046 C 
ATOM      4  C   LIG d   1       5.458  -2.280  -6.703  0.00  0.00    -0.021 C 
ATOM      5  C   LIG d   1       6.539  -1.876  -7.712  0.00  0.00    -0.046 C 
ATOM      6  C   LIG d   1       5.948  -0.899  -8.730  0.00  0.00    -0.040 C 
ATOM      7  C   LIG d   1       5.428   0.348  -8.014  0.00  0.00    -0.046 C 
ATOM      8  C   LIG d   1       4.347  -0.054  -7.006  0.00  0.00    -0.021 C 
ATOM      9  C   LIG d   1       3.193  -0.732  -7.754  0.00  0.00    -0.046 C 
ATOM     10  C   LIG d   1       4.935  -1.035  -6.006  0.00  0.00     0.083 C 
ATOM     11  C   LIG d   1       3.912  -1.398  -4.909  0.00  0.00     0.031 C 
ATOM     12  C   LIG d   1       4.759  -1.449  -3.616  0.00  0.00     0.280 C 
ATOM     13  O   LIG d   1       5.666  -0.328  -3.597  0.00  0.00    -0.245 OA
ATOM     14  S   LIG d   1       6.256  -0.241  -5.023  0.00  0.00     0.166 S 
ATOM     15  O   LIG d   1       7.391  -1.095  -4.978  0.00  0.00    -0.227 OA
ATOM     16  H   LIG d   1       5.164  -2.464  -9.988  0.00  0.00     0.027 H 
ATOM     17  H   LIG d   1       4.374  -0.882 -10.202  0.00  0.00     0.027 H 
ATOM     18  H   LIG d   1       2.892  -2.464  -8.996  0.00  0.00     0.030 H 
ATOM     19  H   LIG d   1       3.533  -3.252  -6.742  0.00  0.00     0.027 H 
ATOM     20  H   LIG d   1       4.677  -3.841  -7.971  0.00  0.00     0.027 H 
ATOM     21  H   LIG d   1       5.871  -2.968  -5.965  0.00  0.00     0.032 H 
ATOM     22  H   LIG d   1       7.366  -1.397  -7.188  0.00  0.00     0.027 H 
ATOM     23  H   LIG d   1       6.903  -2.764  -8.230  0.00  0.00     0.027 H 
ATOM     24  H   LIG d   1       6.719  -0.609  -9.444  0.00  0.00     0.030 H 
ATOM     25  H   LIG d   1       6.251   0.835  -7.489  0.00  0.00     0.027 H 
ATOM     26  H   LIG d   1       5.006   1.037  -8.745  0.00  0.00     0.027 H 
ATOM     27  H   LIG d   1       3.978   0.833  -6.490  0.00  0.00     0.032 H 
ATOM     28  H   LIG d   1       2.778  -0.039  -8.487  0.00  0.00     0.027 H 
ATOM     29  H   LIG d   1       2.417  -1.018  -7.045  0.00  0.00     0.027 H 
ATOM     30  H   LIG d   1       3.144  -0.628  -4.832  0.00  0.00     0.034 H 
ATOM     31  H   LIG d   1       3.463  -2.370  -5.110  0.00  0.00     0.034 H 
ENDROOT
BRANCH  12  32
ATOM     32  C   LIG d   1       3.837  -1.381  -2.396  0.00  0.00     0.445 C 
ATOM     33  F   LIG d   1       4.480  -0.688  -1.364  0.00  0.00    -0.165 F 
ATOM     34  F   LIG d   1       2.657  -0.713  -2.741  0.00  0.00    -0.165 F 
ATOM     35  F   LIG d   1       3.532  -2.677  -1.969  0.00  0.00    -0.165 F 
ENDBRANCH  12  32
BRANCH  12  36
ATOM     36  O   LIG d   1       5.505  -2.668  -3.582  0.00  0.00    -0.357 OA
ATOM     37  H   LIG d   1       5.001  -3.446  -3.858  0.00  0.00     0.213 HD
ENDBRANCH  12  36
TORSDOF 2
ENDMDL
MODEL 10
REMARK VINA RESULT:      -5.8      3.530      4.825
REMARK  2 active torsions:
REMARK  status: ('A' for Active; 'I' for Inactive)
REMARK    1  A    between atoms: C_12  and  C_16 
REMARK    2  A    between atoms: C_12  and  O_20 
ROOT
ATOM      1  C   LIG d   1       6.547  -4.503  -6.936  0.00  0.00    -0.047 C 
ATOM      2  C   LIG d   1       5.119  -4.219  -6.462  0.00  0.00    -0.040 C 
ATOM      3  C   LIG d   1       5.097  -4.136  -4.936  0.00  0.00    -0.046 C 
ATOM      4  C   LIG d   1       6.015  -2.999  -4.472  0.00  0.00    -0.021 C 
ATOM      5  C   LIG d   1       7.443  -3.285  -4.948  0.00  0.00    -0.046 C 
ATOM      6  C   LIG d   1       7.465  -3.369  -6.475  0.00  0.00    -0.040 C 
ATOM      7  C   LIG d   1       6.984  -2.048  -7.076  0.00  0.00    -0.046 C 
ATOM      8  C   LIG d   1       5.555  -1.761  -6.602  0.00  0.00    -0.021 C 
ATOM      9  C   LIG d   1       4.637  -2.898  -7.064  0.00  0.00    -0.046 C 
ATOM     10  C   LIG d   1       5.536  -1.693  -5.084  0.00  0.00     0.083 C 
ATOM     11  C   LIG d   1       4.137  -1.309  -4.559  0.00  0.00     0.031 C 
ATOM     12  C   LIG d   1       4.434  -0.347  -3.385  0.00  0.00     0.280 C 
ATOM     13  O   LIG d   1       5.477   0.568  -3.773  0.00  0.00    -0.245 OA
ATOM     14  S   LIG d   1       6.546  -0.291  -4.488  0.00  0.00     0.166 S 
ATOM     15  O   LIG d   1       7.393  -0.731  -3.436  0.00  0.00    -0.227 OA
ATOM     16  H   LIG d   1       6.890  -5.446  -6.510  0.00  0.00     0.027 H 
ATOM     17  H   LIG d   1       6.563  -4.566  -8.024  0.00  0.00     0.027 H 
ATOM     18  H   LIG d   1       4.463  -5.026  -6.787  0.00  0.00     0.030 H 
ATOM     19  H   LIG d   1       4.079  -3.943  -4.597  0.00  0.00     0.027 H 
ATOM     20  H   LIG d   1       5.446  -5.080  -4.515  0.00  0.00     0.027 H 
ATOM     21  H   LIG d   1       5.988  -2.926  -3.384  0.00  0.00     0.032 H 
ATOM     22  H   LIG d   1       8.104  -2.483  -4.619  0.00  0.00     0.027 H 
ATOM     23  H   LIG d   1       7.784  -4.231  -4.527  0.00  0.00     0.027 H 
ATOM     24  H   LIG d   1       8.483  -3.567  -6.812  0.00  0.00     0.030 H 
ATOM     25  H   LIG d   1       7.642  -1.240  -6.754  0.00  0.00     0.027 H 
ATOM     26  H   LIG d   1       6.999  -2.117  -8.164  0.00  0.00     0.027 H 
ATOM     27  H   LIG d   1       5.210  -0.817  -7.025  0.00  0.00     0.032 H 
ATOM     28  H   LIG d   1       4.661  -2.965  -8.152  0.00  0.00     0.027 H 
ATOM     29  H   LIG d   1       3.617  -2.700  -6.735  0.00  0.00     0.027 H 
ATOM     30  H   LIG d   1       3.563  -0.801  -5.333  0.00  0.00     0.034 H 
ATOM     31  H   LIG d   1       3.605  -2.192  -4.204  0.00  0.00     0.034 H 
ENDROOT
BRANCH  12  32
ATOM     32  C   LIG d   1       3.168   0.439  -3.034  0.00  0.00     0.445 C 
ATOM     33  F   LIG d   1       2.769   1.196  -4.141  0.00  0.00    -0.165 F 
ATOM     34  F   LIG d   1       2.148  -0.451  -2.686  0.00  0.00    -0.165 F 
ATOM     35  F   LIG d   1       3.432   1.291  -1.958  0.00  0.00    -0.165 F 
ENDBRANCH  12  32
BRANCH  12  36
ATOM     36  O   LIG d   1       4.858  -1.100  -2.246  0.00  0.00    -0.357 OA
ATOM     37  H   LIG d   1       5.365  -0.587  -1.602  0.00  0.00     0.213 HD
ENDBRANCH  12  36
TORSDOF 2
ENDMDL
