MODEL 1
REMARK VINA RESULT:      -7.0      0.000      0.000
REMARK  9 active torsions:
REMARK  status: ('A' for Active; 'I' for Inactive)
REMARK    1  A    between atoms: C_1  and  C_2 
REMARK    2  A    between atoms: C_2  and  C_3 
REMARK    3  A    between atoms: C_12  and  O_15 
REMARK    4  A    between atoms: C_13  and  C_14 
REMARK    5  A    between atoms: O_15  and  C_16 
REMARK    6  A    between atoms: C_16  and  C_17 
REMARK       I    between atoms: C_17  and  N_19 
REMARK    7  A    between atoms: N_19  and  CA_20 
REMARK    8  A    between atoms: CA_20  and  C_22 
REMARK    9  A    between atoms: CA_20  and  C_28 
ROOT
ATOM      1  C   LIG d   1      10.050   7.691  -1.223  0.00  0.00    -0.030 A 
ATOM      2  C   LIG d   1      10.520   7.391   0.015  0.00  0.00     0.027 A 
ATOM      3  C   LIG d   1      10.999   6.093   0.287  0.00  0.00     0.338 A 
ATOM      4  O   LIG d   1      11.418   5.837   1.403  0.00  0.00    -0.245 OA
ATOM      5  O   LIG d   1      11.005   5.132  -0.649  0.00  0.00    -0.422 OA
ATOM      6  C   LIG d   1      10.551   5.364  -1.900  0.00  0.00     0.146 A 
ATOM      7  C   LIG d   1      10.053   6.636  -2.239  0.00  0.00     0.021 A 
ATOM      8  C   LIG d   1       9.576   6.879  -3.532  0.00  0.00    -0.047 A 
ATOM      9  C   LIG d   1       9.591   5.878  -4.460  0.00  0.00    -0.019 A 
ATOM     10  C   LIG d   1      10.077   4.615  -4.128  0.00  0.00     0.128 A 
ATOM     11  C   LIG d   1      10.564   4.360  -2.855  0.00  0.00     0.034 A 
ATOM     12  H   LIG d   1      10.528   8.144   0.789  0.00  0.00     0.069 H 
ATOM     13  H   LIG d   1       9.197   7.856  -3.795  0.00  0.00     0.063 H 
ATOM     14  H   LIG d   1       9.222   6.065  -5.457  0.00  0.00     0.065 H 
ENDROOT
BRANCH  10  15
ATOM     15  O   LIG d   1      10.084   3.630  -5.061  0.00  0.00    -0.482 OA
BRANCH  15  16
ATOM     16  C   LIG d   1       8.840   3.330  -5.698  0.00  0.00     0.165 C 
ATOM     17  H   LIG d   1       8.049   3.932  -5.248  0.00  0.00     0.080 H 
ATOM     18  H   LIG d   1       8.911   3.558  -6.760  0.00  0.00     0.080 H 
BRANCH  16  19
ATOM     19  C   LIG d   1       8.523   1.867  -5.517  0.00  0.00     0.251 C 
ATOM     20  O   LIG d   1       9.355   1.029  -5.791  0.00  0.00    -0.272 OA
ATOM     21  N   LIG d   1       7.316   1.493  -5.050  0.00  0.00    -0.300 N 
ATOM     22  H   LIG d   1       6.652   2.164  -4.830  0.00  0.00     0.150 HD
BRANCH  21  23
ATOM     23  CA  LIG d   1       7.009   0.070  -4.874  0.00  0.00     0.088 C 
ATOM     24  HA  LIG d   1       7.928  -0.476  -4.665  0.00  0.00     0.061 H 
BRANCH  23  25
ATOM     25  C   LIG d   1       6.051  -0.096  -3.723  0.00  0.00    -0.022 A 
ATOM     26  C   LIG d   1       5.642   1.009  -2.999  0.00  0.00    -0.056 A 
ATOM     27  C   LIG d   1       4.764   0.857  -1.942  0.00  0.00    -0.061 A 
ATOM     28  H   LIG d   1       6.009   1.991  -3.259  0.00  0.00     0.062 H 
ATOM     29  C   LIG d   1       4.294  -0.400  -1.609  0.00  0.00    -0.062 A 
ATOM     30  H   LIG d   1       4.445   1.720  -1.377  0.00  0.00     0.062 H 
ATOM     31  C   LIG d   1       4.702  -1.504  -2.333  0.00  0.00    -0.061 A 
ATOM     32  H   LIG d   1       3.608  -0.518  -0.784  0.00  0.00     0.062 H 
ATOM     33  C   LIG d   1       5.577  -1.352  -3.393  0.00  0.00    -0.056 A 
ATOM     34  H   LIG d   1       4.335  -2.486  -2.073  0.00  0.00     0.062 H 
ATOM     35  H   LIG d   1       5.893  -2.215  -3.961  0.00  0.00     0.062 H 
ENDBRANCH  23  25
BRANCH  23  36
ATOM     36  C   LIG d   1       6.380  -0.466  -6.134  0.00  0.00     0.066 C 
ATOM     37  O   LIG d   1       6.849  -1.436  -6.679  0.00  0.00    -0.547 OA
ATOM     38  OXT LIG d   1       5.296   0.136  -6.651  0.00  0.00    -0.547 OA
ENDBRANCH  23  36
ENDBRANCH  21  23
ENDBRANCH  16  19
ENDBRANCH  15  16
ENDBRANCH  10  15
BRANCH  11  39
ATOM     39  C   LIG d   1      11.088   2.991  -2.507  0.00  0.00    -0.033 C 
ATOM     40  H   LIG d   1      10.736   2.708  -1.515  0.00  0.00     0.028 H 
ATOM     41  H   LIG d   1      10.729   2.268  -3.239  0.00  0.00     0.028 H 
ATOM     42  H   LIG d   1      12.178   3.006  -2.515  0.00  0.00     0.028 H 
ENDBRANCH  11  39
BRANCH   1  43
ATOM     43  C   LIG d   1       9.533   9.070  -1.542  0.00  0.00    -0.030 C 
ATOM     44  H   LIG d   1       8.946   9.441  -0.702  0.00  0.00     0.031 H 
ATOM     45  H   LIG d   1       8.905   9.027  -2.432  0.00  0.00     0.031 H 
BRANCH  43  46
ATOM     46  C   LIG d   1      10.713  10.010  -1.795  0.00  0.00    -0.061 C 
ATOM     47  H   LIG d   1      10.416  10.783  -2.504  0.00  0.00     0.023 H 
ATOM     48  H   LIG d   1      11.549   9.443  -2.205  0.00  0.00     0.023 H 
ATOM     49  H   LIG d   1      11.015  10.476  -0.857  0.00  0.00     0.023 H 
ENDBRANCH  43  46
ENDBRANCH   1  43
TORSDOF 9
ENDMDL
MODEL 2
REMARK VINA RESULT:      -6.9      5.106      8.070
REMARK  9 active torsions:
REMARK  status: ('A' for Active; 'I' for Inactive)
REMARK    1  A    between atoms: C_1  and  C_2 
REMARK    2  A    between atoms: C_2  and  C_3 
REMARK    3  A    between atoms: C_12  and  O_15 
REMARK    4  A    between atoms: C_13  and  C_14 
REMARK    5  A    between atoms: O_15  and  C_16 
REMARK    6  A    between atoms: C_16  and  C_17 
REMARK       I    between atoms: C_17  and  N_19 
REMARK    7  A    between atoms: N_19  and  CA_20 
REMARK    8  A    between atoms: CA_20  and  C_22 
REMARK    9  A    between atoms: CA_20  and  C_28 
ROOT
ATOM      1  C   LIG d   1       5.639   0.260  -2.954  0.00  0.00    -0.030 A 
ATOM      2  C   LIG d   1       6.553   1.181  -3.354  0.00  0.00     0.027 A 
ATOM      3  C   LIG d   1       7.454   0.870  -4.393  0.00  0.00     0.338 A 
ATOM      4  O   LIG d   1       8.269   1.706  -4.741  0.00  0.00    -0.245 OA
ATOM      5  O   LIG d   1       7.437  -0.322  -5.008  0.00  0.00    -0.422 OA
ATOM      6  C   LIG d   1       6.553  -1.282  -4.660  0.00  0.00     0.146 A 
ATOM      7  C   LIG d   1       5.629  -1.042  -3.626  0.00  0.00     0.021 A 
ATOM      8  C   LIG d   1       4.716  -2.036  -3.257  0.00  0.00    -0.047 A 
ATOM      9  C   LIG d   1       4.729  -3.240  -3.899  0.00  0.00    -0.019 A 
ATOM     10  C   LIG d   1       5.645  -3.486  -4.920  0.00  0.00     0.128 A 
ATOM     11  C   LIG d   1       6.550  -2.509  -5.305  0.00  0.00     0.034 A 
ATOM     12  H   LIG d   1       6.590   2.150  -2.877  0.00  0.00     0.069 H 
ATOM     13  H   LIG d   1       4.003  -1.851  -2.466  0.00  0.00     0.063 H 
ATOM     14  H   LIG d   1       4.025  -4.007  -3.615  0.00  0.00     0.065 H 
ENDROOT
BRANCH  10  15
ATOM     15  O   LIG d   1       5.646  -4.689  -5.548  0.00  0.00    -0.482 OA
BRANCH  15  16
ATOM     16  C   LIG d   1       4.375  -5.302  -5.778  0.00  0.00     0.165 C 
ATOM     17  H   LIG d   1       4.493  -6.386  -5.795  0.00  0.00     0.080 H 
ATOM     18  H   LIG d   1       3.688  -5.024  -4.980  0.00  0.00     0.080 H 
BRANCH  16  19
ATOM     19  C   LIG d   1       3.825  -4.835  -7.101  0.00  0.00     0.251 C 
ATOM     20  O   LIG d   1       3.253  -5.618  -7.829  0.00  0.00    -0.272 OA
ATOM     21  N   LIG d   1       3.968  -3.548  -7.472  0.00  0.00    -0.300 N 
ATOM     22  H   LIG d   1       4.424  -2.922  -6.889  0.00  0.00     0.150 HD
BRANCH  21  23
ATOM     23  CA  LIG d   1       3.432  -3.093  -8.759  0.00  0.00     0.088 C 
ATOM     24  HA  LIG d   1       2.503  -3.622  -8.972  0.00  0.00     0.061 H 
BRANCH  23  25
ATOM     25  C   LIG d   1       3.166  -1.612  -8.696  0.00  0.00    -0.022 A 
ATOM     26  C   LIG d   1       3.549  -0.888  -7.581  0.00  0.00    -0.056 A 
ATOM     27  C   LIG d   1       3.305   0.471  -7.522  0.00  0.00    -0.061 A 
ATOM     28  H   LIG d   1       4.039  -1.385  -6.757  0.00  0.00     0.062 H 
ATOM     29  C   LIG d   1       2.678   1.107  -8.576  0.00  0.00    -0.062 A 
ATOM     30  H   LIG d   1       3.604   1.036  -6.651  0.00  0.00     0.062 H 
ATOM     31  C   LIG d   1       2.296   0.385  -9.691  0.00  0.00    -0.061 A 
ATOM     32  H   LIG d   1       2.488   2.169  -8.530  0.00  0.00     0.062 H 
ATOM     33  C   LIG d   1       2.543  -0.975  -9.752  0.00  0.00    -0.056 A 
ATOM     34  H   LIG d   1       1.806   0.882 -10.516  0.00  0.00     0.062 H 
ATOM     35  H   LIG d   1       2.248  -1.539 -10.625  0.00  0.00     0.062 H 
ENDBRANCH  23  25
BRANCH  23  36
ATOM     36  C   LIG d   1       4.433  -3.379  -9.848  0.00  0.00     0.066 C 
ATOM     37  O   LIG d   1       4.093  -3.978 -10.840  0.00  0.00    -0.547 OA
ATOM     38  OXT LIG d   1       5.705  -2.967  -9.714  0.00  0.00    -0.547 OA
ENDBRANCH  23  36
ENDBRANCH  21  23
ENDBRANCH  16  19
ENDBRANCH  15  16
ENDBRANCH  10  15
BRANCH  11  39
ATOM     39  C   LIG d   1       7.536  -2.785  -6.410  0.00  0.00    -0.033 C 
ATOM     40  H   LIG d   1       7.055  -2.627  -7.376  0.00  0.00     0.028 H 
ATOM     41  H   LIG d   1       8.387  -2.111  -6.314  0.00  0.00     0.028 H 
ATOM     42  H   LIG d   1       7.880  -3.817  -6.340  0.00  0.00     0.028 H 
ENDBRANCH  11  39
BRANCH   1  43
ATOM     43  C   LIG d   1       4.664   0.566  -1.847  0.00  0.00    -0.030 C 
ATOM     44  H   LIG d   1       5.173   1.116  -1.056  0.00  0.00     0.031 H 
ATOM     45  H   LIG d   1       4.267  -0.365  -1.444  0.00  0.00     0.031 H 
BRANCH  43  46
ATOM     46  C   LIG d   1       3.516   1.414  -2.399  0.00  0.00    -0.061 C 
ATOM     47  H   LIG d   1       3.829   2.457  -2.456  0.00  0.00     0.023 H 
ATOM     48  H   LIG d   1       2.652   1.331  -1.739  0.00  0.00     0.023 H 
ATOM     49  H   LIG d   1       3.248   1.060  -3.394  0.00  0.00     0.023 H 
ENDBRANCH  43  46
ENDBRANCH   1  43
TORSDOF 9
ENDMDL
MODEL 3
REMARK VINA RESULT:      -6.8      6.191     12.280
REMARK  9 active torsions:
REMARK  status: ('A' for Active; 'I' for Inactive)
REMARK    1  A    between atoms: C_1  and  C_2 
REMARK    2  A    between atoms: C_2  and  C_3 
REMARK    3  A    between atoms: C_12  and  O_15 
REMARK    4  A    between atoms: C_13  and  C_14 
REMARK    5  A    between atoms: O_15  and  C_16 
REMARK    6  A    between atoms: C_16  and  C_17 
REMARK       I    between atoms: C_17  and  N_19 
REMARK    7  A    between atoms: N_19  and  CA_20 
REMARK    8  A    between atoms: CA_20  and  C_22 
REMARK    9  A    between atoms: CA_20  and  C_28 
ROOT
ATOM      1  C   LIG d   1       5.923 -10.554  -2.977  0.00  0.00    -0.030 A 
ATOM      2  C   LIG d   1       4.615 -10.917  -3.001  0.00  0.00     0.027 A 
ATOM      3  C   LIG d   1       3.700 -10.192  -3.792  0.00  0.00     0.338 A 
ATOM      4  O   LIG d   1       2.529 -10.529  -3.804  0.00  0.00    -0.245 OA
ATOM      5  O   LIG d   1       4.085  -9.141  -4.531  0.00  0.00    -0.422 OA
ATOM      6  C   LIG d   1       5.371  -8.727  -4.553  0.00  0.00     0.146 A 
ATOM      7  C   LIG d   1       6.336  -9.401  -3.782  0.00  0.00     0.021 A 
ATOM      8  C   LIG d   1       7.668  -8.973  -3.796  0.00  0.00    -0.047 A 
ATOM      9  C   LIG d   1       8.026  -7.896  -4.554  0.00  0.00    -0.019 A 
ATOM     10  C   LIG d   1       7.073  -7.220  -5.315  0.00  0.00     0.128 A 
ATOM     11  C   LIG d   1       5.751  -7.638  -5.321  0.00  0.00     0.034 A 
ATOM     12  H   LIG d   1       4.276 -11.760  -2.417  0.00  0.00     0.069 H 
ATOM     13  H   LIG d   1       8.411  -9.492  -3.208  0.00  0.00     0.063 H 
ATOM     14  H   LIG d   1       9.053  -7.564  -4.565  0.00  0.00     0.065 H 
ENDROOT
BRANCH  10  15
ATOM     15  O   LIG d   1       7.444  -6.150  -6.063  0.00  0.00    -0.482 OA
BRANCH  15  16
ATOM     16  C   LIG d   1       7.894  -4.991  -5.359  0.00  0.00     0.165 C 
ATOM     17  H   LIG d   1       7.768  -5.146  -4.287  0.00  0.00     0.080 H 
ATOM     18  H   LIG d   1       8.947  -4.818  -5.579  0.00  0.00     0.080 H 
BRANCH  16  19
ATOM     19  C   LIG d   1       7.086  -3.795  -5.793  0.00  0.00     0.251 C 
ATOM     20  O   LIG d   1       6.586  -3.770  -6.897  0.00  0.00    -0.272 OA
ATOM     21  N   LIG d   1       6.919  -2.755  -4.952  0.00  0.00    -0.300 N 
ATOM     22  H   LIG d   1       7.317  -2.776  -4.068  0.00  0.00     0.150 HD
BRANCH  21  23
ATOM     23  CA  LIG d   1       6.132  -1.592  -5.374  0.00  0.00     0.088 C 
ATOM     24  HA  LIG d   1       5.757  -1.755  -6.384  0.00  0.00     0.061 H 
BRANCH  23  25
ATOM     25  C   LIG d   1       4.973  -1.403  -4.430  0.00  0.00    -0.022 A 
ATOM     26  C   LIG d   1       4.973  -2.035  -3.200  0.00  0.00    -0.056 A 
ATOM     27  C   LIG d   1       3.909  -1.862  -2.334  0.00  0.00    -0.061 A 
ATOM     28  H   LIG d   1       5.805  -2.662  -2.915  0.00  0.00     0.062 H 
ATOM     29  C   LIG d   1       2.845  -1.059  -2.698  0.00  0.00    -0.062 A 
ATOM     30  H   LIG d   1       3.910  -2.356  -1.374  0.00  0.00     0.062 H 
ATOM     31  C   LIG d   1       2.845  -0.427  -3.927  0.00  0.00    -0.061 A 
ATOM     32  H   LIG d   1       2.014  -0.924  -2.021  0.00  0.00     0.062 H 
ATOM     33  C   LIG d   1       3.910  -0.596  -4.792  0.00  0.00    -0.056 A 
ATOM     34  H   LIG d   1       2.014   0.201  -4.212  0.00  0.00     0.062 H 
ATOM     35  H   LIG d   1       3.912  -0.099  -5.751  0.00  0.00     0.062 H 
ENDBRANCH  23  25
BRANCH  23  36
ATOM     36  C   LIG d   1       7.004  -0.363  -5.352  0.00  0.00     0.066 C 
ATOM     37  O   LIG d   1       6.737   0.580  -6.058  0.00  0.00    -0.547 OA
ATOM     38  OXT LIG d   1       8.079  -0.318  -4.548  0.00  0.00    -0.547 OA
ENDBRANCH  23  36
ENDBRANCH  21  23
ENDBRANCH  16  19
ENDBRANCH  15  16
ENDBRANCH  10  15
BRANCH  11  39
ATOM     39  C   LIG d   1       4.730  -6.901  -6.147  0.00  0.00    -0.033 C 
ATOM     40  H   LIG d   1       5.172  -5.985  -6.540  0.00  0.00     0.028 H 
ATOM     41  H   LIG d   1       4.408  -7.532  -6.975  0.00  0.00     0.028 H 
ATOM     42  H   LIG d   1       3.870  -6.652  -5.524  0.00  0.00     0.028 H 
ENDBRANCH  11  39
BRANCH   1  43
ATOM     43  C   LIG d   1       6.923 -11.312  -2.142  0.00  0.00    -0.030 C 
ATOM     44  H   LIG d   1       7.752 -10.655  -1.883  0.00  0.00     0.031 H 
ATOM     45  H   LIG d   1       7.297 -12.164  -2.708  0.00  0.00     0.031 H 
BRANCH  43  46
ATOM     46  C   LIG d   1       6.245 -11.807  -0.862  0.00  0.00    -0.061 C 
ATOM     47  H   LIG d   1       5.177 -11.930  -1.041  0.00  0.00     0.023 H 
ATOM     48  H   LIG d   1       6.398 -11.079  -0.065  0.00  0.00     0.023 H 
ATOM     49  H   LIG d   1       6.677 -12.764  -0.569  0.00  0.00     0.023 H 
ENDBRANCH  43  46
ENDBRANCH   1  43
TORSDOF 9
ENDMDL
MODEL 4
REMARK VINA RESULT:      -6.7      1.718      2.616
REMARK  9 active torsions:
REMARK  status: ('A' for Active; 'I' for Inactive)
REMARK    1  A    between atoms: C_1  and  C_2 
REMARK    2  A    between atoms: C_2  and  C_3 
REMARK    3  A    between atoms: C_12  and  O_15 
REMARK    4  A    between atoms: C_13  and  C_14 
REMARK    5  A    between atoms: O_15  and  C_16 
REMARK    6  A    between atoms: C_16  and  C_17 
REMARK       I    between atoms: C_17  and  N_19 
REMARK    7  A    between atoms: N_19  and  CA_20 
REMARK    8  A    between atoms: CA_20  and  C_22 
REMARK    9  A    between atoms: CA_20  and  C_28 
ROOT
ATOM      1  C   LIG d   1       9.996   7.235  -4.656  0.00  0.00    -0.030 A 
ATOM      2  C   LIG d   1       9.922   7.497  -3.326  0.00  0.00     0.027 A 
ATOM      3  C   LIG d   1       9.671   6.449  -2.417  0.00  0.00     0.338 A 
ATOM      4  O   LIG d   1       9.606   6.699  -1.226  0.00  0.00    -0.245 OA
ATOM      5  O   LIG d   1       9.500   5.184  -2.829  0.00  0.00    -0.422 OA
ATOM      6  C   LIG d   1       9.562   4.854  -4.138  0.00  0.00     0.146 A 
ATOM      7  C   LIG d   1       9.803   5.853  -5.100  0.00  0.00     0.021 A 
ATOM      8  C   LIG d   1       9.862   5.518  -6.457  0.00  0.00    -0.047 A 
ATOM      9  C   LIG d   1       9.679   4.222  -6.844  0.00  0.00    -0.019 A 
ATOM     10  C   LIG d   1       9.433   3.230  -5.897  0.00  0.00     0.128 A 
ATOM     11  C   LIG d   1       9.383   3.542  -4.547  0.00  0.00     0.034 A 
ATOM     12  H   LIG d   1      10.055   8.507  -2.964  0.00  0.00     0.069 H 
ATOM     13  H   LIG d   1      10.051   6.282  -7.197  0.00  0.00     0.063 H 
ATOM     14  H   LIG d   1       9.723   3.963  -7.891  0.00  0.00     0.065 H 
ENDROOT
BRANCH  10  15
ATOM     15  O   LIG d   1       9.252   1.946  -6.297  0.00  0.00    -0.482 OA
BRANCH  15  16
ATOM     16  C   LIG d   1       8.272   1.715  -7.311  0.00  0.00     0.165 C 
ATOM     17  H   LIG d   1       7.622   2.587  -7.393  0.00  0.00     0.080 H 
ATOM     18  H   LIG d   1       8.769   1.541  -8.265  0.00  0.00     0.080 H 
BRANCH  16  19
ATOM     19  C   LIG d   1       7.447   0.507  -6.947  0.00  0.00     0.251 C 
ATOM     20  O   LIG d   1       7.647  -0.553  -7.501  0.00  0.00    -0.272 OA
ATOM     21  N   LIG d   1       6.489   0.605  -6.004  0.00  0.00    -0.300 N 
ATOM     22  H   LIG d   1       6.331   1.453  -5.560  0.00  0.00     0.150 HD
BRANCH  21  23
ATOM     23  CA  LIG d   1       5.688  -0.569  -5.649  0.00  0.00     0.088 C 
ATOM     24  HA  LIG d   1       6.290  -1.469  -5.771  0.00  0.00     0.061 H 
BRANCH  23  25
ATOM     25  C   LIG d   1       5.238  -0.454  -4.215  0.00  0.00    -0.022 A 
ATOM     26  C   LIG d   1       4.554  -1.498  -3.620  0.00  0.00    -0.056 A 
ATOM     27  C   LIG d   1       4.141  -1.394  -2.305  0.00  0.00    -0.061 A 
ATOM     28  H   LIG d   1       4.343  -2.396  -4.183  0.00  0.00     0.062 H 
ATOM     29  C   LIG d   1       4.411  -0.245  -1.585  0.00  0.00    -0.062 A 
ATOM     30  H   LIG d   1       3.606  -2.209  -1.841  0.00  0.00     0.062 H 
ATOM     31  C   LIG d   1       5.095   0.798  -2.180  0.00  0.00    -0.061 A 
ATOM     32  H   LIG d   1       4.088  -0.163  -0.558  0.00  0.00     0.062 H 
ATOM     33  C   LIG d   1       5.512   0.692  -3.494  0.00  0.00    -0.056 A 
ATOM     34  H   LIG d   1       5.307   1.696  -1.617  0.00  0.00     0.062 H 
ATOM     35  H   LIG d   1       6.051   1.506  -3.957  0.00  0.00     0.062 H 
ENDBRANCH  23  25
BRANCH  23  36
ATOM     36  C   LIG d   1       4.483  -0.645  -6.550  0.00  0.00     0.066 C 
ATOM     37  O   LIG d   1       4.256  -1.654  -7.174  0.00  0.00    -0.547 OA
ATOM     38  OXT LIG d   1       3.660   0.412  -6.659  0.00  0.00    -0.547 OA
ENDBRANCH  23  36
ENDBRANCH  21  23
ENDBRANCH  16  19
ENDBRANCH  15  16
ENDBRANCH  10  15
BRANCH  11  39
ATOM     39  C   LIG d   1       9.118   2.463  -3.531  0.00  0.00    -0.033 C 
ATOM     40  H   LIG d   1       9.542   2.755  -2.569  0.00  0.00     0.028 H 
ATOM     41  H   LIG d   1       8.042   2.321  -3.424  0.00  0.00     0.028 H 
ATOM     42  H   LIG d   1       9.576   1.531  -3.862  0.00  0.00     0.028 H 
ENDBRANCH  11  39
BRANCH   1  43
ATOM     43  C   LIG d   1      10.265   8.337  -5.649  0.00  0.00    -0.030 C 
ATOM     44  H   LIG d   1       9.919   8.029  -6.635  0.00  0.00     0.031 H 
ATOM     45  H   LIG d   1      11.335   8.540  -5.686  0.00  0.00     0.031 H 
BRANCH  43  46
ATOM     46  C   LIG d   1       9.519   9.602  -5.219  0.00  0.00    -0.061 C 
ATOM     47  H   LIG d   1      10.209  10.446  -5.214  0.00  0.00     0.023 H 
ATOM     48  H   LIG d   1       9.111   9.461  -4.218  0.00  0.00     0.023 H 
ATOM     49  H   LIG d   1       8.707   9.801  -5.918  0.00  0.00     0.023 H 
ENDBRANCH  43  46
ENDBRANCH   1  43
TORSDOF 9
ENDMDL
MODEL 5
REMARK VINA RESULT:      -6.6      2.047      3.038
REMARK  9 active torsions:
REMARK  status: ('A' for Active; 'I' for Inactive)
REMARK    1  A    between atoms: C_1  and  C_2 
REMARK    2  A    between atoms: C_2  and  C_3 
REMARK    3  A    between atoms: C_12  and  O_15 
REMARK    4  A    between atoms: C_13  and  C_14 
REMARK    5  A    between atoms: O_15  and  C_16 
REMARK    6  A    between atoms: C_16  and  C_17 
REMARK       I    between atoms: C_17  and  N_19 
REMARK    7  A    between atoms: N_19  and  CA_20 
REMARK    8  A    between atoms: CA_20  and  C_22 
REMARK    9  A    between atoms: CA_20  and  C_28 
ROOT
ATOM      1  C   LIG d   1       9.977   9.231  -1.671  0.00  0.00    -0.030 A 
ATOM      2  C   LIG d   1       9.902  10.314  -2.487  0.00  0.00     0.027 A 
ATOM      3  C   LIG d   1       9.845  10.137  -3.884  0.00  0.00     0.338 A 
ATOM      4  O   LIG d   1       9.778  11.117  -4.605  0.00  0.00    -0.245 OA
ATOM      5  O   LIG d   1       9.863   8.917  -4.443  0.00  0.00    -0.422 OA
ATOM      6  C   LIG d   1       9.937   7.798  -3.689  0.00  0.00     0.146 A 
ATOM      7  C   LIG d   1      10.003   7.902  -2.286  0.00  0.00     0.021 A 
ATOM      8  C   LIG d   1      10.086   6.746  -1.502  0.00  0.00    -0.047 A 
ATOM      9  C   LIG d   1      10.108   5.520  -2.101  0.00  0.00    -0.019 A 
ATOM     10  C   LIG d   1      10.049   5.411  -3.489  0.00  0.00     0.128 A 
ATOM     11  C   LIG d   1       9.956   6.545  -4.281  0.00  0.00     0.034 A 
ATOM     12  H   LIG d   1       9.885  11.309  -2.066  0.00  0.00     0.069 H 
ATOM     13  H   LIG d   1      10.132   6.824  -0.425  0.00  0.00     0.063 H 
ATOM     14  H   LIG d   1      10.172   4.629  -1.496  0.00  0.00     0.065 H 
ENDROOT
BRANCH  10  15
ATOM     15  O   LIG d   1      10.073   4.185  -4.070  0.00  0.00    -0.482 OA
BRANCH  15  16
ATOM     16  C   LIG d   1      10.247   3.060  -3.204  0.00  0.00     0.165 C 
ATOM     17  H   LIG d   1      11.312   2.855  -3.087  0.00  0.00     0.080 H 
ATOM     18  H   LIG d   1       9.810   3.280  -2.232  0.00  0.00     0.080 H 
BRANCH  16  19
ATOM     19  C   LIG d   1       9.566   1.856  -3.803  0.00  0.00     0.251 C 
ATOM     20  O   LIG d   1      10.221   1.010  -4.372  0.00  0.00    -0.272 OA
ATOM     21  N   LIG d   1       8.229   1.721  -3.704  0.00  0.00    -0.300 N 
ATOM     22  H   LIG d   1       7.705   2.398  -3.247  0.00  0.00     0.150 HD
BRANCH  21  23
ATOM     23  CA  LIG d   1       7.566   0.550  -4.285  0.00  0.00     0.088 C 
ATOM     24  HA  LIG d   1       8.275  -0.276  -4.344  0.00  0.00     0.061 H 
BRANCH  23  25
ATOM     25  C   LIG d   1       6.400   0.153  -3.418  0.00  0.00    -0.022 A 
ATOM     26  C   LIG d   1       6.116  -1.185  -3.213  0.00  0.00    -0.056 A 
ATOM     27  C   LIG d   1       5.045  -1.551  -2.418  0.00  0.00    -0.061 A 
ATOM     28  H   LIG d   1       6.731  -1.944  -3.674  0.00  0.00     0.062 H 
ATOM     29  C   LIG d   1       4.259  -0.579  -1.829  0.00  0.00    -0.062 A 
ATOM     30  H   LIG d   1       4.824  -2.596  -2.259  0.00  0.00     0.062 H 
ATOM     31  C   LIG d   1       4.543   0.758  -2.033  0.00  0.00    -0.061 A 
ATOM     32  H   LIG d   1       3.423  -0.865  -1.208  0.00  0.00     0.062 H 
ATOM     33  C   LIG d   1       5.616   1.124  -2.825  0.00  0.00    -0.056 A 
ATOM     34  H   LIG d   1       3.929   1.518  -1.572  0.00  0.00     0.062 H 
ATOM     35  H   LIG d   1       5.840   2.169  -2.981  0.00  0.00     0.062 H 
ENDBRANCH  23  25
BRANCH  23  36
ATOM     36  C   LIG d   1       7.073   0.889  -5.668  0.00  0.00     0.066 C 
ATOM     37  O   LIG d   1       7.617   1.757  -6.309  0.00  0.00    -0.547 OA
ATOM     38  OXT LIG d   1       6.028   0.225  -6.189  0.00  0.00    -0.547 OA
ENDBRANCH  23  36
ENDBRANCH  21  23
ENDBRANCH  16  19
ENDBRANCH  15  16
ENDBRANCH  10  15
BRANCH  11  39
ATOM     39  C   LIG d   1       9.892   6.416  -5.780  0.00  0.00    -0.033 C 
ATOM     40  H   LIG d   1       9.439   7.313  -6.204  0.00  0.00     0.028 H 
ATOM     41  H   LIG d   1      10.900   6.298  -6.178  0.00  0.00     0.028 H 
ATOM     42  H   LIG d   1       9.293   5.545  -6.045  0.00  0.00     0.028 H 
ENDBRANCH  11  39
BRANCH   1  43
ATOM     43  C   LIG d   1      10.038   9.392  -0.174  0.00  0.00    -0.030 C 
ATOM     44  H   LIG d   1      10.883   8.826   0.218  0.00  0.00     0.031 H 
ATOM     45  H   LIG d   1       9.115   9.020   0.269  0.00  0.00     0.031 H 
BRANCH  43  46
ATOM     46  C   LIG d   1      10.210  10.872   0.172  0.00  0.00    -0.061 C 
ATOM     47  H   LIG d   1       9.769  11.070   1.149  0.00  0.00     0.023 H 
ATOM     48  H   LIG d   1       9.712  11.482  -0.581  0.00  0.00     0.023 H 
ATOM     49  H   LIG d   1      11.271  11.119   0.196  0.00  0.00     0.023 H 
ENDBRANCH  43  46
ENDBRANCH   1  43
TORSDOF 9
ENDMDL
MODEL 6
REMARK VINA RESULT:      -6.6      2.618      4.334
REMARK  9 active torsions:
REMARK  status: ('A' for Active; 'I' for Inactive)
REMARK    1  A    between atoms: C_1  and  C_2 
REMARK    2  A    between atoms: C_2  and  C_3 
REMARK    3  A    between atoms: C_12  and  O_15 
REMARK    4  A    between atoms: C_13  and  C_14 
REMARK    5  A    between atoms: O_15  and  C_16 
REMARK    6  A    between atoms: C_16  and  C_17 
REMARK       I    between atoms: C_17  and  N_19 
REMARK    7  A    between atoms: N_19  and  CA_20 
REMARK    8  A    between atoms: CA_20  and  C_22 
REMARK    9  A    between atoms: CA_20  and  C_28 
ROOT
ATOM      1  C   LIG d   1       9.524   9.050  -6.278  0.00  0.00    -0.030 A 
ATOM      2  C   LIG d   1       9.619   9.419  -7.582  0.00  0.00     0.027 A 
ATOM      3  C   LIG d   1       9.780   8.435  -8.579  0.00  0.00     0.338 A 
ATOM      4  O   LIG d   1       9.864   8.780  -9.745  0.00  0.00    -0.245 OA
ATOM      5  O   LIG d   1       9.842   7.129  -8.278  0.00  0.00    -0.422 OA
ATOM      6  C   LIG d   1       9.754   6.695  -7.002  0.00  0.00     0.146 A 
ATOM      7  C   LIG d   1       9.599   7.624  -5.955  0.00  0.00     0.021 A 
ATOM      8  C   LIG d   1       9.513   7.179  -4.631  0.00  0.00    -0.047 A 
ATOM      9  C   LIG d   1       9.587   5.844  -4.358  0.00  0.00    -0.019 A 
ATOM     10  C   LIG d   1       9.746   4.920  -5.389  0.00  0.00     0.128 A 
ATOM     11  C   LIG d   1       9.821   5.342  -6.708  0.00  0.00     0.034 A 
ATOM     12  H   LIG d   1       9.572  10.463  -7.854  0.00  0.00     0.069 H 
ATOM     13  H   LIG d   1       9.390   7.891  -3.828  0.00  0.00     0.063 H 
ATOM     14  H   LIG d   1       9.521   5.501  -3.337  0.00  0.00     0.065 H 
ENDROOT
BRANCH  10  15
ATOM     15  O   LIG d   1       9.818   3.595  -5.102  0.00  0.00    -0.482 OA
BRANCH  15  16
ATOM     16  C   LIG d   1       8.921   3.098  -4.106  0.00  0.00     0.165 C 
ATOM     17  H   LIG d   1       9.401   3.150  -3.127  0.00  0.00     0.080 H 
ATOM     18  H   LIG d   1       8.015   3.702  -4.099  0.00  0.00     0.080 H 
BRANCH  16  19
ATOM     19  C   LIG d   1       8.569   1.666  -4.418  0.00  0.00     0.251 C 
ATOM     20  O   LIG d   1       9.445   0.867  -4.667  0.00  0.00    -0.272 OA
ATOM     21  N   LIG d   1       7.279   1.275  -4.418  0.00  0.00    -0.300 N 
ATOM     22  H   LIG d   1       6.578   1.915  -4.216  0.00  0.00     0.150 HD
BRANCH  21  23
ATOM     23  CA  LIG d   1       6.936  -0.117  -4.721  0.00  0.00     0.088 C 
ATOM     24  HA  LIG d   1       7.826  -0.739  -4.625  0.00  0.00     0.061 H 
BRANCH  23  25
ATOM     25  C   LIG d   1       5.882  -0.595  -3.756  0.00  0.00    -0.022 A 
ATOM     26  C   LIG d   1       5.357  -1.868  -3.881  0.00  0.00    -0.056 A 
ATOM     27  C   LIG d   1       4.390  -2.307  -2.996  0.00  0.00    -0.061 A 
ATOM     28  H   LIG d   1       5.703  -2.520  -4.669  0.00  0.00     0.062 H 
ATOM     29  C   LIG d   1       3.947  -1.473  -1.987  0.00  0.00    -0.062 A 
ATOM     30  H   LIG d   1       3.980  -3.301  -3.094  0.00  0.00     0.062 H 
ATOM     31  C   LIG d   1       4.472  -0.201  -1.861  0.00  0.00    -0.061 A 
ATOM     32  H   LIG d   1       3.191  -1.816  -1.295  0.00  0.00     0.062 H 
ATOM     33  C   LIG d   1       5.442   0.237  -2.743  0.00  0.00    -0.056 A 
ATOM     34  H   LIG d   1       4.126   0.451  -1.072  0.00  0.00     0.062 H 
ATOM     35  H   LIG d   1       5.856   1.230  -2.643  0.00  0.00     0.062 H 
ENDBRANCH  23  25
BRANCH  23  36
ATOM     36  C   LIG d   1       6.408  -0.208  -6.129  0.00  0.00     0.066 C 
ATOM     37  O   LIG d   1       5.391   0.370  -6.432  0.00  0.00    -0.547 OA
ATOM     38  OXT LIG d   1       7.067  -0.933  -7.047  0.00  0.00    -0.547 OA
ENDBRANCH  23  36
ENDBRANCH  21  23
ENDBRANCH  16  19
ENDBRANCH  15  16
ENDBRANCH  10  15
BRANCH  11  39
ATOM     39  C   LIG d   1       9.994   4.335  -7.815  0.00  0.00    -0.033 C 
ATOM     40  H   LIG d   1      10.930   4.527  -8.339  0.00  0.00     0.028 H 
ATOM     41  H   LIG d   1      10.014   3.330  -7.392  0.00  0.00     0.028 H 
ATOM     42  H   LIG d   1       9.162   4.419  -8.514  0.00  0.00     0.028 H 
ENDBRANCH  11  39
BRANCH   1  43
ATOM     43  C   LIG d   1       9.351  10.081  -5.193  0.00  0.00    -0.030 C 
ATOM     44  H   LIG d   1      10.029   9.860  -4.369  0.00  0.00     0.031 H 
ATOM     45  H   LIG d   1       8.323  10.060  -4.831  0.00  0.00     0.031 H 
BRANCH  43  46
ATOM     46  C   LIG d   1       9.666  11.469  -5.754  0.00  0.00    -0.061 C 
ATOM     47  H   LIG d   1       9.428  11.494  -6.817  0.00  0.00     0.023 H 
ATOM     48  H   LIG d   1      10.725  11.687  -5.614  0.00  0.00     0.023 H 
ATOM     49  H   LIG d   1       9.070  12.217  -5.231  0.00  0.00     0.023 H 
ENDBRANCH  43  46
ENDBRANCH   1  43
TORSDOF 9
ENDMDL
MODEL 7
REMARK VINA RESULT:      -6.5      5.747      8.675
REMARK  9 active torsions:
REMARK  status: ('A' for Active; 'I' for Inactive)
REMARK    1  A    between atoms: C_1  and  C_2 
REMARK    2  A    between atoms: C_2  and  C_3 
REMARK    3  A    between atoms: C_12  and  O_15 
REMARK    4  A    between atoms: C_13  and  C_14 
REMARK    5  A    between atoms: O_15  and  C_16 
REMARK    6  A    between atoms: C_16  and  C_17 
REMARK       I    between atoms: C_17  and  N_19 
REMARK    7  A    between atoms: N_19  and  CA_20 
REMARK    8  A    between atoms: CA_20  and  C_22 
REMARK    9  A    between atoms: CA_20  and  C_28 
ROOT
ATOM      1  C   LIG d   1       7.568  -3.999  -5.078  0.00  0.00    -0.030 A 
ATOM      2  C   LIG d   1       8.845  -3.569  -5.251  0.00  0.00     0.027 A 
ATOM      3  C   LIG d   1       9.181  -2.232  -4.957  0.00  0.00     0.338 A 
ATOM      4  O   LIG d   1      10.330  -1.860  -5.117  0.00  0.00    -0.245 OA
ATOM      5  O   LIG d   1       8.268  -1.357  -4.507  0.00  0.00    -0.422 OA
ATOM      6  C   LIG d   1       6.981  -1.720  -4.312  0.00  0.00     0.146 A 
ATOM      7  C   LIG d   1       6.575  -3.038  -4.592  0.00  0.00     0.021 A 
ATOM      8  C   LIG d   1       5.242  -3.416  -4.398  0.00  0.00    -0.047 A 
ATOM      9  C   LIG d   1       4.337  -2.501  -3.944  0.00  0.00    -0.019 A 
ATOM     10  C   LIG d   1       4.731  -1.193  -3.672  0.00  0.00     0.128 A 
ATOM     11  C   LIG d   1       6.050  -0.804  -3.847  0.00  0.00     0.034 A 
ATOM     12  H   LIG d   1       9.601  -4.250  -5.612  0.00  0.00     0.069 H 
ATOM     13  H   LIG d   1       4.930  -4.429  -4.608  0.00  0.00     0.063 H 
ATOM     14  H   LIG d   1       3.308  -2.792  -3.795  0.00  0.00     0.065 H 
ENDROOT
BRANCH  10  15
ATOM     15  O   LIG d   1       3.819  -0.294  -3.221  0.00  0.00    -0.482 OA
BRANCH  15  16
ATOM     16  C   LIG d   1       2.545  -0.284  -3.869  0.00  0.00     0.165 C 
ATOM     17  H   LIG d   1       2.200  -1.309  -4.008  0.00  0.00     0.080 H 
ATOM     18  H   LIG d   1       1.829   0.260  -3.253  0.00  0.00     0.080 H 
BRANCH  16  19
ATOM     19  C   LIG d   1       2.669   0.392  -5.211  0.00  0.00     0.251 C 
ATOM     20  O   LIG d   1       2.603   1.600  -5.290  0.00  0.00    -0.272 OA
ATOM     21  N   LIG d   1       2.855  -0.348  -6.322  0.00  0.00    -0.300 N 
ATOM     22  H   LIG d   1       2.910  -1.314  -6.258  0.00  0.00     0.150 HD
BRANCH  21  23
ATOM     23  CA  LIG d   1       2.977   0.308  -7.626  0.00  0.00     0.088 C 
ATOM     24  HA  LIG d   1       2.425   1.248  -7.612  0.00  0.00     0.061 H 
BRANCH  23  25
ATOM     25  C   LIG d   1       4.430   0.582  -7.916  0.00  0.00    -0.022 A 
ATOM     26  C   LIG d   1       5.411  -0.186  -7.316  0.00  0.00    -0.056 A 
ATOM     27  C   LIG d   1       6.744   0.064  -7.581  0.00  0.00    -0.061 A 
ATOM     28  H   LIG d   1       5.135  -0.984  -6.641  0.00  0.00     0.062 H 
ATOM     29  C   LIG d   1       7.097   1.084  -8.445  0.00  0.00    -0.062 A 
ATOM     30  H   LIG d   1       7.510  -0.536  -7.112  0.00  0.00     0.062 H 
ATOM     31  C   LIG d   1       6.117   1.852  -9.044  0.00  0.00    -0.061 A 
ATOM     32  H   LIG d   1       8.139   1.280  -8.651  0.00  0.00     0.062 H 
ATOM     33  C   LIG d   1       4.783   1.599  -8.783  0.00  0.00    -0.056 A 
ATOM     34  H   LIG d   1       6.393   2.649  -9.720  0.00  0.00     0.062 H 
ATOM     35  H   LIG d   1       4.017   2.197  -9.255  0.00  0.00     0.062 H 
ENDBRANCH  23  25
BRANCH  23  36
ATOM     36  C   LIG d   1       2.412  -0.591  -8.695  0.00  0.00     0.066 C 
ATOM     37  O   LIG d   1       1.631  -0.152  -9.505  0.00  0.00    -0.547 OA
ATOM     38  OXT LIG d   1       2.776  -1.884  -8.745  0.00  0.00    -0.547 OA
ENDBRANCH  23  36
ENDBRANCH  21  23
ENDBRANCH  16  19
ENDBRANCH  15  16
ENDBRANCH  10  15
BRANCH  11  39
ATOM     39  C   LIG d   1       6.467   0.613  -3.549  0.00  0.00    -0.033 C 
ATOM     40  H   LIG d   1       5.995   1.288  -4.264  0.00  0.00     0.028 H 
ATOM     41  H   LIG d   1       6.155   0.878  -2.539  0.00  0.00     0.028 H 
ATOM     42  H   LIG d   1       7.551   0.697  -3.630  0.00  0.00     0.028 H 
ENDBRANCH  11  39
BRANCH   1  43
ATOM     43  C   LIG d   1       7.182  -5.423  -5.384  0.00  0.00    -0.030 C 
ATOM     44  H   LIG d   1       7.037  -5.538  -6.457  0.00  0.00     0.031 H 
ATOM     45  H   LIG d   1       6.256  -5.668  -4.864  0.00  0.00     0.031 H 
BRANCH  43  46
ATOM     46  C   LIG d   1       8.294  -6.364  -4.915  0.00  0.00    -0.061 C 
ATOM     47  H   LIG d   1       9.260  -5.971  -5.234  0.00  0.00     0.023 H 
ATOM     48  H   LIG d   1       8.143  -7.352  -5.350  0.00  0.00     0.023 H 
ATOM     49  H   LIG d   1       8.274  -6.438  -3.828  0.00  0.00     0.023 H 
ENDBRANCH  43  46
ENDBRANCH   1  43
TORSDOF 9
ENDMDL
MODEL 8
REMARK VINA RESULT:      -6.5      3.024      5.033
REMARK  9 active torsions:
REMARK  status: ('A' for Active; 'I' for Inactive)
REMARK    1  A    between atoms: C_1  and  C_2 
REMARK    2  A    between atoms: C_2  and  C_3 
REMARK    3  A    between atoms: C_12  and  O_15 
REMARK    4  A    between atoms: C_13  and  C_14 
REMARK    5  A    between atoms: O_15  and  C_16 
REMARK    6  A    between atoms: C_16  and  C_17 
REMARK       I    between atoms: C_17  and  N_19 
REMARK    7  A    between atoms: N_19  and  CA_20 
REMARK    8  A    between atoms: CA_20  and  C_22 
REMARK    9  A    between atoms: CA_20  and  C_28 
ROOT
ATOM      1  C   LIG d   1       9.234   6.757  -9.100  0.00  0.00    -0.030 A 
ATOM      2  C   LIG d   1       9.277   8.114  -9.113  0.00  0.00     0.027 A 
ATOM      3  C   LIG d   1       9.657   8.816  -7.951  0.00  0.00     0.338 A 
ATOM      4  O   LIG d   1       9.691  10.034  -7.977  0.00  0.00    -0.245 OA
ATOM      5  O   LIG d   1       9.982   8.178  -6.816  0.00  0.00    -0.422 OA
ATOM      6  C   LIG d   1       9.961   6.829  -6.735  0.00  0.00     0.146 A 
ATOM      7  C   LIG d   1       9.584   6.066  -7.857  0.00  0.00     0.021 A 
ATOM      8  C   LIG d   1       9.554   4.670  -7.775  0.00  0.00    -0.047 A 
ATOM      9  C   LIG d   1       9.885   4.051  -6.605  0.00  0.00    -0.019 A 
ATOM     10  C   LIG d   1      10.253   4.801  -5.489  0.00  0.00     0.128 A 
ATOM     11  C   LIG d   1      10.299   6.185  -5.555  0.00  0.00     0.034 A 
ATOM     12  H   LIG d   1       9.021   8.655 -10.012  0.00  0.00     0.069 H 
ATOM     13  H   LIG d   1       9.270   4.083  -8.637  0.00  0.00     0.063 H 
ATOM     14  H   LIG d   1       9.862   2.974  -6.542  0.00  0.00     0.065 H 
ENDROOT
BRANCH  10  15
ATOM     15  O   LIG d   1      10.579   4.171  -4.332  0.00  0.00    -0.482 OA
BRANCH  15  16
ATOM     16  C   LIG d   1       9.498   3.759  -3.492  0.00  0.00     0.165 C 
ATOM     17  H   LIG d   1       9.778   3.897  -2.447  0.00  0.00     0.080 H 
ATOM     18  H   LIG d   1       8.616   4.357  -3.714  0.00  0.00     0.080 H 
BRANCH  16  19
ATOM     19  C   LIG d   1       9.195   2.304  -3.743  0.00  0.00     0.251 C 
ATOM     20  O   LIG d   1      10.102   1.511  -3.881  0.00  0.00    -0.272 OA
ATOM     21  N   LIG d   1       7.916   1.885  -3.813  0.00  0.00    -0.300 N 
ATOM     22  H   LIG d   1       7.191   2.519  -3.701  0.00  0.00     0.150 HD
BRANCH  21  23
ATOM     23  CA  LIG d   1       7.621   0.470  -4.057  0.00  0.00     0.088 C 
ATOM     24  HA  LIG d   1       8.459  -0.139  -3.718  0.00  0.00     0.061 H 
BRANCH  23  25
ATOM     25  C   LIG d   1       6.377   0.080  -3.302  0.00  0.00    -0.022 A 
ATOM     26  C   LIG d   1       5.595   1.054  -2.708  0.00  0.00    -0.056 A 
ATOM     27  C   LIG d   1       4.454   0.698  -2.015  0.00  0.00    -0.061 A 
ATOM     28  H   LIG d   1       5.876   2.095  -2.787  0.00  0.00     0.062 H 
ATOM     29  C   LIG d   1       4.094  -0.633  -1.915  0.00  0.00    -0.062 A 
ATOM     30  H   LIG d   1       3.844   1.459  -1.552  0.00  0.00     0.062 H 
ATOM     31  C   LIG d   1       4.874  -1.607  -2.508  0.00  0.00    -0.061 A 
ATOM     32  H   LIG d   1       3.202  -0.911  -1.373  0.00  0.00     0.062 H 
ATOM     33  C   LIG d   1       6.014  -1.250  -3.205  0.00  0.00    -0.056 A 
ATOM     34  H   LIG d   1       4.593  -2.647  -2.430  0.00  0.00     0.062 H 
ATOM     35  H   LIG d   1       6.622  -2.011  -3.672  0.00  0.00     0.062 H 
ENDBRANCH  23  25
BRANCH  23  36
ATOM     36  C   LIG d   1       7.405   0.250  -5.532  0.00  0.00     0.066 C 
ATOM     37  O   LIG d   1       6.504   0.819  -6.102  0.00  0.00    -0.547 OA
ATOM     38  OXT LIG d   1       8.213  -0.579  -6.212  0.00  0.00    -0.547 OA
ENDBRANCH  23  36
ENDBRANCH  21  23
ENDBRANCH  16  19
ENDBRANCH  15  16
ENDBRANCH  10  15
BRANCH  11  39
ATOM     39  C   LIG d   1      10.698   6.987  -4.344  0.00  0.00    -0.033 C 
ATOM     40  H   LIG d   1      11.490   7.686  -4.614  0.00  0.00     0.028 H 
ATOM     41  H   LIG d   1       9.835   7.542  -3.975  0.00  0.00     0.028 H 
ATOM     42  H   LIG d   1      11.056   6.314  -3.565  0.00  0.00     0.028 H 
ENDBRANCH  11  39
BRANCH   1  43
ATOM     43  C   LIG d   1       8.832   5.983 -10.328  0.00  0.00    -0.030 C 
ATOM     44  H   LIG d   1       7.963   6.454 -10.786  0.00  0.00     0.031 H 
ATOM     45  H   LIG d   1       8.585   4.959 -10.048  0.00  0.00     0.031 H 
BRANCH  43  46
ATOM     46  C   LIG d   1       9.992   5.973 -11.326  0.00  0.00    -0.061 C 
ATOM     47  H   LIG d   1       9.616   5.721 -12.318  0.00  0.00     0.023 H 
ATOM     48  H   LIG d   1      10.730   5.231 -11.019  0.00  0.00     0.023 H 
ATOM     49  H   LIG d   1      10.457   6.958 -11.353  0.00  0.00     0.023 H 
ENDBRANCH  43  46
ENDBRANCH   1  43
TORSDOF 9
ENDMDL
MODEL 9
REMARK VINA RESULT:      -6.5      5.668     10.536
REMARK  9 active torsions:
REMARK  status: ('A' for Active; 'I' for Inactive)
REMARK    1  A    between atoms: C_1  and  C_2 
REMARK    2  A    between atoms: C_2  and  C_3 
REMARK    3  A    between atoms: C_12  and  O_15 
REMARK    4  A    between atoms: C_13  and  C_14 
REMARK    5  A    between atoms: O_15  and  C_16 
REMARK    6  A    between atoms: C_16  and  C_17 
REMARK       I    between atoms: C_17  and  N_19 
REMARK    7  A    between atoms: N_19  and  CA_20 
REMARK    8  A    between atoms: CA_20  and  C_22 
REMARK    9  A    between atoms: CA_20  and  C_28 
ROOT
ATOM      1  C   LIG d   1       2.412  -1.731 -12.555  0.00  0.00    -0.030 A 
ATOM      2  C   LIG d   1       1.480  -2.641 -12.172  0.00  0.00     0.027 A 
ATOM      3  C   LIG d   1       1.131  -2.757 -10.811  0.00  0.00     0.338 A 
ATOM      4  O   LIG d   1       0.293  -3.579 -10.481  0.00  0.00    -0.245 OA
ATOM      5  O   LIG d   1       1.696  -1.987  -9.869  0.00  0.00    -0.422 OA
ATOM      6  C   LIG d   1       2.630  -1.061 -10.183  0.00  0.00     0.146 A 
ATOM      7  C   LIG d   1       3.030  -0.897 -11.522  0.00  0.00     0.021 A 
ATOM      8  C   LIG d   1       4.001   0.055 -11.850  0.00  0.00    -0.047 A 
ATOM      9  C   LIG d   1       4.561   0.819 -10.868  0.00  0.00    -0.019 A 
ATOM     10  C   LIG d   1       4.173   0.657  -9.539  0.00  0.00     0.128 A 
ATOM     11  C   LIG d   1       3.205  -0.274  -9.197  0.00  0.00     0.034 A 
ATOM     12  H   LIG d   1       1.007  -3.275 -12.908  0.00  0.00     0.069 H 
ATOM     13  H   LIG d   1       4.306   0.186 -12.879  0.00  0.00     0.063 H 
ATOM     14  H   LIG d   1       5.311   1.554 -11.121  0.00  0.00     0.065 H 
ENDROOT
BRANCH  10  15
ATOM     15  O   LIG d   1       4.740   1.424  -8.574  0.00  0.00    -0.482 OA
BRANCH  15  16
ATOM     16  C   LIG d   1       6.169   1.440  -8.514  0.00  0.00     0.165 C 
ATOM     17  H   LIG d   1       6.571   0.756  -9.263  0.00  0.00     0.080 H 
ATOM     18  H   LIG d   1       6.529   2.448  -8.712  0.00  0.00     0.080 H 
BRANCH  16  19
ATOM     19  C   LIG d   1       6.618   1.005  -7.143  0.00  0.00     0.251 C 
ATOM     20  O   LIG d   1       7.535   1.580  -6.595  0.00  0.00    -0.272 OA
ATOM     21  N   LIG d   1       6.001  -0.022  -6.526  0.00  0.00    -0.300 N 
ATOM     22  H   LIG d   1       5.268  -0.481  -6.964  0.00  0.00     0.150 HD
BRANCH  21  23
ATOM     23  CA  LIG d   1       6.438  -0.445  -5.192  0.00  0.00     0.088 C 
ATOM     24  HA  LIG d   1       7.392   0.028  -4.957  0.00  0.00     0.061 H 
BRANCH  23  25
ATOM     25  C   LIG d   1       5.407  -0.034  -4.174  0.00  0.00    -0.022 A 
ATOM     26  C   LIG d   1       4.081  -0.381  -4.355  0.00  0.00    -0.056 A 
ATOM     27  C   LIG d   1       3.133  -0.004  -3.421  0.00  0.00    -0.061 A 
ATOM     28  H   LIG d   1       3.785  -0.947  -5.226  0.00  0.00     0.062 H 
ATOM     29  C   LIG d   1       3.512   0.720  -2.306  0.00  0.00    -0.062 A 
ATOM     30  H   LIG d   1       2.098  -0.275  -3.563  0.00  0.00     0.062 H 
ATOM     31  C   LIG d   1       4.838   1.066  -2.125  0.00  0.00    -0.061 A 
ATOM     32  H   LIG d   1       2.772   1.014  -1.577  0.00  0.00     0.062 H 
ATOM     33  C   LIG d   1       5.786   0.686  -3.057  0.00  0.00    -0.056 A 
ATOM     34  H   LIG d   1       5.134   1.632  -1.253  0.00  0.00     0.062 H 
ATOM     35  H   LIG d   1       6.823   0.953  -2.913  0.00  0.00     0.062 H 
ENDBRANCH  23  25
BRANCH  23  36
ATOM     36  C   LIG d   1       6.600  -1.942  -5.170  0.00  0.00     0.066 C 
ATOM     37  O   LIG d   1       6.492  -2.578  -6.191  0.00  0.00    -0.547 OA
ATOM     38  OXT LIG d   1       6.864  -2.571  -4.012  0.00  0.00    -0.547 OA
ENDBRANCH  23  36
ENDBRANCH  21  23
ENDBRANCH  16  19
ENDBRANCH  15  16
ENDBRANCH  10  15
BRANCH  11  39
ATOM     39  C   LIG d   1       2.792  -0.442  -7.759  0.00  0.00    -0.033 C 
ATOM     40  H   LIG d   1       2.389  -1.444  -7.610  0.00  0.00     0.028 H 
ATOM     41  H   LIG d   1       3.659  -0.300  -7.113  0.00  0.00     0.028 H 
ATOM     42  H   LIG d   1       2.030   0.297  -7.510  0.00  0.00     0.028 H 
ENDBRANCH  11  39
BRANCH   1  43
ATOM     43  C   LIG d   1       2.803  -1.586 -14.003  0.00  0.00    -0.030 C 
ATOM     44  H   LIG d   1       3.626  -0.877 -14.088  0.00  0.00     0.031 H 
ATOM     45  H   LIG d   1       1.950  -1.222 -14.575  0.00  0.00     0.031 H 
BRANCH  43  46
ATOM     46  C   LIG d   1       3.242  -2.945 -14.551  0.00  0.00    -0.061 C 
ATOM     47  H   LIG d   1       3.562  -3.583 -13.726  0.00  0.00     0.023 H 
ATOM     48  H   LIG d   1       4.070  -2.808 -15.246  0.00  0.00     0.023 H 
ATOM     49  H   LIG d   1       2.407  -3.415 -15.070  0.00  0.00     0.023 H 
ENDBRANCH  43  46
ENDBRANCH   1  43
TORSDOF 9
ENDMDL
MODEL 10
REMARK VINA RESULT:      -6.5      2.030      2.935
REMARK  9 active torsions:
REMARK  status: ('A' for Active; 'I' for Inactive)
REMARK    1  A    between atoms: C_1  and  C_2 
REMARK    2  A    between atoms: C_2  and  C_3 
REMARK    3  A    between atoms: C_12  and  O_15 
REMARK    4  A    between atoms: C_13  and  C_14 
REMARK    5  A    between atoms: O_15  and  C_16 
REMARK    6  A    between atoms: C_16  and  C_17 
REMARK       I    between atoms: C_17  and  N_19 
REMARK    7  A    between atoms: N_19  and  CA_20 
REMARK    8  A    between atoms: CA_20  and  C_22 
REMARK    9  A    between atoms: CA_20  and  C_28 
ROOT
ATOM      1  C   LIG d   1       9.700   8.169  -5.598  0.00  0.00    -0.030 A 
ATOM      2  C   LIG d   1       9.927   9.182  -4.723  0.00  0.00     0.027 A 
ATOM      3  C   LIG d   1      10.220   8.892  -3.375  0.00  0.00     0.338 A 
ATOM      4  O   LIG d   1      10.421   9.811  -2.600  0.00  0.00    -0.245 OA
ATOM      5  O   LIG d   1      10.285   7.631  -2.922  0.00  0.00    -0.422 OA
ATOM      6  C   LIG d   1      10.071   6.577  -3.740  0.00  0.00     0.146 A 
ATOM      7  C   LIG d   1       9.766   6.794  -5.097  0.00  0.00     0.021 A 
ATOM      8  C   LIG d   1       9.537   5.706  -5.947  0.00  0.00    -0.047 A 
ATOM      9  C   LIG d   1       9.604   4.435  -5.454  0.00  0.00    -0.019 A 
ATOM     10  C   LIG d   1       9.900   4.214  -4.110  0.00  0.00     0.128 A 
ATOM     11  C   LIG d   1      10.140   5.280  -3.257  0.00  0.00     0.034 A 
ATOM     12  H   LIG d   1       9.882  10.208  -5.058  0.00  0.00     0.069 H 
ATOM     13  H   LIG d   1       9.307   5.872  -6.989  0.00  0.00     0.063 H 
ATOM     14  H   LIG d   1       9.427   3.596  -6.109  0.00  0.00     0.065 H 
ENDROOT
BRANCH  10  15
ATOM     15  O   LIG d   1       9.962   2.944  -3.635  0.00  0.00    -0.482 OA
BRANCH  15  16
ATOM     16  C   LIG d   1      10.647   1.983  -4.441  0.00  0.00     0.165 C 
ATOM     17  H   LIG d   1      10.871   2.420  -5.415  0.00  0.00     0.080 H 
ATOM     18  H   LIG d   1      11.575   1.693  -3.950  0.00  0.00     0.080 H 
BRANCH  16  19
ATOM     19  C   LIG d   1       9.774   0.768  -4.624  0.00  0.00     0.251 C 
ATOM     20  O   LIG d   1      10.254  -0.267  -5.035  0.00  0.00    -0.272 OA
ATOM     21  N   LIG d   1       8.460   0.833  -4.329  0.00  0.00    -0.300 N 
ATOM     22  H   LIG d   1       8.077   1.660  -3.999  0.00  0.00     0.150 HD
BRANCH  21  23
ATOM     23  CA  LIG d   1       7.611  -0.349  -4.506  0.00  0.00     0.088 C 
ATOM     24  HA  LIG d   1       8.195  -1.248  -4.310  0.00  0.00     0.061 H 
BRANCH  23  25
ATOM     25  C   LIG d   1       6.452  -0.281  -3.546  0.00  0.00    -0.022 A 
ATOM     26  C   LIG d   1       5.808  -1.441  -3.158  0.00  0.00    -0.056 A 
ATOM     27  C   LIG d   1       4.744  -1.380  -2.277  0.00  0.00    -0.061 A 
ATOM     28  H   LIG d   1       6.137  -2.396  -3.541  0.00  0.00     0.062 H 
ATOM     29  C   LIG d   1       4.323  -0.159  -1.786  0.00  0.00    -0.062 A 
ATOM     30  H   LIG d   1       4.241  -2.287  -1.974  0.00  0.00     0.062 H 
ATOM     31  C   LIG d   1       4.967   1.001  -2.174  0.00  0.00    -0.061 A 
ATOM     32  H   LIG d   1       3.491  -0.111  -1.099  0.00  0.00     0.062 H 
ATOM     33  C   LIG d   1       6.034   0.940  -3.052  0.00  0.00    -0.056 A 
ATOM     34  H   LIG d   1       4.638   1.956  -1.790  0.00  0.00     0.062 H 
ATOM     35  H   LIG d   1       6.539   1.846  -3.352  0.00  0.00     0.062 H 
ENDBRANCH  23  25
BRANCH  23  36
ATOM     36  C   LIG d   1       7.093  -0.385  -5.920  0.00  0.00     0.066 C 
ATOM     37  O   LIG d   1       7.212  -1.389  -6.583  0.00  0.00    -0.547 OA
ATOM     38  OXT LIG d   1       6.497   0.699  -6.444  0.00  0.00    -0.547 OA
ENDBRANCH  23  36
ENDBRANCH  21  23
ENDBRANCH  16  19
ENDBRANCH  15  16
ENDBRANCH  10  15
BRANCH  11  39
ATOM     39  C   LIG d   1      10.459   5.029  -1.806  0.00  0.00    -0.033 C 
ATOM     40  H   LIG d   1       9.570   5.213  -1.201  0.00  0.00     0.028 H 
ATOM     41  H   LIG d   1      10.777   3.995  -1.677  0.00  0.00     0.028 H 
ATOM     42  H   LIG d   1      11.259   5.698  -1.489  0.00  0.00     0.028 H 
ENDBRANCH  11  39
BRANCH   1  43
ATOM     43  C   LIG d   1       9.385   8.451  -7.045  0.00  0.00    -0.030 C 
ATOM     44  H   LIG d   1       8.307   8.411  -7.196  0.00  0.00     0.031 H 
ATOM     45  H   LIG d   1       9.868   7.705  -7.674  0.00  0.00     0.031 H 
BRANCH  43  46
ATOM     46  C   LIG d   1       9.900   9.843  -7.416  0.00  0.00    -0.061 C 
ATOM     47  H   LIG d   1      10.436   9.791  -8.364  0.00  0.00     0.023 H 
ATOM     48  H   LIG d   1      10.574  10.201  -6.637  0.00  0.00     0.023 H 
ATOM     49  H   LIG d   1       9.059  10.529  -7.512  0.00  0.00     0.023 H 
ENDBRANCH  43  46
ENDBRANCH   1  43
TORSDOF 9
ENDMDL
