MODEL 1
REMARK VINA RESULT:      -8.6      0.000      0.000
REMARK  6 active torsions:
REMARK  status: ('A' for Active; 'I' for Inactive)
REMARK    1  A    between atoms: C_1  and  C_2 
REMARK    2  A    between atoms: C_2  and  O_3 
REMARK    3  A    between atoms: O_3  and  C_4 
REMARK    4  A    between atoms: C_9  and  C_10 
REMARK    5  A    between atoms: N_29  and  C_32 
REMARK    6  A    between atoms: C_32  and  C_33 
ROOT
ATOM      1  C   LIG d   1       5.846  -1.723  -5.955  0.00  0.00     0.096 C 
ATOM      2  H   LIG d   1       6.842  -1.281  -5.987  0.00  0.00     0.062 H 
ATOM      3  C   LIG d   1       4.928  -0.987  -6.905  0.00  0.00     0.046 A 
ATOM      4  C   LIG d   1       4.132  -1.608  -7.802  0.00  0.00    -0.015 A 
ATOM      5  C   LIG d   1       3.411  -0.574  -8.515  0.00  0.00     0.003 A 
ATOM      6  C   LIG d   1       2.461  -0.617  -9.541  0.00  0.00    -0.052 A 
ATOM      7  C   LIG d   1       1.979   0.589  -9.991  0.00  0.00    -0.061 A 
ATOM      8  C   LIG d   1       2.407   1.796  -9.462  0.00  0.00    -0.060 A 
ATOM      9  C   LIG d   1       3.346   1.867  -8.447  0.00  0.00    -0.038 A 
ATOM     10  C   LIG d   1       3.852   0.659  -7.970  0.00  0.00     0.047 A 
ATOM     11  N   LIG d   1       4.768   0.369  -7.000  0.00  0.00    -0.356 N 
ATOM     12  H   LIG d   1       5.235   1.025  -6.460  0.00  0.00     0.166 HD
ATOM     13  C   LIG d   1       4.051  -3.102  -7.988  0.00  0.00     0.002 C 
ATOM     14  C   LIG d   1       4.649  -3.790  -6.753  0.00  0.00     0.107 A 
ATOM     15  H   LIG d   1       3.956  -3.676  -5.918  0.00  0.00     0.060 H 
ATOM     16  N   LIG d   1       5.907  -3.132  -6.396  0.00  0.00    -0.276 N 
ATOM     17  C   LIG d   1       7.090  -3.742  -6.458  0.00  0.00     0.234 A 
ATOM     18  O   LIG d   1       8.078  -3.085  -6.207  0.00  0.00    -0.274 OA
ATOM     19  C   LIG d   1       7.282  -5.181  -6.812  0.00  0.00     0.092 A 
ATOM     20  N   LIG d   1       6.019  -5.856  -7.056  0.00  0.00    -0.287 N 
ATOM     21  C   LIG d   1       4.836  -5.246  -7.030  0.00  0.00     0.237 A 
ATOM     22  O   LIG d   1       3.847  -5.915  -7.245  0.00  0.00    -0.274 OA
ATOM     23  H   LIG d   1       2.122  -1.552  -9.960  0.00  0.00     0.062 H 
ATOM     24  H   LIG d   1       1.245   0.595 -10.782  0.00  0.00     0.062 H 
ATOM     25  H   LIG d   1       1.994   2.713  -9.855  0.00  0.00     0.062 H 
ATOM     26  H   LIG d   1       3.671   2.813  -8.043  0.00  0.00     0.064 H 
ATOM     27  H   LIG d   1       3.009  -3.401  -8.104  0.00  0.00     0.034 H 
ATOM     28  H   LIG d   1       4.616  -3.390  -8.875  0.00  0.00     0.034 H 
ATOM     29  H   LIG d   1       7.800  -5.682  -5.993  0.00  0.00     0.056 H 
ATOM     30  H   LIG d   1       7.898  -5.245  -7.709  0.00  0.00     0.056 H 
ENDROOT
BRANCH   1  31
ATOM     31  C   LIG d   1       5.297  -1.648  -4.553  0.00  0.00     0.021 A 
ATOM     32  C   LIG d   1       5.521  -0.518  -3.780  0.00  0.00     0.126 A 
ATOM     33  C   LIG d   1       5.009  -0.450  -2.492  0.00  0.00    -0.020 A 
ATOM     34  C   LIG d   1       4.288  -1.510  -1.979  0.00  0.00    -0.058 A 
ATOM     35  H   LIG d   1       5.178   0.430  -1.889  0.00  0.00     0.065 H 
ATOM     36  C   LIG d   1       4.066  -2.635  -2.753  0.00  0.00    -0.061 A 
ATOM     37  H   LIG d   1       3.892  -1.459  -0.976  0.00  0.00     0.062 H 
ATOM     38  C   LIG d   1       4.571  -2.704  -4.038  0.00  0.00    -0.053 A 
ATOM     39  H   LIG d   1       3.498  -3.462  -2.351  0.00  0.00     0.062 H 
ATOM     40  H   LIG d   1       4.396  -3.584  -4.640  0.00  0.00     0.062 H 
BRANCH  32  41
ATOM     41  O   LIG d   1       6.235   0.521  -4.284  0.00  0.00    -0.492 OA
BRANCH  41  42
ATOM     42  C   LIG d   1       7.599   0.633  -3.873  0.00  0.00     0.087 C 
ATOM     43  H   LIG d   1       7.702   0.265  -2.851  0.00  0.00     0.069 H 
ATOM     44  H   LIG d   1       8.229   0.040  -4.537  0.00  0.00     0.069 H 
BRANCH  42  45
ATOM     45  C   LIG d   1       8.033   2.098  -3.933  0.00  0.00    -0.031 C 
ATOM     46  H   LIG d   1       9.084   2.155  -4.216  0.00  0.00     0.026 H 
ATOM     47  H   LIG d   1       7.429   2.626  -4.671  0.00  0.00     0.026 H 
ATOM     48  H   LIG d   1       7.895   2.558  -2.955  0.00  0.00     0.026 H 
ENDBRANCH  42  45
ENDBRANCH  41  42
ENDBRANCH  32  41
ENDBRANCH   1  31
BRANCH  20  49
ATOM     49  C   LIG d   1       6.049  -7.291  -7.348  0.00  0.00     0.040 C 
ATOM     50  H   LIG d   1       5.219  -7.545  -8.008  0.00  0.00     0.051 H 
ATOM     51  H   LIG d   1       6.991  -7.544  -7.834  0.00  0.00     0.051 H 
BRANCH  49  52
ATOM     52  C   LIG d   1       5.923  -8.068  -6.062  0.00  0.00    -0.026 A 
ATOM     53  C   LIG d   1       4.701  -8.596  -5.692  0.00  0.00    -0.011 A 
ATOM     54  C   LIG d   1       4.584  -9.315  -4.513  0.00  0.00     0.167 A 
ATOM     55  H   LIG d   1       3.837  -8.452  -6.325  0.00  0.00     0.066 H 
ATOM     56  C   LIG d   1       5.699  -9.492  -3.697  0.00  0.00     0.166 A 
ATOM     57  O   LIG d   1       3.515  -9.932  -3.931  0.00  0.00    -0.453 OA
ATOM     58  C   LIG d   1       6.919  -8.955  -4.071  0.00  0.00    -0.016 A 
ATOM     59  O   LIG d   1       5.328 -10.222  -2.605  0.00  0.00    -0.453 OA
ATOM     60  C   LIG d   1       7.030  -8.244  -5.252  0.00  0.00    -0.053 A 
ATOM     61  H   LIG d   1       7.785  -9.091  -3.441  0.00  0.00     0.066 H 
ATOM     62  H   LIG d   1       7.982  -7.826  -5.542  0.00  0.00     0.062 H 
ATOM     63  C   LIG d   1       4.074 -10.835  -2.959  0.00  0.00     0.233 C 
ATOM     64  H   LIG d   1       4.239 -11.818  -3.401  0.00  0.00     0.117 H 
ATOM     65  H   LIG d   1       3.425 -10.912  -2.087  0.00  0.00     0.117 H 
ENDBRANCH  49  52
ENDBRANCH  20  49
TORSDOF 6
ENDMDL
MODEL 2
REMARK VINA RESULT:      -8.5      0.828      1.375
REMARK  6 active torsions:
REMARK  status: ('A' for Active; 'I' for Inactive)
REMARK    1  A    between atoms: C_1  and  C_2 
REMARK    2  A    between atoms: C_2  and  O_3 
REMARK    3  A    between atoms: O_3  and  C_4 
REMARK    4  A    between atoms: C_9  and  C_10 
REMARK    5  A    between atoms: N_29  and  C_32 
REMARK    6  A    between atoms: C_32  and  C_33 
ROOT
ATOM      1  C   LIG d   1       5.805  -2.047  -5.812  0.00  0.00     0.096 C 
ATOM      2  H   LIG d   1       6.824  -1.666  -5.874  0.00  0.00     0.062 H 
ATOM      3  C   LIG d   1       4.922  -1.316  -6.799  0.00  0.00     0.046 A 
ATOM      4  C   LIG d   1       4.084  -1.941  -7.654  0.00  0.00    -0.015 A 
ATOM      5  C   LIG d   1       3.418  -0.910  -8.423  0.00  0.00     0.003 A 
ATOM      6  C   LIG d   1       2.459  -0.957  -9.440  0.00  0.00    -0.052 A 
ATOM      7  C   LIG d   1       2.042   0.246  -9.956  0.00  0.00    -0.061 A 
ATOM      8  C   LIG d   1       2.542   1.455  -9.499  0.00  0.00    -0.060 A 
ATOM      9  C   LIG d   1       3.492   1.530  -8.495  0.00  0.00    -0.038 A 
ATOM     10  C   LIG d   1       3.932   0.325  -7.951  0.00  0.00     0.047 A 
ATOM     11  N   LIG d   1       4.838   0.040  -6.971  0.00  0.00    -0.356 N 
ATOM     12  H   LIG d   1       5.346   0.698  -6.471  0.00  0.00     0.166 HD
ATOM     13  C   LIG d   1       3.918  -3.436  -7.754  0.00  0.00     0.002 C 
ATOM     14  C   LIG d   1       4.485  -4.085  -6.484  0.00  0.00     0.107 A 
ATOM     15  H   LIG d   1       3.807  -3.884  -5.654  0.00  0.00     0.060 H 
ATOM     16  N   LIG d   1       5.782  -3.481  -6.172  0.00  0.00    -0.276 N 
ATOM     17  C   LIG d   1       6.928  -4.160  -6.203  0.00  0.00     0.234 A 
ATOM     18  O   LIG d   1       7.954  -3.546  -5.996  0.00  0.00    -0.274 OA
ATOM     19  C   LIG d   1       7.035  -5.625  -6.475  0.00  0.00     0.092 A 
ATOM     20  N   LIG d   1       5.734  -6.240  -6.674  0.00  0.00    -0.287 N 
ATOM     21  C   LIG d   1       4.588  -5.563  -6.678  0.00  0.00     0.237 A 
ATOM     22  O   LIG d   1       3.560  -6.186  -6.848  0.00  0.00    -0.274 OA
ATOM     23  H   LIG d   1       2.064  -1.894  -9.802  0.00  0.00     0.062 H 
ATOM     24  H   LIG d   1       1.303   0.250 -10.742  0.00  0.00     0.062 H 
ATOM     25  H   LIG d   1       2.179   2.371  -9.942  0.00  0.00     0.062 H 
ATOM     26  H   LIG d   1       3.873   2.479  -8.147  0.00  0.00     0.064 H 
ATOM     27  H   LIG d   1       2.860  -3.681  -7.847  0.00  0.00     0.034 H 
ATOM     28  H   LIG d   1       4.458  -3.806  -8.626  0.00  0.00     0.034 H 
ATOM     29  H   LIG d   1       7.530  -6.107  -5.631  0.00  0.00     0.056 H 
ATOM     30  H   LIG d   1       7.640  -5.776  -7.370  0.00  0.00     0.056 H 
ENDROOT
BRANCH   1  31
ATOM     31  C   LIG d   1       5.272  -1.862  -4.414  0.00  0.00     0.021 A 
ATOM     32  C   LIG d   1       5.649  -0.753  -3.669  0.00  0.00     0.126 A 
ATOM     33  C   LIG d   1       5.153  -0.582  -2.386  0.00  0.00    -0.020 A 
ATOM     34  C   LIG d   1       4.293  -1.519  -1.848  0.00  0.00    -0.058 A 
ATOM     35  H   LIG d   1       5.441   0.282  -1.805  0.00  0.00     0.065 H 
ATOM     36  C   LIG d   1       3.918  -2.623  -2.592  0.00  0.00    -0.061 A 
ATOM     37  H   LIG d   1       3.909  -1.388  -0.847  0.00  0.00     0.062 H 
ATOM     38  C   LIG d   1       4.407  -2.793  -3.874  0.00  0.00    -0.053 A 
ATOM     39  H   LIG d   1       3.242  -3.353  -2.171  0.00  0.00     0.062 H 
ATOM     40  H   LIG d   1       4.113  -3.656  -4.453  0.00  0.00     0.062 H 
BRANCH  32  41
ATOM     41  O   LIG d   1       6.499   0.165  -4.199  0.00  0.00    -0.492 OA
BRANCH  41  42
ATOM     42  C   LIG d   1       6.729   1.352  -3.437  0.00  0.00     0.087 C 
ATOM     43  H   LIG d   1       5.944   2.079  -3.651  0.00  0.00     0.069 H 
ATOM     44  H   LIG d   1       6.719   1.110  -2.374  0.00  0.00     0.069 H 
BRANCH  42  45
ATOM     45  C   LIG d   1       8.088   1.944  -3.812  0.00  0.00    -0.031 C 
ATOM     46  H   LIG d   1       8.536   2.413  -2.935  0.00  0.00     0.026 H 
ATOM     47  H   LIG d   1       8.743   1.152  -4.174  0.00  0.00     0.026 H 
ATOM     48  H   LIG d   1       7.956   2.692  -4.594  0.00  0.00     0.026 H 
ENDBRANCH  42  45
ENDBRANCH  41  42
ENDBRANCH  32  41
ENDBRANCH   1  31
BRANCH  20  49
ATOM     49  C   LIG d   1       5.680  -7.689  -6.883  0.00  0.00     0.040 C 
ATOM     50  H   LIG d   1       4.736  -7.952  -7.360  0.00  0.00     0.051 H 
ATOM     51  H   LIG d   1       6.508  -7.995  -7.522  0.00  0.00     0.051 H 
BRANCH  49  52
ATOM     52  C   LIG d   1       5.785  -8.392  -5.554  0.00  0.00    -0.026 A 
ATOM     53  C   LIG d   1       6.999  -8.444  -4.895  0.00  0.00    -0.011 A 
ATOM     54  C   LIG d   1       7.097  -9.085  -3.671  0.00  0.00     0.167 A 
ATOM     55  H   LIG d   1       7.872  -7.981  -5.333  0.00  0.00     0.066 H 
ATOM     56  C   LIG d   1       5.972  -9.687  -3.112  0.00  0.00     0.166 A 
ATOM     57  O   LIG d   1       8.155  -9.272  -2.829  0.00  0.00    -0.453 OA
ATOM     58  C   LIG d   1       4.759  -9.636  -3.781  0.00  0.00    -0.016 A 
ATOM     59  O   LIG d   1       6.324 -10.250  -1.920  0.00  0.00    -0.453 OA
ATOM     60  C   LIG d   1       4.668  -8.989  -4.999  0.00  0.00    -0.053 A 
ATOM     61  H   LIG d   1       3.886 -10.101  -3.350  0.00  0.00     0.066 H 
ATOM     62  H   LIG d   1       3.723  -8.950  -5.519  0.00  0.00     0.062 H 
ATOM     63  C   LIG d   1       7.578  -9.637  -1.561  0.00  0.00     0.233 C 
ATOM     64  H   LIG d   1       7.409  -8.751  -0.948  0.00  0.00     0.117 H 
ATOM     65  H   LIG d   1       8.215 -10.348  -1.038  0.00  0.00     0.117 H 
ENDBRANCH  49  52
ENDBRANCH  20  49
TORSDOF 6
ENDMDL
MODEL 3
REMARK VINA RESULT:      -8.4      1.886      4.612
REMARK  6 active torsions:
REMARK  status: ('A' for Active; 'I' for Inactive)
REMARK    1  A    between atoms: C_1  and  C_2 
REMARK    2  A    between atoms: C_2  and  O_3 
REMARK    3  A    between atoms: O_3  and  C_4 
REMARK    4  A    between atoms: C_9  and  C_10 
REMARK    5  A    between atoms: N_29  and  C_32 
REMARK    6  A    between atoms: C_32  and  C_33 
ROOT
ATOM      1  C   LIG d   1       4.449  -2.507  -7.325  0.00  0.00     0.096 C 
ATOM      2  H   LIG d   1       3.452  -2.638  -7.745  0.00  0.00     0.062 H 
ATOM      3  C   LIG d   1       4.353  -1.811  -5.985  0.00  0.00     0.046 A 
ATOM      4  C   LIG d   1       4.983  -2.246  -4.873  0.00  0.00    -0.015 A 
ATOM      5  C   LIG d   1       4.651  -1.322  -3.809  0.00  0.00     0.003 A 
ATOM      6  C   LIG d   1       5.008  -1.264  -2.458  0.00  0.00    -0.052 A 
ATOM      7  C   LIG d   1       4.494  -0.222  -1.724  0.00  0.00    -0.061 A 
ATOM      8  C   LIG d   1       3.659   0.731  -2.285  0.00  0.00    -0.060 A 
ATOM      9  C   LIG d   1       3.289   0.697  -3.618  0.00  0.00    -0.038 A 
ATOM     10  C   LIG d   1       3.797  -0.348  -4.388  0.00  0.00     0.047 A 
ATOM     11  N   LIG d   1       3.639  -0.677  -5.703  0.00  0.00    -0.356 N 
ATOM     12  H   LIG d   1       3.103  -0.182  -6.342  0.00  0.00     0.166 HD
ATOM     13  C   LIG d   1       5.854  -3.476  -4.806  0.00  0.00     0.002 C 
ATOM     14  C   LIG d   1       6.256  -3.878  -6.231  0.00  0.00     0.107 A 
ATOM     15  H   LIG d   1       6.987  -3.162  -6.605  0.00  0.00     0.060 H 
ATOM     16  N   LIG d   1       5.077  -3.825  -7.098  0.00  0.00    -0.276 N 
ATOM     17  C   LIG d   1       4.551  -4.903  -7.678  0.00  0.00     0.234 A 
ATOM     18  O   LIG d   1       3.532  -4.758  -8.320  0.00  0.00    -0.274 OA
ATOM     19  C   LIG d   1       5.132  -6.277  -7.594  0.00  0.00     0.092 A 
ATOM     20  N   LIG d   1       6.363  -6.303  -6.823  0.00  0.00    -0.287 N 
ATOM     21  C   LIG d   1       6.877  -5.237  -6.212  0.00  0.00     0.237 A 
ATOM     22  O   LIG d   1       7.916  -5.379  -5.602  0.00  0.00    -0.274 OA
ATOM     23  H   LIG d   1       5.658  -2.002  -2.012  0.00  0.00     0.062 H 
ATOM     24  H   LIG d   1       4.748  -0.145  -0.678  0.00  0.00     0.062 H 
ATOM     25  H   LIG d   1       3.283   1.527  -1.660  0.00  0.00     0.062 H 
ATOM     26  H   LIG d   1       2.638   1.446  -4.043  0.00  0.00     0.064 H 
ATOM     27  H   LIG d   1       6.748  -3.258  -4.221  0.00  0.00     0.034 H 
ATOM     28  H   LIG d   1       5.299  -4.290  -4.338  0.00  0.00     0.034 H 
ATOM     29  H   LIG d   1       5.335  -6.639  -8.602  0.00  0.00     0.056 H 
ATOM     30  H   LIG d   1       4.405  -6.940  -7.123  0.00  0.00     0.056 H 
ENDROOT
BRANCH   1  31
ATOM     31  C   LIG d   1       5.298  -1.690  -8.265  0.00  0.00     0.021 A 
ATOM     32  C   LIG d   1       4.886  -1.489  -9.575  0.00  0.00     0.126 A 
ATOM     33  C   LIG d   1       5.667  -0.733 -10.436  0.00  0.00    -0.020 A 
ATOM     34  C   LIG d   1       6.856  -0.189  -9.992  0.00  0.00    -0.058 A 
ATOM     35  H   LIG d   1       5.347  -0.571 -11.455  0.00  0.00     0.065 H 
ATOM     36  C   LIG d   1       7.264  -0.390  -8.685  0.00  0.00    -0.061 A 
ATOM     37  H   LIG d   1       7.466   0.398 -10.663  0.00  0.00     0.062 H 
ATOM     38  C   LIG d   1       6.486  -1.140  -7.824  0.00  0.00    -0.053 A 
ATOM     39  H   LIG d   1       8.193   0.039  -8.338  0.00  0.00     0.062 H 
ATOM     40  H   LIG d   1       6.807  -1.296  -6.804  0.00  0.00     0.062 H 
BRANCH  32  41
ATOM     41  O   LIG d   1       3.718  -2.029 -10.011  0.00  0.00    -0.492 OA
BRANCH  41  42
ATOM     42  C   LIG d   1       2.779  -1.140 -10.619  0.00  0.00     0.087 C 
ATOM     43  H   LIG d   1       3.311  -0.417 -11.238  0.00  0.00     0.069 H 
ATOM     44  H   LIG d   1       2.088  -1.710 -11.240  0.00  0.00     0.069 H 
BRANCH  42  45
ATOM     45  C   LIG d   1       1.998  -0.401  -9.531  0.00  0.00    -0.031 C 
ATOM     46  H   LIG d   1       1.233   0.225  -9.993  0.00  0.00     0.026 H 
ATOM     47  H   LIG d   1       1.522  -1.125  -8.869  0.00  0.00     0.026 H 
ATOM     48  H   LIG d   1       2.679   0.225  -8.955  0.00  0.00     0.026 H 
ENDBRANCH  42  45
ENDBRANCH  41  42
ENDBRANCH  32  41
ENDBRANCH   1  31
BRANCH  20  49
ATOM     49  C   LIG d   1       7.082  -7.575  -6.713  0.00  0.00     0.040 C 
ATOM     50  H   LIG d   1       6.967  -8.138  -7.640  0.00  0.00     0.051 H 
ATOM     51  H   LIG d   1       8.139  -7.381  -6.533  0.00  0.00     0.051 H 
BRANCH  49  52
ATOM     52  C   LIG d   1       6.516  -8.373  -5.567  0.00  0.00    -0.026 A 
ATOM     53  C   LIG d   1       5.179  -8.722  -5.562  0.00  0.00    -0.011 A 
ATOM     54  C   LIG d   1       4.658  -9.460  -4.512  0.00  0.00     0.167 A 
ATOM     55  H   LIG d   1       4.540  -8.421  -6.381  0.00  0.00     0.066 H 
ATOM     56  C   LIG d   1       5.483  -9.840  -3.456  0.00  0.00     0.166 A 
ATOM     57  O   LIG d   1       3.398  -9.929  -4.272  0.00  0.00    -0.453 OA
ATOM     58  C   LIG d   1       6.821  -9.482  -3.464  0.00  0.00    -0.016 A 
ATOM     59  O   LIG d   1       4.741 -10.547  -2.555  0.00  0.00    -0.453 OA
ATOM     60  C   LIG d   1       7.335  -8.750  -4.518  0.00  0.00    -0.053 A 
ATOM     61  H   LIG d   1       7.463  -9.775  -2.648  0.00  0.00     0.066 H 
ATOM     62  H   LIG d   1       8.378  -8.472  -4.523  0.00  0.00     0.062 H 
ATOM     63  C   LIG d   1       3.552 -10.945  -3.264  0.00  0.00     0.233 C 
ATOM     64  H   LIG d   1       3.690 -11.923  -3.724  0.00  0.00     0.117 H 
ATOM     65  H   LIG d   1       2.693 -10.956  -2.594  0.00  0.00     0.117 H 
ENDBRANCH  49  52
ENDBRANCH  20  49
TORSDOF 6
ENDMDL
MODEL 4
REMARK VINA RESULT:      -8.3      3.340      8.961
REMARK  6 active torsions:
REMARK  status: ('A' for Active; 'I' for Inactive)
REMARK    1  A    between atoms: C_1  and  C_2 
REMARK    2  A    between atoms: C_2  and  O_3 
REMARK    3  A    between atoms: O_3  and  C_4 
REMARK    4  A    between atoms: C_9  and  C_10 
REMARK    5  A    between atoms: N_29  and  C_32 
REMARK    6  A    between atoms: C_32  and  C_33 
ROOT
ATOM      1  C   LIG d   1       5.842  -0.622  -5.434  0.00  0.00     0.096 C 
ATOM      2  H   LIG d   1       5.119  -0.449  -4.637  0.00  0.00     0.062 H 
ATOM      3  C   LIG d   1       5.214  -0.303  -6.773  0.00  0.00     0.046 A 
ATOM      4  C   LIG d   1       5.806   0.471  -7.707  0.00  0.00    -0.015 A 
ATOM      5  C   LIG d   1       4.903   0.535  -8.838  0.00  0.00     0.003 A 
ATOM      6  C   LIG d   1       4.979   1.180 -10.077  0.00  0.00    -0.052 A 
ATOM      7  C   LIG d   1       3.911   1.021 -10.926  0.00  0.00    -0.061 A 
ATOM      8  C   LIG d   1       2.805   0.261 -10.583  0.00  0.00    -0.060 A 
ATOM      9  C   LIG d   1       2.703  -0.387  -9.363  0.00  0.00    -0.038 A 
ATOM     10  C   LIG d   1       3.773  -0.244  -8.482  0.00  0.00     0.047 A 
ATOM     11  N   LIG d   1       3.997  -0.734  -7.228  0.00  0.00    -0.356 N 
ATOM     12  H   LIG d   1       3.386  -1.303  -6.733  0.00  0.00     0.166 HD
ATOM     13  C   LIG d   1       7.154   1.129  -7.549  0.00  0.00     0.002 C 
ATOM     14  C   LIG d   1       7.908   0.444  -6.402  0.00  0.00     0.107 A 
ATOM     15  H   LIG d   1       8.229  -0.544  -6.732  0.00  0.00     0.060 H 
ATOM     16  N   LIG d   1       7.004   0.275  -5.263  0.00  0.00    -0.276 N 
ATOM     17  C   LIG d   1       7.180   0.893  -4.095  0.00  0.00     0.234 A 
ATOM     18  O   LIG d   1       6.333   0.738  -3.241  0.00  0.00    -0.274 OA
ATOM     19  C   LIG d   1       8.350   1.762  -3.766  0.00  0.00     0.092 A 
ATOM     20  N   LIG d   1       9.300   1.836  -4.863  0.00  0.00    -0.287 N 
ATOM     21  C   LIG d   1       9.115   1.249  -6.044  0.00  0.00     0.237 A 
ATOM     22  O   LIG d   1       9.983   1.377  -6.883  0.00  0.00    -0.274 OA
ATOM     23  H   LIG d   1       5.837   1.774 -10.354  0.00  0.00     0.062 H 
ATOM     24  H   LIG d   1       3.935   1.504 -11.891  0.00  0.00     0.062 H 
ATOM     25  H   LIG d   1       1.993   0.171 -11.290  0.00  0.00     0.062 H 
ATOM     26  H   LIG d   1       1.835  -0.976  -9.107  0.00  0.00     0.064 H 
ATOM     27  H   LIG d   1       7.722   1.024  -8.474  0.00  0.00     0.034 H 
ATOM     28  H   LIG d   1       7.019   2.186  -7.319  0.00  0.00     0.034 H 
ATOM     29  H   LIG d   1       8.854   1.360  -2.887  0.00  0.00     0.056 H 
ATOM     30  H   LIG d   1       7.992   2.766  -3.538  0.00  0.00     0.056 H 
ENDROOT
BRANCH   1  31
ATOM     31  C   LIG d   1       6.296  -2.059  -5.412  0.00  0.00     0.021 A 
ATOM     32  C   LIG d   1       5.454  -3.045  -4.918  0.00  0.00     0.126 A 
ATOM     33  C   LIG d   1       5.874  -4.367  -4.904  0.00  0.00    -0.020 A 
ATOM     34  C   LIG d   1       7.130  -4.698  -5.372  0.00  0.00    -0.058 A 
ATOM     35  H   LIG d   1       5.219  -5.138  -4.524  0.00  0.00     0.065 H 
ATOM     36  C   LIG d   1       7.967  -3.713  -5.864  0.00  0.00    -0.061 A 
ATOM     37  H   LIG d   1       7.457  -5.727  -5.358  0.00  0.00     0.062 H 
ATOM     38  C   LIG d   1       7.550  -2.395  -5.883  0.00  0.00    -0.053 A 
ATOM     39  H   LIG d   1       8.948  -3.974  -6.233  0.00  0.00     0.062 H 
ATOM     40  H   LIG d   1       8.206  -1.628  -6.268  0.00  0.00     0.062 H 
BRANCH  32  41
ATOM     41  O   LIG d   1       4.221  -2.717  -4.453  0.00  0.00    -0.492 OA
BRANCH  41  42
ATOM     42  C   LIG d   1       4.106  -2.437  -3.057  0.00  0.00     0.087 C 
ATOM     43  H   LIG d   1       3.706  -3.311  -2.542  0.00  0.00     0.069 H 
ATOM     44  H   LIG d   1       5.089  -2.196  -2.652  0.00  0.00     0.069 H 
BRANCH  42  45
ATOM     45  C   LIG d   1       3.165  -1.249  -2.850  0.00  0.00    -0.031 C 
ATOM     46  H   LIG d   1       2.882  -0.836  -3.819  0.00  0.00     0.026 H 
ATOM     47  H   LIG d   1       2.270  -1.581  -2.322  0.00  0.00     0.026 H 
ATOM     48  H   LIG d   1       3.669  -0.483  -2.263  0.00  0.00     0.026 H 
ENDBRANCH  42  45
ENDBRANCH  41  42
ENDBRANCH  32  41
ENDBRANCH   1  31
BRANCH  20  49
ATOM     49  C   LIG d   1      10.533   2.599  -4.657  0.00  0.00     0.040 C 
ATOM     50  H   LIG d   1      11.209   2.032  -4.017  0.00  0.00     0.051 H 
ATOM     51  H   LIG d   1      11.012   2.783  -5.619  0.00  0.00     0.051 H 
BRANCH  49  52
ATOM     52  C   LIG d   1      10.205   3.916  -4.001  0.00  0.00    -0.026 A 
ATOM     53  C   LIG d   1      10.510   4.117  -2.668  0.00  0.00    -0.011 A 
ATOM     54  C   LIG d   1      10.214   5.328  -2.064  0.00  0.00     0.167 A 
ATOM     55  H   LIG d   1      10.983   3.331  -2.098  0.00  0.00     0.066 H 
ATOM     56  C   LIG d   1       9.598   6.337  -2.801  0.00  0.00     0.166 A 
ATOM     57  O   LIG d   1      10.410   5.777  -0.790  0.00  0.00    -0.453 OA
ATOM     58  C   LIG d   1       9.290   6.127  -4.135  0.00  0.00    -0.016 A 
ATOM     59  O   LIG d   1       9.409   7.418  -1.988  0.00  0.00    -0.453 OA
ATOM     60  C   LIG d   1       9.593   4.918  -4.732  0.00  0.00    -0.053 A 
ATOM     61  H   LIG d   1       8.813   6.907  -4.708  0.00  0.00     0.066 H 
ATOM     62  H   LIG d   1       9.353   4.755  -5.772  0.00  0.00     0.062 H 
ATOM     63  C   LIG d   1      10.282   7.209  -0.861  0.00  0.00     0.233 C 
ATOM     64  H   LIG d   1      11.253   7.672  -1.038  0.00  0.00     0.117 H 
ATOM     65  H   LIG d   1       9.832   7.601   0.049  0.00  0.00     0.117 H 
ENDBRANCH  49  52
ENDBRANCH  20  49
TORSDOF 6
ENDMDL
MODEL 5
REMARK VINA RESULT:      -8.2      5.349     10.420
REMARK  6 active torsions:
REMARK  status: ('A' for Active; 'I' for Inactive)
REMARK    1  A    between atoms: C_1  and  C_2 
REMARK    2  A    between atoms: C_2  and  O_3 
REMARK    3  A    between atoms: O_3  and  C_4 
REMARK    4  A    between atoms: C_9  and  C_10 
REMARK    5  A    between atoms: N_29  and  C_32 
REMARK    6  A    between atoms: C_32  and  C_33 
ROOT
ATOM      1  C   LIG d   1       9.117  -0.306  -5.137  0.00  0.00     0.096 C 
ATOM      2  H   LIG d   1       9.779  -1.092  -4.775  0.00  0.00     0.062 H 
ATOM      3  C   LIG d   1       7.819  -0.330  -4.361  0.00  0.00     0.046 A 
ATOM      4  C   LIG d   1       7.258   0.769  -3.814  0.00  0.00    -0.015 A 
ATOM      5  C   LIG d   1       6.036   0.342  -3.164  0.00  0.00     0.003 A 
ATOM      6  C   LIG d   1       5.054   1.030  -2.445  0.00  0.00    -0.052 A 
ATOM      7  C   LIG d   1       4.006   0.288  -1.957  0.00  0.00    -0.061 A 
ATOM      8  C   LIG d   1       3.916  -1.080  -2.162  0.00  0.00    -0.060 A 
ATOM      9  C   LIG d   1       4.874  -1.786  -2.868  0.00  0.00    -0.038 A 
ATOM     10  C   LIG d   1       5.948  -1.058  -3.376  0.00  0.00     0.047 A 
ATOM     11  N   LIG d   1       7.043  -1.428  -4.102  0.00  0.00    -0.356 N 
ATOM     12  H   LIG d   1       7.242  -2.332  -4.392  0.00  0.00     0.166 HD
ATOM     13  C   LIG d   1       7.840   2.158  -3.889  0.00  0.00     0.002 C 
ATOM     14  C   LIG d   1       8.883   2.199  -5.013  0.00  0.00     0.107 A 
ATOM     15  H   LIG d   1       8.367   2.169  -5.973  0.00  0.00     0.060 H 
ATOM     16  N   LIG d   1       9.741   1.017  -4.919  0.00  0.00    -0.276 N 
ATOM     17  C   LIG d   1      11.043   1.082  -4.642  0.00  0.00     0.234 A 
ATOM     18  O   LIG d   1      11.647   0.037  -4.518  0.00  0.00    -0.274 OA
ATOM     19  C   LIG d   1      11.810   2.354  -4.478  0.00  0.00     0.092 A 
ATOM     20  N   LIG d   1      10.975   3.524  -4.682  0.00  0.00    -0.287 N 
ATOM     21  C   LIG d   1       9.667   3.468  -4.925  0.00  0.00     0.237 A 
ATOM     22  O   LIG d   1       9.073   4.515  -5.086  0.00  0.00    -0.274 OA
ATOM     23  H   LIG d   1       5.115   2.096  -2.281  0.00  0.00     0.062 H 
ATOM     24  H   LIG d   1       3.229   0.785  -1.397  0.00  0.00     0.062 H 
ATOM     25  H   LIG d   1       3.070  -1.614  -1.754  0.00  0.00     0.062 H 
ATOM     26  H   LIG d   1       4.792  -2.852  -3.021  0.00  0.00     0.064 H 
ATOM     27  H   LIG d   1       7.047   2.876  -4.100  0.00  0.00     0.034 H 
ATOM     28  H   LIG d   1       8.316   2.406  -2.939  0.00  0.00     0.034 H 
ATOM     29  H   LIG d   1      12.628   2.370  -5.198  0.00  0.00     0.056 H 
ATOM     30  H   LIG d   1      12.227   2.387  -3.470  0.00  0.00     0.056 H 
ENDROOT
BRANCH   1  31
ATOM     31  C   LIG d   1       8.839  -0.505  -6.604  0.00  0.00     0.021 A 
ATOM     32  C   LIG d   1       9.656  -1.335  -7.359  0.00  0.00     0.126 A 
ATOM     33  C   LIG d   1       9.393  -1.520  -8.709  0.00  0.00    -0.020 A 
ATOM     34  C   LIG d   1       8.327  -0.872  -9.300  0.00  0.00    -0.058 A 
ATOM     35  H   LIG d   1      10.024  -2.169  -9.298  0.00  0.00     0.065 H 
ATOM     36  C   LIG d   1       7.514  -0.045  -8.545  0.00  0.00    -0.061 A 
ATOM     37  H   LIG d   1       8.125  -1.014 -10.351  0.00  0.00     0.062 H 
ATOM     38  C   LIG d   1       7.771   0.138  -7.200  0.00  0.00    -0.053 A 
ATOM     39  H   LIG d   1       6.679   0.458  -9.009  0.00  0.00     0.062 H 
ATOM     40  H   LIG d   1       7.134   0.784  -6.612  0.00  0.00     0.062 H 
BRANCH  32  41
ATOM     41  O   LIG d   1      10.706  -1.968  -6.777  0.00  0.00    -0.492 OA
BRANCH  41  42
ATOM     42  C   LIG d   1      10.554  -3.362  -6.503  0.00  0.00     0.087 C 
ATOM     43  H   LIG d   1       9.515  -3.652  -6.663  0.00  0.00     0.069 H 
ATOM     44  H   LIG d   1      11.197  -3.937  -7.169  0.00  0.00     0.069 H 
BRANCH  42  45
ATOM     45  C   LIG d   1      10.943  -3.643  -5.051  0.00  0.00    -0.031 C 
ATOM     46  H   LIG d   1      10.914  -4.717  -4.867  0.00  0.00     0.026 H 
ATOM     47  H   LIG d   1      11.951  -3.271  -4.866  0.00  0.00     0.026 H 
ATOM     48  H   LIG d   1      10.243  -3.142  -4.383  0.00  0.00     0.026 H 
ENDBRANCH  42  45
ENDBRANCH  41  42
ENDBRANCH  32  41
ENDBRANCH   1  31
BRANCH  20  49
ATOM     49  C   LIG d   1      11.609   4.844  -4.619  0.00  0.00     0.040 C 
ATOM     50  H   LIG d   1      12.546   4.823  -5.175  0.00  0.00     0.051 H 
ATOM     51  H   LIG d   1      10.943   5.588  -5.056  0.00  0.00     0.051 H 
BRANCH  49  52
ATOM     52  C   LIG d   1      11.884   5.200  -3.181  0.00  0.00    -0.026 A 
ATOM     53  C   LIG d   1      10.840   5.542  -2.343  0.00  0.00    -0.011 A 
ATOM     54  C   LIG d   1      11.090   5.865  -1.019  0.00  0.00     0.167 A 
ATOM     55  H   LIG d   1       9.827   5.554  -2.720  0.00  0.00     0.066 H 
ATOM     56  C   LIG d   1      12.397   5.856  -0.539  0.00  0.00     0.166 A 
ATOM     57  O   LIG d   1      10.254   6.227  -0.002  0.00  0.00    -0.453 OA
ATOM     58  C   LIG d   1      13.440   5.517  -1.386  0.00  0.00    -0.016 A 
ATOM     59  O   LIG d   1      12.381   6.210   0.779  0.00  0.00    -0.453 OA
ATOM     60  C   LIG d   1      13.182   5.191  -2.704  0.00  0.00    -0.053 A 
ATOM     61  H   LIG d   1      14.454   5.509  -1.017  0.00  0.00     0.066 H 
ATOM     62  H   LIG d   1      13.996   4.927  -3.363  0.00  0.00     0.062 H 
ATOM     63  C   LIG d   1      11.015   6.041   1.206  0.00  0.00     0.233 C 
ATOM     64  H   LIG d   1      10.860   5.039   1.606  0.00  0.00     0.117 H 
ATOM     65  H   LIG d   1      10.750   6.793   1.948  0.00  0.00     0.117 H 
ENDBRANCH  49  52
ENDBRANCH  20  49
TORSDOF 6
ENDMDL
MODEL 6
REMARK VINA RESULT:      -8.2      1.845      2.941
REMARK  6 active torsions:
REMARK  status: ('A' for Active; 'I' for Inactive)
REMARK    1  A    between atoms: C_1  and  C_2 
REMARK    2  A    between atoms: C_2  and  O_3 
REMARK    3  A    between atoms: O_3  and  C_4 
REMARK    4  A    between atoms: C_9  and  C_10 
REMARK    5  A    between atoms: N_29  and  C_32 
REMARK    6  A    between atoms: C_32  and  C_33 
ROOT
ATOM      1  C   LIG d   1       5.975  -1.496  -5.427  0.00  0.00     0.096 C 
ATOM      2  H   LIG d   1       6.967  -1.072  -5.578  0.00  0.00     0.062 H 
ATOM      3  C   LIG d   1       5.038  -1.011  -6.510  0.00  0.00     0.046 A 
ATOM      4  C   LIG d   1       4.233  -1.831  -7.221  0.00  0.00    -0.015 A 
ATOM      5  C   LIG d   1       3.496  -0.999  -8.149  0.00  0.00     0.003 A 
ATOM      6  C   LIG d   1       2.531  -1.287  -9.120  0.00  0.00    -0.052 A 
ATOM      7  C   LIG d   1       2.035  -0.225  -9.837  0.00  0.00    -0.061 A 
ATOM      8  C   LIG d   1       2.462   1.075  -9.617  0.00  0.00    -0.060 A 
ATOM      9  C   LIG d   1       3.415   1.388  -8.663  0.00  0.00    -0.038 A 
ATOM     10  C   LIG d   1       3.936   0.330  -7.920  0.00  0.00     0.047 A 
ATOM     11  N   LIG d   1       4.868   0.283  -6.923  0.00  0.00    -0.356 N 
ATOM     12  H   LIG d   1       5.338   1.050  -6.562  0.00  0.00     0.166 HD
ATOM     13  C   LIG d   1       4.160  -3.326  -7.045  0.00  0.00     0.002 C 
ATOM     14  C   LIG d   1       4.780  -3.697  -5.690  0.00  0.00     0.107 A 
ATOM     15  H   LIG d   1       4.099  -3.390  -4.897  0.00  0.00     0.060 H 
ATOM     16  N   LIG d   1       6.039  -2.970  -5.520  0.00  0.00    -0.276 N 
ATOM     17  C   LIG d   1       7.225  -3.574  -5.453  0.00  0.00     0.234 A 
ATOM     18  O   LIG d   1       8.212  -2.872  -5.382  0.00  0.00    -0.274 OA
ATOM     19  C   LIG d   1       7.421  -5.055  -5.457  0.00  0.00     0.092 A 
ATOM     20  N   LIG d   1       6.159  -5.772  -5.514  0.00  0.00    -0.287 N 
ATOM     21  C   LIG d   1       4.973  -5.177  -5.616  0.00  0.00     0.237 A 
ATOM     22  O   LIG d   1       3.985  -5.882  -5.649  0.00  0.00    -0.274 OA
ATOM     23  H   LIG d   1       2.192  -2.296  -9.299  0.00  0.00     0.062 H 
ATOM     24  H   LIG d   1       1.289  -0.409 -10.595  0.00  0.00     0.062 H 
ATOM     25  H   LIG d   1       2.038   1.871 -10.211  0.00  0.00     0.062 H 
ATOM     26  H   LIG d   1       3.740   2.405  -8.501  0.00  0.00     0.064 H 
ATOM     27  H   LIG d   1       3.118  -3.647  -7.070  0.00  0.00     0.034 H 
ATOM     28  H   LIG d   1       4.714  -3.816  -7.846  0.00  0.00     0.034 H 
ATOM     29  H   LIG d   1       7.954  -5.344  -4.551  0.00  0.00     0.056 H 
ATOM     30  H   LIG d   1       8.025  -5.329  -6.323  0.00  0.00     0.056 H 
ENDROOT
BRANCH   1  31
ATOM     31  C   LIG d   1       5.445  -1.092  -4.075  0.00  0.00     0.021 A 
ATOM     32  C   LIG d   1       5.705   0.178  -3.580  0.00  0.00     0.126 A 
ATOM     33  C   LIG d   1       5.211   0.549  -2.338  0.00  0.00    -0.020 A 
ATOM     34  C   LIG d   1       4.472  -0.347  -1.593  0.00  0.00    -0.058 A 
ATOM     35  H   LIG d   1       5.408   1.539  -1.952  0.00  0.00     0.065 H 
ATOM     36  C   LIG d   1       4.215  -1.613  -2.088  0.00  0.00    -0.061 A 
ATOM     37  H   LIG d   1       4.090  -0.060  -0.624  0.00  0.00     0.062 H 
ATOM     38  C   LIG d   1       4.701  -1.984  -3.328  0.00  0.00    -0.053 A 
ATOM     39  H   LIG d   1       3.633  -2.312  -1.506  0.00  0.00     0.062 H 
ATOM     40  H   LIG d   1       4.499  -2.973  -3.713  0.00  0.00     0.062 H 
BRANCH  32  41
ATOM     41  O   LIG d   1       6.436   1.058  -4.312  0.00  0.00    -0.492 OA
BRANCH  41  42
ATOM     42  C   LIG d   1       7.749   1.364  -3.838  0.00  0.00     0.087 C 
ATOM     43  H   LIG d   1       7.704   1.610  -2.776  0.00  0.00     0.069 H 
ATOM     44  H   LIG d   1       8.399   0.500  -3.982  0.00  0.00     0.069 H 
BRANCH  42  45
ATOM     45  C   LIG d   1       8.307   2.557  -4.614  0.00  0.00    -0.031 C 
ATOM     46  H   LIG d   1       9.397   2.519  -4.608  0.00  0.00     0.026 H 
ATOM     47  H   LIG d   1       7.949   2.522  -5.643  0.00  0.00     0.026 H 
ATOM     48  H   LIG d   1       7.975   3.484  -4.146  0.00  0.00     0.026 H 
ENDBRANCH  42  45
ENDBRANCH  41  42
ENDBRANCH  32  41
ENDBRANCH   1  31
BRANCH  20  49
ATOM     49  C   LIG d   1       6.195  -7.236  -5.456  0.00  0.00     0.040 C 
ATOM     50  H   LIG d   1       6.778  -7.551  -4.591  0.00  0.00     0.051 H 
ATOM     51  H   LIG d   1       5.179  -7.621  -5.370  0.00  0.00     0.051 H 
BRANCH  49  52
ATOM     52  C   LIG d   1       6.829  -7.773  -6.713  0.00  0.00    -0.026 A 
ATOM     53  C   LIG d   1       6.212  -7.581  -7.935  0.00  0.00    -0.011 A 
ATOM     54  C   LIG d   1       6.796  -8.069  -9.092  0.00  0.00     0.167 A 
ATOM     55  H   LIG d   1       5.275  -7.044  -7.987  0.00  0.00     0.066 H 
ATOM     56  C   LIG d   1       8.000  -8.765  -9.019  0.00  0.00     0.166 A 
ATOM     57  O   LIG d   1       6.403  -8.012 -10.398  0.00  0.00    -0.453 OA
ATOM     58  C   LIG d   1       8.611  -8.960  -7.791  0.00  0.00    -0.016 A 
ATOM     59  O   LIG d   1       8.363  -9.143 -10.280  0.00  0.00    -0.453 OA
ATOM     60  C   LIG d   1       8.025  -8.465  -6.641  0.00  0.00    -0.053 A 
ATOM     61  H   LIG d   1       9.544  -9.498  -7.732  0.00  0.00     0.066 H 
ATOM     62  H   LIG d   1       8.502  -8.617  -5.685  0.00  0.00     0.062 H 
ATOM     63  C   LIG d   1       7.580  -8.322 -11.167  0.00  0.00     0.233 C 
ATOM     64  H   LIG d   1       8.121  -7.411 -11.423  0.00  0.00     0.117 H 
ATOM     65  H   LIG d   1       7.317  -8.875 -12.068  0.00  0.00     0.117 H 
ENDBRANCH  49  52
ENDBRANCH  20  49
TORSDOF 6
ENDMDL
MODEL 7
REMARK VINA RESULT:      -7.9      3.625      9.897
REMARK  6 active torsions:
REMARK  status: ('A' for Active; 'I' for Inactive)
REMARK    1  A    between atoms: C_1  and  C_2 
REMARK    2  A    between atoms: C_2  and  O_3 
REMARK    3  A    between atoms: O_3  and  C_4 
REMARK    4  A    between atoms: C_9  and  C_10 
REMARK    5  A    between atoms: N_29  and  C_32 
REMARK    6  A    between atoms: C_32  and  C_33 
ROOT
ATOM      1  C   LIG d   1       6.172  -0.461  -5.776  0.00  0.00     0.096 C 
ATOM      2  H   LIG d   1       5.573  -0.349  -6.680  0.00  0.00     0.062 H 
ATOM      3  C   LIG d   1       6.602  -1.903  -5.621  0.00  0.00     0.046 A 
ATOM      4  C   LIG d   1       7.873  -2.277  -5.360  0.00  0.00    -0.015 A 
ATOM      5  C   LIG d   1       7.881  -3.724  -5.281  0.00  0.00     0.003 A 
ATOM      6  C   LIG d   1       8.896  -4.654  -5.038  0.00  0.00    -0.052 A 
ATOM      7  C   LIG d   1       8.536  -5.980  -5.038  0.00  0.00    -0.061 A 
ATOM      8  C   LIG d   1       7.232  -6.388  -5.266  0.00  0.00    -0.060 A 
ATOM      9  C   LIG d   1       6.208  -5.489  -5.510  0.00  0.00    -0.038 A 
ATOM     10  C   LIG d   1       6.544  -4.136  -5.515  0.00  0.00     0.047 A 
ATOM     11  N   LIG d   1       5.800  -3.009  -5.717  0.00  0.00    -0.356 N 
ATOM     12  H   LIG d   1       4.848  -2.994  -5.900  0.00  0.00     0.166 HD
ATOM     13  C   LIG d   1       9.032  -1.326  -5.198  0.00  0.00     0.002 C 
ATOM     14  C   LIG d   1       8.484   0.084  -4.939  0.00  0.00     0.107 A 
ATOM     15  H   LIG d   1       8.077   0.122  -3.928  0.00  0.00     0.060 H 
ATOM     16  N   LIG d   1       7.397   0.360  -5.880  0.00  0.00    -0.276 N 
ATOM     17  C   LIG d   1       7.467   1.304  -6.818  0.00  0.00     0.234 A 
ATOM     18  O   LIG d   1       6.538   1.402  -7.591  0.00  0.00    -0.274 OA
ATOM     19  C   LIG d   1       8.612   2.251  -6.979  0.00  0.00     0.092 A 
ATOM     20  N   LIG d   1       9.638   2.044  -5.972  0.00  0.00    -0.287 N 
ATOM     21  C   LIG d   1       9.591   1.081  -5.054  0.00  0.00     0.237 A 
ATOM     22  O   LIG d   1      10.505   1.009  -4.258  0.00  0.00    -0.274 OA
ATOM     23  H   LIG d   1       9.915  -4.346  -4.859  0.00  0.00     0.062 H 
ATOM     24  H   LIG d   1       9.293  -6.727  -4.854  0.00  0.00     0.062 H 
ATOM     25  H   LIG d   1       7.006  -7.444  -5.255  0.00  0.00     0.062 H 
ATOM     26  H   LIG d   1       5.195  -5.819  -5.687  0.00  0.00     0.064 H 
ATOM     27  H   LIG d   1       9.646  -1.640  -4.354  0.00  0.00     0.034 H 
ATOM     28  H   LIG d   1       9.632  -1.323  -6.109  0.00  0.00     0.034 H 
ATOM     29  H   LIG d   1       8.240   3.273  -6.903  0.00  0.00     0.056 H 
ATOM     30  H   LIG d   1       9.051   2.109  -7.967  0.00  0.00     0.056 H 
ENDROOT
BRANCH   1  31
ATOM     31  C   LIG d   1       5.370  -0.035  -4.574  0.00  0.00     0.021 A 
ATOM     32  C   LIG d   1       3.986  -0.143  -4.588  0.00  0.00     0.126 A 
ATOM     33  C   LIG d   1       3.252   0.245  -3.478  0.00  0.00    -0.020 A 
ATOM     34  C   LIG d   1       3.896   0.747  -2.365  0.00  0.00    -0.058 A 
ATOM     35  H   LIG d   1       2.175   0.157  -3.484  0.00  0.00     0.065 H 
ATOM     36  C   LIG d   1       5.275   0.854  -2.353  0.00  0.00    -0.061 A 
ATOM     37  H   LIG d   1       3.324   1.052  -1.501  0.00  0.00     0.062 H 
ATOM     38  C   LIG d   1       6.010   0.463  -3.456  0.00  0.00    -0.053 A 
ATOM     39  H   LIG d   1       5.778   1.243  -1.479  0.00  0.00     0.062 H 
ATOM     40  H   LIG d   1       7.088   0.548  -3.444  0.00  0.00     0.062 H 
BRANCH  32  41
ATOM     41  O   LIG d   1       3.354  -0.633  -5.686  0.00  0.00    -0.492 OA
BRANCH  41  42
ATOM     42  C   LIG d   1       2.808   0.320  -6.600  0.00  0.00     0.087 C 
ATOM     43  H   LIG d   1       1.770   0.523  -6.337  0.00  0.00     0.069 H 
ATOM     44  H   LIG d   1       3.383   1.245  -6.547  0.00  0.00     0.069 H 
BRANCH  42  45
ATOM     45  C   LIG d   1       2.874  -0.240  -8.022  0.00  0.00    -0.031 C 
ATOM     46  H   LIG d   1       3.906  -0.497  -8.265  0.00  0.00     0.026 H 
ATOM     47  H   LIG d   1       2.252  -1.133  -8.090  0.00  0.00     0.026 H 
ATOM     48  H   LIG d   1       2.512   0.509  -8.725  0.00  0.00     0.026 H 
ENDBRANCH  42  45
ENDBRANCH  41  42
ENDBRANCH  32  41
ENDBRANCH   1  31
BRANCH  20  49
ATOM     49  C   LIG d   1      10.791   2.947  -5.966  0.00  0.00     0.040 C 
ATOM     50  H   LIG d   1      11.434   2.710  -5.119  0.00  0.00     0.051 H 
ATOM     51  H   LIG d   1      11.352   2.828  -6.893  0.00  0.00     0.051 H 
BRANCH  49  52
ATOM     52  C   LIG d   1      10.312   4.372  -5.850  0.00  0.00    -0.026 A 
ATOM     53  C   LIG d   1      10.501   5.251  -6.899  0.00  0.00    -0.011 A 
ATOM     54  C   LIG d   1      10.057   6.559  -6.796  0.00  0.00     0.167 A 
ATOM     55  H   LIG d   1      10.991   4.916  -7.802  0.00  0.00     0.066 H 
ATOM     56  C   LIG d   1       9.431   6.989  -5.629  0.00  0.00     0.166 A 
ATOM     57  O   LIG d   1      10.114   7.606  -7.671  0.00  0.00    -0.453 OA
ATOM     58  C   LIG d   1       9.251   6.104  -4.578  0.00  0.00    -0.016 A 
ATOM     59  O   LIG d   1       9.095   8.304  -5.772  0.00  0.00    -0.453 OA
ATOM     60  C   LIG d   1       9.691   4.798  -4.690  0.00  0.00    -0.053 A 
ATOM     61  H   LIG d   1       8.766   6.434  -3.672  0.00  0.00     0.066 H 
ATOM     62  H   LIG d   1       9.549   4.110  -3.871  0.00  0.00     0.062 H 
ATOM     63  C   LIG d   1       9.155   8.564  -7.187  0.00  0.00     0.233 C 
ATOM     64  H   LIG d   1       8.181   8.397  -7.649  0.00  0.00     0.117 H 
ATOM     65  H   LIG d   1       9.497   9.581  -7.375  0.00  0.00     0.117 H 
ENDBRANCH  49  52
ENDBRANCH  20  49
TORSDOF 6
ENDMDL
MODEL 8
REMARK VINA RESULT:      -7.6      3.137      8.658
REMARK  6 active torsions:
REMARK  status: ('A' for Active; 'I' for Inactive)
REMARK    1  A    between atoms: C_1  and  C_2 
REMARK    2  A    between atoms: C_2  and  O_3 
REMARK    3  A    between atoms: O_3  and  C_4 
REMARK    4  A    between atoms: C_9  and  C_10 
REMARK    5  A    between atoms: N_29  and  C_32 
REMARK    6  A    between atoms: C_32  and  C_33 
ROOT
ATOM      1  C   LIG d   1       5.345  -2.155  -6.007  0.00  0.00     0.096 C 
ATOM      2  H   LIG d   1       4.773  -1.930  -6.907  0.00  0.00     0.062 H 
ATOM      3  C   LIG d   1       5.589  -3.645  -5.912  0.00  0.00     0.046 A 
ATOM      4  C   LIG d   1       6.800  -4.187  -5.663  0.00  0.00    -0.015 A 
ATOM      5  C   LIG d   1       6.625  -5.624  -5.646  0.00  0.00     0.003 A 
ATOM      6  C   LIG d   1       7.513  -6.685  -5.440  0.00  0.00    -0.052 A 
ATOM      7  C   LIG d   1       6.989  -7.954  -5.498  0.00  0.00    -0.061 A 
ATOM      8  C   LIG d   1       5.646  -8.184  -5.748  0.00  0.00    -0.060 A 
ATOM      9  C   LIG d   1       4.746  -7.154  -5.957  0.00  0.00    -0.038 A 
ATOM     10  C   LIG d   1       5.249  -5.855  -5.903  0.00  0.00     0.047 A 
ATOM     11  N   LIG d   1       4.655  -4.636  -6.059  0.00  0.00    -0.356 N 
ATOM     12  H   LIG d   1       3.714  -4.493  -6.245  0.00  0.00     0.166 HD
ATOM     13  C   LIG d   1       8.068  -3.397  -5.456  0.00  0.00     0.002 C 
ATOM     14  C   LIG d   1       7.699  -1.941  -5.138  0.00  0.00     0.107 A 
ATOM     15  H   LIG d   1       7.291  -1.894  -4.128  0.00  0.00     0.060 H 
ATOM     16  N   LIG d   1       6.664  -1.491  -6.071  0.00  0.00    -0.276 N 
ATOM     17  C   LIG d   1       6.861  -0.525  -6.967  0.00  0.00     0.234 A 
ATOM     18  O   LIG d   1       5.959  -0.277  -7.739  0.00  0.00    -0.274 OA
ATOM     19  C   LIG d   1       8.117   0.277  -7.083  0.00  0.00     0.092 A 
ATOM     20  N   LIG d   1       9.099  -0.101  -6.082  0.00  0.00    -0.287 N 
ATOM     21  C   LIG d   1       8.923  -1.088  -5.206  0.00  0.00     0.237 A 
ATOM     22  O   LIG d   1       9.814  -1.307  -4.411  0.00  0.00    -0.274 OA
ATOM     23  H   LIG d   1       8.561  -6.516  -5.244  0.00  0.00     0.062 H 
ATOM     24  H   LIG d   1       7.645  -8.797  -5.343  0.00  0.00     0.062 H 
ATOM     25  H   LIG d   1       5.290  -9.203  -5.784  0.00  0.00     0.062 H 
ATOM     26  H   LIG d   1       3.702  -7.346  -6.152  0.00  0.00     0.064 H 
ATOM     27  H   LIG d   1       8.630  -3.821  -4.624  0.00  0.00     0.034 H 
ATOM     28  H   LIG d   1       8.672  -3.431  -6.363  0.00  0.00     0.034 H 
ATOM     29  H   LIG d   1       7.876   1.333  -6.965  0.00  0.00     0.056 H 
ATOM     30  H   LIG d   1       8.544   0.122  -8.075  0.00  0.00     0.056 H 
ENDROOT
BRANCH   1  31
ATOM     31  C   LIG d   1       4.592  -1.682  -4.790  0.00  0.00     0.021 A 
ATOM     32  C   LIG d   1       3.882  -0.490  -4.833  0.00  0.00     0.126 A 
ATOM     33  C   LIG d   1       3.185  -0.061  -3.713  0.00  0.00    -0.020 A 
ATOM     34  C   LIG d   1       3.208  -0.813  -2.556  0.00  0.00    -0.058 A 
ATOM     35  H   LIG d   1       2.628   0.864  -3.745  0.00  0.00     0.065 H 
ATOM     36  C   LIG d   1       3.916  -2.001  -2.516  0.00  0.00    -0.061 A 
ATOM     37  H   LIG d   1       2.668  -0.477  -1.683  0.00  0.00     0.062 H 
ATOM     38  C   LIG d   1       4.607  -2.434  -3.632  0.00  0.00    -0.053 A 
ATOM     39  H   LIG d   1       3.929  -2.590  -1.610  0.00  0.00     0.062 H 
ATOM     40  H   LIG d   1       5.159  -3.362  -3.597  0.00  0.00     0.062 H 
BRANCH  32  41
ATOM     41  O   LIG d   1       3.865   0.251  -5.971  0.00  0.00    -0.492 OA
BRANCH  41  42
ATOM     42  C   LIG d   1       2.654   0.249  -6.729  0.00  0.00     0.087 C 
ATOM     43  H   LIG d   1       2.391  -0.776  -6.992  0.00  0.00     0.069 H 
ATOM     44  H   LIG d   1       1.852   0.689  -6.135  0.00  0.00     0.069 H 
BRANCH  42  45
ATOM     45  C   LIG d   1       2.849   1.069  -8.006  0.00  0.00    -0.031 C 
ATOM     46  H   LIG d   1       3.258   0.430  -8.789  0.00  0.00     0.026 H 
ATOM     47  H   LIG d   1       1.890   1.472  -8.330  0.00  0.00     0.026 H 
ATOM     48  H   LIG d   1       3.540   1.888  -7.810  0.00  0.00     0.026 H 
ENDBRANCH  42  45
ENDBRANCH  41  42
ENDBRANCH  32  41
ENDBRANCH   1  31
BRANCH  20  49
ATOM     49  C   LIG d   1      10.357   0.650  -6.033  0.00  0.00     0.040 C 
ATOM     50  H   LIG d   1      11.100   0.078  -5.476  0.00  0.00     0.051 H 
ATOM     51  H   LIG d   1      10.717   0.824  -7.047  0.00  0.00     0.051 H 
BRANCH  49  52
ATOM     52  C   LIG d   1      10.126   1.972  -5.348  0.00  0.00    -0.026 A 
ATOM     53  C   LIG d   1      10.086   3.137  -6.092  0.00  0.00    -0.011 A 
ATOM     54  C   LIG d   1       9.869   4.353  -5.466  0.00  0.00     0.167 A 
ATOM     55  H   LIG d   1      10.220   3.097  -7.164  0.00  0.00     0.066 H 
ATOM     56  C   LIG d   1       9.703   4.401  -4.085  0.00  0.00     0.166 A 
ATOM     57  O   LIG d   1       9.781   5.623  -5.960  0.00  0.00    -0.453 OA
ATOM     58  C   LIG d   1       9.750   3.231  -3.344  0.00  0.00    -0.016 A 
ATOM     59  O   LIG d   1       9.511   5.700  -3.712  0.00  0.00    -0.453 OA
ATOM     60  C   LIG d   1       9.962   2.020  -3.976  0.00  0.00    -0.053 A 
ATOM     61  H   LIG d   1       9.621   3.265  -2.273  0.00  0.00     0.066 H 
ATOM     62  H   LIG d   1       9.998   1.109  -3.398  0.00  0.00     0.062 H 
ATOM     63  C   LIG d   1       9.155   6.397  -4.921  0.00  0.00     0.233 C 
ATOM     64  H   LIG d   1       8.072   6.408  -5.052  0.00  0.00     0.117 H 
ATOM     65  H   LIG d   1       9.548   7.413  -4.907  0.00  0.00     0.117 H 
ENDBRANCH  49  52
ENDBRANCH  20  49
TORSDOF 6
ENDMDL
MODEL 9
REMARK VINA RESULT:      -7.6      2.782      3.886
REMARK  6 active torsions:
REMARK  status: ('A' for Active; 'I' for Inactive)
REMARK    1  A    between atoms: C_1  and  C_2 
REMARK    2  A    between atoms: C_2  and  O_3 
REMARK    3  A    between atoms: O_3  and  C_4 
REMARK    4  A    between atoms: C_9  and  C_10 
REMARK    5  A    between atoms: N_29  and  C_32 
REMARK    6  A    between atoms: C_32  and  C_33 
ROOT
ATOM      1  C   LIG d   1       5.783  -0.767  -5.722  0.00  0.00     0.096 C 
ATOM      2  H   LIG d   1       6.599  -0.078  -5.942  0.00  0.00     0.062 H 
ATOM      3  C   LIG d   1       4.760  -0.723  -6.835  0.00  0.00     0.046 A 
ATOM      4  C   LIG d   1       4.258  -1.827  -7.429  0.00  0.00    -0.015 A 
ATOM      5  C   LIG d   1       3.315  -1.376  -8.432  0.00  0.00     0.003 A 
ATOM      6  C   LIG d   1       2.503  -2.058  -9.344  0.00  0.00    -0.052 A 
ATOM      7  C   LIG d   1       1.715  -1.291 -10.168  0.00  0.00    -0.061 A 
ATOM      8  C   LIG d   1       1.718   0.094 -10.108  0.00  0.00    -0.060 A 
ATOM      9  C   LIG d   1       2.512   0.794  -9.217  0.00  0.00    -0.038 A 
ATOM     10  C   LIG d   1       3.321   0.041  -8.367  0.00  0.00     0.047 A 
ATOM     11  N   LIG d   1       4.206   0.399  -7.391  0.00  0.00    -0.356 N 
ATOM     12  H   LIG d   1       4.412   1.311  -7.131  0.00  0.00     0.166 HD
ATOM     13  C   LIG d   1       4.646  -3.241  -7.080  0.00  0.00     0.002 C 
ATOM     14  C   LIG d   1       5.328  -3.244  -5.705  0.00  0.00     0.107 A 
ATOM     15  H   LIG d   1       4.572  -3.071  -4.938  0.00  0.00     0.060 H 
ATOM     16  N   LIG d   1       6.299  -2.150  -5.646  0.00  0.00    -0.276 N 
ATOM     17  C   LIG d   1       7.612  -2.347  -5.534  0.00  0.00     0.234 A 
ATOM     18  O   LIG d   1       8.334  -1.373  -5.564  0.00  0.00    -0.274 OA
ATOM     19  C   LIG d   1       8.255  -3.686  -5.370  0.00  0.00     0.092 A 
ATOM     20  N   LIG d   1       7.276  -4.758  -5.319  0.00  0.00    -0.287 N 
ATOM     21  C   LIG d   1       5.966  -4.573  -5.464  0.00  0.00     0.237 A 
ATOM     22  O   LIG d   1       5.244  -5.546  -5.395  0.00  0.00    -0.274 OA
ATOM     23  H   LIG d   1       2.494  -3.136  -9.398  0.00  0.00     0.062 H 
ATOM     24  H   LIG d   1       1.075  -1.782 -10.884  0.00  0.00     0.062 H 
ATOM     25  H   LIG d   1       1.079   0.646 -10.781  0.00  0.00     0.062 H 
ATOM     26  H   LIG d   1       2.505   1.873  -9.180  0.00  0.00     0.064 H 
ATOM     27  H   LIG d   1       3.754  -3.867  -7.047  0.00  0.00     0.034 H 
ATOM     28  H   LIG d   1       5.337  -3.626  -7.831  0.00  0.00     0.034 H 
ATOM     29  H   LIG d   1       8.836  -3.690  -4.448  0.00  0.00     0.056 H 
ATOM     30  H   LIG d   1       8.928  -3.859  -6.211  0.00  0.00     0.056 H 
ENDROOT
BRANCH   1  31
ATOM     31  C   LIG d   1       5.133  -0.390  -4.415  0.00  0.00     0.021 A 
ATOM     32  C   LIG d   1       5.874   0.246  -3.429  0.00  0.00     0.126 A 
ATOM     33  C   LIG d   1       5.271   0.595  -2.230  0.00  0.00    -0.020 A 
ATOM     34  C   LIG d   1       3.939   0.302  -2.016  0.00  0.00    -0.058 A 
ATOM     35  H   LIG d   1       5.844   1.095  -1.462  0.00  0.00     0.065 H 
ATOM     36  C   LIG d   1       3.202  -0.332  -3.000  0.00  0.00    -0.061 A 
ATOM     37  H   LIG d   1       3.470   0.572  -1.081  0.00  0.00     0.062 H 
ATOM     38  C   LIG d   1       3.799  -0.677  -4.198  0.00  0.00    -0.053 A 
ATOM     39  H   LIG d   1       2.159  -0.557  -2.832  0.00  0.00     0.062 H 
ATOM     40  H   LIG d   1       3.222  -1.172  -4.965  0.00  0.00     0.062 H 
BRANCH  32  41
ATOM     41  O   LIG d   1       7.185   0.529  -3.640  0.00  0.00    -0.492 OA
BRANCH  41  42
ATOM     42  C   LIG d   1       7.523   1.896  -3.885  0.00  0.00     0.087 C 
ATOM     43  H   LIG d   1       7.249   2.160  -4.907  0.00  0.00     0.069 H 
ATOM     44  H   LIG d   1       6.981   2.535  -3.187  0.00  0.00     0.069 H 
BRANCH  42  45
ATOM     45  C   LIG d   1       9.027   2.092  -3.694  0.00  0.00    -0.031 C 
ATOM     46  H   LIG d   1       9.231   3.136  -3.452  0.00  0.00     0.026 H 
ATOM     47  H   LIG d   1       9.377   1.456  -2.881  0.00  0.00     0.026 H 
ATOM     48  H   LIG d   1       9.549   1.826  -4.613  0.00  0.00     0.026 H 
ENDBRANCH  42  45
ENDBRANCH  41  42
ENDBRANCH  32  41
ENDBRANCH   1  31
BRANCH  20  49
ATOM     49  C   LIG d   1       7.760  -6.123  -5.092  0.00  0.00     0.040 C 
ATOM     50  H   LIG d   1       7.091  -6.635  -4.400  0.00  0.00     0.051 H 
ATOM     51  H   LIG d   1       7.785  -6.661  -6.039  0.00  0.00     0.051 H 
BRANCH  49  52
ATOM     52  C   LIG d   1       9.147  -6.073  -4.506  0.00  0.00    -0.026 A 
ATOM     53  C   LIG d   1      10.243  -6.342  -5.304  0.00  0.00    -0.011 A 
ATOM     54  C   LIG d   1      11.520  -6.292  -4.769  0.00  0.00     0.167 A 
ATOM     55  H   LIG d   1      10.104  -6.588  -6.348  0.00  0.00     0.066 H 
ATOM     56  C   LIG d   1      11.695  -5.982  -3.423  0.00  0.00     0.166 A 
ATOM     57  O   LIG d   1      12.746  -6.507  -5.331  0.00  0.00    -0.453 OA
ATOM     58  C   LIG d   1      10.592  -5.719  -2.627  0.00  0.00    -0.016 A 
ATOM     59  O   LIG d   1      13.030  -6.002  -3.140  0.00  0.00    -0.453 OA
ATOM     60  C   LIG d   1       9.321  -5.765  -3.170  0.00  0.00    -0.053 A 
ATOM     61  H   LIG d   1      10.725  -5.478  -1.584  0.00  0.00     0.066 H 
ATOM     62  H   LIG d   1       8.462  -5.560  -2.548  0.00  0.00     0.062 H 
ATOM     63  C   LIG d   1      13.694  -5.927  -4.416  0.00  0.00     0.233 C 
ATOM     64  H   LIG d   1      13.896  -4.888  -4.683  0.00  0.00     0.117 H 
ATOM     65  H   LIG d   1      14.618  -6.503  -4.402  0.00  0.00     0.117 H 
ENDBRANCH  49  52
ENDBRANCH  20  49
TORSDOF 6
ENDMDL
MODEL 10
REMARK VINA RESULT:      -7.2      3.847      6.724
REMARK  6 active torsions:
REMARK  status: ('A' for Active; 'I' for Inactive)
REMARK    1  A    between atoms: C_1  and  C_2 
REMARK    2  A    between atoms: C_2  and  O_3 
REMARK    3  A    between atoms: O_3  and  C_4 
REMARK    4  A    between atoms: C_9  and  C_10 
REMARK    5  A    between atoms: N_29  and  C_32 
REMARK    6  A    between atoms: C_32  and  C_33 
ROOT
ATOM      1  C   LIG d   1       6.505  -1.068  -4.884  0.00  0.00     0.096 C 
ATOM      2  H   LIG d   1       5.720  -0.956  -4.137  0.00  0.00     0.062 H 
ATOM      3  C   LIG d   1       7.415  -2.215  -4.506  0.00  0.00     0.046 A 
ATOM      4  C   LIG d   1       7.781  -3.190  -5.365  0.00  0.00    -0.015 A 
ATOM      5  C   LIG d   1       8.649  -4.092  -4.636  0.00  0.00     0.003 A 
ATOM      6  C   LIG d   1       9.321  -5.263  -5.002  0.00  0.00    -0.052 A 
ATOM      7  C   LIG d   1      10.074  -5.876  -4.030  0.00  0.00    -0.061 A 
ATOM      8  C   LIG d   1      10.170  -5.368  -2.744  0.00  0.00    -0.060 A 
ATOM      9  C   LIG d   1       9.515  -4.213  -2.355  0.00  0.00    -0.038 A 
ATOM     10  C   LIG d   1       8.745  -3.568  -3.322  0.00  0.00     0.047 A 
ATOM     11  N   LIG d   1       7.986  -2.434  -3.280  0.00  0.00    -0.356 N 
ATOM     12  H   LIG d   1       7.868  -1.869  -2.501  0.00  0.00     0.166 HD
ATOM     13  C   LIG d   1       7.335  -3.280  -6.802  0.00  0.00     0.002 C 
ATOM     14  C   LIG d   1       6.793  -1.912  -7.240  0.00  0.00     0.107 A 
ATOM     15  H   LIG d   1       7.629  -1.223  -7.354  0.00  0.00     0.060 H 
ATOM     16  N   LIG d   1       5.908  -1.389  -6.198  0.00  0.00    -0.276 N 
ATOM     17  C   LIG d   1       4.602  -1.197  -6.380  0.00  0.00     0.234 A 
ATOM     18  O   LIG d   1       3.947  -0.825  -5.429  0.00  0.00    -0.274 OA
ATOM     19  C   LIG d   1       3.889  -1.407  -7.677  0.00  0.00     0.092 A 
ATOM     20  N   LIG d   1       4.794  -1.821  -8.735  0.00  0.00    -0.287 N 
ATOM     21  C   LIG d   1       6.094  -2.047  -8.553  0.00  0.00     0.237 A 
ATOM     22  O   LIG d   1       6.752  -2.383  -9.516  0.00  0.00    -0.274 OA
ATOM     23  H   LIG d   1       9.252  -5.666  -6.001  0.00  0.00     0.062 H 
ATOM     24  H   LIG d   1      10.606  -6.782  -4.276  0.00  0.00     0.062 H 
ATOM     25  H   LIG d   1      10.775  -5.893  -2.020  0.00  0.00     0.062 H 
ATOM     26  H   LIG d   1       9.598  -3.827  -1.350  0.00  0.00     0.064 H 
ATOM     27  H   LIG d   1       8.182  -3.555  -7.431  0.00  0.00     0.034 H 
ATOM     28  H   LIG d   1       6.550  -4.031  -6.895  0.00  0.00     0.034 H 
ATOM     29  H   LIG d   1       3.402  -0.476  -7.968  0.00  0.00     0.056 H 
ATOM     30  H   LIG d   1       3.127  -2.175  -7.541  0.00  0.00     0.056 H 
ENDROOT
BRANCH   1  31
ATOM     31  C   LIG d   1       7.304   0.207  -4.983  0.00  0.00     0.021 A 
ATOM     32  C   LIG d   1       7.278   1.125  -3.943  0.00  0.00     0.126 A 
ATOM     33  C   LIG d   1       8.019   2.294  -4.034  0.00  0.00    -0.020 A 
ATOM     34  C   LIG d   1       8.772   2.547  -5.163  0.00  0.00    -0.058 A 
ATOM     35  H   LIG d   1       8.003   3.008  -3.224  0.00  0.00     0.065 H 
ATOM     36  C   LIG d   1       8.797   1.630  -6.199  0.00  0.00    -0.061 A 
ATOM     37  H   LIG d   1       9.346   3.458  -5.236  0.00  0.00     0.062 H 
ATOM     38  C   LIG d   1       8.063   0.462  -6.108  0.00  0.00    -0.053 A 
ATOM     39  H   LIG d   1       9.390   1.828  -7.080  0.00  0.00     0.062 H 
ATOM     40  H   LIG d   1       8.084  -0.252  -6.919  0.00  0.00     0.062 H 
BRANCH  32  41
ATOM     41  O   LIG d   1       6.532   0.876  -2.835  0.00  0.00    -0.492 OA
BRANCH  41  42
ATOM     42  C   LIG d   1       5.214   1.428  -2.802  0.00  0.00     0.087 C 
ATOM     43  H   LIG d   1       5.273   2.496  -2.594  0.00  0.00     0.069 H 
ATOM     44  H   LIG d   1       4.731   1.272  -3.767  0.00  0.00     0.069 H 
BRANCH  42  45
ATOM     45  C   LIG d   1       4.400   0.739  -1.706  0.00  0.00    -0.031 C 
ATOM     46  H   LIG d   1       5.047   0.513  -0.859  0.00  0.00     0.026 H 
ATOM     47  H   LIG d   1       3.594   1.398  -1.382  0.00  0.00     0.026 H 
ATOM     48  H   LIG d   1       3.976  -0.187  -2.095  0.00  0.00     0.026 H 
ENDBRANCH  42  45
ENDBRANCH  41  42
ENDBRANCH  32  41
ENDBRANCH   1  31
BRANCH  20  49
ATOM     49  C   LIG d   1       4.245  -1.998 -10.082  0.00  0.00     0.040 C 
ATOM     50  H   LIG d   1       3.684  -1.108 -10.366  0.00  0.00     0.051 H 
ATOM     51  H   LIG d   1       5.059  -2.155 -10.789  0.00  0.00     0.051 H 
BRANCH  49  52
ATOM     52  C   LIG d   1       3.329  -3.195 -10.097  0.00  0.00    -0.026 A 
ATOM     53  C   LIG d   1       1.982  -3.030 -10.359  0.00  0.00    -0.011 A 
ATOM     54  C   LIG d   1       1.140  -4.130 -10.379  0.00  0.00     0.167 A 
ATOM     55  H   LIG d   1       1.587  -2.043 -10.553  0.00  0.00     0.066 H 
ATOM     56  C   LIG d   1       1.652  -5.399 -10.122  0.00  0.00     0.166 A 
ATOM     57  O   LIG d   1      -0.201  -4.239 -10.611  0.00  0.00    -0.453 OA
ATOM     58  C   LIG d   1       3.002  -5.557  -9.854  0.00  0.00    -0.016 A 
ATOM     59  O   LIG d   1       0.632  -6.304 -10.194  0.00  0.00    -0.453 OA
ATOM     60  C   LIG d   1       3.838  -4.456  -9.842  0.00  0.00    -0.053 A 
ATOM     61  H   LIG d   1       3.401  -6.539  -9.655  0.00  0.00     0.066 H 
ATOM     62  H   LIG d   1       4.890  -4.580  -9.633  0.00  0.00     0.062 H 
ATOM     63  C   LIG d   1      -0.430  -5.631 -10.897  0.00  0.00     0.233 C 
ATOM     64  H   LIG d   1      -0.358  -5.819 -11.969  0.00  0.00     0.117 H 
ATOM     65  H   LIG d   1      -1.401  -5.948 -10.518  0.00  0.00     0.117 H 
ENDBRANCH  49  52
ENDBRANCH  20  49
TORSDOF 6
ENDMDL
