MODEL 1
REMARK VINA RESULT:      -7.0      0.000      0.000
REMARK  7 active torsions:
REMARK  status: ('A' for Active; 'I' for Inactive)
REMARK    1  A    between atoms: C_1  and  O_2 
REMARK    2  A    between atoms: O_2  and  C_3 
REMARK    3  A    between atoms: C_6  and  O_39 
REMARK    4  A    between atoms: C_7  and  N_9 
REMARK    5  A    between atoms: C_25  and  C_31 
REMARK    6  A    between atoms: C_31  and  C_33 
REMARK    7  A    between atoms: O_39  and  C_40 
ROOT
ATOM      1  N   LIG d   1       6.136  -4.513  -6.597  0.00  0.00    -0.206 N 
ATOM      2  C   LIG d   1       6.457  -4.175  -7.855  0.00  0.00     0.232 C 
ATOM      3  O   LIG d   1       7.578  -4.138  -8.313  0.00  0.00    -0.274 OA
ATOM      4  C   LIG d   1       5.182  -3.847  -8.607  0.00  0.00     0.072 C 
ATOM      5  H   LIG d   1       4.882  -4.641  -9.292  0.00  0.00     0.042 H 
ATOM      6  C   LIG d   1       5.322  -2.492  -9.302  0.00  0.00     0.055 C 
ATOM      7  H   LIG d   1       6.374  -2.209  -9.346  0.00  0.00     0.055 H 
ATOM      8  C   LIG d   1       4.746  -2.519 -10.691  0.00  0.00    -0.062 C 
ATOM      9  C   LIG d   1       4.158  -1.439 -11.199  0.00  0.00    -0.055 C 
ATOM     10  C   LIG d   1       4.049  -0.193 -10.417  0.00  0.00    -0.004 A 
ATOM     11  C   LIG d   1       3.758   1.028 -11.016  0.00  0.00    -0.053 A 
ATOM     12  C   LIG d   1       3.653   2.163 -10.235  0.00  0.00    -0.061 A 
ATOM     13  C   LIG d   1       3.833   2.096  -8.864  0.00  0.00    -0.060 A 
ATOM     14  C   LIG d   1       4.129   0.887  -8.255  0.00  0.00    -0.040 A 
ATOM     15  C   LIG d   1       4.244  -0.249  -9.023  0.00  0.00     0.038 A 
ATOM     16  N   LIG d   1       4.572  -1.500  -8.509  0.00  0.00    -0.311 N 
ATOM     17  C   LIG d   1       4.230  -2.086  -7.217  0.00  0.00     0.099 C 
ATOM     18  H   LIG d   1       3.260  -1.718  -6.882  0.00  0.00     0.059 H 
ATOM     19  C   LIG d   1       4.165  -3.627  -7.451  0.00  0.00     0.075 C 
ATOM     20  H   LIG d   1       3.163  -3.996  -7.672  0.00  0.00     0.043 H 
ATOM     21  C   LIG d   1       4.841  -4.341  -6.295  0.00  0.00     0.232 C 
ATOM     22  O   LIG d   1       4.302  -4.694  -5.268  0.00  0.00    -0.274 OA
ATOM     23  H   LIG d   1       4.811  -3.421 -11.281  0.00  0.00     0.059 H 
ATOM     24  H   LIG d   1       3.752  -1.477 -12.199  0.00  0.00     0.062 H 
ATOM     25  H   LIG d   1       3.616   1.089 -12.085  0.00  0.00     0.062 H 
ATOM     26  H   LIG d   1       3.429   3.112 -10.699  0.00  0.00     0.062 H 
ATOM     27  H   LIG d   1       3.741   2.991  -8.267  0.00  0.00     0.062 H 
ATOM     28  H   LIG d   1       4.268   0.838  -7.185  0.00  0.00     0.064 H 
ENDROOT
BRANCH   1  29
ATOM     29  C   LIG d   1       7.073  -5.010  -5.679  0.00  0.00     0.089 A 
ATOM     30  C   LIG d   1       7.245  -6.383  -5.530  0.00  0.00     0.142 A 
ATOM     31  C   LIG d   1       8.172  -6.871  -4.624  0.00  0.00    -0.015 A 
ATOM     32  C   LIG d   1       8.927  -5.995  -3.867  0.00  0.00    -0.016 A 
ATOM     33  H   LIG d   1       8.305  -7.936  -4.508  0.00  0.00     0.066 H 
ATOM     34  C   LIG d   1       8.759  -4.626  -4.013  0.00  0.00     0.122 A 
ATOM     35  H   LIG d   1       9.650  -6.378  -3.161  0.00  0.00     0.066 H 
ATOM     36  C   LIG d   1       7.829  -4.133  -4.914  0.00  0.00     0.005 A 
ATOM     37  H   LIG d   1       7.695  -3.067  -5.024  0.00  0.00     0.067 H 
BRANCH  30  38
ATOM     38  O   LIG d   1       6.502  -7.246  -6.276  0.00  0.00    -0.493 OA
BRANCH  38  39
ATOM     39  C   LIG d   1       5.565  -8.067  -5.577  0.00  0.00     0.079 C 
ATOM     40  H   LIG d   1       4.865  -7.434  -5.031  0.00  0.00     0.066 H 
ATOM     41  H   LIG d   1       5.018  -8.684  -6.290  0.00  0.00     0.066 H 
ATOM     42  H   LIG d   1       6.097  -8.710  -4.875  0.00  0.00     0.066 H 
ENDBRANCH  38  39
ENDBRANCH  30  38
BRANCH  34  43
ATOM     43  O   LIG d   1       9.504  -3.767  -3.267  0.00  0.00    -0.495 OA
BRANCH  43  44
ATOM     44  C   LIG d   1      10.845  -4.162  -2.969  0.00  0.00     0.079 C 
ATOM     45  H   LIG d   1      11.442  -4.139  -3.880  0.00  0.00     0.066 H 
ATOM     46  H   LIG d   1      11.271  -3.475  -2.238  0.00  0.00     0.066 H 
ATOM     47  H   LIG d   1      10.844  -5.172  -2.560  0.00  0.00     0.066 H 
ENDBRANCH  43  44
ENDBRANCH  34  43
ENDBRANCH   1  29
BRANCH  17  48
ATOM     48  C   LIG d   1       5.291  -1.755  -6.199  0.00  0.00     0.184 C 
ATOM     49  O   LIG d   1       6.442  -1.600  -6.551  0.00  0.00    -0.290 OA
BRANCH  48  50
ATOM     50  C   LIG d   1       4.931  -1.621  -4.779  0.00  0.00     0.019 A 
ATOM     51  C   LIG d   1       3.603  -1.386  -4.409  0.00  0.00    -0.051 A 
ATOM     52  C   LIG d   1       3.273  -1.266  -3.075  0.00  0.00    -0.061 A 
ATOM     53  H   LIG d   1       2.837  -1.303  -5.166  0.00  0.00     0.062 H 
ATOM     54  C   LIG d   1       4.255  -1.366  -2.104  0.00  0.00    -0.062 A 
ATOM     55  H   LIG d   1       2.248  -1.090  -2.788  0.00  0.00     0.062 H 
ATOM     56  C   LIG d   1       5.572  -1.593  -2.463  0.00  0.00    -0.061 A 
ATOM     57  H   LIG d   1       3.991  -1.267  -1.061  0.00  0.00     0.062 H 
ATOM     58  C   LIG d   1       5.917  -1.721  -3.792  0.00  0.00    -0.051 A 
ATOM     59  H   LIG d   1       6.332  -1.671  -1.699  0.00  0.00     0.062 H 
ATOM     60  H   LIG d   1       6.946  -1.898  -4.069  0.00  0.00     0.062 H 
ENDBRANCH  48  50
ENDBRANCH  17  48
TORSDOF 7
ENDMDL
MODEL 2
REMARK VINA RESULT:      -6.6      2.567      7.113
REMARK  7 active torsions:
REMARK  status: ('A' for Active; 'I' for Inactive)
REMARK    1  A    between atoms: C_1  and  O_2 
REMARK    2  A    between atoms: O_2  and  C_3 
REMARK    3  A    between atoms: C_6  and  O_39 
REMARK    4  A    between atoms: C_7  and  N_9 
REMARK    5  A    between atoms: C_25  and  C_31 
REMARK    6  A    between atoms: C_31  and  C_33 
REMARK    7  A    between atoms: O_39  and  C_40 
ROOT
ATOM      1  N   LIG d   1       5.191  -1.814  -5.752  0.00  0.00    -0.206 N 
ATOM      2  C   LIG d   1       5.097  -3.100  -5.380  0.00  0.00     0.232 C 
ATOM      3  O   LIG d   1       4.299  -3.550  -4.588  0.00  0.00    -0.274 OA
ATOM      4  C   LIG d   1       6.156  -3.894  -6.119  0.00  0.00     0.072 C 
ATOM      5  H   LIG d   1       5.744  -4.486  -6.937  0.00  0.00     0.042 H 
ATOM      6  C   LIG d   1       6.959  -4.737  -5.127  0.00  0.00     0.055 C 
ATOM      7  H   LIG d   1       6.420  -4.805  -4.182  0.00  0.00     0.055 H 
ATOM      8  C   LIG d   1       7.223  -6.119  -5.660  0.00  0.00    -0.062 C 
ATOM      9  C   LIG d   1       8.356  -6.751  -5.367  0.00  0.00    -0.055 C 
ATOM     10  C   LIG d   1       9.383  -6.117  -4.520  0.00  0.00    -0.004 A 
ATOM     11  C   LIG d   1      10.401  -6.853  -3.922  0.00  0.00    -0.053 A 
ATOM     12  C   LIG d   1      11.346  -6.207  -3.149  0.00  0.00    -0.061 A 
ATOM     13  C   LIG d   1      11.292  -4.836  -2.966  0.00  0.00    -0.060 A 
ATOM     14  C   LIG d   1      10.281  -4.091  -3.550  0.00  0.00    -0.040 A 
ATOM     15  C   LIG d   1       9.328  -4.724  -4.316  0.00  0.00     0.038 A 
ATOM     16  N   LIG d   1       8.256  -4.068  -4.914  0.00  0.00    -0.311 N 
ATOM     17  C   LIG d   1       8.193  -2.721  -5.470  0.00  0.00     0.099 C 
ATOM     18  H   LIG d   1       9.161  -2.437  -5.882  0.00  0.00     0.059 H 
ATOM     19  C   LIG d   1       7.124  -2.778  -6.607  0.00  0.00     0.075 C 
ATOM     20  H   LIG d   1       7.545  -2.964  -7.595  0.00  0.00     0.043 H 
ATOM     21  C   LIG d   1       6.245  -1.543  -6.535  0.00  0.00     0.232 C 
ATOM     22  O   LIG d   1       6.461  -0.486  -7.089  0.00  0.00    -0.274 OA
ATOM     23  H   LIG d   1       6.486  -6.602  -6.286  0.00  0.00     0.059 H 
ATOM     24  H   LIG d   1       8.527  -7.743  -5.757  0.00  0.00     0.062 H 
ATOM     25  H   LIG d   1      10.451  -7.923  -4.061  0.00  0.00     0.062 H 
ATOM     26  H   LIG d   1      12.137  -6.777  -2.684  0.00  0.00     0.062 H 
ATOM     27  H   LIG d   1      12.043  -4.345  -2.363  0.00  0.00     0.062 H 
ATOM     28  H   LIG d   1      10.242  -3.021  -3.406  0.00  0.00     0.064 H 
ENDROOT
BRANCH   1  29
ATOM     29  C   LIG d   1       4.262  -0.838  -5.360  0.00  0.00     0.089 A 
ATOM     30  C   LIG d   1       3.332  -0.352  -6.275  0.00  0.00     0.142 A 
ATOM     31  C   LIG d   1       2.415   0.611  -5.885  0.00  0.00    -0.015 A 
ATOM     32  C   LIG d   1       2.424   1.089  -4.588  0.00  0.00    -0.016 A 
ATOM     33  H   LIG d   1       1.695   0.988  -6.595  0.00  0.00     0.066 H 
ATOM     34  C   LIG d   1       3.348   0.607  -3.674  0.00  0.00     0.122 A 
ATOM     35  H   LIG d   1       1.707   1.840  -4.286  0.00  0.00     0.066 H 
ATOM     36  C   LIG d   1       4.271  -0.352  -4.060  0.00  0.00     0.005 A 
ATOM     37  H   LIG d   1       4.994  -0.724  -3.349  0.00  0.00     0.067 H 
BRANCH  30  38
ATOM     38  O   LIG d   1       3.324  -0.823  -7.551  0.00  0.00    -0.493 OA
BRANCH  38  39
ATOM     39  C   LIG d   1       2.399  -0.221  -8.459  0.00  0.00     0.079 C 
ATOM     40  H   LIG d   1       2.053  -0.967  -9.174  0.00  0.00     0.066 H 
ATOM     41  H   LIG d   1       1.548   0.173  -7.903  0.00  0.00     0.066 H 
ATOM     42  H   LIG d   1       2.891   0.593  -8.993  0.00  0.00     0.066 H 
ENDBRANCH  38  39
ENDBRANCH  30  38
BRANCH  34  43
ATOM     43  O   LIG d   1       3.353   1.079  -2.399  0.00  0.00    -0.495 OA
BRANCH  43  44
ATOM     44  C   LIG d   1       4.548   0.882  -1.639  0.00  0.00     0.079 C 
ATOM     45  H   LIG d   1       4.444  -0.011  -1.023  0.00  0.00     0.066 H 
ATOM     46  H   LIG d   1       5.393   0.760  -2.317  0.00  0.00     0.066 H 
ATOM     47  H   LIG d   1       4.718   1.748  -0.999  0.00  0.00     0.066 H 
ENDBRANCH  43  44
ENDBRANCH  34  43
ENDBRANCH   1  29
BRANCH  17  48
ATOM     48  C   LIG d   1       7.772  -1.739  -4.407  0.00  0.00     0.184 C 
ATOM     49  O   LIG d   1       7.093  -2.111  -3.472  0.00  0.00    -0.290 OA
BRANCH  48  50
ATOM     50  C   LIG d   1       8.185  -0.330  -4.502  0.00  0.00     0.019 A 
ATOM     51  C   LIG d   1       9.315   0.023  -5.247  0.00  0.00    -0.051 A 
ATOM     52  C   LIG d   1       9.692   1.347  -5.335  0.00  0.00    -0.061 A 
ATOM     53  H   LIG d   1       9.887  -0.739  -5.755  0.00  0.00     0.062 H 
ATOM     54  C   LIG d   1       8.963   2.323  -4.680  0.00  0.00    -0.062 A 
ATOM     55  H   LIG d   1      10.562   1.621  -5.914  0.00  0.00     0.062 H 
ATOM     56  C   LIG d   1       7.847   1.981  -3.936  0.00  0.00    -0.061 A 
ATOM     57  H   LIG d   1       9.266   3.358  -4.749  0.00  0.00     0.062 H 
ATOM     58  C   LIG d   1       7.454   0.663  -3.843  0.00  0.00    -0.051 A 
ATOM     59  H   LIG d   1       7.282   2.749  -3.428  0.00  0.00     0.062 H 
ATOM     60  H   LIG d   1       6.582   0.399  -3.262  0.00  0.00     0.062 H 
ENDBRANCH  48  50
ENDBRANCH  17  48
TORSDOF 7
ENDMDL
MODEL 3
REMARK VINA RESULT:      -6.6      5.065      7.704
REMARK  7 active torsions:
REMARK  status: ('A' for Active; 'I' for Inactive)
REMARK    1  A    between atoms: C_1  and  O_2 
REMARK    2  A    between atoms: O_2  and  C_3 
REMARK    3  A    between atoms: C_6  and  O_39 
REMARK    4  A    between atoms: C_7  and  N_9 
REMARK    5  A    between atoms: C_25  and  C_31 
REMARK    6  A    between atoms: C_31  and  C_33 
REMARK    7  A    between atoms: O_39  and  C_40 
ROOT
ATOM      1  N   LIG d   1       9.532   0.373  -7.599  0.00  0.00    -0.206 N 
ATOM      2  C   LIG d   1       8.507  -0.489  -7.672  0.00  0.00     0.232 C 
ATOM      3  O   LIG d   1       7.706  -0.560  -8.578  0.00  0.00    -0.274 OA
ATOM      4  C   LIG d   1       8.518  -1.358  -6.430  0.00  0.00     0.072 C 
ATOM      5  H   LIG d   1       8.892  -2.364  -6.624  0.00  0.00     0.042 H 
ATOM      6  C   LIG d   1       7.131  -1.361  -5.785  0.00  0.00     0.055 C 
ATOM      7  H   LIG d   1       6.394  -0.990  -6.497  0.00  0.00     0.055 H 
ATOM      8  C   LIG d   1       6.739  -2.735  -5.318  0.00  0.00    -0.062 C 
ATOM      9  C   LIG d   1       5.998  -2.892  -4.225  0.00  0.00    -0.055 C 
ATOM     10  C   LIG d   1       5.546  -1.728  -3.439  0.00  0.00    -0.004 A 
ATOM     11  C   LIG d   1       4.514  -1.822  -2.512  0.00  0.00    -0.053 A 
ATOM     12  C   LIG d   1       4.139  -0.704  -1.792  0.00  0.00    -0.061 A 
ATOM     13  C   LIG d   1       4.783   0.507  -1.983  0.00  0.00    -0.060 A 
ATOM     14  C   LIG d   1       5.810   0.617  -2.907  0.00  0.00    -0.040 A 
ATOM     15  C   LIG d   1       6.186  -0.488  -3.636  0.00  0.00     0.038 A 
ATOM     16  N   LIG d   1       7.180  -0.470  -4.610  0.00  0.00    -0.311 N 
ATOM     17  C   LIG d   1       8.410   0.313  -4.658  0.00  0.00     0.099 C 
ATOM     18  H   LIG d   1       8.785   0.487  -3.650  0.00  0.00     0.059 H 
ATOM     19  C   LIG d   1       9.432  -0.546  -5.468  0.00  0.00     0.075 C 
ATOM     20  H   LIG d   1      10.074  -1.168  -4.844  0.00  0.00     0.043 H 
ATOM     21  C   LIG d   1      10.190   0.348  -6.431  0.00  0.00     0.232 C 
ATOM     22  O   LIG d   1      11.218   0.943  -6.185  0.00  0.00    -0.274 OA
ATOM     23  H   LIG d   1       7.060  -3.603  -5.876  0.00  0.00     0.059 H 
ATOM     24  H   LIG d   1       5.724  -3.887  -3.907  0.00  0.00     0.062 H 
ATOM     25  H   LIG d   1       4.007  -2.763  -2.357  0.00  0.00     0.062 H 
ATOM     26  H   LIG d   1       3.337  -0.775  -1.073  0.00  0.00     0.062 H 
ATOM     27  H   LIG d   1       4.483   1.371  -1.407  0.00  0.00     0.062 H 
ATOM     28  H   LIG d   1       6.310   1.563  -3.052  0.00  0.00     0.064 H 
ENDROOT
BRANCH   1  29
ATOM     29  C   LIG d   1       9.890   1.223  -8.656  0.00  0.00     0.089 A 
ATOM     30  C   LIG d   1      10.927   0.870  -9.516  0.00  0.00     0.142 A 
ATOM     31  C   LIG d   1      11.277   1.710 -10.560  0.00  0.00    -0.015 A 
ATOM     32  C   LIG d   1      10.598   2.899 -10.749  0.00  0.00    -0.016 A 
ATOM     33  H   LIG d   1      12.082   1.437 -11.226  0.00  0.00     0.066 H 
ATOM     34  C   LIG d   1       9.563   3.254  -9.896  0.00  0.00     0.122 A 
ATOM     35  H   LIG d   1      10.872   3.553 -11.565  0.00  0.00     0.066 H 
ATOM     36  C   LIG d   1       9.213   2.419  -8.847  0.00  0.00     0.005 A 
ATOM     37  H   LIG d   1       8.411   2.697  -8.179  0.00  0.00     0.067 H 
BRANCH  30  38
ATOM     38  O   LIG d   1      11.596  -0.301  -9.330  0.00  0.00    -0.493 OA
BRANCH  38  39
ATOM     39  C   LIG d   1      13.010  -0.217  -9.143  0.00  0.00     0.079 C 
ATOM     40  H   LIG d   1      13.427  -1.221  -9.075  0.00  0.00     0.066 H 
ATOM     41  H   LIG d   1      13.458   0.308  -9.986  0.00  0.00     0.066 H 
ATOM     42  H   LIG d   1      13.223   0.328  -8.222  0.00  0.00     0.066 H 
ENDBRANCH  38  39
ENDBRANCH  30  38
BRANCH  34  43
ATOM     43  O   LIG d   1       8.897   4.423 -10.085  0.00  0.00    -0.495 OA
BRANCH  43  44
ATOM     44  C   LIG d   1       9.232   5.508  -9.216  0.00  0.00     0.079 C 
ATOM     45  H   LIG d   1       8.318   5.970  -8.843  0.00  0.00     0.066 H 
ATOM     46  H   LIG d   1       9.818   5.133  -8.377  0.00  0.00     0.066 H 
ATOM     47  H   LIG d   1       9.815   6.247  -9.765  0.00  0.00     0.066 H 
ENDBRANCH  43  44
ENDBRANCH  34  43
ENDBRANCH   1  29
BRANCH  17  48
ATOM     48  C   LIG d   1       8.164   1.626  -5.355  0.00  0.00     0.184 C 
ATOM     49  O   LIG d   1       7.369   1.687  -6.271  0.00  0.00    -0.290 OA
BRANCH  48  50
ATOM     50  C   LIG d   1       8.886   2.834  -4.926  0.00  0.00     0.019 A 
ATOM     51  C   LIG d   1       9.202   3.831  -5.854  0.00  0.00    -0.051 A 
ATOM     52  C   LIG d   1       9.876   4.963  -5.443  0.00  0.00    -0.061 A 
ATOM     53  H   LIG d   1       8.915   3.718  -6.889  0.00  0.00     0.062 H 
ATOM     54  C   LIG d   1      10.249   5.107  -4.118  0.00  0.00    -0.062 A 
ATOM     55  H   LIG d   1      10.116   5.735  -6.158  0.00  0.00     0.062 H 
ATOM     56  C   LIG d   1       9.945   4.122  -3.195  0.00  0.00    -0.061 A 
ATOM     57  H   LIG d   1      10.780   5.993  -3.803  0.00  0.00     0.062 H 
ATOM     58  C   LIG d   1       9.267   2.987  -3.590  0.00  0.00    -0.051 A 
ATOM     59  H   LIG d   1      10.239   4.242  -2.163  0.00  0.00     0.062 H 
ATOM     60  H   LIG d   1       9.031   2.220  -2.867  0.00  0.00     0.062 H 
ENDBRANCH  48  50
ENDBRANCH  17  48
TORSDOF 7
ENDMDL
MODEL 4
REMARK VINA RESULT:      -6.3      2.773      6.037
REMARK  7 active torsions:
REMARK  status: ('A' for Active; 'I' for Inactive)
REMARK    1  A    between atoms: C_1  and  O_2 
REMARK    2  A    between atoms: O_2  and  C_3 
REMARK    3  A    between atoms: C_6  and  O_39 
REMARK    4  A    between atoms: C_7  and  N_9 
REMARK    5  A    between atoms: C_25  and  C_31 
REMARK    6  A    between atoms: C_31  and  C_33 
REMARK    7  A    between atoms: O_39  and  C_40 
ROOT
ATOM      1  N   LIG d   1       6.022  -0.876  -5.366  0.00  0.00    -0.206 N 
ATOM      2  C   LIG d   1       6.468  -2.142  -5.352  0.00  0.00     0.232 C 
ATOM      3  O   LIG d   1       7.630  -2.482  -5.330  0.00  0.00    -0.274 OA
ATOM      4  C   LIG d   1       5.273  -3.075  -5.366  0.00  0.00     0.072 C 
ATOM      5  H   LIG d   1       5.079  -3.525  -4.392  0.00  0.00     0.042 H 
ATOM      6  C   LIG d   1       5.440  -4.117  -6.472  0.00  0.00     0.055 C 
ATOM      7  H   LIG d   1       6.479  -4.140  -6.801  0.00  0.00     0.055 H 
ATOM      8  C   LIG d   1       5.022  -5.486  -6.013  0.00  0.00    -0.062 C 
ATOM      9  C   LIG d   1       4.455  -6.340  -6.861  0.00  0.00    -0.055 C 
ATOM     10  C   LIG d   1       4.216  -5.968  -8.268  0.00  0.00    -0.004 A 
ATOM     11  C   LIG d   1       3.950  -6.921  -9.246  0.00  0.00    -0.053 A 
ATOM     12  C   LIG d   1       3.719  -6.517 -10.547  0.00  0.00    -0.061 A 
ATOM     13  C   LIG d   1       3.748  -5.175 -10.886  0.00  0.00    -0.060 A 
ATOM     14  C   LIG d   1       4.018  -4.215  -9.924  0.00  0.00    -0.040 A 
ATOM     15  C   LIG d   1       4.257  -4.605  -8.625  0.00  0.00     0.038 A 
ATOM     16  N   LIG d   1       4.572  -3.721  -7.597  0.00  0.00    -0.311 N 
ATOM     17  C   LIG d   1       4.110  -2.354  -7.383  0.00  0.00     0.099 C 
ATOM     18  H   LIG d   1       3.097  -2.235  -7.767  0.00  0.00     0.059 H 
ATOM     19  C   LIG d   1       4.127  -2.135  -5.838  0.00  0.00     0.075 C 
ATOM     20  H   LIG d   1       3.169  -2.334  -5.356  0.00  0.00     0.043 H 
ATOM     21  C   LIG d   1       4.696  -0.762  -5.530  0.00  0.00     0.232 C 
ATOM     22  O   LIG d   1       4.059   0.267  -5.450  0.00  0.00    -0.274 OA
ATOM     23  H   LIG d   1       5.185  -5.780  -4.986  0.00  0.00     0.059 H 
ATOM     24  H   LIG d   1       4.165  -7.320  -6.513  0.00  0.00     0.062 H 
ATOM     25  H   LIG d   1       3.925  -7.970  -8.990  0.00  0.00     0.062 H 
ATOM     26  H   LIG d   1       3.513  -7.256 -11.307  0.00  0.00     0.062 H 
ATOM     27  H   LIG d   1       3.559  -4.875 -11.906  0.00  0.00     0.062 H 
ATOM     28  H   LIG d   1       4.039  -3.169 -10.191  0.00  0.00     0.064 H 
ENDROOT
BRANCH   1  29
ATOM     29  C   LIG d   1       6.869   0.232  -5.215  0.00  0.00     0.089 A 
ATOM     30  C   LIG d   1       7.038   0.815  -3.962  0.00  0.00     0.142 A 
ATOM     31  C   LIG d   1       7.877   1.909  -3.815  0.00  0.00    -0.015 A 
ATOM     32  C   LIG d   1       8.544   2.420  -4.912  0.00  0.00    -0.016 A 
ATOM     33  H   LIG d   1       8.008   2.361  -2.844  0.00  0.00     0.066 H 
ATOM     34  C   LIG d   1       8.379   1.841  -6.161  0.00  0.00     0.122 A 
ATOM     35  H   LIG d   1       9.198   3.273  -4.795  0.00  0.00     0.066 H 
ATOM     36  C   LIG d   1       7.537   0.751  -6.314  0.00  0.00     0.005 A 
ATOM     37  H   LIG d   1       7.404   0.303  -7.288  0.00  0.00     0.067 H 
BRANCH  30  38
ATOM     38  O   LIG d   1       6.381   0.311  -2.882  0.00  0.00    -0.493 OA
BRANCH  38  39
ATOM     39  C   LIG d   1       5.286   1.076  -2.374  0.00  0.00     0.079 C 
ATOM     40  H   LIG d   1       5.589   2.117  -2.266  0.00  0.00     0.066 H 
ATOM     41  H   LIG d   1       4.445   1.010  -3.065  0.00  0.00     0.066 H 
ATOM     42  H   LIG d   1       4.988   0.681  -1.402  0.00  0.00     0.066 H 
ENDBRANCH  38  39
ENDBRANCH  30  38
BRANCH  34  43
ATOM     43  O   LIG d   1       9.037   2.347  -7.237  0.00  0.00    -0.495 OA
BRANCH  43  44
ATOM     44  C   LIG d   1       9.684   3.610  -7.067  0.00  0.00     0.079 C 
ATOM     45  H   LIG d   1      10.036   3.972  -8.033  0.00  0.00     0.066 H 
ATOM     46  H   LIG d   1       8.978   4.326  -6.646  0.00  0.00     0.066 H 
ATOM     47  H   LIG d   1      10.532   3.496  -6.391  0.00  0.00     0.066 H 
ENDBRANCH  43  44
ENDBRANCH  34  43
ENDBRANCH   1  29
BRANCH  17  48
ATOM     48  C   LIG d   1       5.039  -1.379  -8.060  0.00  0.00     0.184 C 
ATOM     49  O   LIG d   1       6.205  -1.671  -8.230  0.00  0.00    -0.290 OA
BRANCH  48  50
ATOM     50  C   LIG d   1       4.534  -0.075  -8.514  0.00  0.00     0.019 A 
ATOM     51  C   LIG d   1       3.160   0.128  -8.679  0.00  0.00    -0.051 A 
ATOM     52  C   LIG d   1       2.693   1.356  -9.100  0.00  0.00    -0.061 A 
ATOM     53  H   LIG d   1       2.466  -0.673  -8.473  0.00  0.00     0.062 H 
ATOM     54  C   LIG d   1       3.582   2.382  -9.370  0.00  0.00    -0.062 A 
ATOM     55  H   LIG d   1       1.633   1.515  -9.224  0.00  0.00     0.062 H 
ATOM     56  C   LIG d   1       4.943   2.188  -9.214  0.00  0.00    -0.061 A 
ATOM     57  H   LIG d   1       3.211   3.340  -9.704  0.00  0.00     0.062 H 
ATOM     58  C   LIG d   1       5.425   0.968  -8.789  0.00  0.00    -0.051 A 
ATOM     59  H   LIG d   1       5.630   2.994  -9.426  0.00  0.00     0.062 H 
ATOM     60  H   LIG d   1       6.487   0.818  -8.667  0.00  0.00     0.062 H 
ENDBRANCH  48  50
ENDBRANCH  17  48
TORSDOF 7
ENDMDL
MODEL 5
REMARK VINA RESULT:      -6.2      3.263      4.514
REMARK  7 active torsions:
REMARK  status: ('A' for Active; 'I' for Inactive)
REMARK    1  A    between atoms: C_1  and  O_2 
REMARK    2  A    between atoms: O_2  and  C_3 
REMARK    3  A    between atoms: C_6  and  O_39 
REMARK    4  A    between atoms: C_7  and  N_9 
REMARK    5  A    between atoms: C_25  and  C_31 
REMARK    6  A    between atoms: C_31  and  C_33 
REMARK    7  A    between atoms: O_39  and  C_40 
ROOT
ATOM      1  N   LIG d   1       8.630  -0.603  -6.564  0.00  0.00    -0.206 N 
ATOM      2  C   LIG d   1       8.466  -0.228  -7.842  0.00  0.00     0.232 C 
ATOM      3  O   LIG d   1       8.833   0.820  -8.325  0.00  0.00    -0.274 OA
ATOM      4  C   LIG d   1       7.744  -1.338  -8.581  0.00  0.00     0.072 C 
ATOM      5  H   LIG d   1       8.407  -1.916  -9.225  0.00  0.00     0.042 H 
ATOM      6  C   LIG d   1       6.544  -0.764  -9.337  0.00  0.00     0.055 C 
ATOM      7  H   LIG d   1       6.643   0.318  -9.415  0.00  0.00     0.055 H 
ATOM      8  C   LIG d   1       6.416  -1.362 -10.711  0.00  0.00    -0.062 C 
ATOM      9  C   LIG d   1       5.218  -1.560 -11.252  0.00  0.00    -0.055 C 
ATOM     10  C   LIG d   1       3.986  -1.207 -10.523  0.00  0.00    -0.004 A 
ATOM     11  C   LIG d   1       2.760  -1.080 -11.168  0.00  0.00    -0.053 A 
ATOM     12  C   LIG d   1       1.633  -0.761 -10.435  0.00  0.00    -0.061 A 
ATOM     13  C   LIG d   1       1.712  -0.569  -9.066  0.00  0.00    -0.060 A 
ATOM     14  C   LIG d   1       2.928  -0.686  -8.411  0.00  0.00    -0.040 A 
ATOM     15  C   LIG d   1       4.059  -0.995  -9.132  0.00  0.00     0.038 A 
ATOM     16  N   LIG d   1       5.329  -1.100  -8.571  0.00  0.00    -0.311 N 
ATOM     17  C   LIG d   1       5.716  -1.578  -7.249  0.00  0.00     0.099 C 
ATOM     18  H   LIG d   1       5.025  -2.350  -6.910  0.00  0.00     0.059 H 
ATOM     19  C   LIG d   1       7.148  -2.177  -7.414  0.00  0.00     0.075 C 
ATOM     20  H   LIG d   1       7.156  -3.252  -7.599  0.00  0.00     0.043 H 
ATOM     21  C   LIG d   1       8.012  -1.749  -6.243  0.00  0.00     0.232 C 
ATOM     22  O   LIG d   1       8.123  -2.341  -5.190  0.00  0.00    -0.274 OA
ATOM     23  H   LIG d   1       7.305  -1.632 -11.263  0.00  0.00     0.059 H 
ATOM     24  H   LIG d   1       5.146  -1.988 -12.242  0.00  0.00     0.062 H 
ATOM     25  H   LIG d   1       2.689  -1.229 -12.235  0.00  0.00     0.062 H 
ATOM     26  H   LIG d   1       0.681  -0.662 -10.934  0.00  0.00     0.062 H 
ATOM     27  H   LIG d   1       0.821  -0.326  -8.506  0.00  0.00     0.062 H 
ATOM     28  H   LIG d   1       2.986  -0.535  -7.343  0.00  0.00     0.064 H 
ENDROOT
BRANCH   1  29
ATOM     29  C   LIG d   1       9.389   0.137  -5.645  0.00  0.00     0.089 A 
ATOM     30  C   LIG d   1      10.743  -0.141  -5.473  0.00  0.00     0.142 A 
ATOM     31  C   LIG d   1      11.490   0.593  -4.566  0.00  0.00    -0.015 A 
ATOM     32  C   LIG d   1      10.892   1.600  -3.832  0.00  0.00    -0.016 A 
ATOM     33  H   LIG d   1      12.539   0.377  -4.432  0.00  0.00     0.066 H 
ATOM     34  C   LIG d   1       9.545   1.880  -4.001  0.00  0.00     0.122 A 
ATOM     35  H   LIG d   1      11.478   2.171  -3.125  0.00  0.00     0.066 H 
ATOM     36  C   LIG d   1       8.792   1.146  -4.903  0.00  0.00     0.005 A 
ATOM     37  H   LIG d   1       7.741   1.361  -5.032  0.00  0.00     0.067 H 
BRANCH  30  38
ATOM     38  O   LIG d   1      11.331  -1.132  -6.196  0.00  0.00    -0.493 OA
BRANCH  38  39
ATOM     39  C   LIG d   1      11.870  -2.235  -5.466  0.00  0.00     0.079 C 
ATOM     40  H   LIG d   1      11.960  -3.098  -6.125  0.00  0.00     0.066 H 
ATOM     41  H   LIG d   1      12.854  -1.969  -5.078  0.00  0.00     0.066 H 
ATOM     42  H   LIG d   1      11.207  -2.480  -4.635  0.00  0.00     0.066 H 
ENDBRANCH  38  39
ENDBRANCH  30  38
BRANCH  34  43
ATOM     43  O   LIG d   1       8.961   2.872  -3.277  0.00  0.00    -0.495 OA
BRANCH  43  44
ATOM     44  C   LIG d   1       9.737   4.050  -3.047  0.00  0.00     0.079 C 
ATOM     45  H   LIG d   1       9.337   4.586  -2.186  0.00  0.00     0.066 H 
ATOM     46  H   LIG d   1      10.772   3.769  -2.851  0.00  0.00     0.066 H 
ATOM     47  H   LIG d   1       9.695   4.691  -3.927  0.00  0.00     0.066 H 
ENDBRANCH  43  44
ENDBRANCH  34  43
ENDBRANCH   1  29
BRANCH  17  48
ATOM     48  C   LIG d   1       5.739  -0.434  -6.268  0.00  0.00     0.184 C 
ATOM     49  O   LIG d   1       6.060   0.676  -6.639  0.00  0.00    -0.290 OA
BRANCH  48  50
ATOM     50  C   LIG d   1       5.371  -0.662  -4.862  0.00  0.00     0.019 A 
ATOM     51  C   LIG d   1       5.707   0.280  -3.885  0.00  0.00    -0.051 A 
ATOM     52  C   LIG d   1       5.355   0.061  -2.570  0.00  0.00    -0.061 A 
ATOM     53  H   LIG d   1       6.237   1.180  -4.161  0.00  0.00     0.062 H 
ATOM     54  C   LIG d   1       4.681  -1.095  -2.214  0.00  0.00    -0.062 A 
ATOM     55  H   LIG d   1       5.610   0.790  -1.816  0.00  0.00     0.062 H 
ATOM     56  C   LIG d   1       4.350  -2.034  -3.174  0.00  0.00    -0.061 A 
ATOM     57  H   LIG d   1       4.412  -1.263  -1.181  0.00  0.00     0.062 H 
ATOM     58  C   LIG d   1       4.691  -1.827  -4.494  0.00  0.00    -0.051 A 
ATOM     59  H   LIG d   1       3.823  -2.933  -2.888  0.00  0.00     0.062 H 
ATOM     60  H   LIG d   1       4.431  -2.562  -5.242  0.00  0.00     0.062 H 
ENDBRANCH  48  50
ENDBRANCH  17  48
TORSDOF 7
ENDMDL
MODEL 6
REMARK VINA RESULT:      -6.1      2.645      7.454
REMARK  7 active torsions:
REMARK  status: ('A' for Active; 'I' for Inactive)
REMARK    1  A    between atoms: C_1  and  O_2 
REMARK    2  A    between atoms: O_2  and  C_3 
REMARK    3  A    between atoms: C_6  and  O_39 
REMARK    4  A    between atoms: C_7  and  N_9 
REMARK    5  A    between atoms: C_25  and  C_31 
REMARK    6  A    between atoms: C_31  and  C_33 
REMARK    7  A    between atoms: O_39  and  C_40 
ROOT
ATOM      1  N   LIG d   1       7.366  -0.008  -6.901  0.00  0.00    -0.206 N 
ATOM      2  C   LIG d   1       8.371  -0.762  -7.369  0.00  0.00     0.232 C 
ATOM      3  O   LIG d   1       8.377  -1.356  -8.425  0.00  0.00    -0.274 OA
ATOM      4  C   LIG d   1       9.499  -0.747  -6.356  0.00  0.00     0.072 C 
ATOM      5  H   LIG d   1      10.330  -0.110  -6.660  0.00  0.00     0.042 H 
ATOM      6  C   LIG d   1       9.939  -2.179  -6.047  0.00  0.00     0.055 C 
ATOM      7  H   LIG d   1       9.561  -2.853  -6.815  0.00  0.00     0.055 H 
ATOM      8  C   LIG d   1      11.436  -2.294  -5.964  0.00  0.00    -0.062 C 
ATOM      9  C   LIG d   1      12.003  -3.147  -5.115  0.00  0.00    -0.055 C 
ATOM     10  C   LIG d   1      11.183  -3.997  -4.231  0.00  0.00    -0.004 A 
ATOM     11  C   LIG d   1      11.708  -5.116  -3.593  0.00  0.00    -0.053 A 
ATOM     12  C   LIG d   1      10.900  -5.869  -2.764  0.00  0.00    -0.061 A 
ATOM     13  C   LIG d   1       9.576  -5.521  -2.560  0.00  0.00    -0.060 A 
ATOM     14  C   LIG d   1       9.038  -4.412  -3.193  0.00  0.00    -0.040 A 
ATOM     15  C   LIG d   1       9.831  -3.658  -4.028  0.00  0.00     0.038 A 
ATOM     16  N   LIG d   1       9.373  -2.549  -4.736  0.00  0.00    -0.311 N 
ATOM     17  C   LIG d   1       8.372  -1.560  -4.353  0.00  0.00     0.099 C 
ATOM     18  H   LIG d   1       8.380  -1.415  -3.273  0.00  0.00     0.059 H 
ATOM     19  C   LIG d   1       8.782  -0.237  -5.073  0.00  0.00     0.075 C 
ATOM     20  H   LIG d   1       9.397   0.423  -4.461  0.00  0.00     0.043 H 
ATOM     21  C   LIG d   1       7.545   0.429  -5.645  0.00  0.00     0.232 C 
ATOM     22  O   LIG d   1       6.835   1.222  -5.065  0.00  0.00    -0.274 OA
ATOM     23  H   LIG d   1      12.057  -1.679  -6.600  0.00  0.00     0.059 H 
ATOM     24  H   LIG d   1      13.079  -3.217  -5.072  0.00  0.00     0.062 H 
ATOM     25  H   LIG d   1      12.740  -5.394  -3.746  0.00  0.00     0.062 H 
ATOM     26  H   LIG d   1      11.306  -6.739  -2.268  0.00  0.00     0.062 H 
ATOM     27  H   LIG d   1       8.959  -6.117  -1.903  0.00  0.00     0.062 H 
ATOM     28  H   LIG d   1       8.005  -4.143  -3.032  0.00  0.00     0.064 H 
ENDROOT
BRANCH   1  29
ATOM     29  C   LIG d   1       6.228   0.303  -7.660  0.00  0.00     0.089 A 
ATOM     30  C   LIG d   1       6.220   1.431  -8.476  0.00  0.00     0.142 A 
ATOM     31  C   LIG d   1       5.095   1.734  -9.226  0.00  0.00    -0.015 A 
ATOM     32  C   LIG d   1       3.982   0.918  -9.165  0.00  0.00    -0.016 A 
ATOM     33  H   LIG d   1       5.089   2.610  -9.858  0.00  0.00     0.066 H 
ATOM     34  C   LIG d   1       3.987  -0.208  -8.354  0.00  0.00     0.122 A 
ATOM     35  H   LIG d   1       3.106   1.156  -9.752  0.00  0.00     0.066 H 
ATOM     36  C   LIG d   1       5.107  -0.512  -7.598  0.00  0.00     0.005 A 
ATOM     37  H   LIG d   1       5.109  -1.386  -6.962  0.00  0.00     0.067 H 
BRANCH  30  38
ATOM     38  O   LIG d   1       7.316   2.235  -8.536  0.00  0.00    -0.493 OA
BRANCH  38  39
ATOM     39  C   LIG d   1       8.247   1.983  -9.591  0.00  0.00     0.079 C 
ATOM     40  H   LIG d   1       8.831   2.883  -9.782  0.00  0.00     0.066 H 
ATOM     41  H   LIG d   1       8.913   1.170  -9.302  0.00  0.00     0.066 H 
ATOM     42  H   LIG d   1       7.704   1.703 -10.495  0.00  0.00     0.066 H 
ENDBRANCH  38  39
ENDBRANCH  30  38
BRANCH  34  43
ATOM     43  O   LIG d   1       2.890  -1.009  -8.297  0.00  0.00    -0.495 OA
BRANCH  43  44
ATOM     44  C   LIG d   1       2.051  -1.043  -9.454  0.00  0.00     0.079 C 
ATOM     45  H   LIG d   1       2.668  -1.008 -10.351  0.00  0.00     0.066 H 
ATOM     46  H   LIG d   1       1.466  -1.963  -9.451  0.00  0.00     0.066 H 
ATOM     47  H   LIG d   1       1.379  -0.185  -9.441  0.00  0.00     0.066 H 
ENDBRANCH  43  44
ENDBRANCH  34  43
ENDBRANCH   1  29
BRANCH  17  48
ATOM     48  C   LIG d   1       7.005  -2.001  -4.809  0.00  0.00     0.184 C 
ATOM     49  O   LIG d   1       6.886  -2.656  -5.824  0.00  0.00    -0.290 OA
BRANCH  48  50
ATOM     50  C   LIG d   1       5.815  -1.637  -4.024  0.00  0.00     0.019 A 
ATOM     51  C   LIG d   1       4.536  -1.845  -4.549  0.00  0.00    -0.051 A 
ATOM     52  C   LIG d   1       3.425  -1.506  -3.805  0.00  0.00    -0.061 A 
ATOM     53  H   LIG d   1       4.418  -2.274  -5.533  0.00  0.00     0.062 H 
ATOM     54  C   LIG d   1       3.575  -0.951  -2.546  0.00  0.00    -0.062 A 
ATOM     55  H   LIG d   1       2.437  -1.670  -4.208  0.00  0.00     0.062 H 
ATOM     56  C   LIG d   1       4.837  -0.738  -2.021  0.00  0.00    -0.061 A 
ATOM     57  H   LIG d   1       2.701  -0.683  -1.970  0.00  0.00     0.062 H 
ATOM     58  C   LIG d   1       5.957  -1.076  -2.751  0.00  0.00    -0.051 A 
ATOM     59  H   LIG d   1       4.946  -0.305  -1.038  0.00  0.00     0.062 H 
ATOM     60  H   LIG d   1       6.942  -0.909  -2.339  0.00  0.00     0.062 H 
ENDBRANCH  48  50
ENDBRANCH  17  48
TORSDOF 7
ENDMDL
MODEL 7
REMARK VINA RESULT:      -6.1      9.309     12.116
REMARK  7 active torsions:
REMARK  status: ('A' for Active; 'I' for Inactive)
REMARK    1  A    between atoms: C_1  and  O_2 
REMARK    2  A    between atoms: O_2  and  C_3 
REMARK    3  A    between atoms: C_6  and  O_39 
REMARK    4  A    between atoms: C_7  and  N_9 
REMARK    5  A    between atoms: C_25  and  C_31 
REMARK    6  A    between atoms: C_31  and  C_33 
REMARK    7  A    between atoms: O_39  and  C_40 
ROOT
ATOM      1  N   LIG d   1      10.886   7.669  -5.969  0.00  0.00    -0.206 N 
ATOM      2  C   LIG d   1      10.246   6.991  -6.933  0.00  0.00     0.232 C 
ATOM      3  O   LIG d   1       9.367   7.429  -7.642  0.00  0.00    -0.274 OA
ATOM      4  C   LIG d   1      10.807   5.583  -6.988  0.00  0.00     0.072 C 
ATOM      5  H   LIG d   1      11.474   5.428  -7.837  0.00  0.00     0.042 H 
ATOM      6  C   LIG d   1       9.666   4.566  -6.943  0.00  0.00     0.055 C 
ATOM      7  H   LIG d   1       8.722   5.062  -7.172  0.00  0.00     0.055 H 
ATOM      8  C   LIG d   1       9.891   3.435  -7.908  0.00  0.00    -0.062 C 
ATOM      9  C   LIG d   1       9.481   2.205  -7.615  0.00  0.00    -0.055 C 
ATOM     10  C   LIG d   1       8.801   1.914  -6.339  0.00  0.00    -0.004 A 
ATOM     11  C   LIG d   1       8.069   0.747  -6.145  0.00  0.00    -0.053 A 
ATOM     12  C   LIG d   1       7.464   0.516  -4.925  0.00  0.00    -0.061 A 
ATOM     13  C   LIG d   1       7.579   1.434  -3.894  0.00  0.00    -0.060 A 
ATOM     14  C   LIG d   1       8.300   2.603  -4.075  0.00  0.00    -0.040 A 
ATOM     15  C   LIG d   1       8.901   2.848  -5.289  0.00  0.00     0.038 A 
ATOM     16  N   LIG d   1       9.615   4.007  -5.579  0.00  0.00    -0.311 N 
ATOM     17  C   LIG d   1      10.448   4.821  -4.700  0.00  0.00     0.099 C 
ATOM     18  H   LIG d   1      10.920   4.196  -3.944  0.00  0.00     0.059 H 
ATOM     19  C   LIG d   1      11.534   5.466  -5.617  0.00  0.00     0.075 C 
ATOM     20  H   LIG d   1      12.464   4.898  -5.662  0.00  0.00     0.043 H 
ATOM     21  C   LIG d   1      11.720   6.921  -5.232  0.00  0.00     0.232 C 
ATOM     22  O   LIG d   1      12.492   7.339  -4.395  0.00  0.00    -0.274 OA
ATOM     23  H   LIG d   1      10.390   3.624  -8.848  0.00  0.00     0.059 H 
ATOM     24  H   LIG d   1       9.650   1.406  -8.322  0.00  0.00     0.062 H 
ATOM     25  H   LIG d   1       7.975   0.026  -6.943  0.00  0.00     0.062 H 
ATOM     26  H   LIG d   1       6.894  -0.389  -4.773  0.00  0.00     0.062 H 
ATOM     27  H   LIG d   1       7.104   1.236  -2.944  0.00  0.00     0.062 H 
ATOM     28  H   LIG d   1       8.388   3.317  -3.269  0.00  0.00     0.064 H 
ENDROOT
BRANCH   1  29
ATOM     29  C   LIG d   1      10.704   9.043  -5.755  0.00  0.00     0.089 A 
ATOM     30  C   LIG d   1      11.585   9.961  -6.321  0.00  0.00     0.142 A 
ATOM     31  C   LIG d   1      11.402  11.318  -6.110  0.00  0.00    -0.015 A 
ATOM     32  C   LIG d   1      10.345  11.761  -5.336  0.00  0.00    -0.016 A 
ATOM     33  H   LIG d   1      12.085  12.029  -6.548  0.00  0.00     0.066 H 
ATOM     34  C   LIG d   1       9.465  10.850  -4.771  0.00  0.00     0.122 A 
ATOM     35  H   LIG d   1      10.204  12.820  -5.173  0.00  0.00     0.066 H 
ATOM     36  C   LIG d   1       9.647   9.491  -4.976  0.00  0.00     0.005 A 
ATOM     37  H   LIG d   1       8.965   8.781  -4.531  0.00  0.00     0.067 H 
BRANCH  30  38
ATOM     38  O   LIG d   1      12.625   9.525  -7.083  0.00  0.00    -0.493 OA
BRANCH  38  39
ATOM     39  C   LIG d   1      12.510   9.699  -8.497  0.00  0.00     0.079 C 
ATOM     40  H   LIG d   1      13.173  10.502  -8.819  0.00  0.00     0.066 H 
ATOM     41  H   LIG d   1      12.788   8.773  -9.001  0.00  0.00     0.066 H 
ATOM     42  H   LIG d   1      11.480   9.955  -8.749  0.00  0.00     0.066 H 
ENDBRANCH  38  39
ENDBRANCH  30  38
BRANCH  34  43
ATOM     43  O   LIG d   1       8.427  11.289  -4.011  0.00  0.00    -0.495 OA
BRANCH  43  44
ATOM     44  C   LIG d   1       8.624  12.505  -3.286  0.00  0.00     0.079 C 
ATOM     45  H   LIG d   1       8.089  12.453  -2.338  0.00  0.00     0.066 H 
ATOM     46  H   LIG d   1       9.688  12.646  -3.095  0.00  0.00     0.066 H 
ATOM     47  H   LIG d   1       8.246  13.343  -3.871  0.00  0.00     0.066 H 
ENDBRANCH  43  44
ENDBRANCH  34  43
ENDBRANCH   1  29
BRANCH  17  48
ATOM     48  C   LIG d   1       9.616   5.893  -4.043  0.00  0.00     0.184 C 
ATOM     49  O   LIG d   1       8.691   6.398  -4.645  0.00  0.00    -0.290 OA
BRANCH  48  50
ATOM     50  C   LIG d   1       9.926   6.327  -2.672  0.00  0.00     0.019 A 
ATOM     51  C   LIG d   1       9.524   7.590  -2.226  0.00  0.00    -0.051 A 
ATOM     52  C   LIG d   1       9.814   7.988  -0.938  0.00  0.00    -0.061 A 
ATOM     53  H   LIG d   1       8.984   8.251  -2.888  0.00  0.00     0.062 H 
ATOM     54  C   LIG d   1      10.511   7.144  -0.090  0.00  0.00    -0.062 A 
ATOM     55  H   LIG d   1       9.500   8.961  -0.591  0.00  0.00     0.062 H 
ATOM     56  C   LIG d   1      10.917   5.895  -0.525  0.00  0.00    -0.061 A 
ATOM     57  H   LIG d   1      10.739   7.463   0.917  0.00  0.00     0.062 H 
ATOM     58  C   LIG d   1      10.630   5.481  -1.809  0.00  0.00    -0.051 A 
ATOM     59  H   LIG d   1      11.460   5.243   0.143  0.00  0.00     0.062 H 
ATOM     60  H   LIG d   1      10.947   4.506  -2.146  0.00  0.00     0.062 H 
ENDBRANCH  48  50
ENDBRANCH  17  48
TORSDOF 7
ENDMDL
MODEL 8
REMARK VINA RESULT:      -6.0      2.408      6.357
REMARK  7 active torsions:
REMARK  status: ('A' for Active; 'I' for Inactive)
REMARK    1  A    between atoms: C_1  and  O_2 
REMARK    2  A    between atoms: O_2  and  C_3 
REMARK    3  A    between atoms: C_6  and  O_39 
REMARK    4  A    between atoms: C_7  and  N_9 
REMARK    5  A    between atoms: C_25  and  C_31 
REMARK    6  A    between atoms: C_31  and  C_33 
REMARK    7  A    between atoms: O_39  and  C_40 
ROOT
ATOM      1  N   LIG d   1       6.361  -3.171  -8.493  0.00  0.00    -0.206 N 
ATOM      2  C   LIG d   1       6.291  -3.694  -7.260  0.00  0.00     0.232 C 
ATOM      3  O   LIG d   1       5.764  -4.744  -6.965  0.00  0.00    -0.274 OA
ATOM      4  C   LIG d   1       6.985  -2.751  -6.296  0.00  0.00     0.072 C 
ATOM      5  H   LIG d   1       7.968  -3.109  -5.990  0.00  0.00     0.042 H 
ATOM      6  C   LIG d   1       6.070  -2.457  -5.107  0.00  0.00     0.055 C 
ATOM      7  H   LIG d   1       5.269  -3.196  -5.068  0.00  0.00     0.055 H 
ATOM      8  C   LIG d   1       6.828  -2.464  -3.808  0.00  0.00    -0.062 C 
ATOM      9  C   LIG d   1       6.482  -1.644  -2.819  0.00  0.00    -0.055 C 
ATOM     10  C   LIG d   1       5.354  -0.706  -2.969  0.00  0.00    -0.004 A 
ATOM     11  C   LIG d   1       4.758  -0.092  -1.873  0.00  0.00    -0.053 A 
ATOM     12  C   LIG d   1       3.713   0.790  -2.070  0.00  0.00    -0.061 A 
ATOM     13  C   LIG d   1       3.257   1.071  -3.347  0.00  0.00    -0.060 A 
ATOM     14  C   LIG d   1       3.837   0.462  -4.447  0.00  0.00    -0.040 A 
ATOM     15  C   LIG d   1       4.874  -0.425  -4.263  0.00  0.00     0.038 A 
ATOM     16  N   LIG d   1       5.497  -1.112  -5.301  0.00  0.00    -0.311 N 
ATOM     17  C   LIG d   1       5.759  -0.677  -6.669  0.00  0.00     0.099 C 
ATOM     18  H   LIG d   1       5.926   0.399  -6.696  0.00  0.00     0.059 H 
ATOM     19  C   LIG d   1       7.050  -1.431  -7.117  0.00  0.00     0.075 C 
ATOM     20  H   LIG d   1       7.967  -0.862  -6.961  0.00  0.00     0.043 H 
ATOM     21  C   LIG d   1       6.873  -1.933  -8.538  0.00  0.00     0.232 C 
ATOM     22  O   LIG d   1       7.145  -1.316  -9.546  0.00  0.00    -0.274 OA
ATOM     23  H   LIG d   1       7.660  -3.141  -3.677  0.00  0.00     0.059 H 
ATOM     24  H   LIG d   1       7.037  -1.666  -1.893  0.00  0.00     0.062 H 
ATOM     25  H   LIG d   1       5.108  -0.305  -0.874  0.00  0.00     0.062 H 
ATOM     26  H   LIG d   1       3.248   1.267  -1.220  0.00  0.00     0.062 H 
ATOM     27  H   LIG d   1       2.443   1.768  -3.484  0.00  0.00     0.062 H 
ATOM     28  H   LIG d   1       3.479   0.684  -5.442  0.00  0.00     0.064 H 
ENDROOT
BRANCH   1  29
ATOM     29  C   LIG d   1       5.939  -3.863  -9.639  0.00  0.00     0.089 A 
ATOM     30  C   LIG d   1       6.846  -4.634 -10.362  0.00  0.00     0.142 A 
ATOM     31  C   LIG d   1       6.427  -5.318 -11.491  0.00  0.00    -0.015 A 
ATOM     32  C   LIG d   1       5.110  -5.235 -11.901  0.00  0.00    -0.016 A 
ATOM     33  H   LIG d   1       7.130  -5.915 -12.052  0.00  0.00     0.066 H 
ATOM     34  C   LIG d   1       4.203  -4.469 -11.183  0.00  0.00     0.122 A 
ATOM     35  H   LIG d   1       4.785  -5.769 -12.783  0.00  0.00     0.066 H 
ATOM     36  C   LIG d   1       4.619  -3.779 -10.055  0.00  0.00     0.005 A 
ATOM     37  H   LIG d   1       3.914  -3.178  -9.499  0.00  0.00     0.067 H 
BRANCH  30  38
ATOM     38  O   LIG d   1       8.143  -4.716  -9.958  0.00  0.00    -0.493 OA
BRANCH  38  39
ATOM     39  C   LIG d   1       9.120  -4.073 -10.778  0.00  0.00     0.079 C 
ATOM     40  H   LIG d   1       8.740  -3.104 -11.104  0.00  0.00     0.066 H 
ATOM     41  H   LIG d   1      10.038  -3.931 -10.208  0.00  0.00     0.066 H 
ATOM     42  H   LIG d   1       9.327  -4.694 -11.651  0.00  0.00     0.066 H 
ENDBRANCH  38  39
ENDBRANCH  30  38
BRANCH  34  43
ATOM     43  O   LIG d   1       2.909  -4.390 -11.589  0.00  0.00    -0.495 OA
BRANCH  43  44
ATOM     44  C   LIG d   1       1.937  -4.057 -10.595  0.00  0.00     0.079 C 
ATOM     45  H   LIG d   1       1.228  -3.338 -11.006  0.00  0.00     0.066 H 
ATOM     46  H   LIG d   1       1.404  -4.958 -10.292  0.00  0.00     0.066 H 
ATOM     47  H   LIG d   1       2.436  -3.622  -9.730  0.00  0.00     0.066 H 
ENDBRANCH  43  44
ENDBRANCH  34  43
ENDBRANCH   1  29
BRANCH  17  48
ATOM     48  C   LIG d   1       4.601  -1.046  -7.562  0.00  0.00     0.184 C 
ATOM     49  O   LIG d   1       3.932  -2.028  -7.312  0.00  0.00    -0.290 OA
BRANCH  48  50
ATOM     50  C   LIG d   1       4.284  -0.217  -8.734  0.00  0.00     0.019 A 
ATOM     51  C   LIG d   1       3.556  -0.756  -9.800  0.00  0.00    -0.051 A 
ATOM     52  C   LIG d   1       3.258   0.029 -10.894  0.00  0.00    -0.061 A 
ATOM     53  H   LIG d   1       3.225  -1.784  -9.765  0.00  0.00     0.062 H 
ATOM     54  C   LIG d   1       3.687   1.344 -10.944  0.00  0.00    -0.062 A 
ATOM     55  H   LIG d   1       2.692  -0.385 -11.716  0.00  0.00     0.062 H 
ATOM     56  C   LIG d   1       4.411   1.883  -9.896  0.00  0.00    -0.061 A 
ATOM     57  H   LIG d   1       3.454   1.953 -11.806  0.00  0.00     0.062 H 
ATOM     58  C   LIG d   1       4.713   1.112  -8.793  0.00  0.00    -0.051 A 
ATOM     59  H   LIG d   1       4.742   2.910  -9.942  0.00  0.00     0.062 H 
ATOM     60  H   LIG d   1       5.279   1.535  -7.976  0.00  0.00     0.062 H 
ENDBRANCH  48  50
ENDBRANCH  17  48
TORSDOF 7
ENDMDL
MODEL 9
REMARK VINA RESULT:      -5.8      4.084      5.786
REMARK  7 active torsions:
REMARK  status: ('A' for Active; 'I' for Inactive)
REMARK    1  A    between atoms: C_1  and  O_2 
REMARK    2  A    between atoms: O_2  and  C_3 
REMARK    3  A    between atoms: C_6  and  O_39 
REMARK    4  A    between atoms: C_7  and  N_9 
REMARK    5  A    between atoms: C_25  and  C_31 
REMARK    6  A    between atoms: C_31  and  C_33 
REMARK    7  A    between atoms: O_39  and  C_40 
ROOT
ATOM      1  N   LIG d   1       6.946  -1.119  -7.135  0.00  0.00    -0.206 N 
ATOM      2  C   LIG d   1       8.202  -0.847  -7.519  0.00  0.00     0.232 C 
ATOM      3  O   LIG d   1       9.057  -1.666  -7.774  0.00  0.00    -0.274 OA
ATOM      4  C   LIG d   1       8.373   0.658  -7.580  0.00  0.00     0.072 C 
ATOM      5  H   LIG d   1       8.373   1.041  -8.601  0.00  0.00     0.042 H 
ATOM      6  C   LIG d   1       9.619   1.073  -6.796  0.00  0.00     0.055 C 
ATOM      7  H   LIG d   1      10.250   0.201  -6.622  0.00  0.00     0.055 H 
ATOM      8  C   LIG d   1      10.404   2.131  -7.521  0.00  0.00    -0.062 C 
ATOM      9  C   LIG d   1      11.056   3.072  -6.844  0.00  0.00    -0.055 C 
ATOM     10  C   LIG d   1      11.023   3.108  -5.370  0.00  0.00    -0.004 A 
ATOM     11  C   LIG d   1      11.943   3.845  -4.632  0.00  0.00    -0.053 A 
ATOM     12  C   LIG d   1      11.859   3.857  -3.253  0.00  0.00    -0.061 A 
ATOM     13  C   LIG d   1      10.868   3.144  -2.600  0.00  0.00    -0.060 A 
ATOM     14  C   LIG d   1       9.948   2.400  -3.322  0.00  0.00    -0.040 A 
ATOM     15  C   LIG d   1      10.027   2.374  -4.696  0.00  0.00     0.038 A 
ATOM     16  N   LIG d   1       9.173   1.631  -5.506  0.00  0.00    -0.311 N 
ATOM     17  C   LIG d   1       7.762   1.316  -5.313  0.00  0.00     0.099 C 
ATOM     18  H   LIG d   1       7.263   2.127  -4.784  0.00  0.00     0.059 H 
ATOM     19  C   LIG d   1       7.160   1.161  -6.745  0.00  0.00     0.075 C 
ATOM     20  H   LIG d   1       6.710   2.075  -7.133  0.00  0.00     0.043 H 
ATOM     21  C   LIG d   1       6.234  -0.041  -6.776  0.00  0.00     0.232 C 
ATOM     22  O   LIG d   1       5.050  -0.030  -6.516  0.00  0.00    -0.274 OA
ATOM     23  H   LIG d   1      10.440   2.126  -8.601  0.00  0.00     0.059 H 
ATOM     24  H   LIG d   1      11.617   3.821  -7.382  0.00  0.00     0.062 H 
ATOM     25  H   LIG d   1      12.719   4.405  -5.133  0.00  0.00     0.062 H 
ATOM     26  H   LIG d   1      12.573   4.428  -2.678  0.00  0.00     0.062 H 
ATOM     27  H   LIG d   1      10.812   3.168  -1.521  0.00  0.00     0.062 H 
ATOM     28  H   LIG d   1       9.176   1.845  -2.809  0.00  0.00     0.064 H 
ENDROOT
BRANCH   1  29
ATOM     29  C   LIG d   1       6.420  -2.420  -7.116  0.00  0.00     0.089 A 
ATOM     30  C   LIG d   1       5.569  -2.843  -8.134  0.00  0.00     0.142 A 
ATOM     31  C   LIG d   1       5.052  -4.129  -8.114  0.00  0.00    -0.015 A 
ATOM     32  C   LIG d   1       5.381  -4.990  -7.085  0.00  0.00    -0.016 A 
ATOM     33  H   LIG d   1       4.392  -4.457  -8.903  0.00  0.00     0.066 H 
ATOM     34  C   LIG d   1       6.229  -4.572  -6.070  0.00  0.00     0.122 A 
ATOM     35  H   LIG d   1       4.977  -5.993  -7.072  0.00  0.00     0.066 H 
ATOM     36  C   LIG d   1       6.744  -3.286  -6.082  0.00  0.00     0.005 A 
ATOM     37  H   LIG d   1       7.400  -2.959  -5.289  0.00  0.00     0.067 H 
BRANCH  30  38
ATOM     38  O   LIG d   1       5.246  -1.995  -9.148  0.00  0.00    -0.493 OA
BRANCH  38  39
ATOM     39  C   LIG d   1       5.847  -2.246 -10.420  0.00  0.00     0.079 C 
ATOM     40  H   LIG d   1       5.171  -2.847 -11.028  0.00  0.00     0.066 H 
ATOM     41  H   LIG d   1       6.045  -1.299 -10.922  0.00  0.00     0.066 H 
ATOM     42  H   LIG d   1       6.784  -2.785 -10.279  0.00  0.00     0.066 H 
ENDBRANCH  38  39
ENDBRANCH  30  38
BRANCH  34  43
ATOM     43  O   LIG d   1       6.550  -5.423  -5.059  0.00  0.00    -0.495 OA
BRANCH  43  44
ATOM     44  C   LIG d   1       7.485  -6.462  -5.359  0.00  0.00     0.079 C 
ATOM     45  H   LIG d   1       8.192  -6.564  -4.535  0.00  0.00     0.066 H 
ATOM     46  H   LIG d   1       6.950  -7.402  -5.497  0.00  0.00     0.066 H 
ATOM     47  H   LIG d   1       8.024  -6.214  -6.273  0.00  0.00     0.066 H 
ENDBRANCH  43  44
ENDBRANCH  34  43
ENDBRANCH   1  29
BRANCH  17  48
ATOM     48  C   LIG d   1       7.617   0.027  -4.544  0.00  0.00     0.184 C 
ATOM     49  O   LIG d   1       8.438  -0.855  -4.679  0.00  0.00    -0.290 OA
BRANCH  48  50
ATOM     50  C   LIG d   1       6.479  -0.159  -3.630  0.00  0.00     0.019 A 
ATOM     51  C   LIG d   1       5.868   0.948  -3.032  0.00  0.00    -0.051 A 
ATOM     52  C   LIG d   1       4.800   0.765  -2.180  0.00  0.00    -0.061 A 
ATOM     53  H   LIG d   1       6.230   1.944  -3.241  0.00  0.00     0.062 H 
ATOM     54  C   LIG d   1       4.339  -0.512  -1.907  0.00  0.00    -0.062 A 
ATOM     55  H   LIG d   1       4.325   1.619  -1.721  0.00  0.00     0.062 H 
ATOM     56  C   LIG d   1       4.941  -1.612  -2.490  0.00  0.00    -0.061 A 
ATOM     57  H   LIG d   1       3.504  -0.649  -1.235  0.00  0.00     0.062 H 
ATOM     58  C   LIG d   1       6.008  -1.445  -3.348  0.00  0.00    -0.051 A 
ATOM     59  H   LIG d   1       4.575  -2.605  -2.272  0.00  0.00     0.062 H 
ATOM     60  H   LIG d   1       6.476  -2.306  -3.803  0.00  0.00     0.062 H 
ENDBRANCH  48  50
ENDBRANCH  17  48
TORSDOF 7
ENDMDL
MODEL 10
REMARK VINA RESULT:      -5.8     12.666     15.007
REMARK  7 active torsions:
REMARK  status: ('A' for Active; 'I' for Inactive)
REMARK    1  A    between atoms: C_1  and  O_2 
REMARK    2  A    between atoms: O_2  and  C_3 
REMARK    3  A    between atoms: C_6  and  O_39 
REMARK    4  A    between atoms: C_7  and  N_9 
REMARK    5  A    between atoms: C_25  and  C_31 
REMARK    6  A    between atoms: C_31  and  C_33 
REMARK    7  A    between atoms: O_39  and  C_40 
ROOT
ATOM      1  N   LIG d   1      11.592   8.957   0.320  0.00  0.00    -0.206 N 
ATOM      2  C   LIG d   1      11.951   7.711  -0.025  0.00  0.00     0.232 C 
ATOM      3  O   LIG d   1      13.072   7.257   0.032  0.00  0.00    -0.274 OA
ATOM      4  C   LIG d   1      10.717   6.967  -0.496  0.00  0.00     0.072 C 
ATOM      5  H   LIG d   1      10.345   6.256   0.243  0.00  0.00     0.042 H 
ATOM      6  C   LIG d   1      10.990   6.315  -1.852  0.00  0.00     0.055 C 
ATOM      7  H   LIG d   1      12.065   6.282  -2.034  0.00  0.00     0.055 H 
ATOM      8  C   LIG d   1      10.422   4.924  -1.924  0.00  0.00    -0.062 C 
ATOM      9  C   LIG d   1       9.943   4.449  -3.070  0.00  0.00    -0.055 C 
ATOM     10  C   LIG d   1       9.950   5.269  -4.296  0.00  0.00    -0.004 A 
ATOM     11  C   LIG d   1       9.781   4.708  -5.558  0.00  0.00    -0.053 A 
ATOM     12  C   LIG d   1       9.782   5.523  -6.673  0.00  0.00    -0.061 A 
ATOM     13  C   LIG d   1       9.947   6.892  -6.547  0.00  0.00    -0.060 A 
ATOM     14  C   LIG d   1      10.122   7.464  -5.297  0.00  0.00    -0.040 A 
ATOM     15  C   LIG d   1      10.131   6.661  -4.179  0.00  0.00     0.038 A 
ATOM     16  N   LIG d   1      10.335   7.137  -2.887  0.00  0.00    -0.311 N 
ATOM     17  C   LIG d   1       9.931   8.408  -2.298  0.00  0.00     0.099 C 
ATOM     18  H   LIG d   1       9.000   8.753  -2.747  0.00  0.00     0.059 H 
ATOM     19  C   LIG d   1       9.720   8.127  -0.777  0.00  0.00     0.075 C 
ATOM     20  H   LIG d   1       8.688   7.892  -0.514  0.00  0.00     0.043 H 
ATOM     21  C   LIG d   1      10.318   9.262   0.033  0.00  0.00     0.232 C 
ATOM     22  O   LIG d   1       9.742  10.276   0.365  0.00  0.00    -0.274 OA
ATOM     23  H   LIG d   1      10.403   4.306  -1.038  0.00  0.00     0.059 H 
ATOM     24  H   LIG d   1       9.541   3.447  -3.103  0.00  0.00     0.062 H 
ATOM     25  H   LIG d   1       9.651   3.641  -5.665  0.00  0.00     0.062 H 
ATOM     26  H   LIG d   1       9.652   5.089  -7.653  0.00  0.00     0.062 H 
ATOM     27  H   LIG d   1       9.939   7.517  -7.428  0.00  0.00     0.062 H 
ATOM     28  H   LIG d   1      10.250   8.532  -5.202  0.00  0.00     0.064 H 
ENDROOT
BRANCH   1  29
ATOM     29  C   LIG d   1      12.472   9.862   0.932  0.00  0.00     0.089 A 
ATOM     30  C   LIG d   1      12.657   9.830   2.312  0.00  0.00     0.142 A 
ATOM     31  C   LIG d   1      13.528  10.723   2.914  0.00  0.00    -0.015 A 
ATOM     32  C   LIG d   1      14.213  11.646   2.147  0.00  0.00    -0.016 A 
ATOM     33  H   LIG d   1      13.671  10.699   3.984  0.00  0.00     0.066 H 
ATOM     34  C   LIG d   1      14.032  11.680   0.772  0.00  0.00     0.122 A 
ATOM     35  H   LIG d   1      14.892  12.341   2.619  0.00  0.00     0.066 H 
ATOM     36  C   LIG d   1      13.158  10.792   0.165  0.00  0.00     0.005 A 
ATOM     37  H   LIG d   1      13.013  10.822  -0.905  0.00  0.00     0.067 H 
BRANCH  30  38
ATOM     38  O   LIG d   1      11.983   8.921   3.068  0.00  0.00    -0.493 OA
BRANCH  38  39
ATOM     39  C   LIG d   1      12.179   8.981   4.482  0.00  0.00     0.079 C 
ATOM     40  H   LIG d   1      11.219   9.132   4.976  0.00  0.00     0.066 H 
ATOM     41  H   LIG d   1      12.623   8.047   4.828  0.00  0.00     0.066 H 
ATOM     42  H   LIG d   1      12.845   9.810   4.722  0.00  0.00     0.066 H 
ENDBRANCH  38  39
ENDBRANCH  30  38
BRANCH  34  43
ATOM     43  O   LIG d   1      14.708  12.588   0.020  0.00  0.00    -0.495 OA
BRANCH  43  44
ATOM     44  C   LIG d   1      14.098  13.869  -0.154  0.00  0.00     0.079 C 
ATOM     45  H   LIG d   1      14.855  14.596  -0.446  0.00  0.00     0.066 H 
ATOM     46  H   LIG d   1      13.336  13.806  -0.930  0.00  0.00     0.066 H 
ATOM     47  H   LIG d   1      13.637  14.182   0.783  0.00  0.00     0.066 H 
ENDBRANCH  43  44
ENDBRANCH  34  43
ENDBRANCH   1  29
BRANCH  17  48
ATOM     48  C   LIG d   1      11.014   9.439  -2.493  0.00  0.00     0.184 C 
ATOM     49  O   LIG d   1      12.178   9.098  -2.517  0.00  0.00    -0.290 OA
BRANCH  48  50
ATOM     50  C   LIG d   1      10.659  10.857  -2.655  0.00  0.00     0.019 A 
ATOM     51  C   LIG d   1       9.343  11.223  -2.957  0.00  0.00    -0.051 A 
ATOM     52  C   LIG d   1       9.017  12.555  -3.102  0.00  0.00    -0.061 A 
ATOM     53  H   LIG d   1       8.583  10.464  -3.072  0.00  0.00     0.062 H 
ATOM     54  C   LIG d   1       9.991  13.529  -2.961  0.00  0.00    -0.062 A 
ATOM     55  H   LIG d   1       8.001  12.839  -3.331  0.00  0.00     0.062 H 
ATOM     56  C   LIG d   1      11.296  13.175  -2.667  0.00  0.00    -0.061 A 
ATOM     57  H   LIG d   1       9.731  14.570  -3.081  0.00  0.00     0.062 H 
ATOM     58  C   LIG d   1      11.636  11.847  -2.514  0.00  0.00    -0.051 A 
ATOM     59  H   LIG d   1      12.050  13.940  -2.558  0.00  0.00     0.062 H 
ATOM     60  H   LIG d   1      12.656  11.573  -2.284  0.00  0.00     0.062 H 
ENDBRANCH  48  50
ENDBRANCH  17  48
TORSDOF 7
ENDMDL
