MODEL 1
REMARK VINA RESULT:      -7.2      0.000      0.000
REMARK  13 active torsions:
REMARK  status: ('A' for Active; 'I' for Inactive)
REMARK    1  A    between atoms: C_1  and  C_2 
REMARK    2  A    between atoms: N_6  and  O_7 
REMARK    3  A    between atoms: O_7  and  C_8 
REMARK    4  A    between atoms: C_8  and  C_9 
REMARK       I    between atoms: C_9  and  N_11 
REMARK    5  A    between atoms: N_11  and  C_12 
REMARK    6  A    between atoms: C_12  and  C_14 
REMARK    7  A    between atoms: C_12  and  C_18 
REMARK    8  A    between atoms: C_14  and  C_15 
REMARK    9  A    between atoms: C_23  and  C_25 
REMARK   10  A    between atoms: C_23  and  C_26 
REMARK   11  A    between atoms: C_37  and  C_46 
REMARK   12  A    between atoms: C_42  and  C_43 
REMARK   13  A    between atoms: C_42  and  O_45 
ROOT
ATOM      1  C   LIG d   1       4.263   0.458  -2.380  0.00  0.00    -0.070 C 
ATOM      2  C   LIG d   1       4.608   1.247  -1.583  0.00  0.00    -0.116 C 
ATOM      3  H   LIG d   1       4.917   1.951  -0.868  0.00  0.00     0.123 H 
ENDROOT
BRANCH   1   4
ATOM      4  C   LIG d   1       3.830  -0.531  -3.382  0.00  0.00     0.132 C 
ATOM      5  C   LIG d   1       5.035  -0.961  -4.262  0.00  0.00     0.011 C 
ATOM      6  C   LIG d   1       6.287  -0.812  -3.392  0.00  0.00    -0.043 C 
ATOM      7  C   LIG d   1       4.747  -2.445  -4.543  0.00  0.00    -0.029 C 
ATOM      8  C   LIG d   1       7.472  -1.530  -4.030  0.00  0.00    -0.049 C 
ATOM      9  H   LIG d   1       6.094  -1.240  -2.409  0.00  0.00     0.027 H 
ATOM     10  H   LIG d   1       6.525   0.246  -3.283  0.00  0.00     0.027 H 
ATOM     11  C   LIG d   1       7.156  -3.028  -4.114  0.00  0.00    -0.029 C 
ATOM     12  H   LIG d   1       8.362  -1.378  -3.420  0.00  0.00     0.027 H 
ATOM     13  H   LIG d   1       7.642  -1.137  -5.033  0.00  0.00     0.027 H 
ATOM     14  C   LIG d   1       8.362  -3.755  -4.714  0.00  0.00    -0.007 C 
ATOM     15  C   LIG d   1       5.949  -3.218  -5.032  0.00  0.00    -0.034 C 
ATOM     16  H   LIG d   1       6.937  -3.427  -3.123  0.00  0.00     0.031 H 
ATOM     17  C   LIG d   1       8.008  -5.186  -4.965  0.00  0.00    -0.062 C 
ATOM     18  C   LIG d   1       9.606  -3.527  -3.889  0.00  0.00    -0.038 C 
ATOM     19  C   LIG d   1       8.698  -6.214  -4.488  0.00  0.00    -0.037 C 
ATOM     20  C   LIG d   1       6.768  -5.462  -5.799  0.00  0.00    -0.031 C 
ATOM     21  C   LIG d   1       9.844  -5.955  -3.595  0.00  0.00     0.080 C 
ATOM     22  H   LIG d   1       8.418  -7.226  -4.741  0.00  0.00     0.064 H 
ATOM     23  C   LIG d   1       9.826  -4.630  -2.855  0.00  0.00    -0.006 C 
ATOM     24  N   LIG d   1      10.808  -6.808  -3.451  0.00  0.00    -0.089 NA
ATOM     25  H   LIG d   1      10.779  -4.477  -2.348  0.00  0.00     0.033 H 
ATOM     26  H   LIG d   1       9.014  -4.624  -2.128  0.00  0.00     0.033 H 
ATOM     27  C   LIG d   1       5.601  -4.703  -5.156  0.00  0.00    -0.046 C 
ATOM     28  H   LIG d   1       6.922  -5.110  -6.818  0.00  0.00     0.031 H 
ATOM     29  H   LIG d   1       6.555  -6.531  -5.803  0.00  0.00     0.031 H 
ATOM     30  H   LIG d   1       4.712  -4.816  -5.776  0.00  0.00     0.027 H 
ATOM     31  H   LIG d   1       5.405  -5.113  -4.166  0.00  0.00     0.027 H 
ATOM     32  H   LIG d   1      10.468  -3.488  -4.555  0.00  0.00     0.028 H 
ATOM     33  H   LIG d   1       9.517  -2.571  -3.372  0.00  0.00     0.028 H 
ATOM     34  H   LIG d   1       6.218  -2.845  -6.020  0.00  0.00     0.031 H 
ATOM     35  H   LIG d   1       3.948  -2.520  -5.280  0.00  0.00     0.031 H 
ATOM     36  C   LIG d   1       4.216  -2.969  -3.195  0.00  0.00    -0.046 C 
ATOM     37  C   LIG d   1       3.330  -1.810  -2.682  0.00  0.00    -0.012 C 
ATOM     38  H   LIG d   1       3.621  -3.870  -3.341  0.00  0.00     0.027 H 
ATOM     39  H   LIG d   1       5.039  -3.157  -2.506  0.00  0.00     0.027 H 
ATOM     40  H   LIG d   1       2.287  -1.993  -2.941  0.00  0.00     0.030 H 
ATOM     41  H   LIG d   1       3.435  -1.709  -1.601  0.00  0.00     0.030 H 
BRANCH   5  42
ATOM     42  C   LIG d   1       5.132  -0.133  -5.545  0.00  0.00    -0.056 C 
ATOM     43  H   LIG d   1       4.405  -0.499  -6.269  0.00  0.00     0.024 H 
ATOM     44  H   LIG d   1       4.924   0.914  -5.319  0.00  0.00     0.024 H 
ATOM     45  H   LIG d   1       6.135  -0.222  -5.961  0.00  0.00     0.024 H 
ENDBRANCH   5  42
BRANCH  14  46
ATOM     46  C   LIG d   1       8.618  -3.119  -6.082  0.00  0.00    -0.056 C 
ATOM     47  H   LIG d   1       9.409  -2.374  -5.993  0.00  0.00     0.024 H 
ATOM     48  H   LIG d   1       8.921  -3.889  -6.790  0.00  0.00     0.024 H 
ATOM     49  H   LIG d   1       7.706  -2.639  -6.436  0.00  0.00     0.024 H 
ENDBRANCH  14  46
BRANCH  24  50
ATOM     50  O   LIG d   1      11.887  -6.517  -2.581  0.00  0.00    -0.384 OA
BRANCH  50  51
ATOM     51  C   LIG d   1      12.883  -7.541  -2.529  0.00  0.00     0.193 C 
ATOM     52  H   LIG d   1      13.336  -7.658  -3.513  0.00  0.00     0.082 H 
ATOM     53  H   LIG d   1      13.651  -7.264  -1.806  0.00  0.00     0.082 H 
BRANCH  51  54
ATOM     54  C   LIG d   1      12.245  -8.840  -2.111  0.00  0.00     0.254 C 
ATOM     55  O   LIG d   1      12.688  -9.893  -2.520  0.00  0.00    -0.272 OA
ATOM     56  N   LIG d   1      11.181  -8.833  -1.284  0.00  0.00    -0.309 N 
ATOM     57  H   LIG d   1      10.781  -7.991  -1.014  0.00  0.00     0.149 HD
BRANCH  56  58
ATOM     58  C   LIG d   1      10.627 -10.097  -0.790  0.00  0.00     0.031 C 
ATOM     59  H   LIG d   1      11.344 -10.899  -0.965  0.00  0.00     0.050 H 
BRANCH  58  60
ATOM     60  C   LIG d   1      10.346  -9.980   0.709  0.00  0.00     0.005 C 
ATOM     61  H   LIG d   1       9.362  -9.538   0.861  0.00  0.00     0.034 H 
ATOM     62  H   LIG d   1      10.374 -10.970   1.162  0.00  0.00     0.034 H 
BRANCH  60  63
ATOM     63  C   LIG d   1      11.394  -9.105   1.349  0.00  0.00     0.043 C 
ATOM     64  O   LIG d   1      12.548  -9.491   1.424  0.00  0.00    -0.550 OA
ATOM     65  O   LIG d   1      11.086  -8.011   1.792  0.00  0.00    -0.550 OA
ENDBRANCH  60  63
ENDBRANCH  58  60
BRANCH  58  66
ATOM     66  C   LIG d   1       9.324 -10.406  -1.530  0.00  0.00    -0.018 C 
ATOM     67  H   LIG d   1       9.549 -10.920  -2.465  0.00  0.00     0.032 H 
ATOM     68  C   LIG d   1       8.437 -11.298  -0.655  0.00  0.00    -0.020 C 
ATOM     69  C   LIG d   1       7.104 -11.535  -1.369  0.00  0.00     0.064 C 
ATOM     70  H   LIG d   1       8.936 -12.252  -0.485  0.00  0.00     0.030 H 
ATOM     71  H   LIG d   1       8.255 -10.806   0.300  0.00  0.00     0.030 H 
ATOM     72  O   LIG d   1       6.481 -10.279  -1.644  0.00  0.00    -0.374 OA
ATOM     73  C   LIG d   1       7.244  -9.424  -2.498  0.00  0.00     0.049 C 
ATOM     74  C   LIG d   1       8.582  -9.100  -1.829  0.00  0.00    -0.025 C 
ATOM     75  H   LIG d   1       6.692  -8.500  -2.675  0.00  0.00     0.056 H 
ATOM     76  H   LIG d   1       7.425  -9.926  -3.448  0.00  0.00     0.056 H 
ATOM     77  H   LIG d   1       8.403  -8.562  -0.898  0.00  0.00     0.029 H 
ATOM     78  H   LIG d   1       9.184  -8.484  -2.497  0.00  0.00     0.029 H 
BRANCH  69  79
ATOM     79  C   LIG d   1       7.356 -12.279  -2.682  0.00  0.00    -0.036 C 
ATOM     80  H   LIG d   1       7.701 -13.289  -2.467  0.00  0.00     0.026 H 
ATOM     81  H   LIG d   1       6.431 -12.324  -3.257  0.00  0.00     0.026 H 
ATOM     82  H   LIG d   1       8.116 -11.750  -3.258  0.00  0.00     0.026 H 
ENDBRANCH  69  79
BRANCH  69  83
ATOM     83  C   LIG d   1       6.188 -12.373  -0.474  0.00  0.00    -0.036 C 
ATOM     84  H   LIG d   1       5.209 -12.467  -0.943  0.00  0.00     0.026 H 
ATOM     85  H   LIG d   1       6.622 -13.364  -0.337  0.00  0.00     0.026 H 
ATOM     86  H   LIG d   1       6.082 -11.886   0.495  0.00  0.00     0.026 H 
ENDBRANCH  69  83
ENDBRANCH  58  66
ENDBRANCH  56  58
ENDBRANCH  51  54
ENDBRANCH  50  51
ENDBRANCH  24  50
BRANCH   4  87
ATOM     87  O   LIG d   1       2.796   0.018  -4.200  0.00  0.00    -0.376 OA
ATOM     88  H   LIG d   1       3.120   0.566  -4.928  0.00  0.00     0.211 HD
ENDBRANCH   4  87
ENDBRANCH   1   4
TORSDOF 13
ENDMDL
MODEL 2
REMARK VINA RESULT:      -7.1      1.703      2.615
REMARK  13 active torsions:
REMARK  status: ('A' for Active; 'I' for Inactive)
REMARK    1  A    between atoms: C_1  and  C_2 
REMARK    2  A    between atoms: N_6  and  O_7 
REMARK    3  A    between atoms: O_7  and  C_8 
REMARK    4  A    between atoms: C_8  and  C_9 
REMARK       I    between atoms: C_9  and  N_11 
REMARK    5  A    between atoms: N_11  and  C_12 
REMARK    6  A    between atoms: C_12  and  C_14 
REMARK    7  A    between atoms: C_12  and  C_18 
REMARK    8  A    between atoms: C_14  and  C_15 
REMARK    9  A    between atoms: C_23  and  C_25 
REMARK   10  A    between atoms: C_23  and  C_26 
REMARK   11  A    between atoms: C_37  and  C_46 
REMARK   12  A    between atoms: C_42  and  C_43 
REMARK   13  A    between atoms: C_42  and  O_45 
ROOT
ATOM      1  C   LIG d   1       4.433   0.470  -2.550  0.00  0.00    -0.070 C 
ATOM      2  C   LIG d   1       4.602   1.137  -1.599  0.00  0.00    -0.116 C 
ATOM      3  H   LIG d   1       4.751   1.734  -0.748  0.00  0.00     0.123 H 
ENDROOT
BRANCH   1   4
ATOM      4  C   LIG d   1       4.221  -0.367  -3.743  0.00  0.00     0.132 C 
ATOM      5  C   LIG d   1       5.587  -0.830  -4.318  0.00  0.00     0.011 C 
ATOM      6  C   LIG d   1       6.560  -0.896  -3.137  0.00  0.00    -0.043 C 
ATOM      7  C   LIG d   1       5.280  -2.242  -4.844  0.00  0.00    -0.029 C 
ATOM      8  C   LIG d   1       7.819  -1.666  -3.521  0.00  0.00    -0.049 C 
ATOM      9  H   LIG d   1       6.074  -1.395  -2.299  0.00  0.00     0.027 H 
ATOM     10  H   LIG d   1       6.835   0.117  -2.841  0.00  0.00     0.027 H 
ATOM     11  C   LIG d   1       7.430  -3.108  -3.867  0.00  0.00    -0.029 C 
ATOM     12  H   LIG d   1       8.516  -1.666  -2.683  0.00  0.00     0.027 H 
ATOM     13  H   LIG d   1       8.286  -1.196  -4.387  0.00  0.00     0.027 H 
ATOM     14  C   LIG d   1       8.699  -3.893  -4.210  0.00  0.00    -0.007 C 
ATOM     15  C   LIG d   1       6.511  -3.082  -5.087  0.00  0.00    -0.034 C 
ATOM     16  H   LIG d   1       6.920  -3.577  -3.025  0.00  0.00     0.031 H 
ATOM     17  C   LIG d   1       8.325  -5.249  -4.718  0.00  0.00    -0.062 C 
ATOM     18  C   LIG d   1       9.682  -3.875  -3.064  0.00  0.00    -0.038 C 
ATOM     19  C   LIG d   1       8.782  -6.383  -4.204  0.00  0.00    -0.037 C 
ATOM     20  C   LIG d   1       7.345  -5.314  -5.877  0.00  0.00    -0.031 C 
ATOM     21  C   LIG d   1       9.654  -6.332  -3.015  0.00  0.00     0.080 C 
ATOM     22  H   LIG d   1       8.509  -7.332  -4.642  0.00  0.00     0.064 H 
ATOM     23  C   LIG d   1       9.530  -5.090  -2.150  0.00  0.00    -0.006 C 
ATOM     24  N   LIG d   1      10.477  -7.289  -2.725  0.00  0.00    -0.089 NA
ATOM     25  H   LIG d   1      10.315  -5.086  -1.395  0.00  0.00     0.033 H 
ATOM     26  H   LIG d   1       8.552  -5.072  -1.669  0.00  0.00     0.033 H 
ATOM     27  C   LIG d   1       6.105  -4.505  -5.479  0.00  0.00    -0.046 C 
ATOM     28  H   LIG d   1       7.798  -4.881  -6.768  0.00  0.00     0.031 H 
ATOM     29  H   LIG d   1       7.065  -6.350  -6.067  0.00  0.00     0.031 H 
ATOM     30  H   LIG d   1       5.414  -4.466  -6.321  0.00  0.00     0.027 H 
ATOM     31  H   LIG d   1       5.615  -4.987  -4.633  0.00  0.00     0.027 H 
ATOM     32  H   LIG d   1      10.694  -3.860  -3.468  0.00  0.00     0.028 H 
ATOM     33  H   LIG d   1       9.524  -2.970  -2.477  0.00  0.00     0.028 H 
ATOM     34  H   LIG d   1       7.067  -2.645  -5.916  0.00  0.00     0.031 H 
ATOM     35  H   LIG d   1       4.711  -2.162  -5.769  0.00  0.00     0.031 H 
ATOM     36  C   LIG d   1       4.363  -2.837  -3.758  0.00  0.00    -0.046 C 
ATOM     37  C   LIG d   1       3.457  -1.649  -3.361  0.00  0.00    -0.012 C 
ATOM     38  H   LIG d   1       3.768  -3.654  -4.165  0.00  0.00     0.027 H 
ATOM     39  H   LIG d   1       4.950  -3.176  -2.904  0.00  0.00     0.027 H 
ATOM     40  H   LIG d   1       2.515  -1.698  -3.907  0.00  0.00     0.030 H 
ATOM     41  H   LIG d   1       3.269  -1.665  -2.287  0.00  0.00     0.030 H 
BRANCH   5  42
ATOM     42  C   LIG d   1       6.092   0.105  -5.419  0.00  0.00    -0.056 C 
ATOM     43  H   LIG d   1       7.073  -0.229  -5.757  0.00  0.00     0.024 H 
ATOM     44  H   LIG d   1       5.395   0.089  -6.257  0.00  0.00     0.024 H 
ATOM     45  H   LIG d   1       6.168   1.120  -5.029  0.00  0.00     0.024 H 
ENDBRANCH   5  42
BRANCH  14  46
ATOM     46  C   LIG d   1       9.365  -3.156  -5.373  0.00  0.00    -0.056 C 
ATOM     47  H   LIG d   1       9.603  -3.867  -6.164  0.00  0.00     0.024 H 
ATOM     48  H   LIG d   1       8.686  -2.396  -5.759  0.00  0.00     0.024 H 
ATOM     49  H   LIG d   1      10.282  -2.680  -5.025  0.00  0.00     0.024 H 
ENDBRANCH  14  46
BRANCH  24  50
ATOM     50  O   LIG d   1      11.295  -7.196  -1.573  0.00  0.00    -0.384 OA
BRANCH  50  51
ATOM     51  C   LIG d   1      10.989  -8.162  -0.565  0.00  0.00     0.193 C 
ATOM     52  H   LIG d   1      11.913  -8.519  -0.111  0.00  0.00     0.082 H 
ATOM     53  H   LIG d   1      10.363  -7.703   0.201  0.00  0.00     0.082 H 
BRANCH  51  54
ATOM     54  C   LIG d   1      10.253  -9.321  -1.187  0.00  0.00     0.254 C 
ATOM     55  O   LIG d   1      10.872 -10.270  -1.619  0.00  0.00    -0.272 OA
ATOM     56  N   LIG d   1       8.908  -9.301  -1.263  0.00  0.00    -0.309 N 
ATOM     57  H   LIG d   1       8.417  -8.513  -0.983  0.00  0.00     0.149 HD
BRANCH  56  58
ATOM     58  C   LIG d   1       8.186 -10.473  -1.766  0.00  0.00     0.031 C 
ATOM     59  H   LIG d   1       8.848 -11.064  -2.399  0.00  0.00     0.050 H 
BRANCH  58  60
ATOM     60  C   LIG d   1       7.711 -11.326  -0.588  0.00  0.00     0.005 C 
ATOM     61  H   LIG d   1       8.025 -10.860   0.346  0.00  0.00     0.034 H 
ATOM     62  H   LIG d   1       6.625 -11.403  -0.609  0.00  0.00     0.034 H 
BRANCH  60  63
ATOM     63  C   LIG d   1       8.315 -12.703  -0.691  0.00  0.00     0.043 C 
ATOM     64  O   LIG d   1       7.718 -13.589  -1.278  0.00  0.00    -0.550 OA
ATOM     65  O   LIG d   1       9.402 -12.931  -0.185  0.00  0.00    -0.550 OA
ENDBRANCH  60  63
ENDBRANCH  58  60
BRANCH  58  66
ATOM     66  C   LIG d   1       6.976 -10.014  -2.583  0.00  0.00    -0.018 C 
ATOM     67  H   LIG d   1       6.896  -8.928  -2.536  0.00  0.00     0.032 H 
ATOM     68  C   LIG d   1       7.145 -10.453  -4.041  0.00  0.00    -0.020 C 
ATOM     69  C   LIG d   1       5.894 -10.061  -4.831  0.00  0.00     0.064 C 
ATOM     70  H   LIG d   1       8.018  -9.962  -4.470  0.00  0.00     0.030 H 
ATOM     71  H   LIG d   1       7.277 -11.534  -4.083  0.00  0.00     0.030 H 
ATOM     72  O   LIG d   1       4.743 -10.658  -4.230  0.00  0.00    -0.374 OA
ATOM     73  C   LIG d   1       4.509 -10.245  -2.882  0.00  0.00     0.049 C 
ATOM     74  C   LIG d   1       5.703 -10.647  -2.012  0.00  0.00    -0.025 C 
ATOM     75  H   LIG d   1       3.606 -10.727  -2.506  0.00  0.00     0.056 H 
ATOM     76  H   LIG d   1       4.384  -9.163  -2.850  0.00  0.00     0.056 H 
ATOM     77  H   LIG d   1       5.805 -11.732  -2.012  0.00  0.00     0.029 H 
ATOM     78  H   LIG d   1       5.546 -10.294  -0.993  0.00  0.00     0.029 H 
BRANCH  69  79
ATOM     79  C   LIG d   1       5.743  -8.538  -4.821  0.00  0.00    -0.036 C 
ATOM     80  H   LIG d   1       6.729  -8.075  -4.841  0.00  0.00     0.026 H 
ATOM     81  H   LIG d   1       5.175  -8.223  -5.696  0.00  0.00     0.026 H 
ATOM     82  H   LIG d   1       5.216  -8.231  -3.917  0.00  0.00     0.026 H 
ENDBRANCH  69  79
BRANCH  69  83
ATOM     83  C   LIG d   1       6.028 -10.552  -6.274  0.00  0.00    -0.036 C 
ATOM     84  H   LIG d   1       5.690  -9.772  -6.957  0.00  0.00     0.026 H 
ATOM     85  H   LIG d   1       7.072 -10.789  -6.482  0.00  0.00     0.026 H 
ATOM     86  H   LIG d   1       5.418 -11.445  -6.412  0.00  0.00     0.026 H 
ENDBRANCH  69  83
ENDBRANCH  58  66
ENDBRANCH  56  58
ENDBRANCH  51  54
ENDBRANCH  50  51
ENDBRANCH  24  50
BRANCH   4  87
ATOM     87  O   LIG d   1       3.493   0.363  -4.732  0.00  0.00    -0.376 OA
ATOM     88  H   LIG d   1       3.318   1.284  -4.492  0.00  0.00     0.211 HD
ENDBRANCH   4  87
ENDBRANCH   1   4
TORSDOF 13
ENDMDL
MODEL 3
REMARK VINA RESULT:      -6.9      6.661     10.591
REMARK  13 active torsions:
REMARK  status: ('A' for Active; 'I' for Inactive)
REMARK    1  A    between atoms: C_1  and  C_2 
REMARK    2  A    between atoms: N_6  and  O_7 
REMARK    3  A    between atoms: O_7  and  C_8 
REMARK    4  A    between atoms: C_8  and  C_9 
REMARK       I    between atoms: C_9  and  N_11 
REMARK    5  A    between atoms: N_11  and  C_12 
REMARK    6  A    between atoms: C_12  and  C_14 
REMARK    7  A    between atoms: C_12  and  C_18 
REMARK    8  A    between atoms: C_14  and  C_15 
REMARK    9  A    between atoms: C_23  and  C_25 
REMARK   10  A    between atoms: C_23  and  C_26 
REMARK   11  A    between atoms: C_37  and  C_46 
REMARK   12  A    between atoms: C_42  and  C_43 
REMARK   13  A    between atoms: C_42  and  O_45 
ROOT
ATOM      1  C   LIG d   1       9.422   7.842  -8.101  0.00  0.00    -0.070 C 
ATOM      2  C   LIG d   1       9.079   8.670  -7.344  0.00  0.00    -0.116 C 
ATOM      3  H   LIG d   1       8.769   9.411  -6.667  0.00  0.00     0.123 H 
ENDROOT
BRANCH   1   4
ATOM      4  C   LIG d   1       9.854   6.803  -9.051  0.00  0.00     0.132 C 
ATOM      5  C   LIG d   1      10.549   5.642  -8.290  0.00  0.00     0.011 C 
ATOM      6  C   LIG d   1       9.933   5.605  -6.889  0.00  0.00    -0.043 C 
ATOM      7  C   LIG d   1      10.130   4.400  -9.096  0.00  0.00    -0.029 C 
ATOM      8  C   LIG d   1      10.284   4.300  -6.182  0.00  0.00    -0.049 C 
ATOM      9  H   LIG d   1       8.850   5.691  -6.971  0.00  0.00     0.027 H 
ATOM     10  H   LIG d   1      10.316   6.444  -6.306  0.00  0.00     0.027 H 
ATOM     11  C   LIG d   1       9.679   3.132  -6.971  0.00  0.00    -0.029 C 
ATOM     12  H   LIG d   1       9.873   4.310  -5.172  0.00  0.00     0.027 H 
ATOM     13  H   LIG d   1      11.367   4.188  -6.137  0.00  0.00     0.027 H 
ATOM     14  C   LIG d   1       9.994   1.826  -6.238  0.00  0.00    -0.007 C 
ATOM     15  C   LIG d   1      10.325   3.098  -8.356  0.00  0.00    -0.034 C 
ATOM     16  H   LIG d   1       8.600   3.255  -7.065  0.00  0.00     0.031 H 
ATOM     17  C   LIG d   1       9.566   0.666  -7.079  0.00  0.00    -0.062 C 
ATOM     18  C   LIG d   1       9.452   1.843  -4.829  0.00  0.00    -0.038 C 
ATOM     19  C   LIG d   1       8.745  -0.288  -6.662  0.00  0.00    -0.037 C 
ATOM     20  C   LIG d   1      10.096   0.604  -8.502  0.00  0.00    -0.031 C 
ATOM     21  C   LIG d   1       8.147  -0.181  -5.317  0.00  0.00     0.080 C 
ATOM     22  H   LIG d   1       8.507  -1.124  -7.302  0.00  0.00     0.064 H 
ATOM     23  C   LIG d   1       8.061   1.218  -4.735  0.00  0.00    -0.006 C 
ATOM     24  N   LIG d   1       7.720  -1.220  -4.671  0.00  0.00    -0.089 NA
ATOM     25  H   LIG d   1       7.748   1.167  -3.692  0.00  0.00     0.033 H 
ATOM     26  H   LIG d   1       7.349   1.813  -5.307  0.00  0.00     0.033 H 
ATOM     27  C   LIG d   1       9.760   1.938  -9.179  0.00  0.00    -0.046 C 
ATOM     28  H   LIG d   1      11.175   0.457  -8.489  0.00  0.00     0.031 H 
ATOM     29  H   LIG d   1       9.616  -0.214  -9.040  0.00  0.00     0.031 H 
ATOM     30  H   LIG d   1      10.197   1.957 -10.177  0.00  0.00     0.027 H 
ATOM     31  H   LIG d   1       8.678   2.042  -9.256  0.00  0.00     0.027 H 
ATOM     32  H   LIG d   1      10.133   1.289  -4.183  0.00  0.00     0.028 H 
ATOM     33  H   LIG d   1       9.400   2.875  -4.483  0.00  0.00     0.028 H 
ATOM     34  H   LIG d   1      11.394   2.936  -8.223  0.00  0.00     0.031 H 
ATOM     35  H   LIG d   1      10.696   4.372 -10.027  0.00  0.00     0.031 H 
ATOM     36  C   LIG d   1       8.652   4.674  -9.432  0.00  0.00    -0.046 C 
ATOM     37  C   LIG d   1       8.629   6.186  -9.754  0.00  0.00    -0.012 C 
ATOM     38  H   LIG d   1       8.343   4.092 -10.301  0.00  0.00     0.027 H 
ATOM     39  H   LIG d   1       8.016   4.453  -8.575  0.00  0.00     0.027 H 
ATOM     40  H   LIG d   1       8.700   6.341 -10.830  0.00  0.00     0.030 H 
ATOM     41  H   LIG d   1       7.713   6.636  -9.370  0.00  0.00     0.030 H 
BRANCH   5  42
ATOM     42  C   LIG d   1      12.068   5.818  -8.240  0.00  0.00    -0.056 C 
ATOM     43  H   LIG d   1      12.533   4.879  -7.937  0.00  0.00     0.024 H 
ATOM     44  H   LIG d   1      12.434   6.102  -9.227  0.00  0.00     0.024 H 
ATOM     45  H   LIG d   1      12.321   6.596  -7.520  0.00  0.00     0.024 H 
ENDBRANCH   5  42
BRANCH  14  46
ATOM     46  C   LIG d   1      11.518   1.747  -6.123  0.00  0.00    -0.056 C 
ATOM     47  H   LIG d   1      11.823   2.064  -5.125  0.00  0.00     0.024 H 
ATOM     48  H   LIG d   1      11.843   0.721  -6.294  0.00  0.00     0.024 H 
ATOM     49  H   LIG d   1      11.973   2.401  -6.866  0.00  0.00     0.024 H 
ENDBRANCH  14  46
BRANCH  24  50
ATOM     50  O   LIG d   1       7.153  -1.069  -3.383  0.00  0.00    -0.384 OA
BRANCH  50  51
ATOM     51  C   LIG d   1       6.122  -2.013  -3.088  0.00  0.00     0.193 C 
ATOM     52  H   LIG d   1       6.515  -3.025  -3.191  0.00  0.00     0.082 H 
ATOM     53  H   LIG d   1       5.772  -1.863  -2.066  0.00  0.00     0.082 H 
BRANCH  51  54
ATOM     54  C   LIG d   1       4.975  -1.819  -4.046  0.00  0.00     0.254 C 
ATOM     55  O   LIG d   1       4.266  -2.758  -4.341  0.00  0.00    -0.272 OA
ATOM     56  N   LIG d   1       4.738  -0.603  -4.574  0.00  0.00    -0.309 N 
ATOM     57  H   LIG d   1       5.346   0.132  -4.396  0.00  0.00     0.149 HD
BRANCH  56  58
ATOM     58  C   LIG d   1       3.559  -0.387  -5.418  0.00  0.00     0.031 C 
ATOM     59  H   LIG d   1       3.087  -1.346  -5.633  0.00  0.00     0.050 H 
BRANCH  58  60
ATOM     60  C   LIG d   1       2.566   0.518  -4.687  0.00  0.00     0.005 C 
ATOM     61  H   LIG d   1       2.294   1.353  -5.332  0.00  0.00     0.034 H 
ATOM     62  H   LIG d   1       1.673  -0.051  -4.434  0.00  0.00     0.034 H 
BRANCH  60  63
ATOM     63  C   LIG d   1       3.202   1.044  -3.425  0.00  0.00     0.043 C 
ATOM     64  O   LIG d   1       3.047   0.452  -2.372  0.00  0.00    -0.550 OA
ATOM     65  O   LIG d   1       3.871   2.064  -3.460  0.00  0.00    -0.550 OA
ENDBRANCH  60  63
ENDBRANCH  58  60
BRANCH  58  66
ATOM     66  C   LIG d   1       3.986   0.277  -6.729  0.00  0.00    -0.018 C 
ATOM     67  H   LIG d   1       4.397   1.264  -6.520  0.00  0.00     0.032 H 
ATOM     68  C   LIG d   1       5.048  -0.586  -7.418  0.00  0.00    -0.020 C 
ATOM     69  C   LIG d   1       5.409   0.045  -8.766  0.00  0.00     0.064 C 
ATOM     70  H   LIG d   1       5.937  -0.639  -6.790  0.00  0.00     0.030 H 
ATOM     71  H   LIG d   1       4.654  -1.588  -7.581  0.00  0.00     0.030 H 
ATOM     72  O   LIG d   1       4.231   0.170  -9.565  0.00  0.00    -0.374 OA
ATOM     73  C   LIG d   1       3.223   1.005  -8.991  0.00  0.00     0.049 C 
ATOM     74  C   LIG d   1       2.772   0.412  -7.653  0.00  0.00    -0.025 C 
ATOM     75  H   LIG d   1       2.370   1.064  -9.668  0.00  0.00     0.056 H 
ATOM     76  H   LIG d   1       3.627   2.003  -8.828  0.00  0.00     0.056 H 
ATOM     77  H   LIG d   1       2.331  -0.571  -7.821  0.00  0.00     0.029 H 
ATOM     78  H   LIG d   1       2.035   1.070  -7.193  0.00  0.00     0.029 H 
BRANCH  69  79
ATOM     79  C   LIG d   1       6.017   1.429  -8.533  0.00  0.00    -0.036 C 
ATOM     80  H   LIG d   1       5.316   2.044  -7.968  0.00  0.00     0.026 H 
ATOM     81  H   LIG d   1       6.947   1.329  -7.973  0.00  0.00     0.026 H 
ATOM     82  H   LIG d   1       6.222   1.903  -9.494  0.00  0.00     0.026 H 
ENDBRANCH  69  79
BRANCH  69  83
ATOM     83  C   LIG d   1       6.423  -0.843  -9.489  0.00  0.00    -0.036 C 
ATOM     84  H   LIG d   1       7.432  -0.575  -9.174  0.00  0.00     0.026 H 
ATOM     85  H   LIG d   1       6.231  -1.888  -9.243  0.00  0.00     0.026 H 
ATOM     86  H   LIG d   1       6.329  -0.701 -10.565  0.00  0.00     0.026 H 
ENDBRANCH  69  83
ENDBRANCH  58  66
ENDBRANCH  56  58
ENDBRANCH  51  54
ENDBRANCH  50  51
ENDBRANCH  24  50
BRANCH   4  87
ATOM     87  O   LIG d   1      10.746   7.361 -10.018  0.00  0.00    -0.376 OA
ATOM     88  H   LIG d   1      10.630   8.311 -10.158  0.00  0.00     0.211 HD
ENDBRANCH   4  87
ENDBRANCH   1   4
TORSDOF 13
ENDMDL
MODEL 4
REMARK VINA RESULT:      -6.9      1.360      3.305
REMARK  13 active torsions:
REMARK  status: ('A' for Active; 'I' for Inactive)
REMARK    1  A    between atoms: C_1  and  C_2 
REMARK    2  A    between atoms: N_6  and  O_7 
REMARK    3  A    between atoms: O_7  and  C_8 
REMARK    4  A    between atoms: C_8  and  C_9 
REMARK       I    between atoms: C_9  and  N_11 
REMARK    5  A    between atoms: N_11  and  C_12 
REMARK    6  A    between atoms: C_12  and  C_14 
REMARK    7  A    between atoms: C_12  and  C_18 
REMARK    8  A    between atoms: C_14  and  C_15 
REMARK    9  A    between atoms: C_23  and  C_25 
REMARK   10  A    between atoms: C_23  and  C_26 
REMARK   11  A    between atoms: C_37  and  C_46 
REMARK   12  A    between atoms: C_42  and  C_43 
REMARK   13  A    between atoms: C_42  and  O_45 
ROOT
ATOM      1  C   LIG d   1       4.266   0.611  -2.343  0.00  0.00    -0.070 C 
ATOM      2  C   LIG d   1       4.648   1.383  -1.545  0.00  0.00    -0.116 C 
ATOM      3  H   LIG d   1       4.991   2.074  -0.832  0.00  0.00     0.123 H 
ENDROOT
BRANCH   1   4
ATOM      4  C   LIG d   1       3.786  -0.356  -3.344  0.00  0.00     0.132 C 
ATOM      5  C   LIG d   1       4.957  -0.798  -4.262  0.00  0.00     0.011 C 
ATOM      6  C   LIG d   1       6.235  -0.685  -3.427  0.00  0.00    -0.043 C 
ATOM      7  C   LIG d   1       4.631  -2.272  -4.554  0.00  0.00    -0.029 C 
ATOM      8  C   LIG d   1       7.388  -1.418  -4.107  0.00  0.00    -0.049 C 
ATOM      9  H   LIG d   1       6.061  -1.121  -2.444  0.00  0.00     0.027 H 
ATOM     10  H   LIG d   1       6.498   0.367  -3.312  0.00  0.00     0.027 H 
ATOM     11  C   LIG d   1       7.039  -2.909  -4.200  0.00  0.00    -0.029 C 
ATOM     12  H   LIG d   1       8.297  -1.291  -3.520  0.00  0.00     0.027 H 
ATOM     13  H   LIG d   1       7.537  -1.015  -5.109  0.00  0.00     0.027 H 
ATOM     14  C   LIG d   1       8.213  -3.651  -4.843  0.00  0.00    -0.007 C 
ATOM     15  C   LIG d   1       5.803  -3.062  -5.086  0.00  0.00    -0.034 C 
ATOM     16  H   LIG d   1       6.840  -3.315  -3.208  0.00  0.00     0.031 H 
ATOM     17  C   LIG d   1       7.824  -5.072  -5.102  0.00  0.00    -0.062 C 
ATOM     18  C   LIG d   1       9.484  -3.458  -4.051  0.00  0.00    -0.038 C 
ATOM     19  C   LIG d   1       8.506  -6.118  -4.658  0.00  0.00    -0.037 C 
ATOM     20  C   LIG d   1       6.556  -5.312  -5.904  0.00  0.00    -0.031 C 
ATOM     21  C   LIG d   1       9.681  -5.894  -3.794  0.00  0.00     0.080 C 
ATOM     22  H   LIG d   1       8.199  -7.122  -4.914  0.00  0.00     0.064 H 
ATOM     23  C   LIG d   1       9.711  -4.578  -3.037  0.00  0.00    -0.006 C 
ATOM     24  N   LIG d   1      10.632  -6.768  -3.687  0.00  0.00    -0.089 NA
ATOM     25  H   LIG d   1      10.680  -4.451  -2.555  0.00  0.00     0.033 H 
ATOM     26  H   LIG d   1       8.919  -4.566  -2.288  0.00  0.00     0.033 H 
ATOM     27  C   LIG d   1       5.423  -4.539  -5.219  0.00  0.00    -0.046 C 
ATOM     28  H   LIG d   1       6.688  -4.949  -6.922  0.00  0.00     0.031 H 
ATOM     29  H   LIG d   1       6.321  -6.376  -5.915  0.00  0.00     0.031 H 
ATOM     30  H   LIG d   1       4.514  -4.626  -5.815  0.00  0.00     0.027 H 
ATOM     31  H   LIG d   1       5.246  -4.957  -4.228  0.00  0.00     0.027 H 
ATOM     32  H   LIG d   1      10.327  -3.428  -4.740  0.00  0.00     0.028 H 
ATOM     33  H   LIG d   1       9.428  -2.507  -3.520  0.00  0.00     0.028 H 
ATOM     34  H   LIG d   1       6.052  -2.682  -6.077  0.00  0.00     0.031 H 
ATOM     35  H   LIG d   1       3.810  -2.322  -5.269  0.00  0.00     0.031 H 
ATOM     36  C   LIG d   1       4.128  -2.803  -3.198  0.00  0.00    -0.046 C 
ATOM     37  C   LIG d   1       3.280  -1.633  -2.646  0.00  0.00    -0.012 C 
ATOM     38  H   LIG d   1       3.511  -3.690  -3.339  0.00  0.00     0.027 H 
ATOM     39  H   LIG d   1       4.966  -3.016  -2.535  0.00  0.00     0.027 H 
ATOM     40  H   LIG d   1       2.227  -1.792  -2.878  0.00  0.00     0.030 H 
ATOM     41  H   LIG d   1       3.417  -1.548  -1.568  0.00  0.00     0.030 H 
BRANCH   5  42
ATOM     42  C   LIG d   1       5.034   0.045  -5.538  0.00  0.00    -0.056 C 
ATOM     43  H   LIG d   1       4.391   0.919  -5.435  0.00  0.00     0.024 H 
ATOM     44  H   LIG d   1       6.063   0.369  -5.697  0.00  0.00     0.024 H 
ATOM     45  H   LIG d   1       4.705  -0.551  -6.388  0.00  0.00     0.024 H 
ENDBRANCH   5  42
BRANCH  14  46
ATOM     46  C   LIG d   1       8.443  -3.002  -6.209  0.00  0.00    -0.056 C 
ATOM     47  H   LIG d   1       7.498  -2.615  -6.591  0.00  0.00     0.024 H 
ATOM     48  H   LIG d   1       9.156  -2.184  -6.108  0.00  0.00     0.024 H 
ATOM     49  H   LIG d   1       8.838  -3.744  -6.902  0.00  0.00     0.024 H 
ENDBRANCH  14  46
BRANCH  24  50
ATOM     50  O   LIG d   1      11.740  -6.509  -2.845  0.00  0.00    -0.384 OA
BRANCH  50  51
ATOM     51  C   LIG d   1      12.236  -7.665  -2.167  0.00  0.00     0.193 C 
ATOM     52  H   LIG d   1      12.324  -8.491  -2.873  0.00  0.00     0.082 H 
ATOM     53  H   LIG d   1      13.216  -7.445  -1.742  0.00  0.00     0.082 H 
BRANCH  51  54
ATOM     54  C   LIG d   1      11.284  -8.046  -1.063  0.00  0.00     0.254 C 
ATOM     55  O   LIG d   1      10.692  -7.184  -0.448  0.00  0.00    -0.272 OA
ATOM     56  N   LIG d   1      11.091  -9.344  -0.758  0.00  0.00    -0.309 N 
ATOM     57  H   LIG d   1      11.616 -10.030  -1.199  0.00  0.00     0.149 HD
BRANCH  56  58
ATOM     58  C   LIG d   1      10.084  -9.721   0.239  0.00  0.00     0.031 C 
ATOM     59  H   LIG d   1       9.517  -8.838   0.533  0.00  0.00     0.050 H 
BRANCH  58  60
ATOM     60  C   LIG d   1       9.136 -10.761  -0.361  0.00  0.00     0.005 C 
ATOM     61  H   LIG d   1       9.660 -11.330  -1.129  0.00  0.00     0.034 H 
ATOM     62  H   LIG d   1       8.795 -11.437   0.423  0.00  0.00     0.034 H 
BRANCH  60  63
ATOM     63  C   LIG d   1       7.949 -10.063  -0.975  0.00  0.00     0.043 C 
ATOM     64  O   LIG d   1       8.117  -9.094  -1.695  0.00  0.00    -0.550 OA
ATOM     65  O   LIG d   1       6.821 -10.468  -0.750  0.00  0.00    -0.550 OA
ENDBRANCH  60  63
ENDBRANCH  58  60
BRANCH  58  66
ATOM     66  C   LIG d   1      10.780 -10.313   1.466  0.00  0.00    -0.018 C 
ATOM     67  H   LIG d   1      10.109 -11.014   1.963  0.00  0.00     0.032 H 
ATOM     68  C   LIG d   1      12.054 -11.045   1.029  0.00  0.00    -0.020 C 
ATOM     69  C   LIG d   1      12.785 -11.564   2.271  0.00  0.00     0.064 C 
ATOM     70  H   LIG d   1      11.789 -11.882   0.384  0.00  0.00     0.030 H 
ATOM     71  H   LIG d   1      12.702 -10.357   0.487  0.00  0.00     0.030 H 
ATOM     72  O   LIG d   1      13.077 -10.471   3.143  0.00  0.00    -0.374 OA
ATOM     73  C   LIG d   1      11.920  -9.780   3.621  0.00  0.00     0.049 C 
ATOM     74  C   LIG d   1      11.156  -9.188   2.434  0.00  0.00    -0.025 C 
ATOM     75  H   LIG d   1      12.228  -8.978   4.293  0.00  0.00     0.056 H 
ATOM     76  H   LIG d   1      11.277 -10.477   4.157  0.00  0.00     0.056 H 
ATOM     77  H   LIG d   1      11.786  -8.461   1.921  0.00  0.00     0.029 H 
ATOM     78  H   LIG d   1      10.250  -8.698   2.793  0.00  0.00     0.029 H 
BRANCH  69  79
ATOM     79  C   LIG d   1      11.896 -12.575   2.998  0.00  0.00    -0.036 C 
ATOM     80  H   LIG d   1      12.517 -13.242   3.595  0.00  0.00     0.026 H 
ATOM     81  H   LIG d   1      11.201 -12.045   3.649  0.00  0.00     0.026 H 
ATOM     82  H   LIG d   1      11.336 -13.158   2.266  0.00  0.00     0.026 H 
ENDBRANCH  69  79
BRANCH  69  83
ATOM     83  C   LIG d   1      14.090 -12.241   1.848  0.00  0.00    -0.036 C 
ATOM     84  H   LIG d   1      13.888 -13.275   1.566  0.00  0.00     0.026 H 
ATOM     85  H   LIG d   1      14.515 -11.710   0.996  0.00  0.00     0.026 H 
ATOM     86  H   LIG d   1      14.795 -12.221   2.678  0.00  0.00     0.026 H 
ENDBRANCH  69  83
ENDBRANCH  58  66
ENDBRANCH  56  58
ENDBRANCH  51  54
ENDBRANCH  50  51
ENDBRANCH  24  50
BRANCH   4  87
ATOM     87  O   LIG d   1       2.740   0.224  -4.126  0.00  0.00    -0.376 OA
ATOM     88  H   LIG d   1       1.875   0.217  -3.692  0.00  0.00     0.211 HD
ENDBRANCH   4  87
ENDBRANCH   1   4
TORSDOF 13
ENDMDL
MODEL 5
REMARK VINA RESULT:      -6.8      6.301     10.385
REMARK  13 active torsions:
REMARK  status: ('A' for Active; 'I' for Inactive)
REMARK    1  A    between atoms: C_1  and  C_2 
REMARK    2  A    between atoms: N_6  and  O_7 
REMARK    3  A    between atoms: O_7  and  C_8 
REMARK    4  A    between atoms: C_8  and  C_9 
REMARK       I    between atoms: C_9  and  N_11 
REMARK    5  A    between atoms: N_11  and  C_12 
REMARK    6  A    between atoms: C_12  and  C_14 
REMARK    7  A    between atoms: C_12  and  C_18 
REMARK    8  A    between atoms: C_14  and  C_15 
REMARK    9  A    between atoms: C_23  and  C_25 
REMARK   10  A    between atoms: C_23  and  C_26 
REMARK   11  A    between atoms: C_37  and  C_46 
REMARK   12  A    between atoms: C_42  and  C_43 
REMARK   13  A    between atoms: C_42  and  O_45 
ROOT
ATOM      1  C   LIG d   1       3.848   1.682  -3.062  0.00  0.00    -0.070 C 
ATOM      2  C   LIG d   1       2.950   2.324  -3.460  0.00  0.00    -0.116 C 
ATOM      3  H   LIG d   1       2.147   2.900  -3.817  0.00  0.00     0.123 H 
ENDROOT
BRANCH   1   4
ATOM      4  C   LIG d   1       4.975   0.876  -2.562  0.00  0.00     0.132 C 
ATOM      5  C   LIG d   1       4.809  -0.603  -3.005  0.00  0.00     0.011 C 
ATOM      6  C   LIG d   1       4.023  -0.581  -4.319  0.00  0.00    -0.043 C 
ATOM      7  C   LIG d   1       6.258  -1.055  -3.250  0.00  0.00    -0.029 C 
ATOM      8  C   LIG d   1       4.106  -1.935  -5.017  0.00  0.00    -0.049 C 
ATOM      9  H   LIG d   1       4.437   0.186  -4.972  0.00  0.00     0.027 H 
ATOM     10  H   LIG d   1       2.978  -0.349  -4.109  0.00  0.00     0.027 H 
ATOM     11  C   LIG d   1       5.570  -2.220  -5.371  0.00  0.00    -0.029 C 
ATOM     12  H   LIG d   1       3.507  -1.914  -5.927  0.00  0.00     0.027 H 
ATOM     13  H   LIG d   1       3.733  -2.714  -4.350  0.00  0.00     0.027 H 
ATOM     14  C   LIG d   1       5.648  -3.558  -6.110  0.00  0.00    -0.007 C 
ATOM     15  C   LIG d   1       6.372  -2.317  -4.074  0.00  0.00    -0.034 C 
ATOM     16  H   LIG d   1       5.971  -1.424  -6.000  0.00  0.00     0.031 H 
ATOM     17  C   LIG d   1       7.081  -3.937  -6.308  0.00  0.00    -0.062 C 
ATOM     18  C   LIG d   1       4.799  -3.546  -7.358  0.00  0.00    -0.038 C 
ATOM     19  C   LIG d   1       7.615  -4.220  -7.489  0.00  0.00    -0.037 C 
ATOM     20  C   LIG d   1       7.970  -3.971  -5.076  0.00  0.00    -0.031 C 
ATOM     21  C   LIG d   1       6.784  -4.091  -8.701  0.00  0.00     0.080 C 
ATOM     22  H   LIG d   1       8.648  -4.529  -7.563  0.00  0.00     0.064 H 
ATOM     23  C   LIG d   1       5.598  -3.149  -8.599  0.00  0.00    -0.006 C 
ATOM     24  N   LIG d   1       7.050  -4.743  -9.789  0.00  0.00    -0.089 NA
ATOM     25  H   LIG d   1       4.973  -3.243  -9.487  0.00  0.00     0.033 H 
ATOM     26  H   LIG d   1       5.950  -2.122  -8.499  0.00  0.00     0.033 H 
ATOM     27  C   LIG d   1       7.843  -2.613  -4.377  0.00  0.00    -0.046 C 
ATOM     28  H   LIG d   1       7.642  -4.764  -4.406  0.00  0.00     0.031 H 
ATOM     29  H   LIG d   1       9.006  -4.138  -5.372  0.00  0.00     0.031 H 
ATOM     30  H   LIG d   1       8.408  -2.632  -3.445  0.00  0.00     0.027 H 
ATOM     31  H   LIG d   1       8.243  -1.833  -5.025  0.00  0.00     0.027 H 
ATOM     32  H   LIG d   1       4.381  -4.541  -7.510  0.00  0.00     0.028 H 
ATOM     33  H   LIG d   1       3.982  -2.838  -7.223  0.00  0.00     0.028 H 
ATOM     34  H   LIG d   1       5.969  -3.144  -3.491  0.00  0.00     0.031 H 
ATOM     35  H   LIG d   1       6.752  -1.207  -2.291  0.00  0.00     0.031 H 
ATOM     36  C   LIG d   1       6.901   0.162  -3.942  0.00  0.00    -0.046 C 
ATOM     37  C   LIG d   1       6.295   1.367  -3.185  0.00  0.00    -0.012 C 
ATOM     38  H   LIG d   1       7.985   0.141  -3.824  0.00  0.00     0.027 H 
ATOM     39  H   LIG d   1       6.628   0.193  -4.996  0.00  0.00     0.027 H 
ATOM     40  H   LIG d   1       6.976   1.698  -2.402  0.00  0.00     0.030 H 
ATOM     41  H   LIG d   1       6.098   2.184  -3.880  0.00  0.00     0.030 H 
BRANCH   5  42
ATOM     42  C   LIG d   1       4.108  -1.446  -1.937  0.00  0.00    -0.056 C 
ATOM     43  H   LIG d   1       4.798  -2.202  -1.561  0.00  0.00     0.024 H 
ATOM     44  H   LIG d   1       3.792  -0.803  -1.116  0.00  0.00     0.024 H 
ATOM     45  H   LIG d   1       3.237  -1.935  -2.373  0.00  0.00     0.024 H 
ENDBRANCH   5  42
BRANCH  14  46
ATOM     46  C   LIG d   1       5.042  -4.608  -5.176  0.00  0.00    -0.056 C 
ATOM     47  H   LIG d   1       4.488  -5.340  -5.763  0.00  0.00     0.024 H 
ATOM     48  H   LIG d   1       5.839  -5.109  -4.627  0.00  0.00     0.024 H 
ATOM     49  H   LIG d   1       4.366  -4.121  -4.472  0.00  0.00     0.024 H 
ENDBRANCH  14  46
BRANCH  24  50
ATOM     50  O   LIG d   1       6.224  -4.586 -10.928  0.00  0.00    -0.384 OA
BRANCH  50  51
ATOM     51  C   LIG d   1       6.904  -4.059 -12.070  0.00  0.00     0.193 C 
ATOM     52  H   LIG d   1       7.980  -4.119 -11.911  0.00  0.00     0.082 H 
ATOM     53  H   LIG d   1       6.634  -4.639 -12.953  0.00  0.00     0.082 H 
BRANCH  51  54
ATOM     54  C   LIG d   1       6.503  -2.621 -12.272  0.00  0.00     0.254 C 
ATOM     55  O   LIG d   1       7.217  -1.877 -12.911  0.00  0.00    -0.272 OA
ATOM     56  N   LIG d   1       5.353  -2.161 -11.741  0.00  0.00    -0.309 N 
ATOM     57  H   LIG d   1       4.819  -2.734 -11.169  0.00  0.00     0.149 HD
BRANCH  56  58
ATOM     58  C   LIG d   1       4.909  -0.794 -12.027  0.00  0.00     0.031 C 
ATOM     59  H   LIG d   1       5.632  -0.307 -12.681  0.00  0.00     0.050 H 
BRANCH  58  60
ATOM     60  C   LIG d   1       3.544  -0.836 -12.717  0.00  0.00     0.005 C 
ATOM     61  H   LIG d   1       2.933  -0.006 -12.363  0.00  0.00     0.034 H 
ATOM     62  H   LIG d   1       3.679  -0.754 -13.795  0.00  0.00     0.034 H 
BRANCH  60  63
ATOM     63  C   LIG d   1       2.858  -2.139 -12.394  0.00  0.00     0.043 C 
ATOM     64  O   LIG d   1       2.920  -3.071 -13.177  0.00  0.00    -0.550 OA
ATOM     65  O   LIG d   1       2.240  -2.259 -11.349  0.00  0.00    -0.550 OA
ENDBRANCH  60  63
ENDBRANCH  58  60
BRANCH  58  66
ATOM     66  C   LIG d   1       4.794  -0.010 -10.718  0.00  0.00    -0.018 C 
ATOM     67  H   LIG d   1       4.348  -0.644  -9.952  0.00  0.00     0.032 H 
ATOM     68  C   LIG d   1       6.189   0.436 -10.266  0.00  0.00    -0.020 C 
ATOM     69  C   LIG d   1       6.056   1.288  -9.000  0.00  0.00     0.064 C 
ATOM     70  H   LIG d   1       6.801  -0.440 -10.054  0.00  0.00     0.030 H 
ATOM     71  H   LIG d   1       6.656   1.027 -11.053  0.00  0.00     0.030 H 
ATOM     72  O   LIG d   1       5.204   2.404  -9.264  0.00  0.00    -0.374 OA
ATOM     73  C   LIG d   1       3.874   2.045  -9.644  0.00  0.00     0.049 C 
ATOM     74  C   LIG d   1       3.918   1.226 -10.937  0.00  0.00    -0.025 C 
ATOM     75  H   LIG d   1       3.286   2.950  -9.806  0.00  0.00     0.056 H 
ATOM     76  H   LIG d   1       3.417   1.452  -8.853  0.00  0.00     0.056 H 
ATOM     77  H   LIG d   1       4.338   1.834 -11.739  0.00  0.00     0.029 H 
ATOM     78  H   LIG d   1       2.908   0.915 -11.205  0.00  0.00     0.029 H 
BRANCH  69  79
ATOM     79  C   LIG d   1       5.455   0.440  -7.878  0.00  0.00    -0.036 C 
ATOM     80  H   LIG d   1       5.843  -0.576  -7.942  0.00  0.00     0.026 H 
ATOM     81  H   LIG d   1       5.721   0.872  -6.913  0.00  0.00     0.026 H 
ATOM     82  H   LIG d   1       4.369   0.421  -7.979  0.00  0.00     0.026 H 
ENDBRANCH  69  79
BRANCH  69  83
ATOM     83  C   LIG d   1       7.438   1.790  -8.577  0.00  0.00    -0.036 C 
ATOM     84  H   LIG d   1       7.471   2.877  -8.662  0.00  0.00     0.026 H 
ATOM     85  H   LIG d   1       7.629   1.501  -7.543  0.00  0.00     0.026 H 
ATOM     86  H   LIG d   1       8.198   1.352  -9.223  0.00  0.00     0.026 H 
ENDBRANCH  69  83
ENDBRANCH  58  66
ENDBRANCH  56  58
ENDBRANCH  51  54
ENDBRANCH  50  51
ENDBRANCH  24  50
BRANCH   4  87
ATOM     87  O   LIG d   1       5.043   0.957  -1.137  0.00  0.00    -0.376 OA
ATOM     88  H   LIG d   1       4.384   1.546  -0.745  0.00  0.00     0.211 HD
ENDBRANCH   4  87
ENDBRANCH   1   4
TORSDOF 13
ENDMDL
MODEL 6
REMARK VINA RESULT:      -6.7      7.434     11.269
REMARK  13 active torsions:
REMARK  status: ('A' for Active; 'I' for Inactive)
REMARK    1  A    between atoms: C_1  and  C_2 
REMARK    2  A    between atoms: N_6  and  O_7 
REMARK    3  A    between atoms: O_7  and  C_8 
REMARK    4  A    between atoms: C_8  and  C_9 
REMARK       I    between atoms: C_9  and  N_11 
REMARK    5  A    between atoms: N_11  and  C_12 
REMARK    6  A    between atoms: C_12  and  C_14 
REMARK    7  A    between atoms: C_12  and  C_18 
REMARK    8  A    between atoms: C_14  and  C_15 
REMARK    9  A    between atoms: C_23  and  C_25 
REMARK   10  A    between atoms: C_23  and  C_26 
REMARK   11  A    between atoms: C_37  and  C_46 
REMARK   12  A    between atoms: C_42  and  C_43 
REMARK   13  A    between atoms: C_42  and  O_45 
ROOT
ATOM      1  C   LIG d   1      11.094   7.202   0.870  0.00  0.00    -0.070 C 
ATOM      2  C   LIG d   1      11.196   6.720   1.935  0.00  0.00    -0.116 C 
ATOM      3  H   LIG d   1      11.288   6.288   2.888  0.00  0.00     0.123 H 
ENDROOT
BRANCH   1   4
ATOM      4  C   LIG d   1      10.966   7.808  -0.466  0.00  0.00     0.132 C 
ATOM      5  C   LIG d   1      11.530   6.844  -1.544  0.00  0.00     0.011 C 
ATOM      6  C   LIG d   1      11.342   5.424  -1.004  0.00  0.00    -0.043 C 
ATOM      7  C   LIG d   1      10.604   7.090  -2.748  0.00  0.00    -0.029 C 
ATOM      8  C   LIG d   1      11.536   4.396  -2.114  0.00  0.00    -0.049 C 
ATOM      9  H   LIG d   1      10.337   5.326  -0.594  0.00  0.00     0.027 H 
ATOM     10  H   LIG d   1      12.071   5.240  -0.214  0.00  0.00     0.027 H 
ATOM     11  C   LIG d   1      10.461   4.617  -3.185  0.00  0.00    -0.029 C 
ATOM     12  H   LIG d   1      11.440   3.391  -1.702  0.00  0.00     0.027 H 
ATOM     13  H   LIG d   1      12.524   4.519  -2.558  0.00  0.00     0.027 H 
ATOM     14  C   LIG d   1      10.628   3.559  -4.278  0.00  0.00    -0.007 C 
ATOM     15  C   LIG d   1      10.663   6.004  -3.795  0.00  0.00    -0.034 C 
ATOM     16  H   LIG d   1       9.465   4.544  -2.746  0.00  0.00     0.031 H 
ATOM     17  C   LIG d   1       9.704   3.864  -5.414  0.00  0.00    -0.062 C 
ATOM     18  C   LIG d   1      10.524   2.163  -3.711  0.00  0.00    -0.038 C 
ATOM     19  C   LIG d   1       8.819   3.004  -5.899  0.00  0.00    -0.037 C 
ATOM     20  C   LIG d   1       9.781   5.254  -6.022  0.00  0.00    -0.031 C 
ATOM     21  C   LIG d   1       8.668   1.687  -5.250  0.00  0.00     0.080 C 
ATOM     22  H   LIG d   1       8.208   3.267  -6.750  0.00  0.00     0.064 H 
ATOM     23  C   LIG d   1       9.104   1.606  -3.798  0.00  0.00    -0.006 C 
ATOM     24  N   LIG d   1       8.191   0.661  -5.881  0.00  0.00    -0.089 NA
ATOM     25  H   LIG d   1       9.092   0.569  -3.465  0.00  0.00     0.033 H 
ATOM     26  H   LIG d   1       8.434   2.202  -3.178  0.00  0.00     0.033 H 
ATOM     27  C   LIG d   1       9.618   6.266  -4.882  0.00  0.00    -0.046 C 
ATOM     28  H   LIG d   1      10.748   5.394  -6.504  0.00  0.00     0.031 H 
ATOM     29  H   LIG d   1       8.980   5.385  -6.749  0.00  0.00     0.031 H 
ATOM     30  H   LIG d   1       9.747   7.275  -5.273  0.00  0.00     0.027 H 
ATOM     31  H   LIG d   1       8.620   6.171  -4.454  0.00  0.00     0.027 H 
ATOM     32  H   LIG d   1      11.196   1.507  -4.264  0.00  0.00     0.028 H 
ATOM     33  H   LIG d   1      10.832   2.183  -2.666  0.00  0.00     0.028 H 
ATOM     34  H   LIG d   1      11.650   6.026  -4.257  0.00  0.00     0.031 H 
ATOM     35  H   LIG d   1      10.860   8.045  -3.206  0.00  0.00     0.031 H 
ATOM     36  C   LIG d   1       9.209   7.217  -2.106  0.00  0.00    -0.046 C 
ATOM     37  C   LIG d   1       9.479   8.020  -0.812  0.00  0.00    -0.012 C 
ATOM     38  H   LIG d   1       8.533   7.765  -2.763  0.00  0.00     0.027 H 
ATOM     39  H   LIG d   1       8.804   6.233  -1.870  0.00  0.00     0.027 H 
ATOM     40  H   LIG d   1       9.283   9.078  -0.981  0.00  0.00     0.030 H 
ATOM     41  H   LIG d   1       8.852   7.646  -0.003  0.00  0.00     0.030 H 
BRANCH   5  42
ATOM     42  C   LIG d   1      12.996   7.140  -1.868  0.00  0.00    -0.056 C 
ATOM     43  H   LIG d   1      13.456   7.658  -1.027  0.00  0.00     0.024 H 
ATOM     44  H   LIG d   1      13.525   6.204  -2.050  0.00  0.00     0.024 H 
ATOM     45  H   LIG d   1      13.053   7.768  -2.757  0.00  0.00     0.024 H 
ENDBRANCH   5  42
BRANCH  14  46
ATOM     46  C   LIG d   1      12.052   3.710  -4.817  0.00  0.00    -0.056 C 
ATOM     47  H   LIG d   1      12.117   3.251  -5.804  0.00  0.00     0.024 H 
ATOM     48  H   LIG d   1      12.302   4.768  -4.892  0.00  0.00     0.024 H 
ATOM     49  H   LIG d   1      12.751   3.219  -4.141  0.00  0.00     0.024 H 
ENDBRANCH  14  46
BRANCH  24  50
ATOM     50  O   LIG d   1       8.064  -0.583  -5.216  0.00  0.00    -0.384 OA
BRANCH  50  51
ATOM     51  C   LIG d   1       7.128  -0.571  -4.136  0.00  0.00     0.193 C 
ATOM     52  H   LIG d   1       7.465  -1.254  -3.356  0.00  0.00     0.082 H 
ATOM     53  H   LIG d   1       7.056   0.438  -3.728  0.00  0.00     0.082 H 
BRANCH  51  54
ATOM     54  C   LIG d   1       5.777  -1.007  -4.638  0.00  0.00     0.254 C 
ATOM     55  O   LIG d   1       5.378  -2.130  -4.410  0.00  0.00    -0.272 OA
ATOM     56  N   LIG d   1       5.011  -0.151  -5.343  0.00  0.00    -0.309 N 
ATOM     57  H   LIG d   1       5.358   0.722  -5.588  0.00  0.00     0.149 HD
BRANCH  56  58
ATOM     58  C   LIG d   1       3.653  -0.536  -5.738  0.00  0.00     0.031 C 
ATOM     59  H   LIG d   1       3.436  -1.536  -5.363  0.00  0.00     0.050 H 
BRANCH  58  60
ATOM     60  C   LIG d   1       2.649   0.458  -5.150  0.00  0.00     0.005 C 
ATOM     61  H   LIG d   1       2.622   1.355  -5.769  0.00  0.00     0.034 H 
ATOM     62  H   LIG d   1       1.660   0.004  -5.125  0.00  0.00     0.034 H 
BRANCH  60  63
ATOM     63  C   LIG d   1       3.069   0.826  -3.750  0.00  0.00     0.043 C 
ATOM     64  O   LIG d   1       2.958   0.014  -2.847  0.00  0.00    -0.550 OA
ATOM     65  O   LIG d   1       3.518   1.936  -3.520  0.00  0.00    -0.550 OA
ENDBRANCH  60  63
ENDBRANCH  58  60
BRANCH  58  66
ATOM     66  C   LIG d   1       3.545  -0.528  -7.264  0.00  0.00    -0.018 C 
ATOM     67  H   LIG d   1       2.613  -1.005  -7.566  0.00  0.00     0.032 H 
ATOM     68  C   LIG d   1       3.568   0.918  -7.771  0.00  0.00    -0.020 C 
ATOM     69  C   LIG d   1       3.541   0.913  -9.302  0.00  0.00     0.064 C 
ATOM     70  H   LIG d   1       2.696   1.451  -7.391  0.00  0.00     0.030 H 
ATOM     71  H   LIG d   1       4.476   1.411  -7.426  0.00  0.00     0.030 H 
ATOM     72  O   LIG d   1       4.652   0.163  -9.796  0.00  0.00    -0.374 OA
ATOM     73  C   LIG d   1       4.655  -1.209  -9.393  0.00  0.00     0.049 C 
ATOM     74  C   LIG d   1       4.729  -1.289  -7.865  0.00  0.00    -0.025 C 
ATOM     75  H   LIG d   1       5.520  -1.713  -9.826  0.00  0.00     0.056 H 
ATOM     76  H   LIG d   1       3.742  -1.691  -9.738  0.00  0.00     0.056 H 
ATOM     77  H   LIG d   1       5.663  -0.842  -7.522  0.00  0.00     0.029 H 
ATOM     78  H   LIG d   1       4.688  -2.333  -7.554  0.00  0.00     0.029 H 
BRANCH  69  79
ATOM     79  C   LIG d   1       2.238   0.274  -9.785  0.00  0.00    -0.036 C 
ATOM     80  H   LIG d   1       1.630   1.024 -10.291  0.00  0.00     0.026 H 
ATOM     81  H   LIG d   1       2.465  -0.538 -10.476  0.00  0.00     0.026 H 
ATOM     82  H   LIG d   1       1.688  -0.121  -8.930  0.00  0.00     0.026 H 
ENDBRANCH  69  79
BRANCH  69  83
ATOM     83  C   LIG d   1       3.627   2.351  -9.818  0.00  0.00    -0.036 C 
ATOM     84  H   LIG d   1       2.626   2.717 -10.045  0.00  0.00     0.026 H 
ATOM     85  H   LIG d   1       4.081   2.984  -9.055  0.00  0.00     0.026 H 
ATOM     86  H   LIG d   1       4.237   2.377 -10.721  0.00  0.00     0.026 H 
ENDBRANCH  69  83
ENDBRANCH  58  66
ENDBRANCH  56  58
ENDBRANCH  51  54
ENDBRANCH  50  51
ENDBRANCH  24  50
BRANCH   4  87
ATOM     87  O   LIG d   1      11.663   9.055  -0.509  0.00  0.00    -0.376 OA
ATOM     88  H   LIG d   1      12.475   9.069   0.017  0.00  0.00     0.211 HD
ENDBRANCH   4  87
ENDBRANCH   1   4
TORSDOF 13
ENDMDL
MODEL 7
REMARK VINA RESULT:      -6.7      7.137     12.363
REMARK  13 active torsions:
REMARK  status: ('A' for Active; 'I' for Inactive)
REMARK    1  A    between atoms: C_1  and  C_2 
REMARK    2  A    between atoms: N_6  and  O_7 
REMARK    3  A    between atoms: O_7  and  C_8 
REMARK    4  A    between atoms: C_8  and  C_9 
REMARK       I    between atoms: C_9  and  N_11 
REMARK    5  A    between atoms: N_11  and  C_12 
REMARK    6  A    between atoms: C_12  and  C_14 
REMARK    7  A    between atoms: C_12  and  C_18 
REMARK    8  A    between atoms: C_14  and  C_15 
REMARK    9  A    between atoms: C_23  and  C_25 
REMARK   10  A    between atoms: C_23  and  C_26 
REMARK   11  A    between atoms: C_37  and  C_46 
REMARK   12  A    between atoms: C_42  and  C_43 
REMARK   13  A    between atoms: C_42  and  O_45 
ROOT
ATOM      1  C   LIG d   1       3.026  -0.576  -3.421  0.00  0.00    -0.070 C 
ATOM      2  C   LIG d   1       1.938  -0.311  -3.773  0.00  0.00    -0.116 C 
ATOM      3  H   LIG d   1       0.964  -0.076  -4.088  0.00  0.00     0.123 H 
ENDROOT
BRANCH   1   4
ATOM      4  C   LIG d   1       4.391  -0.907  -2.978  0.00  0.00     0.132 C 
ATOM      5  C   LIG d   1       5.271  -1.283  -4.200  0.00  0.00     0.011 C 
ATOM      6  C   LIG d   1       4.704  -0.519  -5.400  0.00  0.00    -0.043 C 
ATOM      7  C   LIG d   1       6.653  -0.731  -3.814  0.00  0.00    -0.029 C 
ATOM      8  C   LIG d   1       5.690  -0.538  -6.564  0.00  0.00    -0.049 C 
ATOM      9  H   LIG d   1       4.509   0.513  -5.109  0.00  0.00     0.027 H 
ATOM     10  H   LIG d   1       3.769  -0.986  -5.714  0.00  0.00     0.027 H 
ATOM     11  C   LIG d   1       6.973   0.184  -6.135  0.00  0.00    -0.029 C 
ATOM     12  H   LIG d   1       5.252  -0.027  -7.421  0.00  0.00     0.027 H 
ATOM     13  H   LIG d   1       5.922  -1.569  -6.830  0.00  0.00     0.027 H 
ATOM     14  C   LIG d   1       7.946   0.203  -7.317  0.00  0.00    -0.007 C 
ATOM     15  C   LIG d   1       7.603  -0.594  -4.980  0.00  0.00    -0.034 C 
ATOM     16  H   LIG d   1       6.750   1.203  -5.821  0.00  0.00     0.031 H 
ATOM     17  C   LIG d   1       9.266   0.745  -6.868  0.00  0.00    -0.062 C 
ATOM     18  C   LIG d   1       7.337   0.885  -8.518  0.00  0.00    -0.038 C 
ATOM     19  C   LIG d   1       9.878   1.773  -7.441  0.00  0.00    -0.037 C 
ATOM     20  C   LIG d   1       9.920   0.082  -5.667  0.00  0.00    -0.031 C 
ATOM     21  C   LIG d   1       9.202   2.485  -8.543  0.00  0.00     0.080 C 
ATOM     22  H   LIG d   1      10.852   2.091  -7.099  0.00  0.00     0.064 H 
ATOM     23  C   LIG d   1       7.689   2.371  -8.581  0.00  0.00    -0.006 C 
ATOM     24  N   LIG d   1       9.861   3.168  -9.424  0.00  0.00    -0.089 NA
ATOM     25  H   LIG d   1       7.309   2.802  -9.508  0.00  0.00     0.033 H 
ATOM     26  H   LIG d   1       7.257   2.891  -7.726  0.00  0.00     0.033 H 
ATOM     27  C   LIG d   1       8.898   0.083  -4.525  0.00  0.00    -0.046 C 
ATOM     28  H   LIG d   1      10.195  -0.942  -5.916  0.00  0.00     0.031 H 
ATOM     29  H   LIG d   1      10.806   0.644  -5.371  0.00  0.00     0.031 H 
ATOM     30  H   LIG d   1       9.308  -0.457  -3.672  0.00  0.00     0.027 H 
ATOM     31  H   LIG d   1       8.685   1.111  -4.231  0.00  0.00     0.027 H 
ATOM     32  H   LIG d   1       7.699   0.397  -9.422  0.00  0.00     0.028 H 
ATOM     33  H   LIG d   1       6.253   0.781  -8.471  0.00  0.00     0.028 H 
ATOM     34  H   LIG d   1       7.848  -1.592  -5.342  0.00  0.00     0.031 H 
ATOM     35  H   LIG d   1       7.100  -1.381  -3.062  0.00  0.00     0.031 H 
ATOM     36  C   LIG d   1       6.327   0.624  -3.155  0.00  0.00    -0.046 C 
ATOM     37  C   LIG d   1       5.052   0.326  -2.332  0.00  0.00    -0.012 C 
ATOM     38  H   LIG d   1       7.140   0.938  -2.502  0.00  0.00     0.027 H 
ATOM     39  H   LIG d   1       6.127   1.380  -3.914  0.00  0.00     0.027 H 
ATOM     40  H   LIG d   1       5.317   0.108  -1.298  0.00  0.00     0.030 H 
ATOM     41  H   LIG d   1       4.373   1.178  -2.374  0.00  0.00     0.030 H 
BRANCH   5  42
ATOM     42  C   LIG d   1       5.295  -2.793  -4.447  0.00  0.00    -0.056 C 
ATOM     43  H   LIG d   1       6.151  -3.045  -5.074  0.00  0.00     0.024 H 
ATOM     44  H   LIG d   1       5.378  -3.316  -3.493  0.00  0.00     0.024 H 
ATOM     45  H   LIG d   1       4.376  -3.095  -4.948  0.00  0.00     0.024 H 
ENDBRANCH   5  42
BRANCH  14  46
ATOM     46  C   LIG d   1       8.181  -1.256  -7.711  0.00  0.00    -0.056 C 
ATOM     47  H   LIG d   1       7.228  -1.785  -7.731  0.00  0.00     0.024 H 
ATOM     48  H   LIG d   1       8.639  -1.296  -8.700  0.00  0.00     0.024 H 
ATOM     49  H   LIG d   1       8.843  -1.727  -6.985  0.00  0.00     0.024 H 
ENDBRANCH  14  46
BRANCH  24  50
ATOM     50  O   LIG d   1       9.170   3.837 -10.463  0.00  0.00    -0.384 OA
BRANCH  50  51
ATOM     51  C   LIG d   1       9.782   5.061 -10.875  0.00  0.00     0.193 C 
ATOM     52  H   LIG d   1      10.618   4.844 -11.540  0.00  0.00     0.082 H 
ATOM     53  H   LIG d   1       9.050   5.675 -11.399  0.00  0.00     0.082 H 
BRANCH  51  54
ATOM     54  C   LIG d   1      10.284   5.802  -9.663  0.00  0.00     0.254 C 
ATOM     55  O   LIG d   1      11.452   6.121  -9.587  0.00  0.00    -0.272 OA
ATOM     56  N   LIG d   1       9.436   6.110  -8.662  0.00  0.00    -0.309 N 
ATOM     57  H   LIG d   1       8.519   5.793  -8.688  0.00  0.00     0.149 HD
BRANCH  56  58
ATOM     58  C   LIG d   1       9.897   6.926  -7.535  0.00  0.00     0.031 C 
ATOM     59  H   LIG d   1      10.969   7.098  -7.627  0.00  0.00     0.050 H 
BRANCH  58  60
ATOM     60  C   LIG d   1       9.161   8.267  -7.541  0.00  0.00     0.005 C 
ATOM     61  H   LIG d   1       8.252   8.180  -8.135  0.00  0.00     0.034 H 
ATOM     62  H   LIG d   1       8.902   8.544  -6.519  0.00  0.00     0.034 H 
BRANCH  60  63
ATOM     63  C   LIG d   1      10.053   9.325  -8.138  0.00  0.00     0.043 C 
ATOM     64  O   LIG d   1      10.494  10.219  -7.436  0.00  0.00    -0.550 OA
ATOM     65  O   LIG d   1      10.332   9.288  -9.325  0.00  0.00    -0.550 OA
ENDBRANCH  60  63
ENDBRANCH  58  60
BRANCH  58  66
ATOM     66  C   LIG d   1       9.608   6.192  -6.224  0.00  0.00    -0.018 C 
ATOM     67  H   LIG d   1       8.612   5.751  -6.264  0.00  0.00     0.032 H 
ATOM     68  C   LIG d   1      10.649   5.086  -6.015  0.00  0.00    -0.020 C 
ATOM     69  C   LIG d   1      10.401   4.412  -4.663  0.00  0.00     0.064 C 
ATOM     70  H   LIG d   1      10.561   4.349  -6.814  0.00  0.00     0.030 H 
ATOM     71  H   LIG d   1      11.648   5.520  -6.027  0.00  0.00     0.030 H 
ATOM     72  O   LIG d   1      10.456   5.391  -3.625  0.00  0.00    -0.374 OA
ATOM     73  C   LIG d   1       9.473   6.423  -3.742  0.00  0.00     0.049 C 
ATOM     74  C   LIG d   1       9.685   7.180  -5.056  0.00  0.00    -0.025 C 
ATOM     75  H   LIG d   1       9.570   7.114  -2.904  0.00  0.00     0.056 H 
ATOM     76  H   LIG d   1       8.478   5.979  -3.735  0.00  0.00     0.056 H 
ATOM     77  H   LIG d   1      10.665   7.657  -5.047  0.00  0.00     0.029 H 
ATOM     78  H   LIG d   1       8.910   7.938  -5.168  0.00  0.00     0.029 H 
BRANCH  69  79
ATOM     79  C   LIG d   1       9.021   3.752  -4.671  0.00  0.00    -0.036 C 
ATOM     80  H   LIG d   1       8.603   3.772  -3.665  0.00  0.00     0.026 H 
ATOM     81  H   LIG d   1       8.362   4.294  -5.350  0.00  0.00     0.026 H 
ATOM     82  H   LIG d   1       9.114   2.718  -5.004  0.00  0.00     0.026 H 
ENDBRANCH  69  79
BRANCH  69  83
ATOM     83  C   LIG d   1      11.474   3.349  -4.419  0.00  0.00    -0.036 C 
ATOM     84  H   LIG d   1      11.304   2.502  -5.083  0.00  0.00     0.026 H 
ATOM     85  H   LIG d   1      12.458   3.775  -4.618  0.00  0.00     0.026 H 
ATOM     86  H   LIG d   1      11.426   3.015  -3.383  0.00  0.00     0.026 H 
ENDBRANCH  69  83
ENDBRANCH  58  66
ENDBRANCH  56  58
ENDBRANCH  51  54
ENDBRANCH  50  51
ENDBRANCH  24  50
BRANCH   4  87
ATOM     87  O   LIG d   1       4.355  -1.990  -2.046  0.00  0.00    -0.376 OA
ATOM     88  H   LIG d   1       3.630  -2.613  -2.195  0.00  0.00     0.211 HD
ENDBRANCH   4  87
ENDBRANCH   1   4
TORSDOF 13
ENDMDL
MODEL 8
REMARK VINA RESULT:      -6.6      3.231     10.528
REMARK  13 active torsions:
REMARK  status: ('A' for Active; 'I' for Inactive)
REMARK    1  A    between atoms: C_1  and  C_2 
REMARK    2  A    between atoms: N_6  and  O_7 
REMARK    3  A    between atoms: O_7  and  C_8 
REMARK    4  A    between atoms: C_8  and  C_9 
REMARK       I    between atoms: C_9  and  N_11 
REMARK    5  A    between atoms: N_11  and  C_12 
REMARK    6  A    between atoms: C_12  and  C_14 
REMARK    7  A    between atoms: C_12  and  C_18 
REMARK    8  A    between atoms: C_14  and  C_15 
REMARK    9  A    between atoms: C_23  and  C_25 
REMARK   10  A    between atoms: C_23  and  C_26 
REMARK   11  A    between atoms: C_37  and  C_46 
REMARK   12  A    between atoms: C_42  and  C_43 
REMARK   13  A    between atoms: C_42  and  O_45 
ROOT
ATOM      1  C   LIG d   1       5.441 -11.609  -4.214  0.00  0.00    -0.070 C 
ATOM      2  C   LIG d   1       4.498 -11.739  -4.901  0.00  0.00    -0.116 C 
ATOM      3  H   LIG d   1       3.654 -11.854  -5.515  0.00  0.00     0.123 H 
ENDROOT
BRANCH   1   4
ATOM      4  C   LIG d   1       6.625 -11.446  -3.354  0.00  0.00     0.132 C 
ATOM      5  C   LIG d   1       7.659 -10.514  -4.041  0.00  0.00     0.011 C 
ATOM      6  C   LIG d   1       6.862  -9.561  -4.936  0.00  0.00    -0.043 C 
ATOM      7  C   LIG d   1       8.277  -9.751  -2.857  0.00  0.00    -0.029 C 
ATOM      8  C   LIG d   1       7.732  -8.390  -5.382  0.00  0.00    -0.049 C 
ATOM      9  H   LIG d   1       6.004  -9.182  -4.383  0.00  0.00     0.027 H 
ATOM     10  H   LIG d   1       6.512 -10.103  -5.815  0.00  0.00     0.027 H 
ATOM     11  C   LIG d   1       8.160  -7.593  -4.143  0.00  0.00    -0.029 C 
ATOM     12  H   LIG d   1       7.161  -7.746  -6.051  0.00  0.00     0.027 H 
ATOM     13  H   LIG d   1       8.616  -8.766  -5.898  0.00  0.00     0.027 H 
ATOM     14  C   LIG d   1       8.997  -6.393  -4.594  0.00  0.00    -0.007 C 
ATOM     15  C   LIG d   1       9.017  -8.498  -3.259  0.00  0.00    -0.034 C 
ATOM     16  H   LIG d   1       7.285  -7.250  -3.590  0.00  0.00     0.031 H 
ATOM     17  C   LIG d   1       9.568  -5.705  -3.395  0.00  0.00    -0.062 C 
ATOM     18  C   LIG d   1       8.223  -5.511  -5.543  0.00  0.00    -0.038 C 
ATOM     19  C   LIG d   1       9.404  -4.415  -3.133  0.00  0.00    -0.037 C 
ATOM     20  C   LIG d   1      10.363  -6.554  -2.417  0.00  0.00    -0.031 C 
ATOM     21  C   LIG d   1       8.550  -3.606  -4.025  0.00  0.00     0.080 C 
ATOM     22  H   LIG d   1       9.879  -3.966  -2.273  0.00  0.00     0.064 H 
ATOM     23  C   LIG d   1       7.508  -4.369  -4.822  0.00  0.00    -0.006 C 
ATOM     24  N   LIG d   1       8.682  -2.321  -4.121  0.00  0.00    -0.089 NA
ATOM     25  H   LIG d   1       7.041  -3.706  -5.550  0.00  0.00     0.033 H 
ATOM     26  H   LIG d   1       6.751  -4.773  -4.149  0.00  0.00     0.033 H 
ATOM     27  C   LIG d   1       9.480  -7.740  -2.012  0.00  0.00    -0.046 C 
ATOM     28  H   LIG d   1      11.272  -6.916  -2.895  0.00  0.00     0.031 H 
ATOM     29  H   LIG d   1      10.616  -5.965  -1.536  0.00  0.00     0.031 H 
ATOM     30  H   LIG d   1      10.050  -8.412  -1.370  0.00  0.00     0.027 H 
ATOM     31  H   LIG d   1       8.610  -7.374  -1.467  0.00  0.00     0.027 H 
ATOM     32  H   LIG d   1       8.913  -5.090  -6.275  0.00  0.00     0.028 H 
ATOM     33  H   LIG d   1       7.483  -6.117  -6.065  0.00  0.00     0.028 H 
ATOM     34  H   LIG d   1       9.899  -8.788  -3.830  0.00  0.00     0.031 H 
ATOM     35  H   LIG d   1       8.957 -10.414  -2.321  0.00  0.00     0.031 H 
ATOM     36  C   LIG d   1       7.067  -9.458  -1.948  0.00  0.00    -0.046 C 
ATOM     37  C   LIG d   1       6.230 -10.755  -2.035  0.00  0.00    -0.012 C 
ATOM     38  H   LIG d   1       7.392  -9.279  -0.924  0.00  0.00     0.027 H 
ATOM     39  H   LIG d   1       6.500  -8.608  -2.328  0.00  0.00     0.027 H 
ATOM     40  H   LIG d   1       6.458 -11.405  -1.190  0.00  0.00     0.030 H 
ATOM     41  H   LIG d   1       5.167 -10.513  -2.044  0.00  0.00     0.030 H 
BRANCH   5  42
ATOM     42  C   LIG d   1       8.703 -11.302  -4.835  0.00  0.00    -0.056 C 
ATOM     43  H   LIG d   1       8.201 -11.936  -5.566  0.00  0.00     0.024 H 
ATOM     44  H   LIG d   1       9.367 -10.608  -5.351  0.00  0.00     0.024 H 
ATOM     45  H   LIG d   1       9.284 -11.924  -4.155  0.00  0.00     0.024 H 
ENDBRANCH   5  42
BRANCH  14  46
ATOM     46  C   LIG d   1      10.180  -6.958  -5.382  0.00  0.00    -0.056 C 
ATOM     47  H   LIG d   1      10.919  -7.360  -4.689  0.00  0.00     0.024 H 
ATOM     48  H   LIG d   1       9.831  -7.752  -6.042  0.00  0.00     0.024 H 
ATOM     49  H   LIG d   1      10.632  -6.165  -5.977  0.00  0.00     0.024 H 
ENDBRANCH  14  46
BRANCH  24  50
ATOM     50  O   LIG d   1       7.840  -1.586  -4.989  0.00  0.00    -0.384 OA
BRANCH  50  51
ATOM     51  C   LIG d   1       6.887  -0.762  -4.314  0.00  0.00     0.193 C 
ATOM     52  H   LIG d   1       6.858  -1.031  -3.258  0.00  0.00     0.082 H 
ATOM     53  H   LIG d   1       7.175   0.284  -4.414  0.00  0.00     0.082 H 
BRANCH  51  54
ATOM     54  C   LIG d   1       5.524  -0.969  -4.923  0.00  0.00     0.254 C 
ATOM     55  O   LIG d   1       5.067  -2.088  -5.021  0.00  0.00    -0.272 OA
ATOM     56  N   LIG d   1       4.814   0.090  -5.359  0.00  0.00    -0.309 N 
ATOM     57  H   LIG d   1       5.207   0.977  -5.347  0.00  0.00     0.149 HD
BRANCH  56  58
ATOM     58  C   LIG d   1       3.445  -0.098  -5.849  0.00  0.00     0.031 C 
ATOM     59  H   LIG d   1       3.204  -1.160  -5.855  0.00  0.00     0.050 H 
BRANCH  58  60
ATOM     60  C   LIG d   1       2.469   0.643  -4.933  0.00  0.00     0.005 C 
ATOM     61  H   LIG d   1       2.183   1.587  -5.395  0.00  0.00     0.034 H 
ATOM     62  H   LIG d   1       1.581   0.031  -4.779  0.00  0.00     0.034 H 
BRANCH  60  63
ATOM     63  C   LIG d   1       3.131   0.912  -3.607  0.00  0.00     0.043 C 
ATOM     64  O   LIG d   1       3.129   0.056  -2.738  0.00  0.00    -0.550 OA
ATOM     65  O   LIG d   1       3.670   1.987  -3.402  0.00  0.00    -0.550 OA
ENDBRANCH  60  63
ENDBRANCH  58  60
BRANCH  58  66
ATOM     66  C   LIG d   1       3.333   0.459  -7.270  0.00  0.00    -0.018 C 
ATOM     67  H   LIG d   1       2.983   1.490  -7.231  0.00  0.00     0.032 H 
ATOM     68  C   LIG d   1       4.706   0.409  -7.950  0.00  0.00    -0.020 C 
ATOM     69  C   LIG d   1       4.567   0.892  -9.396  0.00  0.00     0.064 C 
ATOM     70  H   LIG d   1       5.401   1.055  -7.413  0.00  0.00     0.030 H 
ATOM     71  H   LIG d   1       5.079  -0.615  -7.943  0.00  0.00     0.030 H 
ATOM     72  O   LIG d   1       3.610   0.080 -10.080  0.00  0.00    -0.374 OA
ATOM     73  C   LIG d   1       2.297   0.127  -9.516  0.00  0.00     0.049 C 
ATOM     74  C   LIG d   1       2.344  -0.389  -8.075  0.00  0.00    -0.025 C 
ATOM     75  H   LIG d   1       1.627  -0.500 -10.105  0.00  0.00     0.056 H 
ATOM     76  H   LIG d   1       1.935   1.154  -9.523  0.00  0.00     0.056 H 
ATOM     77  H   LIG d   1       2.668  -1.430  -8.071  0.00  0.00     0.029 H 
ATOM     78  H   LIG d   1       1.352  -0.313  -7.629  0.00  0.00     0.029 H 
BRANCH  69  79
ATOM     79  C   LIG d   1       4.100   2.348  -9.403  0.00  0.00    -0.036 C 
ATOM     80  H   LIG d   1       4.706   2.928  -8.708  0.00  0.00     0.026 H 
ATOM     81  H   LIG d   1       4.205   2.759 -10.408  0.00  0.00     0.026 H 
ATOM     82  H   LIG d   1       3.053   2.395  -9.100  0.00  0.00     0.026 H 
ENDBRANCH  69  79
BRANCH  69  83
ATOM     83  C   LIG d   1       5.921   0.785 -10.101  0.00  0.00    -0.036 C 
ATOM     84  H   LIG d   1       6.446  -0.103  -9.749  0.00  0.00     0.026 H 
ATOM     85  H   LIG d   1       5.765   0.711 -11.178  0.00  0.00     0.026 H 
ATOM     86  H   LIG d   1       6.516   1.671  -9.880  0.00  0.00     0.026 H 
ENDBRANCH  69  83
ENDBRANCH  58  66
ENDBRANCH  56  58
ENDBRANCH  51  54
ENDBRANCH  50  51
ENDBRANCH  24  50
BRANCH   4  87
ATOM     87  O   LIG d   1       7.215 -12.720  -3.084  0.00  0.00    -0.376 OA
ATOM     88  H   LIG d   1       6.831 -13.447  -3.595  0.00  0.00     0.211 HD
ENDBRANCH   4  87
ENDBRANCH   1   4
TORSDOF 13
ENDMDL
MODEL 9
REMARK VINA RESULT:      -6.5      3.998      9.854
REMARK  13 active torsions:
REMARK  status: ('A' for Active; 'I' for Inactive)
REMARK    1  A    between atoms: C_1  and  C_2 
REMARK    2  A    between atoms: N_6  and  O_7 
REMARK    3  A    between atoms: O_7  and  C_8 
REMARK    4  A    between atoms: C_8  and  C_9 
REMARK       I    between atoms: C_9  and  N_11 
REMARK    5  A    between atoms: N_11  and  C_12 
REMARK    6  A    between atoms: C_12  and  C_14 
REMARK    7  A    between atoms: C_12  and  C_18 
REMARK    8  A    between atoms: C_14  and  C_15 
REMARK    9  A    between atoms: C_23  and  C_25 
REMARK   10  A    between atoms: C_23  and  C_26 
REMARK   11  A    between atoms: C_37  and  C_46 
REMARK   12  A    between atoms: C_42  and  C_43 
REMARK   13  A    between atoms: C_42  and  O_45 
ROOT
ATOM      1  C   LIG d   1       6.138 -10.141  -3.107  0.00  0.00    -0.070 C 
ATOM      2  C   LIG d   1       5.251 -10.355  -2.368  0.00  0.00    -0.116 C 
ATOM      3  H   LIG d   1       4.457 -10.544  -1.707  0.00  0.00     0.123 H 
ENDROOT
BRANCH   1   4
ATOM      4  C   LIG d   1       7.250  -9.874  -4.034  0.00  0.00     0.132 C 
ATOM      5  C   LIG d   1       6.699  -9.572  -5.454  0.00  0.00     0.011 C 
ATOM      6  C   LIG d   1       5.309  -8.958  -5.263  0.00  0.00    -0.043 C 
ATOM      7  C   LIG d   1       7.684  -8.519  -5.991  0.00  0.00    -0.029 C 
ATOM      8  C   LIG d   1       4.827  -8.307  -6.556  0.00  0.00    -0.049 C 
ATOM      9  H   LIG d   1       5.354  -8.206  -4.476  0.00  0.00     0.027 H 
ATOM     10  H   LIG d   1       4.607  -9.741  -4.972  0.00  0.00     0.027 H 
ATOM     11  C   LIG d   1       5.780  -7.162  -6.918  0.00  0.00    -0.029 C 
ATOM     12  H   LIG d   1       3.820  -7.914  -6.412  0.00  0.00     0.027 H 
ATOM     13  H   LIG d   1       4.822  -9.046  -7.357  0.00  0.00     0.027 H 
ATOM     14  C   LIG d   1       5.272  -6.482  -8.191  0.00  0.00    -0.007 C 
ATOM     15  C   LIG d   1       7.165  -7.751  -7.183  0.00  0.00    -0.034 C 
ATOM     16  H   LIG d   1       5.831  -6.438  -6.104  0.00  0.00     0.031 H 
ATOM     17  C   LIG d   1       6.279  -5.478  -8.657  0.00  0.00    -0.062 C 
ATOM     18  C   LIG d   1       3.867  -5.958  -8.010  0.00  0.00    -0.038 C 
ATOM     19  C   LIG d   1       6.003  -4.200  -8.879  0.00  0.00    -0.037 C 
ATOM     20  C   LIG d   1       7.704  -5.965  -8.861  0.00  0.00    -0.031 C 
ATOM     21  C   LIG d   1       4.646  -3.699  -8.586  0.00  0.00     0.080 C 
ATOM     22  H   LIG d   1       6.764  -3.533  -9.257  0.00  0.00     0.064 H 
ATOM     23  C   LIG d   1       3.846  -4.494  -7.570  0.00  0.00    -0.006 C 
ATOM     24  N   LIG d   1       4.166  -2.642  -9.162  0.00  0.00    -0.089 NA
ATOM     25  H   LIG d   1       2.819  -4.131  -7.542  0.00  0.00     0.033 H 
ATOM     26  H   LIG d   1       4.301  -4.397  -6.584  0.00  0.00     0.033 H 
ATOM     27  C   LIG d   1       8.151  -6.643  -7.561  0.00  0.00    -0.046 C 
ATOM     28  H   LIG d   1       7.736  -6.681  -9.682  0.00  0.00     0.031 H 
ATOM     29  H   LIG d   1       8.356  -5.119  -9.080  0.00  0.00     0.031 H 
ATOM     30  H   LIG d   1       9.143  -7.073  -7.701  0.00  0.00     0.027 H 
ATOM     31  H   LIG d   1       8.189  -5.903  -6.762  0.00  0.00     0.027 H 
ATOM     32  H   LIG d   1       3.332  -6.051  -8.955  0.00  0.00     0.028 H 
ATOM     33  H   LIG d   1       3.360  -6.560  -7.257  0.00  0.00     0.028 H 
ATOM     34  H   LIG d   1       7.082  -8.438  -8.025  0.00  0.00     0.031 H 
ATOM     35  H   LIG d   1       8.619  -9.010  -6.260  0.00  0.00     0.031 H 
ATOM     36  C   LIG d   1       7.942  -7.615  -4.770  0.00  0.00    -0.046 C 
ATOM     37  C   LIG d   1       8.017  -8.613  -3.592  0.00  0.00    -0.012 C 
ATOM     38  H   LIG d   1       8.886  -7.082  -4.882  0.00  0.00     0.027 H 
ATOM     39  H   LIG d   1       7.118  -6.916  -4.631  0.00  0.00     0.027 H 
ATOM     40  H   LIG d   1       9.056  -8.864  -3.380  0.00  0.00     0.030 H 
ATOM     41  H   LIG d   1       7.547  -8.182  -2.707  0.00  0.00     0.030 H 
BRANCH   5  42
ATOM     42  C   LIG d   1       6.652 -10.826  -6.330  0.00  0.00    -0.056 C 
ATOM     43  H   LIG d   1       5.860 -10.721  -7.072  0.00  0.00     0.024 H 
ATOM     44  H   LIG d   1       7.609 -10.951  -6.837  0.00  0.00     0.024 H 
ATOM     45  H   LIG d   1       6.452 -11.697  -5.707  0.00  0.00     0.024 H 
ENDBRANCH   5  42
BRANCH  14  46
ATOM     46  C   LIG d   1       5.202  -7.567  -9.267  0.00  0.00    -0.056 C 
ATOM     47  H   LIG d   1       5.201  -8.548  -8.793  0.00  0.00     0.024 H 
ATOM     48  H   LIG d   1       4.288  -7.444  -9.848  0.00  0.00     0.024 H 
ATOM     49  H   LIG d   1       6.066  -7.482  -9.926  0.00  0.00     0.024 H 
ENDBRANCH  14  46
BRANCH  24  50
ATOM     50  O   LIG d   1       2.859  -2.198  -8.849  0.00  0.00    -0.384 OA
BRANCH  50  51
ATOM     51  C   LIG d   1       2.747  -0.781  -8.700  0.00  0.00     0.193 C 
ATOM     52  H   LIG d   1       3.073  -0.292  -9.618  0.00  0.00     0.082 H 
ATOM     53  H   LIG d   1       1.709  -0.517  -8.497  0.00  0.00     0.082 H 
BRANCH  51  54
ATOM     54  C   LIG d   1       3.614  -0.327  -7.554  0.00  0.00     0.254 C 
ATOM     55  O   LIG d   1       4.268   0.690  -7.654  0.00  0.00    -0.272 OA
ATOM     56  N   LIG d   1       3.664  -1.052  -6.419  0.00  0.00    -0.309 N 
ATOM     57  H   LIG d   1       3.199  -1.902  -6.365  0.00  0.00     0.149 HD
BRANCH  56  58
ATOM     58  C   LIG d   1       4.420  -0.556  -5.265  0.00  0.00     0.031 C 
ATOM     59  H   LIG d   1       4.945   0.357  -5.542  0.00  0.00     0.050 H 
BRANCH  58  60
ATOM     60  C   LIG d   1       3.457  -0.263  -4.113  0.00  0.00     0.005 C 
ATOM     61  H   LIG d   1       2.530  -0.816  -4.264  0.00  0.00     0.034 H 
ATOM     62  H   LIG d   1       3.913  -0.569  -3.172  0.00  0.00     0.034 H 
BRANCH  60  63
ATOM     63  C   LIG d   1       3.160   1.214  -4.071  0.00  0.00     0.043 C 
ATOM     64  O   LIG d   1       2.487   1.726  -4.949  0.00  0.00    -0.550 OA
ATOM     65  O   LIG d   1       3.595   1.898  -3.159  0.00  0.00    -0.550 OA
ENDBRANCH  60  63
ENDBRANCH  58  60
BRANCH  58  66
ATOM     66  C   LIG d   1       5.433  -1.616  -4.826  0.00  0.00    -0.018 C 
ATOM     67  H   LIG d   1       4.913  -2.548  -4.608  0.00  0.00     0.032 H 
ATOM     68  C   LIG d   1       6.451  -1.847  -5.948  0.00  0.00    -0.020 C 
ATOM     69  C   LIG d   1       7.506  -2.847  -5.469  0.00  0.00     0.064 C 
ATOM     70  H   LIG d   1       5.941  -2.244  -6.826  0.00  0.00     0.030 H 
ATOM     71  H   LIG d   1       6.934  -0.903  -6.202  0.00  0.00     0.030 H 
ATOM     72  O   LIG d   1       8.131  -2.350  -4.284  0.00  0.00    -0.374 OA
ATOM     73  C   LIG d   1       7.233  -2.162  -3.187  0.00  0.00     0.049 C 
ATOM     74  C   LIG d   1       6.168  -1.132  -3.573  0.00  0.00    -0.025 C 
ATOM     75  H   LIG d   1       7.789  -1.803  -2.320  0.00  0.00     0.056 H 
ATOM     76  H   LIG d   1       6.752  -3.109  -2.944  0.00  0.00     0.056 H 
ATOM     77  H   LIG d   1       6.646  -0.174  -3.778  0.00  0.00     0.029 H 
ATOM     78  H   LIG d   1       5.457  -1.020  -2.754  0.00  0.00     0.029 H 
BRANCH  69  79
ATOM     79  C   LIG d   1       6.836  -4.189  -5.170  0.00  0.00    -0.036 C 
ATOM     80  H   LIG d   1       6.346  -4.559  -6.070  0.00  0.00     0.026 H 
ATOM     81  H   LIG d   1       7.588  -4.906  -4.842  0.00  0.00     0.026 H 
ATOM     82  H   LIG d   1       6.094  -4.056  -4.381  0.00  0.00     0.026 H 
ENDBRANCH  69  79
BRANCH  69  83
ATOM     83  C   LIG d   1       8.562  -3.036  -6.560  0.00  0.00    -0.036 C 
ATOM     84  H   LIG d   1       9.170  -3.911  -6.331  0.00  0.00     0.026 H 
ATOM     85  H   LIG d   1       8.069  -3.178  -7.522  0.00  0.00     0.026 H 
ATOM     86  H   LIG d   1       9.199  -2.153  -6.606  0.00  0.00     0.026 H 
ENDBRANCH  69  83
ENDBRANCH  58  66
ENDBRANCH  56  58
ENDBRANCH  51  54
ENDBRANCH  50  51
ENDBRANCH  24  50
BRANCH   4  87
ATOM     87  O   LIG d   1       8.133 -10.996  -4.079  0.00  0.00    -0.376 OA
ATOM     88  H   LIG d   1       8.582 -11.177  -3.241  0.00  0.00     0.211 HD
ENDBRANCH   4  87
ENDBRANCH   1   4
TORSDOF 13
ENDMDL
