MODEL 1
REMARK VINA RESULT:      -7.1      0.000      0.000
REMARK  7 active torsions:
REMARK  status: ('A' for Active; 'I' for Inactive)
REMARK    1  A    between atoms: C_1  and  C_2 
REMARK    2  A    between atoms: C_5  and  N_21 
REMARK    3  A    between atoms: C_10  and  C_11 
REMARK    4  A    between atoms: C_11  and  C_13 
REMARK    5  A    between atoms: C_16  and  O_19 
REMARK    6  A    between atoms: O_19  and  C_20 
REMARK       I    between atoms: N_21  and  C_22 
REMARK    7  A    between atoms: C_22  and  C_24 
ROOT
ATOM      1  C   LIG d   1      10.369   4.939  -3.617  0.00  0.00     0.006 A 
ATOM      2  C   LIG d   1       9.965   3.596  -4.030  0.00  0.00     0.025 A 
ATOM      3  C   LIG d   1       9.066   2.653  -3.524  0.00  0.00    -0.029 A 
ATOM      4  C   LIG d   1       8.915   1.441  -4.171  0.00  0.00     0.035 A 
ATOM      5  C   LIG d   1       9.654   1.163  -5.320  0.00  0.00    -0.037 A 
ATOM      6  C   LIG d   1      10.536   2.090  -5.829  0.00  0.00    -0.017 A 
ATOM      7  C   LIG d   1      10.707   3.313  -5.192  0.00  0.00     0.136 A 
ATOM      8  O   LIG d   1      11.489   4.382  -5.447  0.00  0.00    -0.451 OA
ATOM      9  C   LIG d   1      11.297   5.349  -4.524  0.00  0.00     0.179 A 
ATOM     10  H   LIG d   1       8.494   2.869  -2.634  0.00  0.00     0.064 H 
ATOM     11  H   LIG d   1       9.529   0.214  -5.819  0.00  0.00     0.064 H 
ATOM     12  H   LIG d   1      11.104   1.861  -6.719  0.00  0.00     0.066 H 
ENDROOT
BRANCH   9  13
ATOM     13  C   LIG d   1      11.986   6.644  -4.501  0.00  0.00     0.228 C 
ATOM     14  O   LIG d   1      13.202   6.687  -4.450  0.00  0.00    -0.283 OA
BRANCH  13  15
ATOM     15  C   LIG d   1      11.205   7.897  -4.540  0.00  0.00     0.026 A 
ATOM     16  C   LIG d   1      10.214   8.075  -5.510  0.00  0.00    -0.047 A 
ATOM     17  C   LIG d   1       9.488   9.245  -5.540  0.00  0.00    -0.019 A 
ATOM     18  H   LIG d   1      10.019   7.298  -6.233  0.00  0.00     0.063 H 
ATOM     19  C   LIG d   1       9.740  10.247  -4.610  0.00  0.00     0.120 A 
ATOM     20  H   LIG d   1       8.722   9.384  -6.289  0.00  0.00     0.065 H 
ATOM     21  C   LIG d   1      10.725  10.073  -3.644  0.00  0.00    -0.019 A 
ATOM     22  C   LIG d   1      11.451   8.904  -3.602  0.00  0.00    -0.047 A 
ATOM     23  H   LIG d   1      10.916  10.854  -2.923  0.00  0.00     0.065 H 
ATOM     24  H   LIG d   1      12.214   8.769  -2.849  0.00  0.00     0.063 H 
BRANCH  19  25
ATOM     25  O   LIG d   1       9.022  11.398  -4.645  0.00  0.00    -0.495 OA
BRANCH  25  26
ATOM     26  C   LIG d   1       8.472  11.858  -3.408  0.00  0.00     0.079 C 
ATOM     27  H   LIG d   1       8.339  11.013  -2.733  0.00  0.00     0.066 H 
ATOM     28  H   LIG d   1       9.152  12.581  -2.956  0.00  0.00     0.066 H 
ATOM     29  H   LIG d   1       7.508  12.331  -3.593  0.00  0.00     0.066 H 
ENDBRANCH  25  26
ENDBRANCH  19  25
ENDBRANCH  13  15
ENDBRANCH   9  13
BRANCH   1  30
ATOM     30  C   LIG d   1       9.864   5.711  -2.426  0.00  0.00    -0.035 C 
ATOM     31  H   LIG d   1       8.774   5.737  -2.445  0.00  0.00     0.028 H 
ATOM     32  H   LIG d   1      10.252   6.729  -2.462  0.00  0.00     0.028 H 
ATOM     33  H   LIG d   1      10.200   5.226  -1.510  0.00  0.00     0.028 H 
ENDBRANCH   1  30
BRANCH   4  34
ATOM     34  N   LIG d   1       8.017   0.490  -3.671  0.00  0.00    -0.281 N 
ATOM     35  C   LIG d   1       6.820   0.315  -4.266  0.00  0.00     0.251 C 
ATOM     36  O   LIG d   1       6.559   0.909  -5.294  0.00  0.00    -0.270 OA
ATOM     37  H   LIG d   1       8.256  -0.043  -2.896  0.00  0.00     0.155 HD
BRANCH  35  38
ATOM     38  C   LIG d   1       5.827  -0.601  -3.670  0.00  0.00     0.072 A 
ATOM     39  C   LIG d   1       5.124  -0.225  -2.521  0.00  0.00     0.136 A 
ATOM     40  C   LIG d   1       4.195  -1.090  -1.970  0.00  0.00    -0.026 A 
ATOM     41  F   LIG d   1       5.353   0.978  -1.951  0.00  0.00    -0.205 F 
ATOM     42  C   LIG d   1       3.961  -2.321  -2.554  0.00  0.00    -0.059 A 
ATOM     43  H   LIG d   1       3.651  -0.802  -1.083  0.00  0.00     0.065 H 
ATOM     44  C   LIG d   1       4.654  -2.697  -3.692  0.00  0.00    -0.061 A 
ATOM     45  H   LIG d   1       3.235  -2.991  -2.121  0.00  0.00     0.062 H 
ATOM     46  C   LIG d   1       5.580  -1.845  -4.256  0.00  0.00    -0.047 A 
ATOM     47  H   LIG d   1       4.465  -3.660  -4.143  0.00  0.00     0.062 H 
ATOM     48  H   LIG d   1       6.115  -2.139  -5.146  0.00  0.00     0.063 H 
ENDBRANCH  35  38
ENDBRANCH   4  34
TORSDOF 7
ENDMDL
MODEL 2
REMARK VINA RESULT:      -7.1      7.860     12.848
REMARK  7 active torsions:
REMARK  status: ('A' for Active; 'I' for Inactive)
REMARK    1  A    between atoms: C_1  and  C_2 
REMARK    2  A    between atoms: C_5  and  N_21 
REMARK    3  A    between atoms: C_10  and  C_11 
REMARK    4  A    between atoms: C_11  and  C_13 
REMARK    5  A    between atoms: C_16  and  O_19 
REMARK    6  A    between atoms: O_19  and  C_20 
REMARK       I    between atoms: N_21  and  C_22 
REMARK    7  A    between atoms: C_22  and  C_24 
ROOT
ATOM      1  C   LIG d   1       2.130  -2.259 -10.484  0.00  0.00     0.006 A 
ATOM      2  C   LIG d   1       2.599  -1.243  -9.544  0.00  0.00     0.025 A 
ATOM      3  C   LIG d   1       3.078  -1.279  -8.232  0.00  0.00    -0.029 A 
ATOM      4  C   LIG d   1       3.449  -0.102  -7.609  0.00  0.00     0.035 A 
ATOM      5  C   LIG d   1       3.345   1.112  -8.287  0.00  0.00    -0.037 A 
ATOM      6  C   LIG d   1       2.881   1.155  -9.582  0.00  0.00    -0.017 A 
ATOM      7  C   LIG d   1       2.498  -0.015 -10.226  0.00  0.00     0.136 A 
ATOM      8  O   LIG d   1       2.007  -0.272 -11.456  0.00  0.00    -0.451 OA
ATOM      9  C   LIG d   1       1.786  -1.594 -11.619  0.00  0.00     0.179 A 
ATOM     10  H   LIG d   1       3.159  -2.220  -7.708  0.00  0.00     0.064 H 
ATOM     11  H   LIG d   1       3.637   2.026  -7.793  0.00  0.00     0.064 H 
ATOM     12  H   LIG d   1       2.803   2.103 -10.096  0.00  0.00     0.066 H 
ENDROOT
BRANCH   9  13
ATOM     13  C   LIG d   1       1.255  -2.217 -12.837  0.00  0.00     0.228 C 
ATOM     14  O   LIG d   1       2.006  -2.502 -13.752  0.00  0.00    -0.283 OA
BRANCH  13  15
ATOM     15  C   LIG d   1      -0.190  -2.498 -12.953  0.00  0.00     0.026 A 
ATOM     16  C   LIG d   1      -0.673  -3.790 -12.730  0.00  0.00    -0.047 A 
ATOM     17  C   LIG d   1      -2.022  -4.046 -12.839  0.00  0.00    -0.019 A 
ATOM     18  H   LIG d   1       0.010  -4.586 -12.474  0.00  0.00     0.063 H 
ATOM     19  C   LIG d   1      -2.902  -3.022 -13.170  0.00  0.00     0.120 A 
ATOM     20  H   LIG d   1      -2.396  -5.045 -12.667  0.00  0.00     0.065 H 
ATOM     21  C   LIG d   1      -2.425  -1.735 -13.393  0.00  0.00    -0.019 A 
ATOM     22  C   LIG d   1      -1.079  -1.469 -13.280  0.00  0.00    -0.047 A 
ATOM     23  H   LIG d   1      -3.112  -0.943 -13.650  0.00  0.00     0.065 H 
ATOM     24  H   LIG d   1      -0.710  -0.468 -13.450  0.00  0.00     0.063 H 
BRANCH  19  25
ATOM     25  O   LIG d   1      -4.230  -3.280 -13.277  0.00  0.00    -0.495 OA
BRANCH  25  26
ATOM     26  C   LIG d   1      -5.096  -2.613 -12.356  0.00  0.00     0.079 C 
ATOM     27  H   LIG d   1      -4.604  -1.717 -11.978  0.00  0.00     0.066 H 
ATOM     28  H   LIG d   1      -6.020  -2.334 -12.864  0.00  0.00     0.066 H 
ATOM     29  H   LIG d   1      -5.325  -3.279 -11.525  0.00  0.00     0.066 H 
ENDBRANCH  25  26
ENDBRANCH  19  25
ENDBRANCH  13  15
ENDBRANCH   9  13
BRANCH   1  30
ATOM     30  C   LIG d   1       2.040  -3.744 -10.242  0.00  0.00    -0.035 C 
ATOM     31  H   LIG d   1       1.870  -4.257 -11.190  0.00  0.00     0.028 H 
ATOM     32  H   LIG d   1       1.213  -3.953  -9.564  0.00  0.00     0.028 H 
ATOM     33  H   LIG d   1       2.971  -4.098  -9.801  0.00  0.00     0.028 H 
ENDBRANCH   1  30
BRANCH   4  34
ATOM     34  N   LIG d   1       3.931  -0.130  -6.295  0.00  0.00    -0.281 N 
ATOM     35  C   LIG d   1       3.083   0.045  -5.262  0.00  0.00     0.251 C 
ATOM     36  O   LIG d   1       1.887   0.128  -5.465  0.00  0.00    -0.270 OA
ATOM     37  H   LIG d   1       4.875  -0.275  -6.127  0.00  0.00     0.155 HD
BRANCH  35  38
ATOM     38  C   LIG d   1       3.605   0.135  -3.884  0.00  0.00     0.072 A 
ATOM     39  C   LIG d   1       3.972  -1.025  -3.194  0.00  0.00     0.136 A 
ATOM     40  C   LIG d   1       4.460  -0.931  -1.903  0.00  0.00    -0.026 A 
ATOM     41  F   LIG d   1       3.850  -2.233  -3.787  0.00  0.00    -0.205 F 
ATOM     42  C   LIG d   1       4.584   0.305  -1.297  0.00  0.00    -0.059 A 
ATOM     43  H   LIG d   1       4.745  -1.825  -1.368  0.00  0.00     0.065 H 
ATOM     44  C   LIG d   1       4.222   1.456  -1.975  0.00  0.00    -0.061 A 
ATOM     45  H   LIG d   1       4.966   0.373  -0.289  0.00  0.00     0.062 H 
ATOM     46  C   LIG d   1       3.739   1.380  -3.264  0.00  0.00    -0.047 A 
ATOM     47  H   LIG d   1       4.323   2.418  -1.495  0.00  0.00     0.062 H 
ATOM     48  H   LIG d   1       3.462   2.280  -3.793  0.00  0.00     0.063 H 
ENDBRANCH  35  38
ENDBRANCH   4  34
TORSDOF 7
ENDMDL
MODEL 3
REMARK VINA RESULT:      -7.0      2.511      3.173
REMARK  7 active torsions:
REMARK  status: ('A' for Active; 'I' for Inactive)
REMARK    1  A    between atoms: C_1  and  C_2 
REMARK    2  A    between atoms: C_5  and  N_21 
REMARK    3  A    between atoms: C_10  and  C_11 
REMARK    4  A    between atoms: C_11  and  C_13 
REMARK    5  A    between atoms: C_16  and  O_19 
REMARK    6  A    between atoms: O_19  and  C_20 
REMARK       I    between atoms: N_21  and  C_22 
REMARK    7  A    between atoms: C_22  and  C_24 
ROOT
ATOM      1  C   LIG d   1       9.863   5.076  -5.087  0.00  0.00     0.006 A 
ATOM      2  C   LIG d   1       9.700   3.628  -4.981  0.00  0.00     0.025 A 
ATOM      3  C   LIG d   1       8.783   2.797  -4.333  0.00  0.00    -0.029 A 
ATOM      4  C   LIG d   1       8.915   1.425  -4.435  0.00  0.00     0.035 A 
ATOM      5  C   LIG d   1       9.958   0.876  -5.180  0.00  0.00    -0.037 A 
ATOM      6  C   LIG d   1      10.862   1.687  -5.827  0.00  0.00    -0.017 A 
ATOM      7  C   LIG d   1      10.751   3.069  -5.735  0.00  0.00     0.136 A 
ATOM      8  O   LIG d   1      11.478   4.088  -6.237  0.00  0.00    -0.451 OA
ATOM      9  C   LIG d   1      10.963   5.277  -5.862  0.00  0.00     0.179 A 
ATOM     10  H   LIG d   1       7.975   3.224  -3.757  0.00  0.00     0.064 H 
ATOM     11  H   LIG d   1      10.054  -0.197  -5.254  0.00  0.00     0.064 H 
ATOM     12  H   LIG d   1      11.668   1.248  -6.399  0.00  0.00     0.066 H 
ENDROOT
BRANCH   9  13
ATOM     13  C   LIG d   1      11.507   6.589  -6.233  0.00  0.00     0.228 C 
ATOM     14  O   LIG d   1      12.266   7.169  -5.479  0.00  0.00    -0.283 OA
BRANCH  13  15
ATOM     15  C   LIG d   1      11.133   7.206  -7.522  0.00  0.00     0.026 A 
ATOM     16  C   LIG d   1      11.987   8.132  -8.129  0.00  0.00    -0.047 A 
ATOM     17  C   LIG d   1      11.634   8.703  -9.331  0.00  0.00    -0.019 A 
ATOM     18  H   LIG d   1      12.920   8.398  -7.657  0.00  0.00     0.063 H 
ATOM     19  C   LIG d   1      10.432   8.362  -9.940  0.00  0.00     0.120 A 
ATOM     20  H   LIG d   1      12.293   9.419  -9.802  0.00  0.00     0.065 H 
ATOM     21  C   LIG d   1       9.580   7.441  -9.339  0.00  0.00    -0.019 A 
ATOM     22  C   LIG d   1       9.928   6.860  -8.140  0.00  0.00    -0.047 A 
ATOM     23  H   LIG d   1       8.648   7.179  -9.815  0.00  0.00     0.065 H 
ATOM     24  H   LIG d   1       9.267   6.143  -7.675  0.00  0.00     0.063 H 
BRANCH  19  25
ATOM     25  O   LIG d   1      10.089   8.929 -11.124  0.00  0.00    -0.495 OA
BRANCH  25  26
ATOM     26  C   LIG d   1       9.969   8.056 -12.250  0.00  0.00     0.079 C 
ATOM     27  H   LIG d   1       9.210   8.442 -12.930  0.00  0.00     0.066 H 
ATOM     28  H   LIG d   1      10.927   7.999 -12.769  0.00  0.00     0.066 H 
ATOM     29  H   LIG d   1       9.681   7.062 -11.910  0.00  0.00     0.066 H 
ENDBRANCH  25  26
ENDBRANCH  19  25
ENDBRANCH  13  15
ENDBRANCH   9  13
BRANCH   1  30
ATOM     30  C   LIG d   1       8.991   6.134  -4.461  0.00  0.00    -0.035 C 
ATOM     31  H   LIG d   1       8.744   6.891  -5.207  0.00  0.00     0.028 H 
ATOM     32  H   LIG d   1       9.524   6.601  -3.633  0.00  0.00     0.028 H 
ATOM     33  H   LIG d   1       8.073   5.677  -4.092  0.00  0.00     0.028 H 
ENDBRANCH   1  30
BRANCH   4  34
ATOM     34  N   LIG d   1       7.999   0.585  -3.789  0.00  0.00    -0.281 N 
ATOM     35  C   LIG d   1       6.831   0.276  -4.385  0.00  0.00     0.251 C 
ATOM     36  O   LIG d   1       6.614   0.644  -5.524  0.00  0.00    -0.270 OA
ATOM     37  H   LIG d   1       8.206   0.225  -2.912  0.00  0.00     0.155 HD
BRANCH  35  38
ATOM     38  C   LIG d   1       5.816  -0.511  -3.658  0.00  0.00     0.072 A 
ATOM     39  C   LIG d   1       5.140   0.049  -2.568  0.00  0.00     0.136 A 
ATOM     40  C   LIG d   1       4.191  -0.697  -1.892  0.00  0.00    -0.026 A 
ATOM     41  F   LIG d   1       5.415   1.312  -2.178  0.00  0.00    -0.205 F 
ATOM     42  C   LIG d   1       3.910  -1.989  -2.292  0.00  0.00    -0.059 A 
ATOM     43  H   LIG d   1       3.667  -0.267  -1.051  0.00  0.00     0.065 H 
ATOM     44  C   LIG d   1       4.576  -2.548  -3.370  0.00  0.00    -0.061 A 
ATOM     45  H   LIG d   1       3.167  -2.566  -1.762  0.00  0.00     0.062 H 
ATOM     46  C   LIG d   1       5.521  -1.817  -4.057  0.00  0.00    -0.047 A 
ATOM     47  H   LIG d   1       4.350  -3.558  -3.677  0.00  0.00     0.062 H 
ATOM     48  H   LIG d   1       6.036  -2.253  -4.900  0.00  0.00     0.063 H 
ENDBRANCH  35  38
ENDBRANCH   4  34
TORSDOF 7
ENDMDL
MODEL 4
REMARK VINA RESULT:      -6.5      8.231     11.598
REMARK  7 active torsions:
REMARK  status: ('A' for Active; 'I' for Inactive)
REMARK    1  A    between atoms: C_1  and  C_2 
REMARK    2  A    between atoms: C_5  and  N_21 
REMARK    3  A    between atoms: C_10  and  C_11 
REMARK    4  A    between atoms: C_11  and  C_13 
REMARK    5  A    between atoms: C_16  and  O_19 
REMARK    6  A    between atoms: O_19  and  C_20 
REMARK       I    between atoms: N_21  and  C_22 
REMARK    7  A    between atoms: C_22  and  C_24 
ROOT
ATOM      1  C   LIG d   1       4.938  -1.203 -11.577  0.00  0.00     0.006 A 
ATOM      2  C   LIG d   1       4.154  -0.855 -10.393  0.00  0.00     0.025 A 
ATOM      3  C   LIG d   1       4.476  -0.382  -9.118  0.00  0.00    -0.029 A 
ATOM      4  C   LIG d   1       3.467  -0.149  -8.203  0.00  0.00     0.035 A 
ATOM      5  C   LIG d   1       2.137  -0.385  -8.552  0.00  0.00    -0.037 A 
ATOM      6  C   LIG d   1       1.811  -0.844  -9.808  0.00  0.00    -0.017 A 
ATOM      7  C   LIG d   1       2.811  -1.089 -10.742  0.00  0.00     0.136 A 
ATOM      8  O   LIG d   1       2.793  -1.542 -12.012  0.00  0.00    -0.451 OA
ATOM      9  C   LIG d   1       4.043  -1.613 -12.515  0.00  0.00     0.179 A 
ATOM     10  H   LIG d   1       5.506  -0.199  -8.850  0.00  0.00     0.064 H 
ATOM     11  H   LIG d   1       1.355  -0.200  -7.831  0.00  0.00     0.064 H 
ATOM     12  H   LIG d   1       0.777  -1.025 -10.065  0.00  0.00     0.066 H 
ENDROOT
BRANCH   9  13
ATOM     13  C   LIG d   1       4.385  -2.064 -13.869  0.00  0.00     0.228 C 
ATOM     14  O   LIG d   1       5.037  -3.081 -14.026  0.00  0.00    -0.283 OA
BRANCH  13  15
ATOM     15  C   LIG d   1       3.940  -1.285 -15.042  0.00  0.00     0.026 A 
ATOM     16  C   LIG d   1       4.548  -0.063 -15.342  0.00  0.00    -0.047 A 
ATOM     17  C   LIG d   1       4.130   0.660 -16.438  0.00  0.00    -0.019 A 
ATOM     18  H   LIG d   1       5.343   0.314 -14.717  0.00  0.00     0.063 H 
ATOM     19  C   LIG d   1       3.106   0.176 -17.244  0.00  0.00     0.120 A 
ATOM     20  H   LIG d   1       4.599   1.605 -16.671  0.00  0.00     0.065 H 
ATOM     21  C   LIG d   1       2.499  -1.040 -16.948  0.00  0.00    -0.019 A 
ATOM     22  C   LIG d   1       2.915  -1.772 -15.858  0.00  0.00    -0.047 A 
ATOM     23  H   LIG d   1       1.704  -1.413 -17.576  0.00  0.00     0.065 H 
ATOM     24  H   LIG d   1       2.445  -2.717 -15.631  0.00  0.00     0.063 H 
BRANCH  19  25
ATOM     25  O   LIG d   1       2.698   0.892 -18.321  0.00  0.00    -0.495 OA
BRANCH  25  26
ATOM     26  C   LIG d   1       1.788   1.967 -18.079  0.00  0.00     0.079 C 
ATOM     27  H   LIG d   1       1.586   2.038 -17.010  0.00  0.00     0.066 H 
ATOM     28  H   LIG d   1       2.229   2.902 -18.428  0.00  0.00     0.066 H 
ATOM     29  H   LIG d   1       0.857   1.783 -18.614  0.00  0.00     0.066 H 
ENDBRANCH  25  26
ENDBRANCH  19  25
ENDBRANCH  13  15
ENDBRANCH   9  13
BRANCH   1  30
ATOM     30  C   LIG d   1       6.436  -1.127 -11.726  0.00  0.00    -0.035 C 
ATOM     31  H   LIG d   1       6.690  -0.368 -12.467  0.00  0.00     0.028 H 
ATOM     32  H   LIG d   1       6.818  -2.094 -12.051  0.00  0.00     0.028 H 
ATOM     33  H   LIG d   1       6.884  -0.862 -10.768  0.00  0.00     0.028 H 
ENDBRANCH   1  30
BRANCH   4  34
ATOM     34  N   LIG d   1       3.780   0.326  -6.924  0.00  0.00    -0.281 N 
ATOM     35  C   LIG d   1       4.108  -0.540  -5.945  0.00  0.00     0.251 C 
ATOM     36  O   LIG d   1       4.229  -1.724  -6.196  0.00  0.00    -0.270 OA
ATOM     37  H   LIG d   1       3.762   1.279  -6.742  0.00  0.00     0.155 HD
BRANCH  35  38
ATOM     38  C   LIG d   1       4.323  -0.052  -4.568  0.00  0.00     0.072 A 
ATOM     39  C   LIG d   1       3.230   0.247  -3.749  0.00  0.00     0.136 A 
ATOM     40  C   LIG d   1       3.442   0.704  -2.461  0.00  0.00    -0.026 A 
ATOM     41  F   LIG d   1       1.972   0.091  -4.216  0.00  0.00    -0.205 F 
ATOM     42  C   LIG d   1       4.729   0.863  -1.984  0.00  0.00    -0.059 A 
ATOM     43  H   LIG d   1       2.599   0.935  -1.826  0.00  0.00     0.065 H 
ATOM     44  C   LIG d   1       5.815   0.568  -2.790  0.00  0.00    -0.061 A 
ATOM     45  H   LIG d   1       4.889   1.219  -0.977  0.00  0.00     0.062 H 
ATOM     46  C   LIG d   1       5.621   0.107  -4.075  0.00  0.00    -0.047 A 
ATOM     47  H   LIG d   1       6.818   0.694  -2.410  0.00  0.00     0.062 H 
ATOM     48  H   LIG d   1       6.470  -0.127  -4.701  0.00  0.00     0.063 H 
ENDBRANCH  35  38
ENDBRANCH   4  34
TORSDOF 7
ENDMDL
MODEL 5
REMARK VINA RESULT:      -6.4      7.843     10.910
REMARK  7 active torsions:
REMARK  status: ('A' for Active; 'I' for Inactive)
REMARK    1  A    between atoms: C_1  and  C_2 
REMARK    2  A    between atoms: C_5  and  N_21 
REMARK    3  A    between atoms: C_10  and  C_11 
REMARK    4  A    between atoms: C_11  and  C_13 
REMARK    5  A    between atoms: C_16  and  O_19 
REMARK    6  A    between atoms: O_19  and  C_20 
REMARK       I    between atoms: N_21  and  C_22 
REMARK    7  A    between atoms: C_22  and  C_24 
ROOT
ATOM      1  C   LIG d   1       4.302  -1.394 -11.448  0.00  0.00     0.006 A 
ATOM      2  C   LIG d   1       4.267  -0.555 -10.253  0.00  0.00     0.025 A 
ATOM      3  C   LIG d   1       4.513  -0.784  -8.897  0.00  0.00    -0.029 A 
ATOM      4  C   LIG d   1       4.387   0.258  -7.996  0.00  0.00     0.035 A 
ATOM      5  C   LIG d   1       4.015   1.526  -8.439  0.00  0.00    -0.037 A 
ATOM      6  C   LIG d   1       3.777   1.762  -9.775  0.00  0.00    -0.017 A 
ATOM      7  C   LIG d   1       3.895   0.729 -10.697  0.00  0.00     0.136 A 
ATOM      8  O   LIG d   1       3.716   0.661 -12.032  0.00  0.00    -0.451 OA
ATOM      9  C   LIG d   1       3.954  -0.587 -12.487  0.00  0.00     0.179 A 
ATOM     10  H   LIG d   1       4.802  -1.766  -8.554  0.00  0.00     0.064 H 
ATOM     11  H   LIG d   1       3.918   2.333  -7.729  0.00  0.00     0.064 H 
ATOM     12  H   LIG d   1       3.488   2.749 -10.105  0.00  0.00     0.066 H 
ENDROOT
BRANCH   9  13
ATOM     13  C   LIG d   1       3.853  -1.009 -13.889  0.00  0.00     0.228 C 
ATOM     14  O   LIG d   1       2.979  -1.786 -14.229  0.00  0.00    -0.283 OA
BRANCH  13  15
ATOM     15  C   LIG d   1       4.811  -0.493 -14.887  0.00  0.00     0.026 A 
ATOM     16  C   LIG d   1       6.172  -0.790 -14.770  0.00  0.00    -0.047 A 
ATOM     17  C   LIG d   1       7.062  -0.308 -15.704  0.00  0.00    -0.019 A 
ATOM     18  H   LIG d   1       6.525  -1.396 -13.949  0.00  0.00     0.063 H 
ATOM     19  C   LIG d   1       6.608   0.474 -16.761  0.00  0.00     0.120 A 
ATOM     20  H   LIG d   1       8.114  -0.537 -15.615  0.00  0.00     0.065 H 
ATOM     21  C   LIG d   1       5.255   0.771 -16.880  0.00  0.00    -0.019 A 
ATOM     22  C   LIG d   1       4.358   0.288 -15.954  0.00  0.00    -0.047 A 
ATOM     23  H   LIG d   1       4.907   1.378 -17.702  0.00  0.00     0.065 H 
ATOM     24  H   LIG d   1       3.307   0.517 -16.049  0.00  0.00     0.063 H 
BRANCH  19  25
ATOM     25  O   LIG d   1       7.489   0.947 -17.678  0.00  0.00    -0.495 OA
BRANCH  25  26
ATOM     26  C   LIG d   1       8.837   1.139 -17.243  0.00  0.00     0.079 C 
ATOM     27  H   LIG d   1       9.107   0.355 -16.536  0.00  0.00     0.066 H 
ATOM     28  H   LIG d   1       9.506   1.097 -18.105  0.00  0.00     0.066 H 
ATOM     29  H   LIG d   1       8.928   2.111 -16.761  0.00  0.00     0.066 H 
ENDBRANCH  25  26
ENDBRANCH  19  25
ENDBRANCH  13  15
ENDBRANCH   9  13
BRANCH   1  30
ATOM     30  C   LIG d   1       4.649  -2.859 -11.517  0.00  0.00    -0.035 C 
ATOM     31  H   LIG d   1       5.069  -3.178 -10.563  0.00  0.00     0.028 H 
ATOM     32  H   LIG d   1       5.380  -3.023 -12.309  0.00  0.00     0.028 H 
ATOM     33  H   LIG d   1       3.749  -3.436 -11.728  0.00  0.00     0.028 H 
ENDBRANCH   1  30
BRANCH   4  34
ATOM     34  N   LIG d   1       4.632   0.037  -6.635  0.00  0.00    -0.281 N 
ATOM     35  C   LIG d   1       3.604  -0.036  -5.768  0.00  0.00     0.251 C 
ATOM     36  O   LIG d   1       2.459  -0.010  -6.178  0.00  0.00    -0.270 OA
ATOM     37  H   LIG d   1       5.543  -0.064  -6.316  0.00  0.00     0.155 HD
BRANCH  35  38
ATOM     38  C   LIG d   1       3.866  -0.150  -4.319  0.00  0.00     0.072 A 
ATOM     39  C   LIG d   1       4.122  -1.400  -3.746  0.00  0.00     0.136 A 
ATOM     40  C   LIG d   1       4.366  -1.497  -2.388  0.00  0.00    -0.026 A 
ATOM     41  F   LIG d   1       4.131  -2.509  -4.518  0.00  0.00    -0.205 F 
ATOM     42  C   LIG d   1       4.356  -0.362  -1.599  0.00  0.00    -0.059 A 
ATOM     43  H   LIG d   1       4.565  -2.460  -1.944  0.00  0.00     0.065 H 
ATOM     44  C   LIG d   1       4.103   0.878  -2.161  0.00  0.00    -0.061 A 
ATOM     45  H   LIG d   1       4.548  -0.443  -0.540  0.00  0.00     0.062 H 
ATOM     46  C   LIG d   1       3.863   0.992  -3.514  0.00  0.00    -0.047 A 
ATOM     47  H   LIG d   1       4.098   1.760  -1.538  0.00  0.00     0.062 H 
ATOM     48  H   LIG d   1       3.670   1.961  -3.950  0.00  0.00     0.063 H 
ENDBRANCH  35  38
ENDBRANCH   4  34
TORSDOF 7
ENDMDL
MODEL 6
REMARK VINA RESULT:      -6.4      4.155      5.459
REMARK  7 active torsions:
REMARK  status: ('A' for Active; 'I' for Inactive)
REMARK    1  A    between atoms: C_1  and  C_2 
REMARK    2  A    between atoms: C_5  and  N_21 
REMARK    3  A    between atoms: C_10  and  C_11 
REMARK    4  A    between atoms: C_11  and  C_13 
REMARK    5  A    between atoms: C_16  and  O_19 
REMARK    6  A    between atoms: O_19  and  C_20 
REMARK       I    between atoms: N_21  and  C_22 
REMARK    7  A    between atoms: C_22  and  C_24 
ROOT
ATOM      1  C   LIG d   1       9.186   2.123  -5.730  0.00  0.00     0.006 A 
ATOM      2  C   LIG d   1       8.006   1.291  -5.954  0.00  0.00     0.025 A 
ATOM      3  C   LIG d   1       7.300   0.891  -7.092  0.00  0.00    -0.029 A 
ATOM      4  C   LIG d   1       6.192   0.076  -6.954  0.00  0.00     0.035 A 
ATOM      5  C   LIG d   1       5.782  -0.341  -5.688  0.00  0.00    -0.037 A 
ATOM      6  C   LIG d   1       6.476   0.043  -4.563  0.00  0.00    -0.017 A 
ATOM      7  C   LIG d   1       7.591   0.865  -4.678  0.00  0.00     0.136 A 
ATOM      8  O   LIG d   1       8.438   1.399  -3.775  0.00  0.00    -0.451 OA
ATOM      9  C   LIG d   1       9.384   2.144  -4.384  0.00  0.00     0.179 A 
ATOM     10  H   LIG d   1       7.619   1.215  -8.071  0.00  0.00     0.064 H 
ATOM     11  H   LIG d   1       4.915  -0.977  -5.590  0.00  0.00     0.064 H 
ATOM     12  H   LIG d   1       6.147  -0.286  -3.588  0.00  0.00     0.066 H 
ENDROOT
BRANCH   9  13
ATOM     13  C   LIG d   1      10.463   2.865  -3.699  0.00  0.00     0.228 C 
ATOM     14  O   LIG d   1      11.546   2.333  -3.539  0.00  0.00    -0.283 OA
BRANCH  13  15
ATOM     15  C   LIG d   1      10.234   4.237  -3.202  0.00  0.00     0.026 A 
ATOM     16  C   LIG d   1      10.620   4.585  -1.904  0.00  0.00    -0.047 A 
ATOM     17  C   LIG d   1      10.405   5.866  -1.445  0.00  0.00    -0.019 A 
ATOM     18  H   LIG d   1      11.084   3.852  -1.262  0.00  0.00     0.063 H 
ATOM     19  C   LIG d   1       9.806   6.811  -2.270  0.00  0.00     0.120 A 
ATOM     20  H   LIG d   1      10.702   6.136  -0.443  0.00  0.00     0.065 H 
ATOM     21  C   LIG d   1       9.422   6.468  -3.562  0.00  0.00    -0.019 A 
ATOM     22  C   LIG d   1       9.638   5.192  -4.031  0.00  0.00    -0.047 A 
ATOM     23  H   LIG d   1       8.957   7.205  -4.199  0.00  0.00     0.065 H 
ATOM     24  H   LIG d   1       9.341   4.927  -5.035  0.00  0.00     0.063 H 
BRANCH  19  25
ATOM     25  O   LIG d   1       9.596   8.071  -1.813  0.00  0.00    -0.495 OA
BRANCH  25  26
ATOM     26  C   LIG d   1      10.128   8.391  -0.525  0.00  0.00     0.079 C 
ATOM     27  H   LIG d   1       9.634   9.282  -0.139  0.00  0.00     0.066 H 
ATOM     28  H   LIG d   1       9.956   7.556   0.156  0.00  0.00     0.066 H 
ATOM     29  H   LIG d   1      11.198   8.576  -0.610  0.00  0.00     0.066 H 
ENDBRANCH  25  26
ENDBRANCH  19  25
ENDBRANCH  13  15
ENDBRANCH   9  13
BRANCH   1  30
ATOM     30  C   LIG d   1      10.014   2.823  -6.777  0.00  0.00    -0.035 C 
ATOM     31  H   LIG d   1      10.113   2.179  -7.652  0.00  0.00     0.028 H 
ATOM     32  H   LIG d   1      11.002   3.041  -6.374  0.00  0.00     0.028 H 
ATOM     33  H   LIG d   1       9.525   3.753  -7.065  0.00  0.00     0.028 H 
ENDBRANCH   1  30
BRANCH   4  34
ATOM     34  N   LIG d   1       5.479  -0.330  -8.089  0.00  0.00    -0.281 N 
ATOM     35  C   LIG d   1       4.473   0.431  -8.561  0.00  0.00     0.251 C 
ATOM     36  O   LIG d   1       4.246   1.517  -8.063  0.00  0.00    -0.270 OA
ATOM     37  H   LIG d   1       5.711  -1.159  -8.536  0.00  0.00     0.155 HD
BRANCH  35  38
ATOM     38  C   LIG d   1       3.645  -0.052  -9.684  0.00  0.00     0.072 A 
ATOM     39  C   LIG d   1       2.321  -0.445  -9.464  0.00  0.00     0.136 A 
ATOM     40  C   LIG d   1       1.553  -0.898 -10.522  0.00  0.00    -0.026 A 
ATOM     41  F   LIG d   1       1.795  -0.385  -8.221  0.00  0.00    -0.205 F 
ATOM     42  C   LIG d   1       2.092  -0.960 -11.793  0.00  0.00    -0.059 A 
ATOM     43  H   LIG d   1       0.530  -1.201 -10.355  0.00  0.00     0.065 H 
ATOM     44  C   LIG d   1       3.402  -0.571 -12.017  0.00  0.00    -0.061 A 
ATOM     45  H   LIG d   1       1.488  -1.312 -12.616  0.00  0.00     0.062 H 
ATOM     46  C   LIG d   1       4.179  -0.114 -10.974  0.00  0.00    -0.047 A 
ATOM     47  H   LIG d   1       3.815  -0.622 -13.013  0.00  0.00     0.062 H 
ATOM     48  H   LIG d   1       5.199   0.192 -11.152  0.00  0.00     0.063 H 
ENDBRANCH  35  38
ENDBRANCH   4  34
TORSDOF 7
ENDMDL
MODEL 7
REMARK VINA RESULT:      -6.3      1.787      2.316
REMARK  7 active torsions:
REMARK  status: ('A' for Active; 'I' for Inactive)
REMARK    1  A    between atoms: C_1  and  C_2 
REMARK    2  A    between atoms: C_5  and  N_21 
REMARK    3  A    between atoms: C_10  and  C_11 
REMARK    4  A    between atoms: C_11  and  C_13 
REMARK    5  A    between atoms: C_16  and  O_19 
REMARK    6  A    between atoms: O_19  and  C_20 
REMARK       I    between atoms: N_21  and  C_22 
REMARK    7  A    between atoms: C_22  and  C_24 
ROOT
ATOM      1  C   LIG d   1      10.419   5.090  -3.774  0.00  0.00     0.006 A 
ATOM      2  C   LIG d   1      10.074   3.701  -4.071  0.00  0.00     0.025 A 
ATOM      3  C   LIG d   1       9.139   2.800  -3.557  0.00  0.00    -0.029 A 
ATOM      4  C   LIG d   1       9.068   1.520  -4.076  0.00  0.00     0.035 A 
ATOM      5  C   LIG d   1       9.925   1.134  -5.106  0.00  0.00    -0.037 A 
ATOM      6  C   LIG d   1      10.845   2.018  -5.623  0.00  0.00    -0.017 A 
ATOM      7  C   LIG d   1      10.936   3.308  -5.113  0.00  0.00     0.136 A 
ATOM      8  O   LIG d   1      11.728   4.360  -5.406  0.00  0.00    -0.451 OA
ATOM      9  C   LIG d   1      11.431   5.418  -4.621  0.00  0.00     0.179 A 
ATOM     10  H   LIG d   1       8.475   3.101  -2.760  0.00  0.00     0.064 H 
ATOM     11  H   LIG d   1       9.863   0.133  -5.505  0.00  0.00     0.064 H 
ATOM     12  H   LIG d   1      11.505   1.706  -6.420  0.00  0.00     0.066 H 
ENDROOT
BRANCH   9  13
ATOM     13  C   LIG d   1      12.100   6.723  -4.674  0.00  0.00     0.228 C 
ATOM     14  O   LIG d   1      12.937   7.013  -3.838  0.00  0.00    -0.283 OA
BRANCH  13  15
ATOM     15  C   LIG d   1      11.758   7.685  -5.741  0.00  0.00     0.026 A 
ATOM     16  C   LIG d   1      12.449   7.659  -6.956  0.00  0.00    -0.047 A 
ATOM     17  C   LIG d   1      12.126   8.558  -7.948  0.00  0.00    -0.019 A 
ATOM     18  H   LIG d   1      13.235   6.937  -7.116  0.00  0.00     0.063 H 
ATOM     19  C   LIG d   1      11.115   9.490  -7.742  0.00  0.00     0.120 A 
ATOM     20  H   LIG d   1      12.659   8.539  -8.887  0.00  0.00     0.065 H 
ATOM     21  C   LIG d   1      10.425   9.518  -6.535  0.00  0.00    -0.019 A 
ATOM     22  C   LIG d   1      10.738   8.620  -5.540  0.00  0.00    -0.047 A 
ATOM     23  H   LIG d   1       9.641  10.244  -6.380  0.00  0.00     0.065 H 
ATOM     24  H   LIG d   1      10.200   8.641  -4.604  0.00  0.00     0.063 H 
BRANCH  19  25
ATOM     25  O   LIG d   1      10.800  10.374  -8.723  0.00  0.00    -0.495 OA
BRANCH  25  26
ATOM     26  C   LIG d   1      11.873  11.147  -9.267  0.00  0.00     0.079 C 
ATOM     27  H   LIG d   1      12.506  11.510  -8.459  0.00  0.00     0.066 H 
ATOM     28  H   LIG d   1      12.464  10.524  -9.941  0.00  0.00     0.066 H 
ATOM     29  H   LIG d   1      11.466  11.993  -9.819  0.00  0.00     0.066 H 
ENDBRANCH  25  26
ENDBRANCH  19  25
ENDBRANCH  13  15
ENDBRANCH   9  13
BRANCH   1  30
ATOM     30  C   LIG d   1       9.785   5.978  -2.734  0.00  0.00    -0.035 C 
ATOM     31  H   LIG d   1      10.010   5.591  -1.739  0.00  0.00     0.028 H 
ATOM     32  H   LIG d   1       8.706   5.997  -2.881  0.00  0.00     0.028 H 
ATOM     33  H   LIG d   1      10.183   6.988  -2.828  0.00  0.00     0.028 H 
ENDBRANCH   1  30
BRANCH   4  34
ATOM     34  N   LIG d   1       8.133   0.611  -3.566  0.00  0.00    -0.281 N 
ATOM     35  C   LIG d   1       6.941   0.458  -4.174  0.00  0.00     0.251 C 
ATOM     36  O   LIG d   1       6.713   1.034  -5.221  0.00  0.00    -0.270 OA
ATOM     37  H   LIG d   1       8.344   0.091  -2.775  0.00  0.00     0.155 HD
BRANCH  35  38
ATOM     38  C   LIG d   1       5.910  -0.411  -3.572  0.00  0.00     0.072 A 
ATOM     39  C   LIG d   1       5.642  -1.669  -4.121  0.00  0.00     0.136 A 
ATOM     40  C   LIG d   1       4.673  -2.475  -3.549  0.00  0.00    -0.026 A 
ATOM     41  F   LIG d   1       6.325  -2.094  -5.205  0.00  0.00    -0.205 F 
ATOM     42  C   LIG d   1       3.974  -2.040  -2.440  0.00  0.00    -0.059 A 
ATOM     43  H   LIG d   1       4.465  -3.447  -3.971  0.00  0.00     0.065 H 
ATOM     44  C   LIG d   1       4.236  -0.796  -1.892  0.00  0.00    -0.061 A 
ATOM     45  H   LIG d   1       3.221  -2.674  -1.997  0.00  0.00     0.062 H 
ATOM     46  C   LIG d   1       5.201   0.018  -2.447  0.00  0.00    -0.047 A 
ATOM     47  H   LIG d   1       3.686  -0.463  -1.025  0.00  0.00     0.062 H 
ATOM     48  H   LIG d   1       5.407   0.987  -2.015  0.00  0.00     0.063 H 
ENDBRANCH  35  38
ENDBRANCH   4  34
TORSDOF 7
ENDMDL
MODEL 8
REMARK VINA RESULT:      -6.1      3.832      9.444
REMARK  7 active torsions:
REMARK  status: ('A' for Active; 'I' for Inactive)
REMARK    1  A    between atoms: C_1  and  C_2 
REMARK    2  A    between atoms: C_5  and  N_21 
REMARK    3  A    between atoms: C_10  and  C_11 
REMARK    4  A    between atoms: C_11  and  C_13 
REMARK    5  A    between atoms: C_16  and  O_19 
REMARK    6  A    between atoms: O_19  and  C_20 
REMARK       I    between atoms: N_21  and  C_22 
REMARK    7  A    between atoms: C_22  and  C_24 
ROOT
ATOM      1  C   LIG d   1      10.123   3.498  -3.774  0.00  0.00     0.006 A 
ATOM      2  C   LIG d   1      10.159   4.949  -3.605  0.00  0.00     0.025 A 
ATOM      3  C   LIG d   1      10.713   5.803  -2.648  0.00  0.00    -0.029 A 
ATOM      4  C   LIG d   1      10.562   7.171  -2.786  0.00  0.00     0.035 A 
ATOM      5  C   LIG d   1       9.862   7.692  -3.872  0.00  0.00    -0.037 A 
ATOM      6  C   LIG d   1       9.318   6.858  -4.823  0.00  0.00    -0.017 A 
ATOM      7  C   LIG d   1       9.454   5.480  -4.703  0.00  0.00     0.136 A 
ATOM      8  O   LIG d   1       9.029   4.443  -5.453  0.00  0.00    -0.451 OA
ATOM      9  C   LIG d   1       9.418   3.268  -4.915  0.00  0.00     0.179 A 
ATOM     10  H   LIG d   1      11.256   5.398  -1.807  0.00  0.00     0.064 H 
ATOM     11  H   LIG d   1       9.749   8.761  -3.972  0.00  0.00     0.064 H 
ATOM     12  H   LIG d   1       8.776   7.274  -5.660  0.00  0.00     0.066 H 
ENDROOT
BRANCH   9  13
ATOM     13  C   LIG d   1       9.125   1.944  -5.475  0.00  0.00     0.228 C 
ATOM     14  O   LIG d   1       9.886   1.441  -6.282  0.00  0.00    -0.283 OA
BRANCH  13  15
ATOM     15  C   LIG d   1       7.905   1.220  -5.062  0.00  0.00     0.026 A 
ATOM     16  C   LIG d   1       7.287   0.329  -5.944  0.00  0.00    -0.047 A 
ATOM     17  C   LIG d   1       6.151  -0.343  -5.553  0.00  0.00    -0.019 A 
ATOM     18  H   LIG d   1       7.699   0.169  -6.928  0.00  0.00     0.063 H 
ATOM     19  C   LIG d   1       5.619  -0.137  -4.285  0.00  0.00     0.120 A 
ATOM     20  H   LIG d   1       5.672  -1.033  -6.234  0.00  0.00     0.065 H 
ATOM     21  C   LIG d   1       6.231   0.748  -3.406  0.00  0.00    -0.019 A 
ATOM     22  C   LIG d   1       7.371   1.421  -3.786  0.00  0.00    -0.047 A 
ATOM     23  H   LIG d   1       5.815   0.905  -2.422  0.00  0.00     0.065 H 
ATOM     24  H   LIG d   1       7.848   2.106  -3.100  0.00  0.00     0.063 H 
BRANCH  19  25
ATOM     25  O   LIG d   1       4.498  -0.803  -3.906  0.00  0.00    -0.495 OA
BRANCH  25  26
ATOM     26  C   LIG d   1       3.394  -0.012  -3.460  0.00  0.00     0.079 C 
ATOM     27  H   LIG d   1       3.691   0.566  -2.585  0.00  0.00     0.066 H 
ATOM     28  H   LIG d   1       3.089   0.668  -4.257  0.00  0.00     0.066 H 
ATOM     29  H   LIG d   1       2.562  -0.665  -3.200  0.00  0.00     0.066 H 
ENDBRANCH  25  26
ENDBRANCH  19  25
ENDBRANCH  13  15
ENDBRANCH   9  13
BRANCH   1  30
ATOM     30  C   LIG d   1      10.736   2.464  -2.865  0.00  0.00    -0.035 C 
ATOM     31  H   LIG d   1      11.686   2.129  -3.284  0.00  0.00     0.028 H 
ATOM     32  H   LIG d   1      10.060   1.615  -2.772  0.00  0.00     0.028 H 
ATOM     33  H   LIG d   1      10.909   2.902  -1.882  0.00  0.00     0.028 H 
ENDBRANCH   1  30
BRANCH   4  34
ATOM     34  N   LIG d   1      11.115   8.033  -1.831  0.00  0.00    -0.281 N 
ATOM     35  C   LIG d   1      10.440   8.307  -0.698  0.00  0.00     0.251 C 
ATOM     36  O   LIG d   1       9.396   7.729  -0.458  0.00  0.00    -0.270 OA
ATOM     37  H   LIG d   1      11.986   8.434  -1.985  0.00  0.00     0.155 HD
BRANCH  35  38
ATOM     38  C   LIG d   1      10.965   9.306   0.253  0.00  0.00     0.072 A 
ATOM     39  C   LIG d   1      10.658  10.661   0.092  0.00  0.00     0.136 A 
ATOM     40  C   LIG d   1      11.156  11.590   0.988  0.00  0.00    -0.026 A 
ATOM     41  F   LIG d   1       9.877  11.060  -0.936  0.00  0.00    -0.205 F 
ATOM     42  C   LIG d   1      11.954  11.181   2.039  0.00  0.00    -0.059 A 
ATOM     43  H   LIG d   1      10.919  12.636   0.866  0.00  0.00     0.065 H 
ATOM     44  C   LIG d   1      12.261   9.841   2.203  0.00  0.00    -0.061 A 
ATOM     45  H   LIG d   1      12.339  11.910   2.736  0.00  0.00     0.062 H 
ATOM     46  C   LIG d   1      11.769   8.902   1.322  0.00  0.00    -0.047 A 
ATOM     47  H   LIG d   1      12.885   9.530   3.028  0.00  0.00     0.062 H 
ATOM     48  H   LIG d   1      12.007   7.857   1.455  0.00  0.00     0.063 H 
ENDBRANCH  35  38
ENDBRANCH   4  34
TORSDOF 7
ENDMDL
MODEL 9
REMARK VINA RESULT:      -6.0      3.820      4.636
REMARK  7 active torsions:
REMARK  status: ('A' for Active; 'I' for Inactive)
REMARK    1  A    between atoms: C_1  and  C_2 
REMARK    2  A    between atoms: C_5  and  N_21 
REMARK    3  A    between atoms: C_10  and  C_11 
REMARK    4  A    between atoms: C_11  and  C_13 
REMARK    5  A    between atoms: C_16  and  O_19 
REMARK    6  A    between atoms: O_19  and  C_20 
REMARK       I    between atoms: N_21  and  C_22 
REMARK    7  A    between atoms: C_22  and  C_24 
ROOT
ATOM      1  C   LIG d   1       9.916   3.616  -7.683  0.00  0.00     0.006 A 
ATOM      2  C   LIG d   1       9.093   2.419  -7.535  0.00  0.00     0.025 A 
ATOM      3  C   LIG d   1       8.113   2.019  -6.621  0.00  0.00    -0.029 A 
ATOM      4  C   LIG d   1       7.509   0.784  -6.768  0.00  0.00     0.035 A 
ATOM      5  C   LIG d   1       7.875  -0.055  -7.819  0.00  0.00    -0.037 A 
ATOM      6  C   LIG d   1       8.834   0.334  -8.727  0.00  0.00    -0.017 A 
ATOM      7  C   LIG d   1       9.458   1.570  -8.597  0.00  0.00     0.136 A 
ATOM      8  O   LIG d   1      10.416   2.197  -9.309  0.00  0.00    -0.451 OA
ATOM      9  C   LIG d   1      10.695   3.407  -8.778  0.00  0.00     0.179 A 
ATOM     10  H   LIG d   1       7.830   2.670  -5.808  0.00  0.00     0.064 H 
ATOM     11  H   LIG d   1       7.398  -1.018  -7.925  0.00  0.00     0.064 H 
ATOM     12  H   LIG d   1       9.110  -0.326  -9.537  0.00  0.00     0.066 H 
ENDROOT
BRANCH   9  13
ATOM     13  C   LIG d   1      11.687   4.351  -9.304  0.00  0.00     0.228 C 
ATOM     14  O   LIG d   1      12.876   4.112  -9.190  0.00  0.00    -0.283 OA
BRANCH  13  15
ATOM     15  C   LIG d   1      11.245   5.593  -9.970  0.00  0.00     0.026 A 
ATOM     16  C   LIG d   1      10.361   5.531 -11.051  0.00  0.00    -0.047 A 
ATOM     17  C   LIG d   1       9.951   6.692 -11.668  0.00  0.00    -0.019 A 
ATOM     18  H   LIG d   1      10.000   4.576 -11.401  0.00  0.00     0.063 H 
ATOM     19  C   LIG d   1      10.415   7.923 -11.218  0.00  0.00     0.120 A 
ATOM     20  H   LIG d   1       9.267   6.646 -12.503  0.00  0.00     0.065 H 
ATOM     21  C   LIG d   1      11.295   7.988 -10.143  0.00  0.00    -0.019 A 
ATOM     22  C   LIG d   1      11.706   6.832  -9.517  0.00  0.00    -0.047 A 
ATOM     23  H   LIG d   1      11.653   8.946  -9.797  0.00  0.00     0.065 H 
ATOM     24  H   LIG d   1      12.387   6.884  -8.680  0.00  0.00     0.063 H 
BRANCH  19  25
ATOM     25  O   LIG d   1      10.008   9.063 -11.830  0.00  0.00    -0.495 OA
BRANCH  25  26
ATOM     26  C   LIG d   1       9.566   8.951 -13.185  0.00  0.00     0.079 C 
ATOM     27  H   LIG d   1      10.415   8.714 -13.826  0.00  0.00     0.066 H 
ATOM     28  H   LIG d   1       8.822   8.156 -13.259  0.00  0.00     0.066 H 
ATOM     29  H   LIG d   1       9.122   9.894 -13.501  0.00  0.00     0.066 H 
ENDBRANCH  25  26
ENDBRANCH  19  25
ENDBRANCH  13  15
ENDBRANCH   9  13
BRANCH   1  30
ATOM     30  C   LIG d   1       9.910   4.836  -6.797  0.00  0.00    -0.035 C 
ATOM     31  H   LIG d   1       9.058   4.788  -6.118  0.00  0.00     0.028 H 
ATOM     32  H   LIG d   1       9.834   5.732  -7.413  0.00  0.00     0.028 H 
ATOM     33  H   LIG d   1      10.833   4.870  -6.218  0.00  0.00     0.028 H 
ENDBRANCH   1  30
BRANCH   4  34
ATOM     34  N   LIG d   1       6.526   0.376  -5.857  0.00  0.00    -0.281 N 
ATOM     35  C   LIG d   1       6.878  -0.279  -4.734  0.00  0.00     0.251 C 
ATOM     36  O   LIG d   1       8.054  -0.430  -4.461  0.00  0.00    -0.270 OA
ATOM     37  H   LIG d   1       5.591   0.566  -6.035  0.00  0.00     0.155 HD
BRANCH  35  38
ATOM     38  C   LIG d   1       5.838  -0.814  -3.833  0.00  0.00     0.072 A 
ATOM     39  C   LIG d   1       5.352  -0.034  -2.779  0.00  0.00     0.136 A 
ATOM     40  C   LIG d   1       4.378  -0.544  -1.939  0.00  0.00    -0.026 A 
ATOM     41  F   LIG d   1       5.834   1.212  -2.580  0.00  0.00    -0.205 F 
ATOM     42  C   LIG d   1       3.885  -1.819  -2.143  0.00  0.00    -0.059 A 
ATOM     43  H   LIG d   1       4.001   0.056  -1.125  0.00  0.00     0.065 H 
ATOM     44  C   LIG d   1       4.362  -2.595  -3.186  0.00  0.00    -0.061 A 
ATOM     45  H   LIG d   1       3.124  -2.212  -1.486  0.00  0.00     0.062 H 
ATOM     46  C   LIG d   1       5.330  -2.100  -4.034  0.00  0.00    -0.047 A 
ATOM     47  H   LIG d   1       3.971  -3.590  -3.338  0.00  0.00     0.062 H 
ATOM     48  H   LIG d   1       5.697  -2.706  -4.849  0.00  0.00     0.063 H 
ENDBRANCH  35  38
ENDBRANCH   4  34
TORSDOF 7
ENDMDL
