MODEL 1
REMARK VINA RESULT:      -7.0      0.000      0.000
REMARK  4 active torsions:
REMARK  status: ('A' for Active; 'I' for Inactive)
REMARK    1  A    between atoms: C_2  and  N_11 
REMARK       I    between atoms: N_11  and  C_12 
REMARK    2  A    between atoms: C_12  and  C_14 
REMARK    3  A    between atoms: C_14  and  C_15 
REMARK    4  A    between atoms: C_14  and  C_19 
ROOT
ATOM      1  N   LIG d   1       3.687  -0.504  -5.192  0.00  0.00    -0.279 N 
ATOM      2  C   LIG d   1       4.823  -0.187  -4.542  0.00  0.00     0.238 C 
ATOM      3  O   LIG d   1       5.791   0.199  -5.163  0.00  0.00    -0.275 OA
ATOM      4  H   LIG d   1       2.891  -0.744  -4.690  0.00  0.00     0.155 HD
ENDROOT
BRANCH   1   5
ATOM      5  C   LIG d   1       3.653  -0.489  -6.598  0.00  0.00     0.115 A 
ATOM      6  C   LIG d   1       4.093  -1.555  -7.308  0.00  0.00     0.033 A 
ATOM      7  N   LIG d   1       4.049  -1.520  -8.679  0.00  0.00    -0.312 N 
ATOM      8  H   LIG d   1       4.480  -2.425  -6.798  0.00  0.00     0.083 H 
ATOM      9  C   LIG d   1       3.575  -0.438  -9.322  0.00  0.00     0.327 A 
ATOM     10  H   LIG d   1       4.366  -2.282  -9.188  0.00  0.00     0.170 HD
ATOM     11  N   LIG d   1       3.130   0.635  -8.643  0.00  0.00    -0.274 N 
ATOM     12  O   LIG d   1       3.547  -0.430 -10.538  0.00  0.00    -0.247 OA
ATOM     13  C   LIG d   1       3.154   0.645  -7.294  0.00  0.00     0.275 A 
ATOM     14  H   LIG d   1       2.791   1.404  -9.125  0.00  0.00     0.173 HD
ATOM     15  O   LIG d   1       2.751   1.616  -6.680  0.00  0.00    -0.266 OA
ENDBRANCH   1   5
BRANCH   2  16
ATOM     16  C   LIG d   1       4.894  -0.315  -3.042  0.00  0.00     0.224 C 
ATOM     17  H   LIG d   1       5.933  -0.257  -2.720  0.00  0.00     0.057 H 
BRANCH  16  18
ATOM     18  C   LIG d   1       4.096   0.819  -2.395  0.00  0.00     0.409 C 
ATOM     19  F   LIG d   1       2.746   0.456  -2.320  0.00  0.00    -0.170 F 
ATOM     20  F   LIG d   1       4.585   1.060  -1.107  0.00  0.00    -0.170 F 
ATOM     21  F   LIG d   1       4.224   1.978  -3.167  0.00  0.00    -0.170 F 
ENDBRANCH  16  18
BRANCH  16  22
ATOM     22  C   LIG d   1       4.302  -1.661  -2.616  0.00  0.00     0.409 C 
ATOM     23  F   LIG d   1       4.483  -1.835  -1.240  0.00  0.00    -0.170 F 
ATOM     24  F   LIG d   1       2.936  -1.684  -2.913  0.00  0.00    -0.170 F 
ATOM     25  F   LIG d   1       4.948  -2.692  -3.305  0.00  0.00    -0.170 F 
ENDBRANCH  16  22
ENDBRANCH   2  16
TORSDOF 4
ENDMDL
MODEL 2
REMARK VINA RESULT:      -7.0      0.797      2.312
REMARK  4 active torsions:
REMARK  status: ('A' for Active; 'I' for Inactive)
REMARK    1  A    between atoms: C_2  and  N_11 
REMARK       I    between atoms: N_11  and  C_12 
REMARK    2  A    between atoms: C_12  and  C_14 
REMARK    3  A    between atoms: C_14  and  C_15 
REMARK    4  A    between atoms: C_14  and  C_19 
ROOT
ATOM      1  N   LIG d   1       3.253  -0.358  -5.580  0.00  0.00    -0.279 N 
ATOM      2  C   LIG d   1       4.276  -0.127  -4.733  0.00  0.00     0.238 C 
ATOM      3  O   LIG d   1       5.375   0.141  -5.169  0.00  0.00    -0.275 OA
ATOM      4  H   LIG d   1       2.358  -0.501  -5.232  0.00  0.00     0.155 HD
ENDROOT
BRANCH   1   5
ATOM      5  C   LIG d   1       3.482  -0.392  -6.967  0.00  0.00     0.115 A 
ATOM      6  C   LIG d   1       3.921  -1.526  -7.563  0.00  0.00     0.033 A 
ATOM      7  N   LIG d   1       4.136  -1.539  -8.918  0.00  0.00    -0.312 N 
ATOM      8  H   LIG d   1       4.104  -2.414  -6.975  0.00  0.00     0.083 H 
ATOM      9  C   LIG d   1       3.916  -0.437  -9.658  0.00  0.00     0.327 A 
ATOM     10  H   LIG d   1       4.451  -2.350  -9.346  0.00  0.00     0.170 HD
ATOM     11  N   LIG d   1       3.479   0.703  -9.092  0.00  0.00    -0.274 N 
ATOM     12  O   LIG d   1       4.115  -0.472 -10.857  0.00  0.00    -0.247 OA
ATOM     13  C   LIG d   1       3.254   0.761  -7.764  0.00  0.00     0.275 A 
ATOM     14  H   LIG d   1       3.326   1.486  -9.642  0.00  0.00     0.173 HD
ATOM     15  O   LIG d   1       2.859   1.794  -7.253  0.00  0.00    -0.266 OA
ENDBRANCH   1   5
BRANCH   2  16
ATOM     16  C   LIG d   1       4.054  -0.204  -3.245  0.00  0.00     0.224 C 
ATOM     17  H   LIG d   1       2.990  -0.325  -3.041  0.00  0.00     0.057 H 
BRANCH  16  18
ATOM     18  C   LIG d   1       4.822  -1.397  -2.674  0.00  0.00     0.409 C 
ATOM     19  F   LIG d   1       4.547  -2.537  -3.438  0.00  0.00    -0.170 F 
ATOM     20  F   LIG d   1       6.194  -1.131  -2.712  0.00  0.00    -0.170 F 
ATOM     21  F   LIG d   1       4.425  -1.617  -1.351  0.00  0.00    -0.170 F 
ENDBRANCH  16  18
BRANCH  16  22
ATOM     22  C   LIG d   1       4.555   1.085  -2.587  0.00  0.00     0.409 C 
ATOM     23  F   LIG d   1       4.421   0.982  -1.199  0.00  0.00    -0.170 F 
ATOM     24  F   LIG d   1       5.900   1.282  -2.913  0.00  0.00    -0.170 F 
ATOM     25  F   LIG d   1       3.799   2.167  -3.049  0.00  0.00    -0.170 F 
ENDBRANCH  16  22
ENDBRANCH   2  16
TORSDOF 4
ENDMDL
MODEL 3
REMARK VINA RESULT:      -6.9      1.352      2.735
REMARK  4 active torsions:
REMARK  status: ('A' for Active; 'I' for Inactive)
REMARK    1  A    between atoms: C_2  and  N_11 
REMARK       I    between atoms: N_11  and  C_12 
REMARK    2  A    between atoms: C_12  and  C_14 
REMARK    3  A    between atoms: C_14  and  C_15 
REMARK    4  A    between atoms: C_14  and  C_19 
ROOT
ATOM      1  N   LIG d   1       2.851  -0.264  -5.705  0.00  0.00    -0.279 N 
ATOM      2  C   LIG d   1       3.851  -0.253  -4.801  0.00  0.00     0.238 C 
ATOM      3  O   LIG d   1       4.949   0.151  -5.117  0.00  0.00    -0.275 OA
ATOM      4  H   LIG d   1       1.954  -0.519  -5.433  0.00  0.00     0.155 HD
ENDROOT
BRANCH   1   5
ATOM      5  C   LIG d   1       3.106   0.094  -7.041  0.00  0.00     0.115 A 
ATOM      6  C   LIG d   1       2.864   1.354  -7.473  0.00  0.00     0.033 A 
ATOM      7  N   LIG d   1       3.122   1.683  -8.780  0.00  0.00    -0.312 N 
ATOM      8  H   LIG d   1       2.468   2.095  -6.794  0.00  0.00     0.083 H 
ATOM      9  C   LIG d   1       3.609   0.765  -9.634  0.00  0.00     0.327 A 
ATOM     10  H   LIG d   1       2.948   2.584  -9.091  0.00  0.00     0.170 HD
ATOM     11  N   LIG d   1       3.860  -0.494  -9.232  0.00  0.00    -0.274 N 
ATOM     12  O   LIG d   1       3.829   1.079 -10.788  0.00  0.00    -0.247 OA
ATOM     13  C   LIG d   1       3.622  -0.862  -7.956  0.00  0.00     0.275 A 
ATOM     14  H   LIG d   1       4.212  -1.141  -9.863  0.00  0.00     0.173 HD
ATOM     15  O   LIG d   1       3.849  -2.002  -7.594  0.00  0.00    -0.266 OA
ENDBRANCH   1   5
BRANCH   2  16
ATOM     16  C   LIG d   1       3.604  -0.745  -3.398  0.00  0.00     0.224 C 
ATOM     17  H   LIG d   1       2.532  -0.862  -3.237  0.00  0.00     0.057 H 
BRANCH  16  18
ATOM     18  C   LIG d   1       4.300  -2.093  -3.200  0.00  0.00     0.409 C 
ATOM     19  F   LIG d   1       5.640  -1.880  -2.858  0.00  0.00    -0.170 F 
ATOM     20  F   LIG d   1       3.664  -2.801  -2.175  0.00  0.00    -0.170 F 
ATOM     21  F   LIG d   1       4.234  -2.830  -4.387  0.00  0.00    -0.170 F 
ENDBRANCH  16  18
BRANCH  16  22
ATOM     22  C   LIG d   1       4.163   0.269  -2.397  0.00  0.00     0.409 C 
ATOM     23  F   LIG d   1       5.370   0.784  -2.880  0.00  0.00    -0.170 F 
ATOM     24  F   LIG d   1       3.245   1.311  -2.227  0.00  0.00    -0.170 F 
ATOM     25  F   LIG d   1       4.384  -0.363  -1.169  0.00  0.00    -0.170 F 
ENDBRANCH  16  22
ENDBRANCH   2  16
TORSDOF 4
ENDMDL
MODEL 4
REMARK VINA RESULT:      -6.9      0.807      1.947
REMARK  4 active torsions:
REMARK  status: ('A' for Active; 'I' for Inactive)
REMARK    1  A    between atoms: C_2  and  N_11 
REMARK       I    between atoms: N_11  and  C_12 
REMARK    2  A    between atoms: C_12  and  C_14 
REMARK    3  A    between atoms: C_14  and  C_15 
REMARK    4  A    between atoms: C_14  and  C_19 
ROOT
ATOM      1  N   LIG d   1       3.640  -0.555  -5.156  0.00  0.00    -0.279 N 
ATOM      2  C   LIG d   1       4.769  -0.175  -4.526  0.00  0.00     0.238 C 
ATOM      3  O   LIG d   1       5.693   0.286  -5.162  0.00  0.00    -0.275 OA
ATOM      4  H   LIG d   1       2.875  -0.856  -4.640  0.00  0.00     0.155 HD
ENDROOT
BRANCH   1   5
ATOM      5  C   LIG d   1       3.570  -0.516  -6.560  0.00  0.00     0.115 A 
ATOM      6  C   LIG d   1       3.026   0.551  -7.191  0.00  0.00     0.033 A 
ATOM      7  N   LIG d   1       2.969   0.570  -8.562  0.00  0.00    -0.312 N 
ATOM      8  H   LIG d   1       2.635   1.380  -6.620  0.00  0.00     0.083 H 
ATOM      9  C   LIG d   1       3.446  -0.460  -9.282  0.00  0.00     0.327 A 
ATOM     10  H   LIG d   1       2.578   1.333  -9.015  0.00  0.00     0.170 HD
ATOM     11  N   LIG d   1       3.994  -1.533  -8.681  0.00  0.00    -0.274 N 
ATOM     12  O   LIG d   1       3.384  -0.422 -10.496  0.00  0.00    -0.247 OA
ATOM     13  C   LIG d   1       4.071  -1.595  -7.337  0.00  0.00     0.275 A 
ATOM     14  H   LIG d   1       4.333  -2.266  -9.218  0.00  0.00     0.173 HD
ATOM     15  O   LIG d   1       4.565  -2.566  -6.794  0.00  0.00    -0.266 OA
ENDBRANCH   1   5
BRANCH   2  16
ATOM     16  C   LIG d   1       4.885  -0.325  -3.031  0.00  0.00     0.224 C 
ATOM     17  H   LIG d   1       5.937  -0.324  -2.746  0.00  0.00     0.057 H 
BRANCH  16  18
ATOM     18  C   LIG d   1       4.170   0.840  -2.344  0.00  0.00     0.409 C 
ATOM     19  F   LIG d   1       4.399   2.018  -3.064  0.00  0.00    -0.170 F 
ATOM     20  F   LIG d   1       2.796   0.582  -2.297  0.00  0.00    -0.170 F 
ATOM     21  F   LIG d   1       4.661   0.986  -1.042  0.00  0.00    -0.170 F 
ENDBRANCH  16  18
BRANCH  16  22
ATOM     22  C   LIG d   1       4.240  -1.644  -2.599  0.00  0.00     0.409 C 
ATOM     23  F   LIG d   1       4.798  -2.697  -3.332  0.00  0.00    -0.170 F 
ATOM     24  F   LIG d   1       4.470  -1.851  -1.235  0.00  0.00    -0.170 F 
ATOM     25  F   LIG d   1       2.863  -1.590  -2.838  0.00  0.00    -0.170 F 
ENDBRANCH  16  22
ENDBRANCH   2  16
TORSDOF 4
ENDMDL
MODEL 5
REMARK VINA RESULT:      -6.3      2.948      4.125
REMARK  4 active torsions:
REMARK  status: ('A' for Active; 'I' for Inactive)
REMARK    1  A    between atoms: C_2  and  N_11 
REMARK       I    between atoms: N_11  and  C_12 
REMARK    2  A    between atoms: C_12  and  C_14 
REMARK    3  A    between atoms: C_14  and  C_15 
REMARK    4  A    between atoms: C_14  and  C_19 
ROOT
ATOM      1  N   LIG d   1       5.931  -0.746  -5.235  0.00  0.00    -0.279 N 
ATOM      2  C   LIG d   1       5.208  -0.223  -4.225  0.00  0.00     0.238 C 
ATOM      3  O   LIG d   1       5.494   0.867  -3.776  0.00  0.00    -0.275 OA
ATOM      4  H   LIG d   1       5.659  -1.585  -5.642  0.00  0.00     0.155 HD
ENDROOT
BRANCH   1   5
ATOM      5  C   LIG d   1       7.079  -0.079  -5.698  0.00  0.00     0.115 A 
ATOM      6  C   LIG d   1       8.258  -0.206  -5.045  0.00  0.00     0.033 A 
ATOM      7  N   LIG d   1       9.366   0.452  -5.515  0.00  0.00    -0.312 N 
ATOM      8  H   LIG d   1       8.324  -0.817  -4.156  0.00  0.00     0.083 H 
ATOM      9  C   LIG d   1       9.292   1.221  -6.616  0.00  0.00     0.327 A 
ATOM     10  H   LIG d   1      10.211   0.364  -5.047  0.00  0.00     0.170 HD
ATOM     11  N   LIG d   1       8.133   1.363  -7.286  0.00  0.00    -0.274 N 
ATOM     12  O   LIG d   1      10.287   1.795  -7.014  0.00  0.00    -0.247 OA
ATOM     13  C   LIG d   1       7.019   0.735  -6.861  0.00  0.00     0.275 A 
ATOM     14  H   LIG d   1       8.100   1.921  -8.078  0.00  0.00     0.173 HD
ATOM     15  O   LIG d   1       5.971   0.865  -7.467  0.00  0.00    -0.266 OA
ENDBRANCH   1   5
BRANCH   2  16
ATOM     16  C   LIG d   1       4.046  -0.993  -3.652  0.00  0.00     0.224 C 
ATOM     17  H   LIG d   1       3.739  -1.766  -4.356  0.00  0.00     0.057 H 
BRANCH  16  18
ATOM     18  C   LIG d   1       4.465  -1.642  -2.332  0.00  0.00     0.409 C 
ATOM     19  F   LIG d   1       4.389  -0.697  -1.302  0.00  0.00    -0.170 F 
ATOM     20  F   LIG d   1       3.612  -2.712  -2.045  0.00  0.00    -0.170 F 
ATOM     21  F   LIG d   1       5.779  -2.110  -2.439  0.00  0.00    -0.170 F 
ENDBRANCH  16  18
BRANCH  16  22
ATOM     22  C   LIG d   1       2.876  -0.038  -3.401  0.00  0.00     0.409 C 
ATOM     23  F   LIG d   1       2.542   0.613  -4.593  0.00  0.00    -0.170 F 
ATOM     24  F   LIG d   1       1.773  -0.764  -2.940  0.00  0.00    -0.170 F 
ATOM     25  F   LIG d   1       3.246   0.910  -2.441  0.00  0.00    -0.170 F 
ENDBRANCH  16  22
ENDBRANCH   2  16
TORSDOF 4
ENDMDL
MODEL 6
REMARK VINA RESULT:      -6.2      4.292      6.431
REMARK  4 active torsions:
REMARK  status: ('A' for Active; 'I' for Inactive)
REMARK    1  A    between atoms: C_2  and  N_11 
REMARK       I    between atoms: N_11  and  C_12 
REMARK    2  A    between atoms: C_12  and  C_14 
REMARK    3  A    between atoms: C_14  and  C_15 
REMARK    4  A    between atoms: C_14  and  C_19 
ROOT
ATOM      1  N   LIG d   1       4.524   0.252  -6.952  0.00  0.00    -0.279 N 
ATOM      2  C   LIG d   1       3.761   0.047  -8.045  0.00  0.00     0.238 C 
ATOM      3  O   LIG d   1       2.786  -0.671  -7.977  0.00  0.00    -0.275 OA
ATOM      4  H   LIG d   1       5.262   0.882  -6.987  0.00  0.00     0.155 HD
ENDROOT
BRANCH   1   5
ATOM      5  C   LIG d   1       4.252  -0.447  -5.763  0.00  0.00     0.115 A 
ATOM      6  C   LIG d   1       4.841  -1.641  -5.518  0.00  0.00     0.033 A 
ATOM      7  N   LIG d   1       4.564  -2.306  -4.350  0.00  0.00    -0.312 N 
ATOM      8  H   LIG d   1       5.522  -2.070  -6.239  0.00  0.00     0.083 H 
ATOM      9  C   LIG d   1       3.713  -1.783  -3.449  0.00  0.00     0.327 A 
ATOM     10  H   LIG d   1       4.984  -3.162  -4.174  0.00  0.00     0.170 HD
ATOM     11  N   LIG d   1       3.114  -0.597  -3.666  0.00  0.00    -0.274 N 
ATOM     12  O   LIG d   1       3.481  -2.391  -2.421  0.00  0.00    -0.247 OA
ATOM     13  C   LIG d   1       3.357   0.091  -4.800  0.00  0.00     0.275 A 
ATOM     14  H   LIG d   1       2.504  -0.237  -3.004  0.00  0.00     0.173 HD
ATOM     15  O   LIG d   1       2.814   1.163  -4.995  0.00  0.00    -0.266 OA
ENDBRANCH   1   5
BRANCH   2  16
ATOM     16  C   LIG d   1       4.121   0.708  -9.350  0.00  0.00     0.224 C 
ATOM     17  H   LIG d   1       5.191   0.598  -9.531  0.00  0.00     0.057 H 
BRANCH  16  18
ATOM     18  C   LIG d   1       3.341   0.048 -10.489  0.00  0.00     0.409 C 
ATOM     19  F   LIG d   1       3.755   0.588 -11.712  0.00  0.00    -0.170 F 
ATOM     20  F   LIG d   1       3.580  -1.330 -10.483  0.00  0.00    -0.170 F 
ATOM     21  F   LIG d   1       1.974   0.285 -10.314  0.00  0.00    -0.170 F 
ENDBRANCH  16  18
BRANCH  16  22
ATOM     22  C   LIG d   1       3.765   2.195  -9.284  0.00  0.00     0.409 C 
ATOM     23  F   LIG d   1       4.893   2.927  -8.897  0.00  0.00    -0.170 F 
ATOM     24  F   LIG d   1       3.338   2.629 -10.543  0.00  0.00    -0.170 F 
ATOM     25  F   LIG d   1       2.742   2.388  -8.351  0.00  0.00    -0.170 F 
ENDBRANCH  16  22
ENDBRANCH   2  16
TORSDOF 4
ENDMDL
MODEL 7
REMARK VINA RESULT:      -6.2      3.309      4.477
REMARK  4 active torsions:
REMARK  status: ('A' for Active; 'I' for Inactive)
REMARK    1  A    between atoms: C_2  and  N_11 
REMARK       I    between atoms: N_11  and  C_12 
REMARK    2  A    between atoms: C_12  and  C_14 
REMARK    3  A    between atoms: C_14  and  C_15 
REMARK    4  A    between atoms: C_14  and  C_19 
ROOT
ATOM      1  N   LIG d   1       6.087   0.200  -5.047  0.00  0.00    -0.279 N 
ATOM      2  C   LIG d   1       5.811  -0.147  -3.774  0.00  0.00     0.238 C 
ATOM      3  O   LIG d   1       6.712  -0.417  -3.009  0.00  0.00    -0.275 OA
ATOM      4  H   LIG d   1       5.372   0.486  -5.637  0.00  0.00     0.155 HD
ENDROOT
BRANCH   1   5
ATOM      5  C   LIG d   1       7.410   0.146  -5.519  0.00  0.00     0.115 A 
ATOM      6  C   LIG d   1       7.905  -0.998  -6.047  0.00  0.00     0.033 A 
ATOM      7  N   LIG d   1       9.198  -1.029  -6.504  0.00  0.00    -0.312 N 
ATOM      8  H   LIG d   1       7.288  -1.883  -6.103  0.00  0.00     0.083 H 
ATOM      9  C   LIG d   1       9.977   0.065  -6.432  0.00  0.00     0.327 A 
ATOM     10  H   LIG d   1       9.555  -1.848  -6.881  0.00  0.00     0.170 HD
ATOM     11  N   LIG d   1       9.511   1.217  -5.914  0.00  0.00    -0.274 N 
ATOM     12  O   LIG d   1      11.121   0.014  -6.843  0.00  0.00    -0.247 OA
ATOM     13  C   LIG d   1       8.246   1.293  -5.452  0.00  0.00     0.275 A 
ATOM     14  H   LIG d   1      10.088   1.995  -5.871  0.00  0.00     0.173 HD
ATOM     15  O   LIG d   1       7.825   2.334  -4.983  0.00  0.00    -0.266 OA
ENDBRANCH   1   5
BRANCH   2  16
ATOM     16  C   LIG d   1       4.381  -0.200  -3.300  0.00  0.00     0.224 C 
ATOM     17  H   LIG d   1       3.711  -0.153  -4.159  0.00  0.00     0.057 H 
BRANCH  16  18
ATOM     18  C   LIG d   1       4.143  -1.504  -2.539  0.00  0.00     0.409 C 
ATOM     19  F   LIG d   1       2.772  -1.783  -2.506  0.00  0.00    -0.170 F 
ATOM     20  F   LIG d   1       4.816  -2.550  -3.180  0.00  0.00    -0.170 F 
ATOM     21  F   LIG d   1       4.623  -1.374  -1.231  0.00  0.00    -0.170 F 
ENDBRANCH  16  18
BRANCH  16  22
ATOM     22  C   LIG d   1       4.106   0.988  -2.374  0.00  0.00     0.409 C 
ATOM     23  F   LIG d   1       4.844   0.840  -1.195  0.00  0.00    -0.170 F 
ATOM     24  F   LIG d   1       4.482   2.174  -3.013  0.00  0.00    -0.170 F 
ATOM     25  F   LIG d   1       2.743   1.034  -2.067  0.00  0.00    -0.170 F 
ENDBRANCH  16  22
ENDBRANCH   2  16
TORSDOF 4
ENDMDL
MODEL 8
REMARK VINA RESULT:      -6.2      3.517      4.494
REMARK  4 active torsions:
REMARK  status: ('A' for Active; 'I' for Inactive)
REMARK    1  A    between atoms: C_2  and  N_11 
REMARK       I    between atoms: N_11  and  C_12 
REMARK    2  A    between atoms: C_12  and  C_14 
REMARK    3  A    between atoms: C_14  and  C_15 
REMARK    4  A    between atoms: C_14  and  C_19 
ROOT
ATOM      1  N   LIG d   1       7.366  -0.196  -3.487  0.00  0.00    -0.279 N 
ATOM      2  C   LIG d   1       6.038  -0.150  -3.716  0.00  0.00     0.238 C 
ATOM      3  O   LIG d   1       5.621   0.223  -4.792  0.00  0.00    -0.275 OA
ATOM      4  H   LIG d   1       7.702  -0.562  -2.653  0.00  0.00     0.155 HD
ENDROOT
BRANCH   1   5
ATOM      5  C   LIG d   1       8.264   0.288  -4.455  0.00  0.00     0.115 A 
ATOM      6  C   LIG d   1       8.669  -0.507  -5.474  0.00  0.00     0.033 A 
ATOM      7  N   LIG d   1       9.544  -0.016  -6.409  0.00  0.00    -0.312 N 
ATOM      8  H   LIG d   1       8.310  -1.523  -5.547  0.00  0.00     0.083 H 
ATOM      9  C   LIG d   1      10.003   1.246  -6.323  0.00  0.00     0.327 A 
ATOM     10  H   LIG d   1       9.837  -0.584  -7.138  0.00  0.00     0.170 HD
ATOM     11  N   LIG d   1       9.616   2.058  -5.322  0.00  0.00    -0.274 N 
ATOM     12  O   LIG d   1      10.779   1.659  -7.163  0.00  0.00    -0.247 OA
ATOM     13  C   LIG d   1       8.757   1.618  -4.381  0.00  0.00     0.275 A 
ATOM     14  H   LIG d   1       9.957   2.965  -5.278  0.00  0.00     0.173 HD
ATOM     15  O   LIG d   1       8.408   2.353  -3.476  0.00  0.00    -0.266 OA
ENDBRANCH   1   5
BRANCH   2  16
ATOM     16  C   LIG d   1       5.073  -0.561  -2.634  0.00  0.00     0.224 C 
ATOM     17  H   LIG d   1       5.627  -0.950  -1.780  0.00  0.00     0.057 H 
BRANCH  16  18
ATOM     18  C   LIG d   1       4.248   0.651  -2.198  0.00  0.00     0.409 C 
ATOM     19  F   LIG d   1       4.443   1.699  -3.106  0.00  0.00    -0.170 F 
ATOM     20  F   LIG d   1       2.893   0.309  -2.167  0.00  0.00    -0.170 F 
ATOM     21  F   LIG d   1       4.656   1.058  -0.923  0.00  0.00    -0.170 F 
ENDBRANCH  16  18
BRANCH  16  22
ATOM     22  C   LIG d   1       4.136  -1.646  -3.172  0.00  0.00     0.409 C 
ATOM     23  F   LIG d   1       3.178  -1.063  -4.007  0.00  0.00    -0.170 F 
ATOM     24  F   LIG d   1       4.878  -2.584  -3.897  0.00  0.00    -0.170 F 
ATOM     25  F   LIG d   1       3.497  -2.282  -2.103  0.00  0.00    -0.170 F 
ENDBRANCH  16  22
ENDBRANCH   2  16
TORSDOF 4
ENDMDL
MODEL 9
REMARK VINA RESULT:      -6.1      3.068      3.724
REMARK  4 active torsions:
REMARK  status: ('A' for Active; 'I' for Inactive)
REMARK    1  A    between atoms: C_2  and  N_11 
REMARK       I    between atoms: N_11  and  C_12 
REMARK    2  A    between atoms: C_12  and  C_14 
REMARK    3  A    between atoms: C_14  and  C_15 
REMARK    4  A    between atoms: C_14  and  C_19 
ROOT
ATOM      1  N   LIG d   1       4.999  -2.041  -5.475  0.00  0.00    -0.279 N 
ATOM      2  C   LIG d   1       4.362  -1.585  -4.379  0.00  0.00     0.238 C 
ATOM      3  O   LIG d   1       3.644  -2.326  -3.742  0.00  0.00    -0.275 OA
ATOM      4  H   LIG d   1       5.630  -1.470  -5.943  0.00  0.00     0.155 HD
ENDROOT
BRANCH   1   5
ATOM      5  C   LIG d   1       4.750  -3.344  -5.943  0.00  0.00     0.115 A 
ATOM      6  C   LIG d   1       5.101  -4.420  -5.200  0.00  0.00     0.033 A 
ATOM      7  N   LIG d   1       4.848  -5.682  -5.674  0.00  0.00    -0.312 N 
ATOM      8  H   LIG d   1       5.582  -4.285  -4.242  0.00  0.00     0.083 H 
ATOM      9  C   LIG d   1       4.256  -5.860  -6.868  0.00  0.00     0.327 A 
ATOM     10  H   LIG d   1       5.100  -6.453  -5.143  0.00  0.00     0.170 HD
ATOM     11  N   LIG d   1       3.895  -4.809  -7.627  0.00  0.00    -0.274 N 
ATOM     12  O   LIG d   1       4.042  -6.988  -7.268  0.00  0.00    -0.247 OA
ATOM     13  C   LIG d   1       4.125  -3.550  -7.202  0.00  0.00     0.275 A 
ATOM     14  H   LIG d   1       3.469  -4.958  -8.486  0.00  0.00     0.173 HD
ATOM     15  O   LIG d   1       3.798  -2.600  -7.890  0.00  0.00    -0.266 OA
ENDBRANCH   1   5
BRANCH   2  16
ATOM     16  C   LIG d   1       4.542  -0.153  -3.944  0.00  0.00     0.224 C 
ATOM     17  H   LIG d   1       5.051   0.404  -4.730  0.00  0.00     0.057 H 
BRANCH  16  18
ATOM     18  C   LIG d   1       3.173   0.475  -3.678  0.00  0.00     0.409 C 
ATOM     19  F   LIG d   1       2.549  -0.197  -2.620  0.00  0.00    -0.170 F 
ATOM     20  F   LIG d   1       3.334   1.823  -3.343  0.00  0.00    -0.170 F 
ATOM     21  F   LIG d   1       2.381   0.371  -4.826  0.00  0.00    -0.170 F 
ENDBRANCH  16  18
BRANCH  16  22
ATOM     22  C   LIG d   1       5.380  -0.110  -2.664  0.00  0.00     0.409 C 
ATOM     23  F   LIG d   1       5.917   1.171  -2.501  0.00  0.00    -0.170 F 
ATOM     24  F   LIG d   1       4.570  -0.419  -1.566  0.00  0.00    -0.170 F 
ATOM     25  F   LIG d   1       6.418  -1.042  -2.755  0.00  0.00    -0.170 F 
ENDBRANCH  16  22
ENDBRANCH   2  16
TORSDOF 4
ENDMDL
