MODEL 1
REMARK VINA RESULT:      -6.3      0.000      0.000
REMARK  5 active torsions:
REMARK  status: ('A' for Active; 'I' for Inactive)
REMARK    1  A    between atoms: C_1  and  C_2 
REMARK    2  A    between atoms: C_13  and  C_15 
REMARK    3  A    between atoms: C_15  and  C_18 
REMARK    4  A    between atoms: C_22  and  C_29 
REMARK    5  A    between atoms: C_25  and  O_28 
ROOT
ATOM      1  C   LIG d   1       4.395  -0.857  -5.483  0.00  0.00    -0.025 C 
ATOM      2  C   LIG d   1       5.127  -1.943  -6.229  0.00  0.00    -0.047 C 
ATOM      3  C   LIG d   1       4.900  -1.791  -7.745  0.00  0.00    -0.049 C 
ATOM      4  C   LIG d   1       4.774  -0.317  -8.101  0.00  0.00    -0.029 C 
ATOM      5  H   LIG d   1       5.588   0.200  -7.563  0.00  0.00     0.031 H 
ATOM      6  C   LIG d   1       3.462   0.252  -7.581  0.00  0.00    -0.031 C 
ATOM      7  H   LIG d   1       3.524   1.336  -7.469  0.00  0.00     0.031 H 
ATOM      8  C   LIG d   1       3.140  -0.396  -6.246  0.00  0.00    -0.032 C 
ATOM      9  H   LIG d   1       2.484  -1.268  -6.427  0.00  0.00     0.031 H 
ATOM     10  C   LIG d   1       2.458   0.513  -5.215  0.00  0.00    -0.049 C 
ATOM     11  C   LIG d   1       2.679  -0.241  -3.874  0.00  0.00    -0.048 C 
ATOM     12  C   LIG d   1       3.761  -1.314  -4.151  0.00  0.00    -0.020 C 
ATOM     13  H   LIG d   1       3.314  -2.294  -4.273  0.00  0.00     0.032 H 
ATOM     14  C   LIG d   1       2.312  -0.108  -8.530  0.00  0.00    -0.031 C 
ATOM     15  C   LIG d   1       2.658   0.161  -9.957  0.00  0.00    -0.084 C 
ATOM     16  C   LIG d   1       3.874   0.192 -10.412  0.00  0.00    -0.065 C 
ATOM     17  C   LIG d   1       5.078  -0.004  -9.546  0.00  0.00    -0.008 C 
ATOM     18  C   LIG d   1       5.996  -1.059 -10.164  0.00  0.00    -0.041 C 
ATOM     19  C   LIG d   1       6.287  -0.736 -11.629  0.00  0.00    -0.026 C 
ATOM     20  C   LIG d   1       4.987  -0.694 -12.433  0.00  0.00     0.059 C 
ATOM     21  H   LIG d   1       4.475  -1.652 -12.343  0.00  0.00     0.060 H 
ATOM     22  C   LIG d   1       4.084   0.421 -11.900  0.00  0.00    -0.005 C 
ATOM     23  H   LIG d   1       4.764  -2.928  -5.912  0.00  0.00     0.027 H 
ATOM     24  H   LIG d   1       6.200  -1.883  -6.014  0.00  0.00     0.027 H 
ATOM     25  H   LIG d   1       3.993  -2.322  -8.035  0.00  0.00     0.027 H 
ATOM     26  H   LIG d   1       5.755  -2.233  -8.264  0.00  0.00     0.027 H 
ATOM     27  H   LIG d   1       1.391   0.597  -5.432  0.00  0.00     0.027 H 
ATOM     28  H   LIG d   1       2.913   1.500  -5.192  0.00  0.00     0.027 H 
ATOM     29  H   LIG d   1       1.751  -0.719  -3.561  0.00  0.00     0.027 H 
ATOM     30  H   LIG d   1       3.022   0.450  -3.106  0.00  0.00     0.027 H 
ATOM     31  H   LIG d   1       2.073  -1.169  -8.411  0.00  0.00     0.031 H 
ATOM     32  H   LIG d   1       1.427   0.474  -8.255  0.00  0.00     0.031 H 
ATOM     33  H   LIG d   1       1.850   0.339 -10.657  0.00  0.00     0.057 H 
ATOM     34  H   LIG d   1       6.937  -1.087  -9.609  0.00  0.00     0.027 H 
ATOM     35  H   LIG d   1       5.519  -2.040 -10.107  0.00  0.00     0.027 H 
ATOM     36  H   LIG d   1       6.809   0.212 -11.719  0.00  0.00     0.029 H 
ATOM     37  H   LIG d   1       6.932  -1.519 -12.042  0.00  0.00     0.029 H 
ATOM     38  H   LIG d   1       3.119   0.382 -12.411  0.00  0.00     0.034 H 
ATOM     39  H   LIG d   1       4.547   1.391 -12.071  0.00  0.00     0.034 H 
ENDROOT
BRANCH  12  40
ATOM     40  C   LIG d   1       4.815  -1.313  -3.047  0.00  0.00     0.026 A 
ATOM     41  S   LIG d   1       4.873   0.148  -1.977  0.00  0.00    -0.152 SA
ATOM     42  C   LIG d   1       4.319  -1.542  -1.618  0.00  0.00     0.009 A 
ATOM     43  H   LIG d   1       3.248  -1.691  -1.486  0.00  0.00     0.039 H 
ATOM     44  H   LIG d   1       4.955  -2.141  -0.967  0.00  0.00     0.039 H 
BRANCH  40  45
ATOM     45  C   LIG d   1       6.154  -1.948  -3.426  0.00  0.00    -0.049 C 
ATOM     46  H   LIG d   1       6.775  -1.212  -3.938  0.00  0.00     0.024 H 
ATOM     47  H   LIG d   1       6.663  -2.289  -2.525  0.00  0.00     0.024 H 
ATOM     48  H   LIG d   1       5.979  -2.797  -4.087  0.00  0.00     0.024 H 
ENDBRANCH  40  45
ENDBRANCH  12  40
BRANCH   1  49
ATOM     49  C   LIG d   1       5.330   0.308  -5.147  0.00  0.00    -0.059 C 
ATOM     50  H   LIG d   1       6.364  -0.032  -5.190  0.00  0.00     0.024 H 
ATOM     51  H   LIG d   1       5.181   1.113  -5.868  0.00  0.00     0.024 H 
ATOM     52  H   LIG d   1       5.109   0.674  -4.145  0.00  0.00     0.024 H 
ENDBRANCH   1  49
BRANCH  17  53
ATOM     53  C   LIG d   1       5.850   1.327  -9.538  0.00  0.00    -0.056 C 
ATOM     54  H   LIG d   1       5.885   1.721  -8.521  0.00  0.00     0.024 H 
ATOM     55  H   LIG d   1       6.866   1.160  -9.896  0.00  0.00     0.024 H 
ATOM     56  H   LIG d   1       5.348   2.043 -10.187  0.00  0.00     0.024 H 
ENDBRANCH  17  53
BRANCH  20  57
ATOM     57  O   LIG d   1       5.288  -0.447 -13.807  0.00  0.00    -0.392 OA
ATOM     58  H   LIG d   1       5.150   0.469 -14.082  0.00  0.00     0.210 HD
ENDBRANCH  20  57
TORSDOF 5
ENDMDL
MODEL 2
REMARK VINA RESULT:      -6.0      1.682      3.027
REMARK  5 active torsions:
REMARK  status: ('A' for Active; 'I' for Inactive)
REMARK    1  A    between atoms: C_1  and  C_2 
REMARK    2  A    between atoms: C_13  and  C_15 
REMARK    3  A    between atoms: C_15  and  C_18 
REMARK    4  A    between atoms: C_22  and  C_29 
REMARK    5  A    between atoms: C_25  and  O_28 
ROOT
ATOM      1  C   LIG d   1       4.562  -0.651  -5.469  0.00  0.00    -0.025 C 
ATOM      2  C   LIG d   1       3.293   0.015  -5.933  0.00  0.00    -0.047 C 
ATOM      3  C   LIG d   1       3.169  -0.088  -7.465  0.00  0.00    -0.049 C 
ATOM      4  C   LIG d   1       3.782  -1.396  -7.944  0.00  0.00    -0.029 C 
ATOM      5  H   LIG d   1       3.409  -2.178  -7.260  0.00  0.00     0.031 H 
ATOM      6  C   LIG d   1       5.297  -1.363  -7.805  0.00  0.00    -0.031 C 
ATOM      7  H   LIG d   1       5.706  -2.374  -7.757  0.00  0.00     0.031 H 
ATOM      8  C   LIG d   1       5.658  -0.590  -6.549  0.00  0.00    -0.032 C 
ATOM      9  H   LIG d   1       5.839   0.466  -6.824  0.00  0.00     0.031 H 
ATOM     10  C   LIG d   1       6.885  -1.105  -5.784  0.00  0.00    -0.049 C 
ATOM     11  C   LIG d   1       6.728  -0.456  -4.381  0.00  0.00    -0.048 C 
ATOM     12  C   LIG d   1       5.275   0.074  -4.306  0.00  0.00    -0.020 C 
ATOM     13  H   LIG d   1       5.243   1.145  -4.465  0.00  0.00     0.032 H 
ATOM     14  C   LIG d   1       5.923  -0.603  -8.981  0.00  0.00    -0.031 C 
ATOM     15  C   LIG d   1       5.365  -1.042 -10.294  0.00  0.00    -0.084 C 
ATOM     16  C   LIG d   1       4.192  -1.582 -10.436  0.00  0.00    -0.065 C 
ATOM     17  C   LIG d   1       3.274  -1.859  -9.288  0.00  0.00    -0.008 C 
ATOM     18  C   LIG d   1       1.886  -1.292  -9.585  0.00  0.00    -0.041 C 
ATOM     19  C   LIG d   1       1.388  -1.760 -10.952  0.00  0.00    -0.026 C 
ATOM     20  C   LIG d   1       2.344  -1.300 -12.052  0.00  0.00     0.059 C 
ATOM     21  H   LIG d   1       2.432  -0.215 -12.024  0.00  0.00     0.060 H 
ATOM     22  C   LIG d   1       3.722  -1.932 -11.838  0.00  0.00    -0.005 C 
ATOM     23  H   LIG d   1       3.297   1.074  -5.648  0.00  0.00     0.027 H 
ATOM     24  H   LIG d   1       2.427  -0.467  -5.465  0.00  0.00     0.027 H 
ATOM     25  H   LIG d   1       3.680   0.755  -7.933  0.00  0.00     0.027 H 
ATOM     26  H   LIG d   1       2.108  -0.051  -7.726  0.00  0.00     0.027 H 
ATOM     27  H   LIG d   1       7.803  -0.756  -6.263  0.00  0.00     0.027 H 
ATOM     28  H   LIG d   1       6.887  -2.190  -5.719  0.00  0.00     0.027 H 
ATOM     29  H   LIG d   1       7.432   0.369  -4.273  0.00  0.00     0.027 H 
ATOM     30  H   LIG d   1       6.899  -1.198  -3.602  0.00  0.00     0.027 H 
ATOM     31  H   LIG d   1       5.738   0.467  -8.850  0.00  0.00     0.031 H 
ATOM     32  H   LIG d   1       7.005  -0.765  -8.973  0.00  0.00     0.031 H 
ATOM     33  H   LIG d   1       5.969  -0.903 -11.182  0.00  0.00     0.057 H 
ATOM     34  H   LIG d   1       1.187  -1.628  -8.814  0.00  0.00     0.027 H 
ATOM     35  H   LIG d   1       1.926  -0.200  -9.579  0.00  0.00     0.027 H 
ATOM     36  H   LIG d   1       1.286  -2.841 -10.976  0.00  0.00     0.029 H 
ATOM     37  H   LIG d   1       0.400  -1.322 -11.136  0.00  0.00     0.029 H 
ATOM     38  H   LIG d   1       4.425  -1.523 -12.568  0.00  0.00     0.034 H 
ATOM     39  H   LIG d   1       3.661  -3.011 -11.958  0.00  0.00     0.034 H 
ENDROOT
BRANCH  12  40
ATOM     40  C   LIG d   1       4.628  -0.315  -2.980  0.00  0.00     0.026 A 
ATOM     41  S   LIG d   1       4.484   0.989  -1.730  0.00  0.00    -0.152 SA
ATOM     42  C   LIG d   1       3.203   0.186  -2.733  0.00  0.00     0.009 A 
ATOM     43  H   LIG d   1       2.748   0.785  -3.521  0.00  0.00     0.039 H 
ATOM     44  H   LIG d   1       2.526  -0.493  -2.215  0.00  0.00     0.039 H 
BRANCH  40  45
ATOM     45  C   LIG d   1       4.964  -1.720  -2.479  0.00  0.00    -0.049 C 
ATOM     46  H   LIG d   1       5.730  -2.161  -3.117  0.00  0.00     0.024 H 
ATOM     47  H   LIG d   1       5.333  -1.663  -1.455  0.00  0.00     0.024 H 
ATOM     48  H   LIG d   1       4.068  -2.341  -2.508  0.00  0.00     0.024 H 
ENDBRANCH  40  45
ENDBRANCH  12  40
BRANCH   1  49
ATOM     49  C   LIG d   1       4.293  -2.082  -4.996  0.00  0.00    -0.059 C 
ATOM     50  H   LIG d   1       3.372  -2.448  -5.450  0.00  0.00     0.024 H 
ATOM     51  H   LIG d   1       5.124  -2.724  -5.290  0.00  0.00     0.024 H 
ATOM     52  H   LIG d   1       4.193  -2.093  -3.910  0.00  0.00     0.024 H 
ENDBRANCH   1  49
BRANCH  17  53
ATOM     53  C   LIG d   1       3.131  -3.388  -9.183  0.00  0.00    -0.056 C 
ATOM     54  H   LIG d   1       2.118  -3.638  -8.865  0.00  0.00     0.024 H 
ATOM     55  H   LIG d   1       3.328  -3.839 -10.155  0.00  0.00     0.024 H 
ATOM     56  H   LIG d   1       3.845  -3.770  -8.454  0.00  0.00     0.024 H 
ENDBRANCH  17  53
BRANCH  20  57
ATOM     57  O   LIG d   1       1.830  -1.700 -13.324  0.00  0.00    -0.392 OA
ATOM     58  H   LIG d   1       2.453  -1.586 -14.053  0.00  0.00     0.210 HD
ENDBRANCH  20  57
TORSDOF 5
ENDMDL
MODEL 3
REMARK VINA RESULT:      -5.9      3.696      6.826
REMARK  5 active torsions:
REMARK  status: ('A' for Active; 'I' for Inactive)
REMARK    1  A    between atoms: C_1  and  C_2 
REMARK    2  A    between atoms: C_13  and  C_15 
REMARK    3  A    between atoms: C_15  and  C_18 
REMARK    4  A    between atoms: C_22  and  C_29 
REMARK    5  A    between atoms: C_25  and  O_28 
ROOT
ATOM      1  C   LIG d   1       4.546  -1.076  -9.149  0.00  0.00    -0.025 C 
ATOM      2  C   LIG d   1       5.780  -0.420  -8.587  0.00  0.00    -0.047 C 
ATOM      3  C   LIG d   1       5.491   0.139  -7.181  0.00  0.00    -0.049 C 
ATOM      4  C   LIG d   1       4.486  -0.755  -6.469  0.00  0.00    -0.029 C 
ATOM      5  H   LIG d   1       4.821  -1.793  -6.643  0.00  0.00     0.031 H 
ATOM      6  C   LIG d   1       3.105  -0.618  -7.096  0.00  0.00    -0.031 C 
ATOM      7  H   LIG d   1       2.494  -1.498  -6.886  0.00  0.00     0.031 H 
ATOM      8  C   LIG d   1       3.262  -0.432  -8.594  0.00  0.00    -0.032 C 
ATOM      9  H   LIG d   1       3.274   0.651  -8.816  0.00  0.00     0.031 H 
ATOM     10  C   LIG d   1       2.178  -1.089  -9.460  0.00  0.00    -0.049 C 
ATOM     11  C   LIG d   1       2.829  -1.134 -10.871  0.00  0.00    -0.048 C 
ATOM     12  C   LIG d   1       4.338  -0.853 -10.663  0.00  0.00    -0.020 C 
ATOM     13  H   LIG d   1       4.583   0.170 -10.922  0.00  0.00     0.032 H 
ATOM     14  C   LIG d   1       2.405   0.641  -6.570  0.00  0.00    -0.031 C 
ATOM     15  C   LIG d   1       2.498   0.755  -5.084  0.00  0.00    -0.084 C 
ATOM     16  C   LIG d   1       3.436   0.204  -4.374  0.00  0.00    -0.065 C 
ATOM     17  C   LIG d   1       4.519  -0.643  -4.964  0.00  0.00    -0.008 C 
ATOM     18  C   LIG d   1       5.883  -0.161  -4.471  0.00  0.00    -0.041 C 
ATOM     19  C   LIG d   1       5.898  -0.042  -2.947  0.00  0.00    -0.026 C 
ATOM     20  C   LIG d   1       4.836   0.952  -2.480  0.00  0.00     0.059 C 
ATOM     21  H   LIG d   1       5.017   1.920  -2.945  0.00  0.00     0.060 H 
ATOM     22  C   LIG d   1       3.445   0.447  -2.874  0.00  0.00    -0.005 C 
ATOM     23  H   LIG d   1       6.098   0.404  -9.237  0.00  0.00     0.027 H 
ATOM     24  H   LIG d   1       6.596  -1.150  -8.527  0.00  0.00     0.027 H 
ATOM     25  H   LIG d   1       5.094   1.152  -7.262  0.00  0.00     0.027 H 
ATOM     26  H   LIG d   1       6.431   0.167  -6.624  0.00  0.00     0.027 H 
ATOM     27  H   LIG d   1       1.280  -0.467  -9.477  0.00  0.00     0.027 H 
ATOM     28  H   LIG d   1       1.935  -2.087  -9.106  0.00  0.00     0.027 H 
ATOM     29  H   LIG d   1       2.391  -0.365 -11.506  0.00  0.00     0.027 H 
ATOM     30  H   LIG d   1       2.687  -2.116 -11.319  0.00  0.00     0.027 H 
ATOM     31  H   LIG d   1       2.865   1.520  -7.028  0.00  0.00     0.031 H 
ATOM     32  H   LIG d   1       1.352   0.612  -6.867  0.00  0.00     0.031 H 
ATOM     33  H   LIG d   1       1.742   1.332  -4.564  0.00  0.00     0.057 H 
ATOM     34  H   LIG d   1       6.651  -0.873  -4.783  0.00  0.00     0.027 H 
ATOM     35  H   LIG d   1       6.105   0.817  -4.903  0.00  0.00     0.027 H 
ATOM     36  H   LIG d   1       5.732  -1.010  -2.483  0.00  0.00     0.029 H 
ATOM     37  H   LIG d   1       6.884   0.320  -2.632  0.00  0.00     0.029 H 
ATOM     38  H   LIG d   1       2.700   1.207  -2.627  0.00  0.00     0.034 H 
ATOM     39  H   LIG d   1       3.217  -0.473  -2.341  0.00  0.00     0.034 H 
ENDROOT
BRANCH  12  40
ATOM     40  C   LIG d   1       5.184  -1.847 -11.454  0.00  0.00     0.026 A 
ATOM     41  S   LIG d   1       6.220  -1.167 -12.775  0.00  0.00    -0.152 SA
ATOM     42  C   LIG d   1       6.686  -1.860 -11.165  0.00  0.00     0.009 A 
ATOM     43  H   LIG d   1       7.050  -1.159 -10.414  0.00  0.00     0.039 H 
ATOM     44  H   LIG d   1       7.181  -2.832 -11.172  0.00  0.00     0.039 H 
BRANCH  40  45
ATOM     45  C   LIG d   1       4.519  -3.199 -11.721  0.00  0.00    -0.049 C 
ATOM     46  H   LIG d   1       5.081  -3.987 -11.220  0.00  0.00     0.024 H 
ATOM     47  H   LIG d   1       3.498  -3.183 -11.342  0.00  0.00     0.024 H 
ATOM     48  H   LIG d   1       4.505  -3.391 -12.795  0.00  0.00     0.024 H 
ENDBRANCH  40  45
ENDBRANCH  12  40
BRANCH   1  49
ATOM     49  C   LIG d   1       4.577  -2.591  -8.928  0.00  0.00    -0.059 C 
ATOM     50  H   LIG d   1       4.259  -3.097  -9.839  0.00  0.00     0.024 H 
ATOM     51  H   LIG d   1       5.592  -2.900  -8.675  0.00  0.00     0.024 H 
ATOM     52  H   LIG d   1       3.904  -2.853  -8.112  0.00  0.00     0.024 H 
ENDBRANCH   1  49
BRANCH  17  53
ATOM     53  C   LIG d   1       4.316  -2.072  -4.429  0.00  0.00    -0.056 C 
ATOM     54  H   LIG d   1       3.249  -2.274  -4.327  0.00  0.00     0.024 H 
ATOM     55  H   LIG d   1       4.756  -2.786  -5.125  0.00  0.00     0.024 H 
ATOM     56  H   LIG d   1       4.798  -2.168  -3.456  0.00  0.00     0.024 H 
ENDBRANCH  17  53
BRANCH  20  57
ATOM     57  O   LIG d   1       4.907   1.089  -1.060  0.00  0.00    -0.392 OA
ATOM     58  H   LIG d   1       4.095   1.423  -0.655  0.00  0.00     0.210 HD
ENDBRANCH  20  57
TORSDOF 5
ENDMDL
MODEL 4
REMARK VINA RESULT:      -5.8      3.057      4.255
REMARK  5 active torsions:
REMARK  status: ('A' for Active; 'I' for Inactive)
REMARK    1  A    between atoms: C_1  and  C_2 
REMARK    2  A    between atoms: C_13  and  C_15 
REMARK    3  A    between atoms: C_15  and  C_18 
REMARK    4  A    between atoms: C_22  and  C_29 
REMARK    5  A    between atoms: C_25  and  O_28 
ROOT
ATOM      1  C   LIG d   1       5.321  -1.419  -4.354  0.00  0.00    -0.025 C 
ATOM      2  C   LIG d   1       6.528  -1.245  -5.240  0.00  0.00    -0.047 C 
ATOM      3  C   LIG d   1       6.641  -2.427  -6.220  0.00  0.00    -0.049 C 
ATOM      4  C   LIG d   1       5.251  -2.917  -6.599  0.00  0.00    -0.029 C 
ATOM      5  H   LIG d   1       4.656  -2.013  -6.818  0.00  0.00     0.031 H 
ATOM      6  C   LIG d   1       4.587  -3.615  -5.421  0.00  0.00    -0.031 C 
ATOM      7  H   LIG d   1       3.501  -3.614  -5.528  0.00  0.00     0.031 H 
ATOM      8  C   LIG d   1       4.989  -2.907  -4.140  0.00  0.00    -0.032 C 
ATOM      9  H   LIG d   1       5.873  -3.419  -3.716  0.00  0.00     0.031 H 
ATOM     10  C   LIG d   1       3.906  -2.837  -3.054  0.00  0.00    -0.049 C 
ATOM     11  C   LIG d   1       4.417  -1.708  -2.115  0.00  0.00    -0.048 C 
ATOM     12  C   LIG d   1       5.532  -0.967  -2.893  0.00  0.00    -0.020 C 
ATOM     13  H   LIG d   1       6.514  -1.272  -2.550  0.00  0.00     0.032 H 
ATOM     14  C   LIG d   1       5.096  -5.057  -5.301  0.00  0.00    -0.031 C 
ATOM     15  C   LIG d   1       5.084  -5.767  -6.614  0.00  0.00    -0.084 C 
ATOM     16  C   LIG d   1       5.145  -5.163  -7.763  0.00  0.00    -0.065 C 
ATOM     17  C   LIG d   1       5.199  -3.675  -7.903  0.00  0.00    -0.008 C 
ATOM     18  C   LIG d   1       6.354  -3.281  -8.824  0.00  0.00    -0.041 C 
ATOM     19  C   LIG d   1       6.294  -4.062 -10.136  0.00  0.00    -0.026 C 
ATOM     20  C   LIG d   1       6.381  -5.564  -9.865  0.00  0.00     0.059 C 
ATOM     21  H   LIG d   1       7.303  -5.782  -9.327  0.00  0.00     0.060 H 
ATOM     22  C   LIG d   1       5.181  -6.009  -9.024  0.00  0.00    -0.005 C 
ATOM     23  H   LIG d   1       7.439  -1.200  -4.631  0.00  0.00     0.027 H 
ATOM     24  H   LIG d   1       6.442  -0.310  -5.806  0.00  0.00     0.027 H 
ATOM     25  H   LIG d   1       7.206  -3.237  -5.756  0.00  0.00     0.027 H 
ATOM     26  H   LIG d   1       7.175  -2.083  -7.110  0.00  0.00     0.027 H 
ATOM     27  H   LIG d   1       3.852  -3.784  -2.513  0.00  0.00     0.027 H 
ATOM     28  H   LIG d   1       2.935  -2.590  -3.475  0.00  0.00     0.027 H 
ATOM     29  H   LIG d   1       4.824  -2.142  -1.202  0.00  0.00     0.027 H 
ATOM     30  H   LIG d   1       3.606  -1.023  -1.875  0.00  0.00     0.027 H 
ATOM     31  H   LIG d   1       6.117  -5.041  -4.910  0.00  0.00     0.031 H 
ATOM     32  H   LIG d   1       4.466  -5.599  -4.590  0.00  0.00     0.031 H 
ATOM     33  H   LIG d   1       5.023  -6.849  -6.614  0.00  0.00     0.057 H 
ATOM     34  H   LIG d   1       6.293  -2.211  -9.041  0.00  0.00     0.027 H 
ATOM     35  H   LIG d   1       7.305  -3.492  -8.330  0.00  0.00     0.027 H 
ATOM     36  H   LIG d   1       5.382  -3.835 -10.679  0.00  0.00     0.029 H 
ATOM     37  H   LIG d   1       7.144  -3.767 -10.761  0.00  0.00     0.029 H 
ATOM     38  H   LIG d   1       5.300  -7.061  -8.751  0.00  0.00     0.034 H 
ATOM     39  H   LIG d   1       4.261  -5.883  -9.591  0.00  0.00     0.034 H 
ENDROOT
BRANCH  12  40
ATOM     40  C   LIG d   1       5.348   0.545  -2.786  0.00  0.00     0.026 A 
ATOM     41  S   LIG d   1       3.662   1.177  -2.979  0.00  0.00    -0.152 SA
ATOM     42  C   LIG d   1       4.709   1.074  -1.501  0.00  0.00     0.009 A 
ATOM     43  H   LIG d   1       4.428   0.337  -0.750  0.00  0.00     0.039 H 
ATOM     44  H   LIG d   1       5.098   2.013  -1.108  0.00  0.00     0.039 H 
BRANCH  40  45
ATOM     45  C   LIG d   1       6.475   1.382  -3.394  0.00  0.00    -0.049 C 
ATOM     46  H   LIG d   1       6.420   1.332  -4.482  0.00  0.00     0.024 H 
ATOM     47  H   LIG d   1       6.373   2.418  -3.072  0.00  0.00     0.024 H 
ATOM     48  H   LIG d   1       7.437   0.991  -3.061  0.00  0.00     0.024 H 
ENDBRANCH  40  45
ENDBRANCH  12  40
BRANCH   1  49
ATOM     49  C   LIG d   1       4.124  -0.629  -4.890  0.00  0.00    -0.059 C 
ATOM     50  H   LIG d   1       4.420  -0.085  -5.787  0.00  0.00     0.024 H 
ATOM     51  H   LIG d   1       3.314  -1.317  -5.133  0.00  0.00     0.024 H 
ATOM     52  H   LIG d   1       3.786   0.077  -4.132  0.00  0.00     0.024 H 
ENDBRANCH   1  49
BRANCH  17  53
ATOM     53  C   LIG d   1       3.894  -3.239  -8.594  0.00  0.00    -0.056 C 
ATOM     54  H   LIG d   1       4.052  -2.288  -9.105  0.00  0.00     0.024 H 
ATOM     55  H   LIG d   1       3.596  -3.996  -9.320  0.00  0.00     0.024 H 
ATOM     56  H   LIG d   1       3.108  -3.123  -7.848  0.00  0.00     0.024 H 
ENDBRANCH  17  53
BRANCH  20  57
ATOM     57  O   LIG d   1       6.381  -6.270 -11.107  0.00  0.00    -0.392 OA
ATOM     58  H   LIG d   1       6.801  -7.140 -11.065  0.00  0.00     0.210 HD
ENDBRANCH  20  57
TORSDOF 5
ENDMDL
MODEL 5
REMARK VINA RESULT:      -5.6      8.744     10.166
REMARK  5 active torsions:
REMARK  status: ('A' for Active; 'I' for Inactive)
REMARK    1  A    between atoms: C_1  and  C_2 
REMARK    2  A    between atoms: C_13  and  C_15 
REMARK    3  A    between atoms: C_15  and  C_18 
REMARK    4  A    between atoms: C_22  and  C_29 
REMARK    5  A    between atoms: C_25  and  O_28 
ROOT
ATOM      1  C   LIG d   1      10.494   7.445  -2.903  0.00  0.00    -0.025 C 
ATOM      2  C   LIG d   1       9.704   6.195  -3.193  0.00  0.00    -0.047 C 
ATOM      3  C   LIG d   1       9.274   6.170  -4.672  0.00  0.00    -0.049 C 
ATOM      4  C   LIG d   1      10.341   6.836  -5.529  0.00  0.00    -0.029 C 
ATOM      5  H   LIG d   1      11.309   6.436  -5.180  0.00  0.00     0.031 H 
ATOM      6  C   LIG d   1      10.364   8.339  -5.288  0.00  0.00    -0.031 C 
ATOM      7  H   LIG d   1      11.332   8.763  -5.563  0.00  0.00     0.031 H 
ATOM      8  C   LIG d   1      10.071   8.605  -3.822  0.00  0.00    -0.032 C 
ATOM      9  H   LIG d   1       8.986   8.784  -3.706  0.00  0.00     0.031 H 
ATOM     10  C   LIG d   1      10.822   9.792  -3.202  0.00  0.00    -0.049 C 
ATOM     11  C   LIG d   1      10.694   9.534  -1.674  0.00  0.00    -0.048 C 
ATOM     12  C   LIG d   1      10.215   8.069  -1.518  0.00  0.00    -0.020 C 
ATOM     13  H   LIG d   1       9.154   8.027  -1.302  0.00  0.00     0.032 H 
ATOM     14  C   LIG d   1       9.249   9.023  -6.088  0.00  0.00    -0.031 C 
ATOM     15  C   LIG d   1       9.209   8.557  -7.506  0.00  0.00    -0.084 C 
ATOM     16  C   LIG d   1       9.662   7.405  -7.901  0.00  0.00    -0.065 C 
ATOM     17  C   LIG d   1      10.313   6.422  -6.980  0.00  0.00    -0.008 C 
ATOM     18  C   LIG d   1       9.672   5.045  -7.155  0.00  0.00    -0.041 C 
ATOM     19  C   LIG d   1       9.641   4.643  -8.629  0.00  0.00    -0.026 C 
ATOM     20  C   LIG d   1       8.835   5.658  -9.440  0.00  0.00     0.059 C 
ATOM     21  H   LIG d   1       7.826   5.724  -9.036  0.00  0.00     0.060 H 
ATOM     22  C   LIG d   1       9.508   7.031  -9.365  0.00  0.00    -0.005 C 
ATOM     23  H   LIG d   1       8.807   6.162  -2.562  0.00  0.00     0.027 H 
ATOM     24  H   LIG d   1      10.314   5.311  -2.976  0.00  0.00     0.027 H 
ATOM     25  H   LIG d   1       8.325   6.694  -4.788  0.00  0.00     0.027 H 
ATOM     26  H   LIG d   1       9.146   5.127  -4.973  0.00  0.00     0.027 H 
ATOM     27  H   LIG d   1      10.334  10.731  -3.471  0.00  0.00     0.027 H 
ATOM     28  H   LIG d   1      11.864   9.810  -3.512  0.00  0.00     0.027 H 
ATOM     29  H   LIG d   1       9.958  10.215  -1.245  0.00  0.00     0.027 H 
ATOM     30  H   LIG d   1      11.658   9.669  -1.188  0.00  0.00     0.027 H 
ATOM     31  H   LIG d   1       8.288   8.810  -5.611  0.00  0.00     0.031 H 
ATOM     32  H   LIG d   1       9.408  10.106  -6.066  0.00  0.00     0.031 H 
ATOM     33  H   LIG d   1       8.776   9.214  -8.251  0.00  0.00     0.057 H 
ATOM     34  H   LIG d   1      10.250   4.305  -6.594  0.00  0.00     0.027 H 
ATOM     35  H   LIG d   1       8.650   5.064  -6.773  0.00  0.00     0.027 H 
ATOM     36  H   LIG d   1      10.648   4.563  -9.029  0.00  0.00     0.029 H 
ATOM     37  H   LIG d   1       9.163   3.661  -8.717  0.00  0.00     0.029 H 
ATOM     38  H   LIG d   1       8.876   7.772  -9.863  0.00  0.00     0.034 H 
ATOM     39  H   LIG d   1      10.481   6.998  -9.852  0.00  0.00     0.034 H 
ENDROOT
BRANCH  12  40
ATOM     40  C   LIG d   1      11.033   7.348  -0.450  0.00  0.00     0.026 A 
ATOM     41  S   LIG d   1      12.743   7.899  -0.221  0.00  0.00    -0.152 SA
ATOM     42  C   LIG d   1      11.294   8.108   0.851  0.00  0.00     0.009 A 
ATOM     43  H   LIG d   1      10.879   9.113   0.927  0.00  0.00     0.039 H 
ATOM     44  H   LIG d   1      11.276   7.527   1.773  0.00  0.00     0.039 H 
BRANCH  40  45
ATOM     45  C   LIG d   1      10.767   5.846  -0.333  0.00  0.00    -0.049 C 
ATOM     46  H   LIG d   1      10.206   5.645   0.581  0.00  0.00     0.024 H 
ATOM     47  H   LIG d   1      10.190   5.510  -1.194  0.00  0.00     0.024 H 
ATOM     48  H   LIG d   1      11.716   5.310  -0.300  0.00  0.00     0.024 H 
ENDBRANCH  40  45
ENDBRANCH  12  40
BRANCH   1  49
ATOM     49  C   LIG d   1      12.000   7.173  -2.968  0.00  0.00    -0.059 C 
ATOM     50  H   LIG d   1      12.325   6.712  -2.036  0.00  0.00     0.024 H 
ATOM     51  H   LIG d   1      12.212   6.502  -3.800  0.00  0.00     0.024 H 
ATOM     52  H   LIG d   1      12.533   8.113  -3.114  0.00  0.00     0.024 H 
ENDBRANCH   1  49
BRANCH  17  53
ATOM     53  C   LIG d   1      11.784   6.302  -7.415  0.00  0.00    -0.056 C 
ATOM     54  H   LIG d   1      12.433   6.536  -6.570  0.00  0.00     0.024 H 
ATOM     55  H   LIG d   1      11.982   5.284  -7.752  0.00  0.00     0.024 H 
ATOM     56  H   LIG d   1      11.982   6.999  -8.229  0.00  0.00     0.024 H 
ENDBRANCH  17  53
BRANCH  20  57
ATOM     57  O   LIG d   1       8.772   5.232 -10.802  0.00  0.00    -0.392 OA
ATOM     58  H   LIG d   1       9.206   4.385 -10.971  0.00  0.00     0.210 HD
ENDBRANCH  20  57
TORSDOF 5
ENDMDL
MODEL 6
REMARK VINA RESULT:      -5.6      4.343      6.076
REMARK  5 active torsions:
REMARK  status: ('A' for Active; 'I' for Inactive)
REMARK    1  A    between atoms: C_1  and  C_2 
REMARK    2  A    between atoms: C_13  and  C_15 
REMARK    3  A    between atoms: C_15  and  C_18 
REMARK    4  A    between atoms: C_22  and  C_29 
REMARK    5  A    between atoms: C_25  and  O_28 
ROOT
ATOM      1  C   LIG d   1       6.760   0.017  -4.015  0.00  0.00    -0.025 C 
ATOM      2  C   LIG d   1       7.146   1.354  -3.437  0.00  0.00    -0.047 C 
ATOM      3  C   LIG d   1       8.395   1.901  -4.154  0.00  0.00    -0.049 C 
ATOM      4  C   LIG d   1       8.382   1.468  -5.612  0.00  0.00    -0.029 C 
ATOM      5  H   LIG d   1       7.356   1.648  -5.978  0.00  0.00     0.031 H 
ATOM      6  C   LIG d   1       8.645  -0.027  -5.732  0.00  0.00    -0.031 C 
ATOM      7  H   LIG d   1       8.258  -0.416  -6.675  0.00  0.00     0.031 H 
ATOM      8  C   LIG d   1       7.987  -0.736  -4.562  0.00  0.00    -0.032 C 
ATOM      9  H   LIG d   1       8.733  -0.851  -3.754  0.00  0.00     0.031 H 
ATOM     10  C   LIG d   1       7.397  -2.119  -4.872  0.00  0.00    -0.049 C 
ATOM     11  C   LIG d   1       6.431  -2.370  -3.681  0.00  0.00    -0.048 C 
ATOM     12  C   LIG d   1       6.247  -1.003  -2.975  0.00  0.00    -0.020 C 
ATOM     13  H   LIG d   1       6.848  -0.946  -2.075  0.00  0.00     0.032 H 
ATOM     14  C   LIG d   1      10.148  -0.313  -5.627  0.00  0.00    -0.031 C 
ATOM     15  C   LIG d   1      10.954   0.596  -6.495  0.00  0.00    -0.084 C 
ATOM     16  C   LIG d   1      10.554   1.771  -6.878  0.00  0.00    -0.065 C 
ATOM     17  C   LIG d   1       9.216   2.338  -6.521  0.00  0.00    -0.008 C 
ATOM     18  C   LIG d   1       9.385   3.744  -5.946  0.00  0.00    -0.041 C 
ATOM     19  C   LIG d   1      10.239   4.610  -6.871  0.00  0.00    -0.026 C 
ATOM     20  C   LIG d   1      11.625   3.991  -7.049  0.00  0.00     0.059 C 
ATOM     21  H   LIG d   1      12.100   3.880  -6.075  0.00  0.00     0.060 H 
ATOM     22  C   LIG d   1      11.498   2.618  -7.715  0.00  0.00    -0.005 C 
ATOM     23  H   LIG d   1       7.366   1.253  -2.368  0.00  0.00     0.027 H 
ATOM     24  H   LIG d   1       6.318   2.063  -3.556  0.00  0.00     0.027 H 
ATOM     25  H   LIG d   1       9.294   1.527  -3.663  0.00  0.00     0.027 H 
ATOM     26  H   LIG d   1       8.378   2.992  -4.085  0.00  0.00     0.027 H 
ATOM     27  H   LIG d   1       8.188  -2.873  -4.885  0.00  0.00     0.027 H 
ATOM     28  H   LIG d   1       6.864  -2.121  -5.819  0.00  0.00     0.027 H 
ATOM     29  H   LIG d   1       6.873  -3.089  -2.991  0.00  0.00     0.027 H 
ATOM     30  H   LIG d   1       5.474  -2.738  -4.044  0.00  0.00     0.027 H 
ATOM     31  H   LIG d   1      10.461  -0.189  -4.586  0.00  0.00     0.031 H 
ATOM     32  H   LIG d   1      10.333  -1.352  -5.918  0.00  0.00     0.031 H 
ATOM     33  H   LIG d   1      11.930   0.261  -6.824  0.00  0.00     0.057 H 
ATOM     34  H   LIG d   1       8.401   4.206  -5.830  0.00  0.00     0.027 H 
ATOM     35  H   LIG d   1       9.870   3.686  -4.969  0.00  0.00     0.027 H 
ATOM     36  H   LIG d   1       9.760   4.732  -7.838  0.00  0.00     0.029 H 
ATOM     37  H   LIG d   1      10.352   5.603  -6.420  0.00  0.00     0.029 H 
ATOM     38  H   LIG d   1      12.479   2.139  -7.750  0.00  0.00     0.034 H 
ATOM     39  H   LIG d   1      11.111   2.728  -8.726  0.00  0.00     0.034 H 
ENDROOT
BRANCH  12  40
ATOM     40  C   LIG d   1       4.772  -0.745  -2.679  0.00  0.00     0.026 A 
ATOM     41  S   LIG d   1       3.585  -1.254  -3.949  0.00  0.00    -0.152 SA
ATOM     42  C   LIG d   1       3.918  -1.960  -2.312  0.00  0.00     0.009 A 
ATOM     43  H   LIG d   1       4.421  -2.926  -2.286  0.00  0.00     0.039 H 
ATOM     44  H   LIG d   1       3.155  -1.813  -1.548  0.00  0.00     0.039 H 
BRANCH  40  45
ATOM     45  C   LIG d   1       4.476   0.559  -1.937  0.00  0.00    -0.049 C 
ATOM     46  H   LIG d   1       4.578   0.398  -0.863  0.00  0.00     0.024 H 
ATOM     47  H   LIG d   1       5.179   1.328  -2.257  0.00  0.00     0.024 H 
ATOM     48  H   LIG d   1       3.459   0.881  -2.160  0.00  0.00     0.024 H 
ENDBRANCH  40  45
ENDBRANCH  12  40
BRANCH   1  49
ATOM     49  C   LIG d   1       5.656   0.167  -5.065  0.00  0.00    -0.059 C 
ATOM     50  H   LIG d   1       6.092   0.106  -6.062  0.00  0.00     0.024 H 
ATOM     51  H   LIG d   1       4.924  -0.631  -4.938  0.00  0.00     0.024 H 
ATOM     52  H   LIG d   1       5.165   1.132  -4.940  0.00  0.00     0.024 H 
ENDBRANCH   1  49
BRANCH  17  53
ATOM     53  C   LIG d   1       8.418   2.470  -7.830  0.00  0.00    -0.056 C 
ATOM     54  H   LIG d   1       8.993   2.041  -8.652  0.00  0.00     0.024 H 
ATOM     55  H   LIG d   1       7.471   1.938  -7.734  0.00  0.00     0.024 H 
ATOM     56  H   LIG d   1       8.224   3.523  -8.033  0.00  0.00     0.024 H 
ENDBRANCH  17  53
BRANCH  20  57
ATOM     57  O   LIG d   1      12.424   4.846  -7.870  0.00  0.00    -0.392 OA
ATOM     58  H   LIG d   1      12.048   5.726  -8.004  0.00  0.00     0.210 HD
ENDBRANCH  20  57
TORSDOF 5
ENDMDL
MODEL 7
REMARK VINA RESULT:      -5.4      8.367     11.388
REMARK  5 active torsions:
REMARK  status: ('A' for Active; 'I' for Inactive)
REMARK    1  A    between atoms: C_1  and  C_2 
REMARK    2  A    between atoms: C_13  and  C_15 
REMARK    3  A    between atoms: C_15  and  C_18 
REMARK    4  A    between atoms: C_22  and  C_29 
REMARK    5  A    between atoms: C_25  and  O_28 
ROOT
ATOM      1  C   LIG d   1       9.956   6.210  -7.676  0.00  0.00    -0.025 C 
ATOM      2  C   LIG d   1       9.444   7.432  -6.959  0.00  0.00    -0.047 C 
ATOM      3  C   LIG d   1       9.410   7.180  -5.439  0.00  0.00    -0.049 C 
ATOM      4  C   LIG d   1      10.556   6.260  -5.045  0.00  0.00    -0.029 C 
ATOM      5  H   LIG d   1      11.451   6.642  -5.567  0.00  0.00     0.031 H 
ATOM      6  C   LIG d   1      10.310   4.846  -5.551  0.00  0.00    -0.031 C 
ATOM      7  H   LIG d   1      11.248   4.294  -5.634  0.00  0.00     0.031 H 
ATOM      8  C   LIG d   1       9.623   4.921  -6.902  0.00  0.00    -0.032 C 
ATOM      9  H   LIG d   1       8.529   4.864  -6.746  0.00  0.00     0.031 H 
ATOM     10  C   LIG d   1      10.022   3.834  -7.910  0.00  0.00    -0.049 C 
ATOM     11  C   LIG d   1       9.549   4.419  -9.270  0.00  0.00    -0.048 C 
ATOM     12  C   LIG d   1       9.253   5.919  -9.020  0.00  0.00    -0.020 C 
ATOM     13  H   LIG d   1       8.188   6.095  -8.925  0.00  0.00     0.032 H 
ATOM     14  C   LIG d   1       9.350   4.104  -4.613  0.00  0.00    -0.031 C 
ATOM     15  C   LIG d   1       9.733   4.262  -3.179  0.00  0.00    -0.084 C 
ATOM     16  C   LIG d   1      10.426   5.262  -2.722  0.00  0.00    -0.065 C 
ATOM     17  C   LIG d   1      10.952   6.359  -3.591  0.00  0.00    -0.008 C 
ATOM     18  C   LIG d   1      10.573   7.717  -3.001  0.00  0.00    -0.041 C 
ATOM     19  C   LIG d   1      10.971   7.799  -1.527  0.00  0.00    -0.026 C 
ATOM     20  C   LIG d   1      10.264   6.708  -0.724  0.00  0.00     0.059 C 
ATOM     21  H   LIG d   1       9.186   6.814  -0.840  0.00  0.00     0.060 H 
ATOM     22  C   LIG d   1      10.700   5.329  -1.228  0.00  0.00    -0.005 C 
ATOM     23  H   LIG d   1       8.431   7.674  -7.301  0.00  0.00     0.027 H 
ATOM     24  H   LIG d   1      10.096   8.288  -7.171  0.00  0.00     0.027 H 
ATOM     25  H   LIG d   1       8.458   6.726  -5.164  0.00  0.00     0.027 H 
ATOM     26  H   LIG d   1       9.507   8.143  -4.931  0.00  0.00     0.027 H 
ATOM     27  H   LIG d   1       9.493   2.904  -7.692  0.00  0.00     0.027 H 
ATOM     28  H   LIG d   1      11.095   3.663  -7.907  0.00  0.00     0.027 H 
ATOM     29  H   LIG d   1       8.642   3.909  -9.597  0.00  0.00     0.027 H 
ATOM     30  H   LIG d   1      10.331   4.309 -10.019  0.00  0.00     0.027 H 
ATOM     31  H   LIG d   1       8.339   4.494  -4.760  0.00  0.00     0.031 H 
ATOM     32  H   LIG d   1       9.348   3.042  -4.874  0.00  0.00     0.031 H 
ATOM     33  H   LIG d   1       9.416   3.502  -2.475  0.00  0.00     0.057 H 
ATOM     34  H   LIG d   1      11.087   8.507  -3.555  0.00  0.00     0.027 H 
ATOM     35  H   LIG d   1       9.494   7.865  -3.084  0.00  0.00     0.027 H 
ATOM     36  H   LIG d   1      12.047   7.707  -1.412  0.00  0.00     0.029 H 
ATOM     37  H   LIG d   1      10.670   8.777  -1.135  0.00  0.00     0.029 H 
ATOM     38  H   LIG d   1      10.118   4.556  -0.719  0.00  0.00     0.034 H 
ATOM     39  H   LIG d   1      11.759   5.176  -1.031  0.00  0.00     0.034 H 
ENDROOT
BRANCH  12  40
ATOM     40  C   LIG d   1       9.866   6.778 -10.123  0.00  0.00     0.026 A 
ATOM     41  S   LIG d   1      11.158   6.010 -11.133  0.00  0.00    -0.152 SA
ATOM     42  C   LIG d   1       9.453   6.457 -11.560  0.00  0.00     0.009 A 
ATOM     43  H   LIG d   1       8.750   5.636 -11.699  0.00  0.00     0.039 H 
ATOM     44  H   LIG d   1       9.319   7.302 -12.235  0.00  0.00     0.039 H 
BRANCH  40  45
ATOM     45  C   LIG d   1      10.049   8.255  -9.769  0.00  0.00    -0.049 C 
ATOM     46  H   LIG d   1      10.782   8.702 -10.441  0.00  0.00     0.024 H 
ATOM     47  H   LIG d   1       9.097   8.775  -9.874  0.00  0.00     0.024 H 
ATOM     48  H   LIG d   1      10.399   8.342  -8.741  0.00  0.00     0.024 H 
ENDBRANCH  40  45
ENDBRANCH  12  40
BRANCH   1  49
ATOM     49  C   LIG d   1      11.451   6.334  -7.980  0.00  0.00    -0.059 C 
ATOM     50  H   LIG d   1      12.005   5.609  -7.383  0.00  0.00     0.024 H 
ATOM     51  H   LIG d   1      11.624   6.140  -9.039  0.00  0.00     0.024 H 
ATOM     52  H   LIG d   1      11.790   7.341  -7.736  0.00  0.00     0.024 H 
ENDBRANCH   1  49
BRANCH  17  53
ATOM     53  C   LIG d   1      12.488   6.260  -3.564  0.00  0.00    -0.056 C 
ATOM     54  H   LIG d   1      12.859   6.078  -4.573  0.00  0.00     0.024 H 
ATOM     55  H   LIG d   1      12.906   7.193  -3.186  0.00  0.00     0.024 H 
ATOM     56  H   LIG d   1      12.788   5.438  -2.914  0.00  0.00     0.024 H 
ENDBRANCH  17  53
BRANCH  20  57
ATOM     57  O   LIG d   1      10.606   6.839   0.657  0.00  0.00    -0.392 OA
ATOM     58  H   LIG d   1      11.219   7.562   0.843  0.00  0.00     0.210 HD
ENDBRANCH  20  57
TORSDOF 5
ENDMDL
MODEL 8
REMARK VINA RESULT:      -5.3      4.048      5.791
REMARK  5 active torsions:
REMARK  status: ('A' for Active; 'I' for Inactive)
REMARK    1  A    between atoms: C_1  and  C_2 
REMARK    2  A    between atoms: C_13  and  C_15 
REMARK    3  A    between atoms: C_15  and  C_18 
REMARK    4  A    between atoms: C_22  and  C_29 
REMARK    5  A    between atoms: C_25  and  O_28 
ROOT
ATOM      1  C   LIG d   1       5.085  -2.050  -4.503  0.00  0.00    -0.025 C 
ATOM      2  C   LIG d   1       4.228  -2.144  -5.739  0.00  0.00    -0.047 C 
ATOM      3  C   LIG d   1       4.714  -3.299  -6.635  0.00  0.00    -0.049 C 
ATOM      4  C   LIG d   1       5.258  -4.427  -5.771  0.00  0.00    -0.029 C 
ATOM      5  H   LIG d   1       4.526  -4.570  -4.956  0.00  0.00     0.031 H 
ATOM      6  C   LIG d   1       6.575  -4.023  -5.125  0.00  0.00    -0.031 C 
ATOM      7  H   LIG d   1       6.769  -4.619  -4.231  0.00  0.00     0.031 H 
ATOM      8  C   LIG d   1       6.517  -2.548  -4.771  0.00  0.00    -0.032 C 
ATOM      9  H   LIG d   1       6.954  -1.968  -5.605  0.00  0.00     0.031 H 
ATOM     10  C   LIG d   1       7.239  -2.148  -3.476  0.00  0.00    -0.049 C 
ATOM     11  C   LIG d   1       6.634  -0.755  -3.148  0.00  0.00    -0.048 C 
ATOM     12  C   LIG d   1       5.374  -0.607  -4.036  0.00  0.00    -0.020 C 
ATOM     13  H   LIG d   1       5.574   0.025  -4.893  0.00  0.00     0.032 H 
ATOM     14  C   LIG d   1       7.730  -4.189  -6.121  0.00  0.00    -0.031 C 
ATOM     15  C   LIG d   1       7.684  -5.508  -6.818  0.00  0.00    -0.084 C 
ATOM     16  C   LIG d   1       6.598  -6.203  -6.980  0.00  0.00    -0.065 C 
ATOM     17  C   LIG d   1       5.266  -5.775  -6.451  0.00  0.00    -0.008 C 
ATOM     18  C   LIG d   1       4.219  -5.845  -7.562  0.00  0.00    -0.041 C 
ATOM     19  C   LIG d   1       4.246  -7.210  -8.248  0.00  0.00    -0.026 C 
ATOM     20  C   LIG d   1       5.621  -7.471  -8.862  0.00  0.00     0.059 C 
ATOM     21  H   LIG d   1       5.857  -6.678  -9.570  0.00  0.00     0.060 H 
ATOM     22  C   LIG d   1       6.682  -7.505  -7.759  0.00  0.00    -0.005 C 
ATOM     23  H   LIG d   1       4.281  -1.208  -6.306  0.00  0.00     0.027 H 
ATOM     24  H   LIG d   1       3.184  -2.320  -5.454  0.00  0.00     0.027 H 
ATOM     25  H   LIG d   1       5.493  -2.938  -7.308  0.00  0.00     0.027 H 
ATOM     26  H   LIG d   1       3.866  -3.653  -7.227  0.00  0.00     0.027 H 
ATOM     27  H   LIG d   1       8.314  -2.063  -3.654  0.00  0.00     0.027 H 
ATOM     28  H   LIG d   1       7.047  -2.860  -2.677  0.00  0.00     0.027 H 
ATOM     29  H   LIG d   1       7.355   0.027  -3.389  0.00  0.00     0.027 H 
ATOM     30  H   LIG d   1       6.362  -0.702  -2.095  0.00  0.00     0.027 H 
ATOM     31  H   LIG d   1       7.675  -3.387  -6.863  0.00  0.00     0.031 H 
ATOM     32  H   LIG d   1       8.679  -4.094  -5.585  0.00  0.00     0.031 H 
ATOM     33  H   LIG d   1       8.608  -5.912  -7.216  0.00  0.00     0.057 H 
ATOM     34  H   LIG d   1       3.227  -5.678  -7.134  0.00  0.00     0.027 H 
ATOM     35  H   LIG d   1       4.421  -5.072  -8.307  0.00  0.00     0.027 H 
ATOM     36  H   LIG d   1       3.997  -8.001  -7.546  0.00  0.00     0.029 H 
ATOM     37  H   LIG d   1       3.495  -7.218  -9.047  0.00  0.00     0.029 H 
ATOM     38  H   LIG d   1       7.673  -7.592  -8.212  0.00  0.00     0.034 H 
ATOM     39  H   LIG d   1       6.508  -8.352  -7.099  0.00  0.00     0.034 H 
ENDROOT
BRANCH  12  40
ATOM     40  C   LIG d   1       4.198  -0.082  -3.217  0.00  0.00     0.026 A 
ATOM     41  S   LIG d   1       2.985   0.938  -4.093  0.00  0.00    -0.152 SA
ATOM     42  C   LIG d   1       2.842  -0.751  -3.448  0.00  0.00     0.009 A 
ATOM     43  H   LIG d   1       2.808  -1.556  -4.180  0.00  0.00     0.039 H 
ATOM     44  H   LIG d   1       2.207  -0.891  -2.573  0.00  0.00     0.039 H 
BRANCH  40  45
ATOM     45  C   LIG d   1       4.535   0.323  -1.781  0.00  0.00    -0.049 C 
ATOM     46  H   LIG d   1       3.759  -0.044  -1.108  0.00  0.00     0.024 H 
ATOM     47  H   LIG d   1       5.495  -0.108  -1.497  0.00  0.00     0.024 H 
ATOM     48  H   LIG d   1       4.590   1.410  -1.713  0.00  0.00     0.024 H 
ENDBRANCH  40  45
ENDBRANCH  12  40
BRANCH   1  49
ATOM     49  C   LIG d   1       4.431  -2.772  -3.321  0.00  0.00    -0.059 C 
ATOM     50  H   LIG d   1       3.352  -2.630  -3.361  0.00  0.00     0.024 H 
ATOM     51  H   LIG d   1       4.661  -3.836  -3.374  0.00  0.00     0.024 H 
ATOM     52  H   LIG d   1       4.817  -2.363  -2.387  0.00  0.00     0.024 H 
ENDBRANCH   1  49
BRANCH  17  53
ATOM     53  C   LIG d   1       4.859  -6.795  -5.373  0.00  0.00    -0.056 C 
ATOM     54  H   LIG d   1       3.855  -6.566  -5.015  0.00  0.00     0.024 H 
ATOM     55  H   LIG d   1       4.872  -7.799  -5.799  0.00  0.00     0.024 H 
ATOM     56  H   LIG d   1       5.561  -6.745  -4.541  0.00  0.00     0.024 H 
ENDBRANCH  17  53
BRANCH  20  57
ATOM     57  O   LIG d   1       5.605  -8.725  -9.546  0.00  0.00    -0.392 OA
ATOM     58  H   LIG d   1       5.317  -8.668 -10.466  0.00  0.00     0.210 HD
ENDBRANCH  20  57
TORSDOF 5
ENDMDL
MODEL 9
REMARK VINA RESULT:      -5.3      9.084     11.999
REMARK  5 active torsions:
REMARK  status: ('A' for Active; 'I' for Inactive)
REMARK    1  A    between atoms: C_1  and  C_2 
REMARK    2  A    between atoms: C_13  and  C_15 
REMARK    3  A    between atoms: C_15  and  C_18 
REMARK    4  A    between atoms: C_22  and  C_29 
REMARK    5  A    between atoms: C_25  and  O_28 
ROOT
ATOM      1  C   LIG d   1      10.158   6.478  -6.313  0.00  0.00    -0.025 C 
ATOM      2  C   LIG d   1       9.285   7.332  -5.429  0.00  0.00    -0.047 C 
ATOM      3  C   LIG d   1       9.480   6.940  -3.952  0.00  0.00    -0.049 C 
ATOM      4  C   LIG d   1      10.919   6.501  -3.722  0.00  0.00    -0.029 C 
ATOM      5  H   LIG d   1      11.554   7.248  -4.232  0.00  0.00     0.031 H 
ATOM      6  C   LIG d   1      11.185   5.158  -4.388  0.00  0.00    -0.031 C 
ATOM      7  H   LIG d   1      12.251   5.022  -4.578  0.00  0.00     0.031 H 
ATOM      8  C   LIG d   1      10.407   5.092  -5.689  0.00  0.00    -0.032 C 
ATOM      9  H   LIG d   1       9.435   4.601  -5.494  0.00  0.00     0.031 H 
ATOM     10  C   LIG d   1      11.100   4.347  -6.839  0.00  0.00    -0.049 C 
ATOM     11  C   LIG d   1      10.324   4.832  -8.095  0.00  0.00    -0.048 C 
ATOM     12  C   LIG d   1       9.505   6.069  -7.651  0.00  0.00    -0.020 C 
ATOM     13  H   LIG d   1       8.465   5.810  -7.489  0.00  0.00     0.032 H 
ATOM     14  C   LIG d   1      10.663   4.016  -3.507  0.00  0.00    -0.031 C 
ATOM     15  C   LIG d   1      11.081   4.169  -2.082  0.00  0.00    -0.084 C 
ATOM     16  C   LIG d   1      11.379   5.310  -1.536  0.00  0.00    -0.065 C 
ATOM     17  C   LIG d   1      11.373   6.604  -2.286  0.00  0.00    -0.008 C 
ATOM     18  C   LIG d   1      10.560   7.645  -1.518  0.00  0.00    -0.041 C 
ATOM     19  C   LIG d   1      11.022   7.732  -0.064  0.00  0.00    -0.026 C 
ATOM     20  C   LIG d   1      10.854   6.380   0.629  0.00  0.00     0.059 C 
ATOM     21  H   LIG d   1       9.811   6.071   0.573  0.00  0.00     0.060 H 
ATOM     22  C   LIG d   1      11.735   5.333  -0.059  0.00  0.00    -0.005 C 
ATOM     23  H   LIG d   1       8.231   7.195  -5.696  0.00  0.00     0.027 H 
ATOM     24  H   LIG d   1       9.543   8.389  -5.562  0.00  0.00     0.027 H 
ATOM     25  H   LIG d   1       8.799   6.128  -3.694  0.00  0.00     0.027 H 
ATOM     26  H   LIG d   1       9.249   7.812  -3.334  0.00  0.00     0.027 H 
ATOM     27  H   LIG d   1      10.983   3.268  -6.714  0.00  0.00     0.027 H 
ATOM     28  H   LIG d   1      12.154   4.605  -6.902  0.00  0.00     0.027 H 
ATOM     29  H   LIG d   1       9.654   4.046  -8.443  0.00  0.00     0.027 H 
ATOM     30  H   LIG d   1      11.022   5.106  -8.885  0.00  0.00     0.027 H 
ATOM     31  H   LIG d   1       9.571   3.996  -3.563  0.00  0.00     0.031 H 
ATOM     32  H   LIG d   1      11.041   3.065  -3.896  0.00  0.00     0.031 H 
ATOM     33  H   LIG d   1      11.138   3.281  -1.464  0.00  0.00     0.057 H 
ATOM     34  H   LIG d   1      10.685   8.622  -1.992  0.00  0.00     0.027 H 
ATOM     35  H   LIG d   1       9.502   7.373  -1.536  0.00  0.00     0.027 H 
ATOM     36  H   LIG d   1      12.058   8.052  -0.007  0.00  0.00     0.029 H 
ATOM     37  H   LIG d   1      10.408   8.474   0.458  0.00  0.00     0.029 H 
ATOM     38  H   LIG d   1      11.536   4.350   0.376  0.00  0.00     0.034 H 
ATOM     39  H   LIG d   1      12.785   5.583   0.073  0.00  0.00     0.034 H 
ENDROOT
BRANCH  12  40
ATOM     40  C   LIG d   1       9.648   7.201  -8.665  0.00  0.00     0.026 A 
ATOM     41  S   LIG d   1      11.216   7.296  -9.566  0.00  0.00    -0.152 SA
ATOM     42  C   LIG d   1       9.564   6.819 -10.144  0.00  0.00     0.009 A 
ATOM     43  H   LIG d   1       9.407   5.766 -10.372  0.00  0.00     0.039 H 
ATOM     44  H   LIG d   1       9.053   7.519 -10.804  0.00  0.00     0.039 H 
BRANCH  40  45
ATOM     45  C   LIG d   1       9.004   8.526  -8.254  0.00  0.00    -0.049 C 
ATOM     46  H   LIG d   1       9.607   9.000  -7.478  0.00  0.00     0.024 H 
ATOM     47  H   LIG d   1       8.945   9.186  -9.120  0.00  0.00     0.024 H 
ATOM     48  H   LIG d   1       8.001   8.340  -7.870  0.00  0.00     0.024 H 
ENDBRANCH  40  45
ENDBRANCH  12  40
BRANCH   1  49
ATOM     49  C   LIG d   1      11.463   7.199  -6.662  0.00  0.00    -0.059 C 
ATOM     50  H   LIG d   1      12.037   6.592  -7.362  0.00  0.00     0.024 H 
ATOM     51  H   LIG d   1      11.234   8.162  -7.118  0.00  0.00     0.024 H 
ATOM     52  H   LIG d   1      12.045   7.357  -5.754  0.00  0.00     0.024 H 
ENDBRANCH   1  49
BRANCH  17  53
ATOM     53  C   LIG d   1      12.828   7.104  -2.337  0.00  0.00    -0.056 C 
ATOM     54  H   LIG d   1      13.444   6.496  -1.674  0.00  0.00     0.024 H 
ATOM     55  H   LIG d   1      13.204   7.024  -3.357  0.00  0.00     0.024 H 
ATOM     56  H   LIG d   1      12.866   8.144  -2.015  0.00  0.00     0.024 H 
ENDBRANCH  17  53
BRANCH  20  57
ATOM     57  O   LIG d   1      11.239   6.499   2.000  0.00  0.00    -0.392 OA
ATOM     58  H   LIG d   1      11.410   7.407   2.283  0.00  0.00     0.210 HD
ENDBRANCH  20  57
TORSDOF 5
ENDMDL
MODEL 10
REMARK VINA RESULT:      -5.3      9.277     11.294
REMARK  5 active torsions:
REMARK  status: ('A' for Active; 'I' for Inactive)
REMARK    1  A    between atoms: C_1  and  C_2 
REMARK    2  A    between atoms: C_13  and  C_15 
REMARK    3  A    between atoms: C_15  and  C_18 
REMARK    4  A    between atoms: C_22  and  C_29 
REMARK    5  A    between atoms: C_25  and  O_28 
ROOT
ATOM      1  C   LIG d   1      10.352   4.874  -4.276  0.00  0.00    -0.025 C 
ATOM      2  C   LIG d   1       9.443   5.595  -5.238  0.00  0.00    -0.047 C 
ATOM      3  C   LIG d   1       9.083   6.987  -4.686  0.00  0.00    -0.049 C 
ATOM      4  C   LIG d   1      10.256   7.544  -3.892  0.00  0.00    -0.029 C 
ATOM      5  H   LIG d   1      11.157   7.357  -4.503  0.00  0.00     0.031 H 
ATOM      6  C   LIG d   1      10.433   6.782  -2.587  0.00  0.00    -0.031 C 
ATOM      7  H   LIG d   1      11.453   6.882  -2.212  0.00  0.00     0.031 H 
ATOM      8  C   LIG d   1      10.103   5.319  -2.824  0.00  0.00    -0.032 C 
ATOM      9  H   LIG d   1       9.039   5.152  -2.570  0.00  0.00     0.031 H 
ATOM     10  C   LIG d   1      10.950   4.312  -2.034  0.00  0.00    -0.049 C 
ATOM     11  C   LIG d   1      10.722   2.978  -2.799  0.00  0.00    -0.048 C 
ATOM     12  C   LIG d   1      10.078   3.359  -4.155  0.00  0.00    -0.020 C 
ATOM     13  H   LIG d   1       9.010   3.177  -4.144  0.00  0.00     0.032 H 
ATOM     14  C   LIG d   1       9.439   7.289  -1.535  0.00  0.00    -0.031 C 
ATOM     15  C   LIG d   1       9.414   8.780  -1.460  0.00  0.00    -0.084 C 
ATOM     16  C   LIG d   1       9.756   9.559  -2.442  0.00  0.00    -0.065 C 
ATOM     17  C   LIG d   1      10.250   9.048  -3.758  0.00  0.00    -0.008 C 
ATOM     18  C   LIG d   1       9.471   9.706  -4.896  0.00  0.00    -0.041 C 
ATOM     19  C   LIG d   1       9.465  11.227  -4.743  0.00  0.00    -0.026 C 
ATOM     20  C   LIG d   1       8.815  11.625  -3.418  0.00  0.00     0.059 C 
ATOM     21  H   LIG d   1       7.801  11.228  -3.379  0.00  0.00     0.060 H 
ATOM     22  C   LIG d   1       9.631  11.061  -2.251  0.00  0.00    -0.005 C 
ATOM     23  H   LIG d   1       8.519   5.022  -5.385  0.00  0.00     0.027 H 
ATOM     24  H   LIG d   1       9.941   5.706  -6.208  0.00  0.00     0.027 H 
ATOM     25  H   LIG d   1       8.204   6.912  -4.045  0.00  0.00     0.027 H 
ATOM     26  H   LIG d   1       8.855   7.642  -5.531  0.00  0.00     0.027 H 
ATOM     27  H   LIG d   1      10.581   4.229  -1.009  0.00  0.00     0.027 H 
ATOM     28  H   LIG d   1      12.001   4.591  -2.032  0.00  0.00     0.027 H 
ATOM     29  H   LIG d   1      10.047   2.337  -2.232  0.00  0.00     0.027 H 
ATOM     30  H   LIG d   1      11.671   2.471  -2.961  0.00  0.00     0.027 H 
ATOM     31  H   LIG d   1       8.439   6.925  -1.786  0.00  0.00     0.031 H 
ATOM     32  H   LIG d   1       9.715   6.881  -0.558  0.00  0.00     0.031 H 
ATOM     33  H   LIG d   1       9.092   9.243  -0.535  0.00  0.00     0.057 H 
ATOM     34  H   LIG d   1       9.937   9.444  -5.850  0.00  0.00     0.027 H 
ATOM     35  H   LIG d   1       8.440   9.347  -4.892  0.00  0.00     0.027 H 
ATOM     36  H   LIG d   1      10.475  11.624  -4.796  0.00  0.00     0.029 H 
ATOM     37  H   LIG d   1       8.886  11.662  -5.565  0.00  0.00     0.029 H 
ATOM     38  H   LIG d   1       9.109  11.264  -1.313  0.00  0.00     0.034 H 
ATOM     39  H   LIG d   1      10.616  11.523  -2.226  0.00  0.00     0.034 H 
ENDROOT
BRANCH  12  40
ATOM     40  C   LIG d   1      10.760   2.616  -5.301  0.00  0.00     0.026 A 
ATOM     41  S   LIG d   1       9.732   1.472  -6.258  0.00  0.00    -0.152 SA
ATOM     42  C   LIG d   1      10.430   3.082  -6.720  0.00  0.00     0.009 A 
ATOM     43  H   LIG d   1       9.731   3.912  -6.816  0.00  0.00     0.039 H 
ATOM     44  H   LIG d   1      11.246   3.075  -7.443  0.00  0.00     0.039 H 
BRANCH  40  45
ATOM     45  C   LIG d   1      12.204   2.188  -5.031  0.00  0.00    -0.049 C 
ATOM     46  H   LIG d   1      12.862   2.640  -5.774  0.00  0.00     0.024 H 
ATOM     47  H   LIG d   1      12.501   2.517  -4.036  0.00  0.00     0.024 H 
ATOM     48  H   LIG d   1      12.279   1.103  -5.093  0.00  0.00     0.024 H 
ENDBRANCH  40  45
ENDBRANCH  12  40
BRANCH   1  49
ATOM     49  C   LIG d   1      11.819   5.024  -4.686  0.00  0.00    -0.059 C 
ATOM     50  H   LIG d   1      11.883   5.159  -5.765  0.00  0.00     0.024 H 
ATOM     51  H   LIG d   1      12.249   5.892  -4.185  0.00  0.00     0.024 H 
ATOM     52  H   LIG d   1      12.371   4.129  -4.397  0.00  0.00     0.024 H 
ENDBRANCH   1  49
BRANCH  17  53
ATOM     53  C   LIG d   1      11.719   9.490  -3.892  0.00  0.00    -0.056 C 
ATOM     54  H   LIG d   1      11.876  10.405  -3.320  0.00  0.00     0.024 H 
ATOM     55  H   LIG d   1      12.371   8.705  -3.507  0.00  0.00     0.024 H 
ATOM     56  H   LIG d   1      11.950   9.673  -4.941  0.00  0.00     0.024 H 
ENDBRANCH  17  53
BRANCH  20  57
ATOM     57  O   LIG d   1       8.769  13.050  -3.322  0.00  0.00    -0.392 OA
ATOM     58  H   LIG d   1       9.527  13.496  -3.724  0.00  0.00     0.210 HD
ENDBRANCH  20  57
TORSDOF 5
ENDMDL
