MODEL 1
REMARK VINA RESULT:      -6.9      0.000      0.000
REMARK  5 active torsions:
REMARK  status: ('A' for Active; 'I' for Inactive)
REMARK    1  A    between atoms: C_1  and  N_2 
REMARK    2  A    between atoms: C_5  and  N_8 
REMARK    3  A    between atoms: C_12  and  C_14 
REMARK    4  A    between atoms: C_16  and  C_19 
REMARK    5  A    between atoms: C_22  and  N_25 
ROOT
ATOM      1  N   LIG d   1       5.449   0.448  -3.793  0.00  0.00     0.246 N 
ATOM      2  C   LIG d   1       5.170   1.065  -2.480  0.00  0.00    -0.031 C 
ATOM      3  C   LIG d   1       3.628   1.020  -2.340  0.00  0.00    -0.007 C 
ATOM      4  C   LIG d   1       3.294  -0.345  -2.998  0.00  0.00     0.004 C 
ATOM      5  C   LIG d   1       4.325  -0.440  -4.143  0.00  0.00     0.060 C 
ATOM      6  H   LIG d   1       4.679  -1.467  -4.239  0.00  0.00     0.095 H 
ATOM      7  H   LIG d   1       5.640   0.489  -1.682  0.00  0.00     0.082 H 
ATOM      8  H   LIG d   1       5.523   2.096  -2.462  0.00  0.00     0.082 H 
ATOM      9  H   LIG d   1       3.330   1.030  -1.291  0.00  0.00     0.032 H 
ATOM     10  H   LIG d   1       3.162   1.841  -2.885  0.00  0.00     0.032 H 
ATOM     11  H   LIG d   1       3.431  -1.159  -2.288  0.00  0.00     0.033 H 
ATOM     12  H   LIG d   1       2.278  -0.344  -3.394  0.00  0.00     0.033 H 
ATOM     13  H   LIG d   1       5.542   1.169  -4.493  0.00  0.00     0.204 HD
ENDROOT
BRANCH   5  14
ATOM     14  C   LIG d   1       3.698   0.011  -5.436  0.00  0.00     0.276 A 
ATOM     15  O   LIG d   1       2.989   1.135  -5.612  0.00  0.00    -0.332 OA
ATOM     16  N   LIG d   1       2.600   1.154  -6.978  0.00  0.00    -0.056 NA
ATOM     17  C   LIG d   1       3.083   0.061  -7.516  0.00  0.00     0.204 A 
ATOM     18  N   LIG d   1       3.748  -0.627  -6.571  0.00  0.00    -0.186 NA
BRANCH  17  19
ATOM     19  C   LIG d   1       2.921  -0.349  -8.932  0.00  0.00     0.041 A 
ATOM     20  C   LIG d   1       4.038  -0.610  -9.723  0.00  0.00     0.041 A 
ATOM     21  N   LIG d   1       3.901  -0.980 -10.979  0.00  0.00    -0.240 NA
ATOM     22  H   LIG d   1       5.027  -0.512  -9.300  0.00  0.00     0.084 H 
ATOM     23  C   LIG d   1       2.708  -1.108 -11.542  0.00  0.00     0.121 A 
ATOM     24  C   LIG d   1       1.545  -0.859 -10.816  0.00  0.00    -0.021 A 
ATOM     25  C   LIG d   1       1.645  -0.475  -9.495  0.00  0.00    -0.046 A 
ATOM     26  H   LIG d   1       0.577  -0.965 -11.283  0.00  0.00     0.065 H 
ATOM     27  H   LIG d   1       0.761  -0.275  -8.909  0.00  0.00     0.063 H 
BRANCH  23  28
ATOM     28  N   LIG d   1       2.616  -1.495 -12.872  0.00  0.00    -0.311 N 
ATOM     29  C   LIG d   1       1.464  -2.273 -13.357  0.00  0.00     0.037 C 
ATOM     30  C   LIG d   1       1.985  -3.488 -14.125  0.00  0.00     0.063 C 
ATOM     31  H   LIG d   1       0.864  -2.605 -12.510  0.00  0.00     0.049 H 
ATOM     32  H   LIG d   1       0.856  -1.655 -14.018  0.00  0.00     0.049 H 
ATOM     33  O   LIG d   1       2.921  -3.054 -15.116  0.00  0.00    -0.377 OA
ATOM     34  H   LIG d   1       1.152  -3.998 -14.610  0.00  0.00     0.058 H 
ATOM     35  H   LIG d   1       2.477  -4.170 -13.433  0.00  0.00     0.058 H 
ATOM     36  C   LIG d   1       4.085  -2.420 -14.582  0.00  0.00     0.063 C 
ATOM     37  C   LIG d   1       3.670  -1.145 -13.838  0.00  0.00     0.037 C 
ATOM     38  H   LIG d   1       4.764  -2.161 -15.395  0.00  0.00     0.058 H 
ATOM     39  H   LIG d   1       4.586  -3.098 -13.891  0.00  0.00     0.058 H 
ATOM     40  H   LIG d   1       3.288  -0.413 -14.548  0.00  0.00     0.049 H 
ATOM     41  H   LIG d   1       4.529  -0.732 -13.309  0.00  0.00     0.049 H 
ENDBRANCH  23  28
ENDBRANCH  17  19
ENDBRANCH   5  14
BRANCH   1  42
ATOM     42  C   LIG d   1       6.692  -0.333  -3.720  0.00  0.00    -0.010 C 
ATOM     43  C   LIG d   1       6.355  -1.812  -3.505  0.00  0.00     0.031 C 
ATOM     44  C   LIG d   1       7.649  -2.629  -3.508  0.00  0.00    -0.027 C 
ATOM     45  H   LIG d   1       5.705  -2.158  -4.308  0.00  0.00     0.037 H 
ATOM     46  H   LIG d   1       5.850  -1.935  -2.547  0.00  0.00     0.037 H 
ATOM     47  N   LIG d   1       8.334  -2.462  -4.796  0.00  0.00     0.233 N 
ATOM     48  H   LIG d   1       7.414  -3.682  -3.356  0.00  0.00     0.082 H 
ATOM     49  H   LIG d   1       8.299  -2.282  -2.704  0.00  0.00     0.082 H 
ATOM     50  C   LIG d   1       8.723  -1.059  -4.976  0.00  0.00    -0.027 C 
ATOM     51  H   LIG d   1       7.713  -2.737  -5.542  0.00  0.00     0.203 HD
ATOM     52  C   LIG d   1       7.470  -0.181  -5.029  0.00  0.00     0.031 C 
ATOM     53  H   LIG d   1       9.349  -0.745  -4.141  0.00  0.00     0.082 H 
ATOM     54  H   LIG d   1       9.280  -0.953  -5.906  0.00  0.00     0.082 H 
ATOM     55  H   LIG d   1       6.843  -0.493  -5.864  0.00  0.00     0.037 H 
ATOM     56  H   LIG d   1       7.761   0.861  -5.162  0.00  0.00     0.037 H 
ATOM     57  H   LIG d   1       7.300   0.027  -2.889  0.00  0.00     0.086 H 
BRANCH  47  58
ATOM     58  C   LIG d   1       9.535  -3.309  -4.823  0.00  0.00    -0.043 C 
ATOM     59  H   LIG d   1      10.267  -2.879  -5.507  0.00  0.00     0.078 H 
ATOM     60  H   LIG d   1       9.962  -3.368  -3.823  0.00  0.00     0.078 H 
ATOM     61  H   LIG d   1       9.265  -4.309  -5.163  0.00  0.00     0.078 H 
ENDBRANCH  47  58
ENDBRANCH   1  42
TORSDOF 5
ENDMDL
MODEL 2
REMARK VINA RESULT:      -6.7      6.367      8.592
REMARK  5 active torsions:
REMARK  status: ('A' for Active; 'I' for Inactive)
REMARK    1  A    between atoms: C_1  and  N_2 
REMARK    2  A    between atoms: C_5  and  N_8 
REMARK    3  A    between atoms: C_12  and  C_14 
REMARK    4  A    between atoms: C_16  and  C_19 
REMARK    5  A    between atoms: C_22  and  N_25 
ROOT
ATOM      1  N   LIG d   1       5.268  -9.848  -3.473  0.00  0.00     0.246 N 
ATOM      2  C   LIG d   1       4.243 -10.567  -2.687  0.00  0.00    -0.031 C 
ATOM      3  C   LIG d   1       3.169 -10.982  -3.724  0.00  0.00    -0.007 C 
ATOM      4  C   LIG d   1       4.043 -11.330  -4.958  0.00  0.00     0.004 C 
ATOM      5  C   LIG d   1       5.189 -10.300  -4.874  0.00  0.00     0.060 C 
ATOM      6  H   LIG d   1       6.130 -10.767  -5.167  0.00  0.00     0.095 H 
ATOM      7  H   LIG d   1       4.676 -11.450  -2.216  0.00  0.00     0.082 H 
ATOM      8  H   LIG d   1       3.810  -9.908  -1.935  0.00  0.00     0.082 H 
ATOM      9  H   LIG d   1       2.612 -11.855  -3.382  0.00  0.00     0.032 H 
ATOM     10  H   LIG d   1       2.496 -10.153  -3.943  0.00  0.00     0.032 H 
ATOM     11  H   LIG d   1       4.430 -12.346  -4.881  0.00  0.00     0.033 H 
ATOM     12  H   LIG d   1       3.476 -11.202  -5.880  0.00  0.00     0.033 H 
ATOM     13  H   LIG d   1       5.095  -8.855  -3.426  0.00  0.00     0.204 HD
ENDROOT
BRANCH   5  14
ATOM     14  C   LIG d   1       4.893  -9.129  -5.775  0.00  0.00     0.276 A 
ATOM     15  O   LIG d   1       4.568  -9.203  -7.073  0.00  0.00    -0.332 OA
ATOM     16  N   LIG d   1       4.376  -7.867  -7.514  0.00  0.00    -0.056 NA
ATOM     17  C   LIG d   1       4.600  -7.098  -6.477  0.00  0.00     0.204 A 
ATOM     18  N   LIG d   1       4.914  -7.874  -5.425  0.00  0.00    -0.186 NA
BRANCH  17  19
ATOM     19  C   LIG d   1       4.522  -5.617  -6.467  0.00  0.00     0.041 A 
ATOM     20  C   LIG d   1       3.978  -4.931  -7.550  0.00  0.00     0.041 A 
ATOM     21  N   LIG d   1       3.901  -3.616  -7.544  0.00  0.00    -0.240 NA
ATOM     22  H   LIG d   1       3.612  -5.484  -8.403  0.00  0.00     0.084 H 
ATOM     23  C   LIG d   1       4.341  -2.897  -6.522  0.00  0.00     0.121 A 
ATOM     24  C   LIG d   1       4.903  -3.512  -5.405  0.00  0.00    -0.021 A 
ATOM     25  C   LIG d   1       4.998  -4.887  -5.370  0.00  0.00    -0.046 A 
ATOM     26  H   LIG d   1       5.261  -2.918  -4.577  0.00  0.00     0.065 H 
ATOM     27  H   LIG d   1       5.429  -5.390  -4.518  0.00  0.00     0.063 H 
BRANCH  23  28
ATOM     28  N   LIG d   1       4.243  -1.513  -6.566  0.00  0.00    -0.311 N 
ATOM     29  C   LIG d   1       4.225  -0.716  -5.329  0.00  0.00     0.037 C 
ATOM     30  C   LIG d   1       3.034   0.241  -5.382  0.00  0.00     0.063 C 
ATOM     31  H   LIG d   1       4.124  -1.377  -4.467  0.00  0.00     0.049 H 
ATOM     32  H   LIG d   1       5.149  -0.144  -5.247  0.00  0.00     0.049 H 
ATOM     33  O   LIG d   1       3.072   0.974  -6.610  0.00  0.00    -0.377 OA
ATOM     34  H   LIG d   1       3.084   0.935  -4.543  0.00  0.00     0.058 H 
ATOM     35  H   LIG d   1       2.107  -0.330  -5.328  0.00  0.00     0.058 H 
ATOM     36  C   LIG d   1       2.954   0.161  -7.780  0.00  0.00     0.063 C 
ATOM     37  C   LIG d   1       4.146  -0.800  -7.849  0.00  0.00     0.037 C 
ATOM     38  H   LIG d   1       2.947   0.796  -8.666  0.00  0.00     0.058 H 
ATOM     39  H   LIG d   1       2.027  -0.411  -7.735  0.00  0.00     0.058 H 
ATOM     40  H   LIG d   1       5.062  -0.237  -8.025  0.00  0.00     0.049 H 
ATOM     41  H   LIG d   1       3.994  -1.517  -8.656  0.00  0.00     0.049 H 
ENDBRANCH  23  28
ENDBRANCH  17  19
ENDBRANCH   5  14
BRANCH   1  42
ATOM     42  C   LIG d   1       6.602 -10.143  -2.933  0.00  0.00    -0.010 C 
ATOM     43  C   LIG d   1       7.526  -8.945  -3.169  0.00  0.00     0.031 C 
ATOM     44  C   LIG d   1       8.890  -9.227  -2.535  0.00  0.00    -0.027 C 
ATOM     45  H   LIG d   1       7.092  -8.055  -2.715  0.00  0.00     0.037 H 
ATOM     46  H   LIG d   1       7.650  -8.786  -4.241  0.00  0.00     0.037 H 
ATOM     47  N   LIG d   1       8.727  -9.446  -1.093  0.00  0.00     0.233 N 
ATOM     48  H   LIG d   1       9.551  -8.377  -2.701  0.00  0.00     0.082 H 
ATOM     49  H   LIG d   1       9.325 -10.119  -2.990  0.00  0.00     0.082 H 
ATOM     50  C   LIG d   1       7.901 -10.635  -0.858  0.00  0.00    -0.027 C 
ATOM     51  H   LIG d   1       8.280  -8.640  -0.681  0.00  0.00     0.203 HD
ATOM     52  C   LIG d   1       6.499 -10.408  -1.428  0.00  0.00     0.031 C 
ATOM     53  H   LIG d   1       8.355 -11.496  -1.349  0.00  0.00     0.082 H 
ATOM     54  H   LIG d   1       7.831 -10.824   0.212  0.00  0.00     0.082 H 
ATOM     55  H   LIG d   1       6.042  -9.547  -0.938  0.00  0.00     0.037 H 
ATOM     56  H   LIG d   1       5.887 -11.293  -1.255  0.00  0.00     0.037 H 
ATOM     57  H   LIG d   1       7.011 -11.023  -3.431  0.00  0.00     0.086 H 
BRANCH  47  58
ATOM     58  C   LIG d   1      10.047  -9.639  -0.476  0.00  0.00    -0.043 C 
ATOM     59  H   LIG d   1       9.929  -9.774   0.600  0.00  0.00     0.078 H 
ATOM     60  H   LIG d   1      10.523 -10.521  -0.903  0.00  0.00     0.078 H 
ATOM     61  H   LIG d   1      10.667  -8.762  -0.665  0.00  0.00     0.078 H 
ENDBRANCH  47  58
ENDBRANCH   1  42
TORSDOF 5
ENDMDL
MODEL 3
REMARK VINA RESULT:      -6.6      1.596      2.154
REMARK  5 active torsions:
REMARK  status: ('A' for Active; 'I' for Inactive)
REMARK    1  A    between atoms: C_1  and  N_2 
REMARK    2  A    between atoms: C_5  and  N_8 
REMARK    3  A    between atoms: C_12  and  C_14 
REMARK    4  A    between atoms: C_16  and  C_19 
REMARK    5  A    between atoms: C_22  and  N_25 
ROOT
ATOM      1  N   LIG d   1       5.683   0.511  -3.733  0.00  0.00     0.246 N 
ATOM      2  C   LIG d   1       5.259   0.615  -2.321  0.00  0.00    -0.031 C 
ATOM      3  C   LIG d   1       3.956  -0.217  -2.237  0.00  0.00    -0.007 C 
ATOM      4  C   LIG d   1       4.272  -1.393  -3.198  0.00  0.00     0.004 C 
ATOM      5  C   LIG d   1       5.109  -0.719  -4.306  0.00  0.00     0.060 C 
ATOM      6  H   LIG d   1       5.909  -1.388  -4.625  0.00  0.00     0.095 H 
ATOM      7  H   LIG d   1       6.021   0.194  -1.664  0.00  0.00     0.082 H 
ATOM      8  H   LIG d   1       5.064   1.655  -2.059  0.00  0.00     0.082 H 
ATOM      9  H   LIG d   1       3.787  -0.578  -1.221  0.00  0.00     0.032 H 
ATOM     10  H   LIG d   1       3.101   0.359  -2.591  0.00  0.00     0.032 H 
ATOM     11  H   LIG d   1       4.853  -2.161  -2.689  0.00  0.00     0.033 H 
ATOM     12  H   LIG d   1       3.354  -1.811  -3.610  0.00  0.00     0.033 H 
ATOM     13  H   LIG d   1       5.348   1.314  -4.246  0.00  0.00     0.204 HD
ENDROOT
BRANCH   5  14
ATOM     14  C   LIG d   1       4.227  -0.376  -5.478  0.00  0.00     0.276 A 
ATOM     15  O   LIG d   1       3.490   0.736  -5.604  0.00  0.00    -0.332 OA
ATOM     16  N   LIG d   1       2.828   0.639  -6.856  0.00  0.00    -0.056 NA
ATOM     17  C   LIG d   1       3.197  -0.503  -7.383  0.00  0.00     0.204 A 
ATOM     18  N   LIG d   1       4.047  -1.112  -6.538  0.00  0.00    -0.186 NA
BRANCH  17  19
ATOM     19  C   LIG d   1       2.751  -1.035  -8.694  0.00  0.00     0.041 A 
ATOM     20  C   LIG d   1       3.143  -2.304  -9.111  0.00  0.00     0.041 A 
ATOM     21  N   LIG d   1       2.745  -2.783 -10.272  0.00  0.00    -0.240 NA
ATOM     22  H   LIG d   1       3.776  -2.904  -8.475  0.00  0.00     0.084 H 
ATOM     23  C   LIG d   1       1.973  -2.081 -11.088  0.00  0.00     0.121 A 
ATOM     24  C   LIG d   1       1.545  -0.802 -10.742  0.00  0.00    -0.021 A 
ATOM     25  C   LIG d   1       1.935  -0.265  -9.533  0.00  0.00    -0.046 A 
ATOM     26  H   LIG d   1       0.917  -0.235 -11.414  0.00  0.00     0.065 H 
ATOM     27  H   LIG d   1       1.619   0.724  -9.239  0.00  0.00     0.063 H 
BRANCH  23  28
ATOM     28  N   LIG d   1       1.586  -2.629 -12.304  0.00  0.00    -0.311 N 
ATOM     29  C   LIG d   1       2.571  -2.888 -13.366  0.00  0.00     0.037 C 
ATOM     30  C   LIG d   1       2.059  -2.272 -14.668  0.00  0.00     0.063 C 
ATOM     31  H   LIG d   1       3.526  -2.435 -13.099  0.00  0.00     0.049 H 
ATOM     32  H   LIG d   1       2.697  -3.963 -13.495  0.00  0.00     0.049 H 
ATOM     33  O   LIG d   1       0.725  -2.728 -14.913  0.00  0.00    -0.377 OA
ATOM     34  H   LIG d   1       2.703  -2.573 -15.494  0.00  0.00     0.058 H 
ATOM     35  H   LIG d   1       2.061  -1.186 -14.580  0.00  0.00     0.058 H 
ATOM     36  C   LIG d   1      -0.219  -2.337 -13.915  0.00  0.00     0.063 C 
ATOM     37  C   LIG d   1       0.178  -2.960 -12.572  0.00  0.00     0.037 C 
ATOM     38  H   LIG d   1      -1.214  -2.684 -14.197  0.00  0.00     0.058 H 
ATOM     39  H   LIG d   1      -0.225  -1.250 -13.824  0.00  0.00     0.058 H 
ATOM     40  H   LIG d   1       0.059  -4.043 -12.620  0.00  0.00     0.049 H 
ATOM     41  H   LIG d   1      -0.451  -2.556 -11.778  0.00  0.00     0.049 H 
ENDBRANCH  23  28
ENDBRANCH  17  19
ENDBRANCH   5  14
BRANCH   1  42
ATOM     42  C   LIG d   1       7.150   0.454  -3.807  0.00  0.00    -0.010 C 
ATOM     43  C   LIG d   1       7.569  -0.291  -5.077  0.00  0.00     0.031 C 
ATOM     44  C   LIG d   1       9.096  -0.278  -5.188  0.00  0.00    -0.027 C 
ATOM     45  H   LIG d   1       7.138   0.202  -5.948  0.00  0.00     0.037 H 
ATOM     46  H   LIG d   1       7.217  -1.321  -5.028  0.00  0.00     0.037 H 
ATOM     47  N   LIG d   1       9.574   1.109  -5.250  0.00  0.00     0.233 N 
ATOM     48  H   LIG d   1       9.399  -0.807  -6.091  0.00  0.00     0.082 H 
ATOM     49  H   LIG d   1       9.527  -0.771  -4.316  0.00  0.00     0.082 H 
ATOM     50  C   LIG d   1       9.237   1.809  -4.005  0.00  0.00    -0.027 C 
ATOM     51  H   LIG d   1       9.135   1.579  -6.029  0.00  0.00     0.203 HD
ATOM     52  C   LIG d   1       7.716   1.877  -3.849  0.00  0.00     0.031 C 
ATOM     53  H   LIG d   1       9.665   1.271  -3.159  0.00  0.00     0.082 H 
ATOM     54  H   LIG d   1       9.644   2.819  -4.035  0.00  0.00     0.082 H 
ATOM     55  H   LIG d   1       7.287   2.414  -4.694  0.00  0.00     0.037 H 
ATOM     56  H   LIG d   1       7.468   2.395  -2.923  0.00  0.00     0.037 H 
ATOM     57  H   LIG d   1       7.539  -0.068  -2.932  0.00  0.00     0.086 H 
BRANCH  47  58
ATOM     58  C   LIG d   1      11.031   1.115  -5.435  0.00  0.00    -0.043 C 
ATOM     59  H   LIG d   1      11.406   0.092  -5.398  0.00  0.00     0.078 H 
ATOM     60  H   LIG d   1      11.274   1.555  -6.402  0.00  0.00     0.078 H 
ATOM     61  H   LIG d   1      11.496   1.700  -4.642  0.00  0.00     0.078 H 
ENDBRANCH  47  58
ENDBRANCH   1  42
TORSDOF 5
ENDMDL
MODEL 4
REMARK VINA RESULT:      -6.6      7.426     12.733
REMARK  5 active torsions:
REMARK  status: ('A' for Active; 'I' for Inactive)
REMARK    1  A    between atoms: C_1  and  N_2 
REMARK    2  A    between atoms: C_5  and  N_8 
REMARK    3  A    between atoms: C_12  and  C_14 
REMARK    4  A    between atoms: C_16  and  C_19 
REMARK    5  A    between atoms: C_22  and  N_25 
ROOT
ATOM      1  N   LIG d   1       8.089   1.379  -4.534  0.00  0.00     0.246 N 
ATOM      2  C   LIG d   1       8.390   0.610  -5.759  0.00  0.00    -0.031 C 
ATOM      3  C   LIG d   1       9.805   1.077  -6.181  0.00  0.00    -0.007 C 
ATOM      4  C   LIG d   1      10.500   1.257  -4.806  0.00  0.00     0.004 C 
ATOM      5  C   LIG d   1       9.360   1.784  -3.908  0.00  0.00     0.060 C 
ATOM      6  H   LIG d   1       9.440   1.345  -2.912  0.00  0.00     0.095 H 
ATOM      7  H   LIG d   1       8.392  -0.460  -5.545  0.00  0.00     0.082 H 
ATOM      8  H   LIG d   1       7.665   0.839  -6.540  0.00  0.00     0.082 H 
ATOM      9  H   LIG d   1      10.308   0.313  -6.776  0.00  0.00     0.032 H 
ATOM     10  H   LIG d   1       9.759   2.023  -6.722  0.00  0.00     0.032 H 
ATOM     11  H   LIG d   1      10.873   0.303  -4.435  0.00  0.00     0.033 H 
ATOM     12  H   LIG d   1      11.306   1.987  -4.873  0.00  0.00     0.033 H 
ATOM     13  H   LIG d   1       7.552   2.200  -4.773  0.00  0.00     0.204 HD
ENDROOT
BRANCH   5  14
ATOM     14  C   LIG d   1       9.432   3.286  -3.817  0.00  0.00     0.276 A 
ATOM     15  O   LIG d   1       9.194   4.143  -4.819  0.00  0.00    -0.332 OA
ATOM     16  N   LIG d   1       9.374   5.445  -4.283  0.00  0.00    -0.056 NA
ATOM     17  C   LIG d   1       9.709   5.286  -3.026  0.00  0.00     0.204 A 
ATOM     18  N   LIG d   1       9.742   3.970  -2.752  0.00  0.00    -0.186 NA
BRANCH  17  19
ATOM     19  C   LIG d   1      10.003   6.378  -2.065  0.00  0.00     0.041 A 
ATOM     20  C   LIG d   1      10.332   6.085  -0.744  0.00  0.00     0.041 A 
ATOM     21  N   LIG d   1      10.599   7.050   0.112  0.00  0.00    -0.240 NA
ATOM     22  H   LIG d   1      10.373   5.056  -0.419  0.00  0.00     0.084 H 
ATOM     23  C   LIG d   1      10.557   8.326  -0.240  0.00  0.00     0.121 A 
ATOM     24  C   LIG d   1      10.230   8.697  -1.543  0.00  0.00    -0.021 A 
ATOM     25  C   LIG d   1       9.948   7.717  -2.472  0.00  0.00    -0.046 A 
ATOM     26  H   LIG d   1      10.196   9.740  -1.822  0.00  0.00     0.065 H 
ATOM     27  H   LIG d   1       9.691   7.975  -3.488  0.00  0.00     0.063 H 
BRANCH  23  28
ATOM     28  N   LIG d   1      10.841   9.307   0.701  0.00  0.00    -0.311 N 
ATOM     29  C   LIG d   1      10.316  10.674   0.552  0.00  0.00     0.037 C 
ATOM     30  C   LIG d   1      11.474  11.660   0.709  0.00  0.00     0.063 C 
ATOM     31  H   LIG d   1       9.869  10.790  -0.436  0.00  0.00     0.049 H 
ATOM     32  H   LIG d   1       9.566  10.865   1.320  0.00  0.00     0.049 H 
ATOM     33  O   LIG d   1      12.173  11.376   1.924  0.00  0.00    -0.377 OA
ATOM     34  H   LIG d   1      11.085  12.678   0.743  0.00  0.00     0.058 H 
ATOM     35  H   LIG d   1      12.155  11.557  -0.135  0.00  0.00     0.058 H 
ATOM     36  C   LIG d   1      12.776  10.081   1.963  0.00  0.00     0.063 C 
ATOM     37  C   LIG d   1      11.681   9.012   1.872  0.00  0.00     0.037 C 
ATOM     38  H   LIG d   1      13.324   9.961   2.898  0.00  0.00     0.058 H 
ATOM     39  H   LIG d   1      13.462   9.972   1.123  0.00  0.00     0.058 H 
ATOM     40  H   LIG d   1      11.071   9.033   2.775  0.00  0.00     0.049 H 
ATOM     41  H   LIG d   1      12.136   8.028   1.759  0.00  0.00     0.049 H 
ENDBRANCH  23  28
ENDBRANCH  17  19
ENDBRANCH   5  14
BRANCH   1  42
ATOM     42  C   LIG d   1       7.322   0.542  -3.600  0.00  0.00    -0.010 C 
ATOM     43  C   LIG d   1       5.994   1.229  -3.269  0.00  0.00     0.031 C 
ATOM     44  C   LIG d   1       5.167   0.317  -2.360  0.00  0.00    -0.027 C 
ATOM     45  H   LIG d   1       5.443   1.420  -4.191  0.00  0.00     0.037 H 
ATOM     46  H   LIG d   1       6.189   2.172  -2.759  0.00  0.00     0.037 H 
ATOM     47  N   LIG d   1       4.906  -0.955  -3.044  0.00  0.00     0.233 N 
ATOM     48  H   LIG d   1       4.221   0.803  -2.123  0.00  0.00     0.082 H 
ATOM     49  H   LIG d   1       5.719   0.127  -1.439  0.00  0.00     0.082 H 
ATOM     50  C   LIG d   1       6.171  -1.653  -3.300  0.00  0.00    -0.027 C 
ATOM     51  H   LIG d   1       4.439  -0.774  -3.921  0.00  0.00     0.203 HD
ATOM     52  C   LIG d   1       7.037  -0.817  -4.246  0.00  0.00     0.031 C 
ATOM     53  H   LIG d   1       6.701  -1.801  -2.360  0.00  0.00     0.082 H 
ATOM     54  H   LIG d   1       5.967  -2.621  -3.757  0.00  0.00     0.082 H 
ATOM     55  H   LIG d   1       6.508  -0.668  -5.187  0.00  0.00     0.037 H 
ATOM     56  H   LIG d   1       7.977  -1.335  -4.434  0.00  0.00     0.037 H 
ATOM     57  H   LIG d   1       7.896   0.398  -2.684  0.00  0.00     0.086 H 
BRANCH  47  58
ATOM     58  C   LIG d   1       4.047  -1.796  -2.200  0.00  0.00    -0.043 C 
ATOM     59  H   LIG d   1       4.329  -2.842  -2.322  0.00  0.00     0.078 H 
ATOM     60  H   LIG d   1       4.167  -1.507  -1.156  0.00  0.00     0.078 H 
ATOM     61  H   LIG d   1       3.006  -1.665  -2.496  0.00  0.00     0.078 H 
ENDBRANCH  47  58
ENDBRANCH   1  42
TORSDOF 5
ENDMDL
MODEL 5
REMARK VINA RESULT:      -6.5      3.306      9.688
REMARK  5 active torsions:
REMARK  status: ('A' for Active; 'I' for Inactive)
REMARK    1  A    between atoms: C_1  and  N_2 
REMARK    2  A    between atoms: C_5  and  N_8 
REMARK    3  A    between atoms: C_12  and  C_14 
REMARK    4  A    between atoms: C_16  and  C_19 
REMARK    5  A    between atoms: C_22  and  N_25 
ROOT
ATOM      1  N   LIG d   1      -0.154  -3.450 -11.677  0.00  0.00     0.246 N 
ATOM      2  C   LIG d   1      -1.083  -3.164 -12.792  0.00  0.00    -0.031 C 
ATOM      3  C   LIG d   1      -0.320  -2.164 -13.695  0.00  0.00    -0.007 C 
ATOM      4  C   LIG d   1       1.134  -2.695 -13.594  0.00  0.00     0.004 C 
ATOM      5  C   LIG d   1       1.223  -3.188 -12.134  0.00  0.00     0.060 C 
ATOM      6  H   LIG d   1       1.809  -4.107 -12.088  0.00  0.00     0.095 H 
ATOM      7  H   LIG d   1      -1.307  -4.078 -13.343  0.00  0.00     0.082 H 
ATOM      8  H   LIG d   1      -2.000  -2.713 -12.415  0.00  0.00     0.082 H 
ATOM      9  H   LIG d   1      -0.682  -2.211 -14.723  0.00  0.00     0.032 H 
ATOM     10  H   LIG d   1      -0.393  -1.149 -13.303  0.00  0.00     0.032 H 
ATOM     11  H   LIG d   1       1.293  -3.519 -14.289  0.00  0.00     0.033 H 
ATOM     12  H   LIG d   1       1.851  -1.894 -13.773  0.00  0.00     0.033 H 
ATOM     13  H   LIG d   1      -0.372  -2.851 -10.894  0.00  0.00     0.204 HD
ENDROOT
BRANCH   5  14
ATOM     14  C   LIG d   1       1.856  -2.128 -11.272  0.00  0.00     0.276 A 
ATOM     15  O   LIG d   1       2.266  -0.922 -11.689  0.00  0.00    -0.332 OA
ATOM     16  N   LIG d   1       2.792  -0.261 -10.548  0.00  0.00    -0.056 NA
ATOM     17  C   LIG d   1       2.673  -1.098  -9.546  0.00  0.00     0.204 A 
ATOM     18  N   LIG d   1       2.104  -2.230  -9.997  0.00  0.00    -0.186 NA
BRANCH  17  19
ATOM     19  C   LIG d   1       3.097  -0.839  -8.148  0.00  0.00     0.041 A 
ATOM     20  C   LIG d   1       4.105  -1.602  -7.564  0.00  0.00     0.041 A 
ATOM     21  N   LIG d   1       4.489  -1.373  -6.325  0.00  0.00    -0.240 NA
ATOM     22  H   LIG d   1       4.580  -2.386  -8.134  0.00  0.00     0.084 H 
ATOM     23  C   LIG d   1       3.931  -0.425  -5.586  0.00  0.00     0.121 A 
ATOM     24  C   LIG d   1       2.913   0.374  -6.100  0.00  0.00    -0.021 A 
ATOM     25  C   LIG d   1       2.485   0.171  -7.396  0.00  0.00    -0.046 A 
ATOM     26  H   LIG d   1       2.462   1.144  -5.491  0.00  0.00     0.065 H 
ATOM     27  H   LIG d   1       1.697   0.775  -7.820  0.00  0.00     0.063 H 
BRANCH  23  28
ATOM     28  N   LIG d   1       4.367  -0.227  -4.283  0.00  0.00    -0.311 N 
ATOM     29  C   LIG d   1       3.408   0.008  -3.191  0.00  0.00     0.037 C 
ATOM     30  C   LIG d   1       3.844   1.252  -2.419  0.00  0.00     0.063 C 
ATOM     31  H   LIG d   1       2.412   0.164  -3.605  0.00  0.00     0.049 H 
ATOM     32  H   LIG d   1       3.397  -0.853  -2.522  0.00  0.00     0.049 H 
ATOM     33  O   LIG d   1       5.217   1.117  -2.040  0.00  0.00    -0.377 OA
ATOM     34  H   LIG d   1       3.230   1.361  -1.524  0.00  0.00     0.058 H 
ATOM     35  H   LIG d   1       3.726   2.131  -3.051  0.00  0.00     0.058 H 
ATOM     36  C   LIG d   1       6.121   1.024  -3.144  0.00  0.00     0.063 C 
ATOM     37  C   LIG d   1       5.801  -0.238  -3.954  0.00  0.00     0.037 C 
ATOM     38  H   LIG d   1       7.144   0.968  -2.773  0.00  0.00     0.058 H 
ATOM     39  H   LIG d   1       6.011   1.902  -3.780  0.00  0.00     0.058 H 
ATOM     40  H   LIG d   1       6.034  -1.123  -3.362  0.00  0.00     0.049 H 
ATOM     41  H   LIG d   1       6.388  -0.244  -4.872  0.00  0.00     0.049 H 
ENDBRANCH  23  28
ENDBRANCH  17  19
ENDBRANCH   5  14
BRANCH   1  42
ATOM     42  C   LIG d   1      -0.283  -4.857 -11.274  0.00  0.00    -0.010 C 
ATOM     43  C   LIG d   1      -1.305  -4.973 -10.139  0.00  0.00     0.031 C 
ATOM     44  C   LIG d   1      -1.493  -6.449  -9.779  0.00  0.00    -0.027 C 
ATOM     45  H   LIG d   1      -2.258  -4.554 -10.463  0.00  0.00     0.037 H 
ATOM     46  H   LIG d   1      -0.944  -4.429  -9.267  0.00  0.00     0.037 H 
ATOM     47  N   LIG d   1      -1.975  -7.185 -10.953  0.00  0.00     0.233 N 
ATOM     48  H   LIG d   1      -2.219  -6.535  -8.972  0.00  0.00     0.082 H 
ATOM     49  H   LIG d   1      -0.539  -6.867  -9.455  0.00  0.00     0.082 H 
ATOM     50  C   LIG d   1      -0.970  -7.139 -12.020  0.00  0.00    -0.027 C 
ATOM     51  H   LIG d   1      -2.833  -6.766 -11.281  0.00  0.00     0.203 HD
ATOM     52  C   LIG d   1      -0.762  -5.690 -12.467  0.00  0.00     0.031 C 
ATOM     53  H   LIG d   1      -0.028  -7.542 -11.649  0.00  0.00     0.082 H 
ATOM     54  H   LIG d   1      -1.310  -7.734 -12.867  0.00  0.00     0.082 H 
ATOM     55  H   LIG d   1      -1.703  -5.285 -12.839  0.00  0.00     0.037 H 
ATOM     56  H   LIG d   1      -0.013  -5.657 -13.259  0.00  0.00     0.037 H 
ATOM     57  H   LIG d   1       0.684  -5.229 -10.934  0.00  0.00     0.086 H 
BRANCH  47  58
ATOM     58  C   LIG d   1      -2.229  -8.584 -10.581  0.00  0.00    -0.043 C 
ATOM     59  H   LIG d   1      -2.958  -9.016 -11.268  0.00  0.00     0.078 H 
ATOM     60  H   LIG d   1      -1.299  -9.150 -10.636  0.00  0.00     0.078 H 
ATOM     61  H   LIG d   1      -2.620  -8.624  -9.565  0.00  0.00     0.078 H 
ENDBRANCH  47  58
ENDBRANCH   1  42
TORSDOF 5
ENDMDL
MODEL 6
REMARK VINA RESULT:      -6.4      6.994     11.278
REMARK  5 active torsions:
REMARK  status: ('A' for Active; 'I' for Inactive)
REMARK    1  A    between atoms: C_1  and  N_2 
REMARK    2  A    between atoms: C_5  and  N_8 
REMARK    3  A    between atoms: C_12  and  C_14 
REMARK    4  A    between atoms: C_16  and  C_19 
REMARK    5  A    between atoms: C_22  and  N_25 
ROOT
ATOM      1  N   LIG d   1       7.736   1.488  -4.630  0.00  0.00     0.246 N 
ATOM      2  C   LIG d   1       7.614   1.336  -6.095  0.00  0.00    -0.031 C 
ATOM      3  C   LIG d   1       9.038   1.606  -6.640  0.00  0.00    -0.007 C 
ATOM      4  C   LIG d   1       9.922   0.953  -5.545  0.00  0.00     0.004 C 
ATOM      5  C   LIG d   1       9.139   1.245  -4.247  0.00  0.00     0.060 C 
ATOM      6  H   LIG d   1       9.198   0.386  -3.578  0.00  0.00     0.095 H 
ATOM      7  H   LIG d   1       7.296   0.324  -6.347  0.00  0.00     0.082 H 
ATOM      8  H   LIG d   1       6.910   2.066  -6.494  0.00  0.00     0.082 H 
ATOM      9  H   LIG d   1       9.187   1.117  -7.604  0.00  0.00     0.032 H 
ATOM     10  H   LIG d   1       9.233   2.676  -6.713  0.00  0.00     0.032 H 
ATOM     11  H   LIG d   1      10.010  -0.120  -5.709  0.00  0.00     0.033 H 
ATOM     12  H   LIG d   1      10.906   1.421  -5.514  0.00  0.00     0.033 H 
ATOM     13  H   LIG d   1       7.468   2.424  -4.363  0.00  0.00     0.204 HD
ENDROOT
BRANCH   5  14
ATOM     14  C   LIG d   1       9.705   2.466  -3.570  0.00  0.00     0.276 A 
ATOM     15  O   LIG d   1      10.556   2.463  -2.535  0.00  0.00    -0.332 OA
ATOM     16  N   LIG d   1      10.821   3.824  -2.230  0.00  0.00    -0.056 NA
ATOM     17  C   LIG d   1      10.121   4.537  -3.078  0.00  0.00     0.204 A 
ATOM     18  N   LIG d   1       9.446   3.702  -3.888  0.00  0.00    -0.186 NA
BRANCH  17  19
ATOM     19  C   LIG d   1      10.080   6.019  -3.135  0.00  0.00     0.041 A 
ATOM     20  C   LIG d   1      10.252   6.684  -4.346  0.00  0.00     0.041 A 
ATOM     21  N   LIG d   1      10.211   7.999  -4.403  0.00  0.00    -0.240 NA
ATOM     22  H   LIG d   1      10.417   6.115  -5.249  0.00  0.00     0.084 H 
ATOM     23  C   LIG d   1      10.018   8.738  -3.321  0.00  0.00     0.121 A 
ATOM     24  C   LIG d   1       9.843   8.144  -2.073  0.00  0.00    -0.021 A 
ATOM     25  C   LIG d   1       9.874   6.769  -1.970  0.00  0.00    -0.046 A 
ATOM     26  H   LIG d   1       9.687   8.754  -1.195  0.00  0.00     0.065 H 
ATOM     27  H   LIG d   1       9.742   6.282  -1.016  0.00  0.00     0.063 H 
BRANCH  23  28
ATOM     28  N   LIG d   1       9.989  10.122  -3.432  0.00  0.00    -0.311 N 
ATOM     29  C   LIG d   1       9.273  10.946  -2.445  0.00  0.00     0.037 C 
ATOM     30  C   LIG d   1       8.352  11.910  -3.191  0.00  0.00     0.063 C 
ATOM     31  H   LIG d   1       8.680  10.305  -1.792  0.00  0.00     0.049 H 
ATOM     32  H   LIG d   1       9.990  11.512  -1.850  0.00  0.00     0.049 H 
ATOM     33  O   LIG d   1       9.108  12.616  -4.180  0.00  0.00    -0.377 OA
ATOM     34  H   LIG d   1       7.920  12.622  -2.488  0.00  0.00     0.058 H 
ATOM     35  H   LIG d   1       7.555  11.348  -3.676  0.00  0.00     0.058 H 
ATOM     36  C   LIG d   1       9.674  11.779  -5.190  0.00  0.00     0.063 C 
ATOM     37  C   LIG d   1      10.667  10.807  -4.543  0.00  0.00     0.037 C 
ATOM     38  H   LIG d   1      10.193  12.394  -5.925  0.00  0.00     0.058 H 
ATOM     39  H   LIG d   1       8.882  11.215  -5.683  0.00  0.00     0.058 H 
ATOM     40  H   LIG d   1      11.527  11.359  -4.164  0.00  0.00     0.049 H 
ATOM     41  H   LIG d   1      10.997  10.074  -5.279  0.00  0.00     0.049 H 
ENDBRANCH  23  28
ENDBRANCH  17  19
ENDBRANCH   5  14
BRANCH   1  42
ATOM     42  C   LIG d   1       6.864   0.514  -3.957  0.00  0.00    -0.010 C 
ATOM     43  C   LIG d   1       5.871   1.253  -3.056  0.00  0.00     0.031 C 
ATOM     44  C   LIG d   1       4.916   0.240  -2.421  0.00  0.00    -0.027 C 
ATOM     45  H   LIG d   1       5.300   1.966  -3.652  0.00  0.00     0.037 H 
ATOM     46  H   LIG d   1       6.413   1.783  -2.273  0.00  0.00     0.037 H 
ATOM     47  N   LIG d   1       4.187  -0.477  -3.474  0.00  0.00     0.233 N 
ATOM     48  H   LIG d   1       4.207   0.762  -1.779  0.00  0.00     0.082 H 
ATOM     49  H   LIG d   1       5.487  -0.473  -1.826  0.00  0.00     0.082 H 
ATOM     50  C   LIG d   1       5.126  -1.246  -4.298  0.00  0.00    -0.027 C 
ATOM     51  H   LIG d   1       3.698   0.189  -4.054  0.00  0.00     0.203 HD
ATOM     52  C   LIG d   1       6.090  -0.289  -5.006  0.00  0.00     0.031 C 
ATOM     53  H   LIG d   1       5.693  -1.926  -3.663  0.00  0.00     0.082 H 
ATOM     54  H   LIG d   1       4.574  -1.819  -5.041  0.00  0.00     0.082 H 
ATOM     55  H   LIG d   1       5.524   0.392  -5.641  0.00  0.00     0.037 H 
ATOM     56  H   LIG d   1       6.788  -0.862  -5.616  0.00  0.00     0.037 H 
ATOM     57  H   LIG d   1       7.471  -0.162  -3.353  0.00  0.00     0.086 H 
BRANCH  47  58
ATOM     58  C   LIG d   1       3.215  -1.392  -2.858  0.00  0.00    -0.043 C 
ATOM     59  H   LIG d   1       2.618  -0.848  -2.126  0.00  0.00     0.078 H 
ATOM     60  H   LIG d   1       2.562  -1.801  -3.628  0.00  0.00     0.078 H 
ATOM     61  H   LIG d   1       3.746  -2.205  -2.362  0.00  0.00     0.078 H 
ENDBRANCH  47  58
ENDBRANCH   1  42
TORSDOF 5
ENDMDL
MODEL 7
REMARK VINA RESULT:      -6.4      4.698     10.034
REMARK  5 active torsions:
REMARK  status: ('A' for Active; 'I' for Inactive)
REMARK    1  A    between atoms: C_1  and  N_2 
REMARK    2  A    between atoms: C_5  and  N_8 
REMARK    3  A    between atoms: C_12  and  C_14 
REMARK    4  A    between atoms: C_16  and  C_19 
REMARK    5  A    between atoms: C_22  and  N_25 
ROOT
ATOM      1  N   LIG d   1       5.168  -1.365  -4.925  0.00  0.00     0.246 N 
ATOM      2  C   LIG d   1       4.208  -1.072  -3.840  0.00  0.00    -0.031 C 
ATOM      3  C   LIG d   1       5.089  -0.662  -2.634  0.00  0.00    -0.007 C 
ATOM      4  C   LIG d   1       6.225   0.132  -3.330  0.00  0.00     0.004 C 
ATOM      5  C   LIG d   1       6.418  -0.631  -4.658  0.00  0.00     0.060 C 
ATOM      6  H   LIG d   1       6.614   0.075  -5.466  0.00  0.00     0.095 H 
ATOM      7  H   LIG d   1       3.550  -0.250  -4.126  0.00  0.00     0.082 H 
ATOM      8  H   LIG d   1       3.624  -1.960  -3.600  0.00  0.00     0.082 H 
ATOM      9  H   LIG d   1       4.534  -0.025  -1.943  0.00  0.00     0.032 H 
ATOM     10  H   LIG d   1       5.482  -1.540  -2.121  0.00  0.00     0.032 H 
ATOM     11  H   LIG d   1       5.918   1.160  -3.517  0.00  0.00     0.033 H 
ATOM     12  H   LIG d   1       7.137   0.103  -2.734  0.00  0.00     0.033 H 
ATOM     13  H   LIG d   1       5.355  -2.356  -4.953  0.00  0.00     0.204 HD
ENDROOT
BRANCH   5  14
ATOM     14  C   LIG d   1       7.564  -1.600  -4.531  0.00  0.00     0.276 A 
ATOM     15  O   LIG d   1       8.778  -1.453  -5.081  0.00  0.00    -0.332 OA
ATOM     16  N   LIG d   1       9.531  -2.594  -4.699  0.00  0.00    -0.056 NA
ATOM     17  C   LIG d   1       8.735  -3.337  -3.969  0.00  0.00     0.204 A 
ATOM     18  N   LIG d   1       7.543  -2.724  -3.873  0.00  0.00    -0.186 NA
BRANCH  17  19
ATOM     19  C   LIG d   1       9.092  -4.638  -3.352  0.00  0.00     0.041 A 
ATOM     20  C   LIG d   1       8.916  -5.825  -4.057  0.00  0.00     0.041 A 
ATOM     21  N   LIG d   1       9.237  -6.983  -3.516  0.00  0.00    -0.240 NA
ATOM     22  H   LIG d   1       8.517  -5.797  -5.060  0.00  0.00     0.084 H 
ATOM     23  C   LIG d   1       9.725  -7.066  -2.287  0.00  0.00     0.121 A 
ATOM     24  C   LIG d   1       9.924  -5.922  -1.518  0.00  0.00    -0.021 A 
ATOM     25  C   LIG d   1       9.606  -4.689  -2.050  0.00  0.00    -0.046 A 
ATOM     26  H   LIG d   1      10.321  -5.999  -0.517  0.00  0.00     0.065 H 
ATOM     27  H   LIG d   1       9.749  -3.786  -1.477  0.00  0.00     0.063 H 
BRANCH  23  28
ATOM     28  N   LIG d   1      10.042  -8.311  -1.759  0.00  0.00    -0.311 N 
ATOM     29  C   LIG d   1       9.216  -9.492  -2.057  0.00  0.00     0.037 C 
ATOM     30  C   LIG d   1       8.863 -10.184  -0.740  0.00  0.00     0.063 C 
ATOM     31  H   LIG d   1       8.302  -9.182  -2.564  0.00  0.00     0.049 H 
ATOM     32  H   LIG d   1       9.774 -10.179  -2.693  0.00  0.00     0.049 H 
ATOM     33  O   LIG d   1      10.060 -10.418   0.006  0.00  0.00    -0.377 OA
ATOM     34  H   LIG d   1       8.372 -11.135  -0.947  0.00  0.00     0.058 H 
ATOM     35  H   LIG d   1       8.193  -9.546  -0.164  0.00  0.00     0.058 H 
ATOM     36  C   LIG d   1      10.756  -9.227   0.382  0.00  0.00     0.063 C 
ATOM     37  C   LIG d   1      11.209  -8.487  -0.881  0.00  0.00     0.037 C 
ATOM     38  H   LIG d   1      11.628  -9.489   0.983  0.00  0.00     0.058 H 
ATOM     39  H   LIG d   1      10.094  -8.585   0.963  0.00  0.00     0.058 H 
ATOM     40  H   LIG d   1      11.971  -9.071  -1.397  0.00  0.00     0.049 H 
ATOM     41  H   LIG d   1      11.614  -7.511  -0.611  0.00  0.00     0.049 H 
ENDBRANCH  23  28
ENDBRANCH  17  19
ENDBRANCH   5  14
BRANCH   1  42
ATOM     42  C   LIG d   1       4.606  -0.932  -6.213  0.00  0.00    -0.010 C 
ATOM     43  C   LIG d   1       3.388  -0.037  -5.964  0.00  0.00     0.031 C 
ATOM     44  C   LIG d   1       2.856   0.473  -7.306  0.00  0.00    -0.027 C 
ATOM     45  H   LIG d   1       3.679   0.810  -5.343  0.00  0.00     0.037 H 
ATOM     46  H   LIG d   1       2.611  -0.611  -5.459  0.00  0.00     0.037 H 
ATOM     47  N   LIG d   1       3.901   1.243  -7.990  0.00  0.00     0.233 N 
ATOM     48  H   LIG d   1       1.989   1.111  -7.133  0.00  0.00     0.082 H 
ATOM     49  H   LIG d   1       2.565  -0.375  -7.927  0.00  0.00     0.082 H 
ATOM     50  C   LIG d   1       5.043   0.374  -8.295  0.00  0.00    -0.027 C 
ATOM     51  H   LIG d   1       4.205   1.999  -7.393  0.00  0.00     0.203 HD
ATOM     52  C   LIG d   1       5.660  -0.140  -6.992  0.00  0.00     0.031 C 
ATOM     53  H   LIG d   1       4.706  -0.472  -8.894  0.00  0.00     0.082 H 
ATOM     54  H   LIG d   1       5.790   0.938  -8.852  0.00  0.00     0.082 H 
ATOM     55  H   LIG d   1       5.998   0.704  -6.391  0.00  0.00     0.037 H 
ATOM     56  H   LIG d   1       6.506  -0.787  -7.220  0.00  0.00     0.037 H 
ATOM     57  H   LIG d   1       4.304  -1.806  -6.791  0.00  0.00     0.086 H 
BRANCH  47  58
ATOM     58  C   LIG d   1       3.361   1.797  -9.239  0.00  0.00    -0.043 C 
ATOM     59  H   LIG d   1       2.622   2.564  -9.007  0.00  0.00     0.078 H 
ATOM     60  H   LIG d   1       4.170   2.237  -9.822  0.00  0.00     0.078 H 
ATOM     61  H   LIG d   1       2.889   1.001  -9.814  0.00  0.00     0.078 H 
ENDBRANCH  47  58
ENDBRANCH   1  42
TORSDOF 5
ENDMDL
MODEL 8
REMARK VINA RESULT:      -6.4      5.661     10.371
REMARK  5 active torsions:
REMARK  status: ('A' for Active; 'I' for Inactive)
REMARK    1  A    between atoms: C_1  and  N_2 
REMARK    2  A    between atoms: C_5  and  N_8 
REMARK    3  A    between atoms: C_12  and  C_14 
REMARK    4  A    between atoms: C_16  and  C_19 
REMARK    5  A    between atoms: C_22  and  N_25 
ROOT
ATOM      1  N   LIG d   1       5.285  -1.122  -3.499  0.00  0.00     0.246 N 
ATOM      2  C   LIG d   1       4.494  -1.187  -2.252  0.00  0.00    -0.031 C 
ATOM      3  C   LIG d   1       4.615   0.228  -1.633  0.00  0.00    -0.007 C 
ATOM      4  C   LIG d   1       4.588   1.126  -2.898  0.00  0.00     0.004 C 
ATOM      5  C   LIG d   1       5.355   0.283  -3.939  0.00  0.00     0.060 C 
ATOM      6  H   LIG d   1       4.887   0.388  -4.918  0.00  0.00     0.095 H 
ATOM      7  H   LIG d   1       3.451  -1.416  -2.475  0.00  0.00     0.082 H 
ATOM      8  H   LIG d   1       4.911  -1.934  -1.576  0.00  0.00     0.082 H 
ATOM      9  H   LIG d   1       3.765   0.444  -0.983  0.00  0.00     0.032 H 
ATOM     10  H   LIG d   1       5.555   0.339  -1.094  0.00  0.00     0.032 H 
ATOM     11  H   LIG d   1       3.564   1.303  -3.223  0.00  0.00     0.033 H 
ATOM     12  H   LIG d   1       5.103   2.069  -2.712  0.00  0.00     0.033 H 
ATOM     13  H   LIG d   1       6.216  -1.471  -3.327  0.00  0.00     0.204 HD
ENDROOT
BRANCH   5  14
ATOM     14  C   LIG d   1       6.792   0.730  -4.003  0.00  0.00     0.276 A 
ATOM     15  O   LIG d   1       7.830  -0.026  -4.387  0.00  0.00    -0.332 OA
ATOM     16  N   LIG d   1       8.982   0.799  -4.296  0.00  0.00    -0.056 NA
ATOM     17  C   LIG d   1       8.569   1.966  -3.865  0.00  0.00     0.204 A 
ATOM     18  N   LIG d   1       7.236   1.913  -3.690  0.00  0.00    -0.186 NA
BRANCH  17  19
ATOM     19  C   LIG d   1       9.429   3.148  -3.612  0.00  0.00     0.041 A 
ATOM     20  C   LIG d   1      10.459   3.084  -2.678  0.00  0.00     0.041 A 
ATOM     21  N   LIG d   1      11.230   4.128  -2.453  0.00  0.00    -0.240 NA
ATOM     22  H   LIG d   1      10.632   2.167  -2.134  0.00  0.00     0.084 H 
ATOM     23  C   LIG d   1      11.052   5.276  -3.092  0.00  0.00     0.121 A 
ATOM     24  C   LIG d   1      10.038   5.417  -4.037  0.00  0.00    -0.021 A 
ATOM     25  C   LIG d   1       9.212   4.346  -4.305  0.00  0.00    -0.046 A 
ATOM     26  H   LIG d   1       9.899   6.357  -4.552  0.00  0.00     0.065 H 
ATOM     27  H   LIG d   1       8.418   4.427  -5.032  0.00  0.00     0.063 H 
BRANCH  23  28
ATOM     28  N   LIG d   1      11.887   6.350  -2.816  0.00  0.00    -0.311 N 
ATOM     29  C   LIG d   1      13.314   6.143  -2.521  0.00  0.00     0.037 C 
ATOM     30  C   LIG d   1      13.659   6.888  -1.232  0.00  0.00     0.063 C 
ATOM     31  H   LIG d   1      13.512   5.079  -2.393  0.00  0.00     0.049 H 
ATOM     32  H   LIG d   1      13.918   6.532  -3.341  0.00  0.00     0.049 H 
ATOM     33  O   LIG d   1      13.222   8.246  -1.340  0.00  0.00    -0.377 OA
ATOM     34  H   LIG d   1      14.737   6.865  -1.073  0.00  0.00     0.058 H 
ATOM     35  H   LIG d   1      13.156   6.410  -0.392  0.00  0.00     0.058 H 
ATOM     36  C   LIG d   1      11.810   8.395  -1.494  0.00  0.00     0.063 C 
ATOM     37  C   LIG d   1      11.371   7.727  -2.803  0.00  0.00     0.037 C 
ATOM     38  H   LIG d   1      11.556   9.455  -1.524  0.00  0.00     0.058 H 
ATOM     39  H   LIG d   1      11.299   7.922  -0.655  0.00  0.00     0.058 H 
ATOM     40  H   LIG d   1      11.776   8.279  -3.650  0.00  0.00     0.049 H 
ATOM     41  H   LIG d   1      10.282   7.711  -2.860  0.00  0.00     0.049 H 
ENDBRANCH  23  28
ENDBRANCH  17  19
ENDBRANCH   5  14
BRANCH   1  42
ATOM     42  C   LIG d   1       4.637  -1.935  -4.538  0.00  0.00    -0.010 C 
ATOM     43  C   LIG d   1       4.837  -1.272  -5.904  0.00  0.00     0.031 C 
ATOM     44  C   LIG d   1       4.229  -2.163  -6.990  0.00  0.00    -0.027 C 
ATOM     45  H   LIG d   1       5.902  -1.143  -6.094  0.00  0.00     0.037 H 
ATOM     46  H   LIG d   1       4.344  -0.300  -5.913  0.00  0.00     0.037 H 
ATOM     47  N   LIG d   1       4.888  -3.474  -6.978  0.00  0.00     0.233 N 
ATOM     48  H   LIG d   1       4.369  -1.694  -7.964  0.00  0.00     0.082 H 
ATOM     49  H   LIG d   1       3.163  -2.291  -6.799  0.00  0.00     0.082 H 
ATOM     50  C   LIG d   1       4.641  -4.146  -5.698  0.00  0.00    -0.027 C 
ATOM     51  H   LIG d   1       5.882  -3.349  -7.106  0.00  0.00     0.203 HD
ATOM     52  C   LIG d   1       5.265  -3.331  -4.561  0.00  0.00     0.031 C 
ATOM     53  H   LIG d   1       3.567  -4.231  -5.534  0.00  0.00     0.082 H 
ATOM     54  H   LIG d   1       5.085  -5.140  -5.717  0.00  0.00     0.082 H 
ATOM     55  H   LIG d   1       6.339  -3.245  -4.723  0.00  0.00     0.037 H 
ATOM     56  H   LIG d   1       5.078  -3.831  -3.611  0.00  0.00     0.037 H 
ATOM     57  H   LIG d   1       3.571  -2.017  -4.325  0.00  0.00     0.086 H 
BRANCH  47  58
ATOM     58  C   LIG d   1       4.356  -4.298  -8.073  0.00  0.00    -0.043 C 
ATOM     59  H   LIG d   1       4.330  -3.709  -8.990  0.00  0.00     0.078 H 
ATOM     60  H   LIG d   1       4.996  -5.168  -8.218  0.00  0.00     0.078 H 
ATOM     61  H   LIG d   1       3.347  -4.625  -7.823  0.00  0.00     0.078 H 
ENDBRANCH  47  58
ENDBRANCH   1  42
TORSDOF 5
ENDMDL
MODEL 9
REMARK VINA RESULT:      -6.3      6.447      9.808
REMARK  5 active torsions:
REMARK  status: ('A' for Active; 'I' for Inactive)
REMARK    1  A    between atoms: C_1  and  N_2 
REMARK    2  A    between atoms: C_5  and  N_8 
REMARK    3  A    between atoms: C_12  and  C_14 
REMARK    4  A    between atoms: C_16  and  C_19 
REMARK    5  A    between atoms: C_22  and  N_25 
ROOT
ATOM      1  N   LIG d   1      10.531   6.393  -2.375  0.00  0.00     0.246 N 
ATOM      2  C   LIG d   1      10.534   6.581  -0.908  0.00  0.00    -0.031 C 
ATOM      3  C   LIG d   1      11.336   5.377  -0.357  0.00  0.00    -0.007 C 
ATOM      4  C   LIG d   1      12.436   5.211  -1.439  0.00  0.00     0.004 C 
ATOM      5  C   LIG d   1      11.695   5.568  -2.745  0.00  0.00     0.060 C 
ATOM      6  H   LIG d   1      12.356   6.133  -3.404  0.00  0.00     0.095 H 
ATOM      7  H   LIG d   1      11.027   7.518  -0.646  0.00  0.00     0.082 H 
ATOM      8  H   LIG d   1       9.515   6.567  -0.522  0.00  0.00     0.082 H 
ATOM      9  H   LIG d   1      11.776   5.611   0.613  0.00  0.00     0.032 H 
ATOM     10  H   LIG d   1      10.711   4.486  -0.295  0.00  0.00     0.032 H 
ATOM     11  H   LIG d   1      13.259   5.903  -1.261  0.00  0.00     0.033 H 
ATOM     12  H   LIG d   1      12.796   4.183  -1.469  0.00  0.00     0.033 H 
ATOM     13  H   LIG d   1       9.681   5.927  -2.654  0.00  0.00     0.204 HD
ENDROOT
BRANCH   5  14
ATOM     14  C   LIG d   1      11.234   4.310  -3.432  0.00  0.00     0.276 A 
ATOM     15  O   LIG d   1      11.945   3.595  -4.316  0.00  0.00    -0.332 OA
ATOM     16  N   LIG d   1      11.125   2.501  -4.698  0.00  0.00    -0.056 NA
ATOM     17  C   LIG d   1       9.999   2.633  -4.040  0.00  0.00     0.204 A 
ATOM     18  N   LIG d   1      10.075   3.735  -3.274  0.00  0.00    -0.186 NA
BRANCH  17  19
ATOM     19  C   LIG d   1       8.835   1.718  -4.126  0.00  0.00     0.041 A 
ATOM     20  C   LIG d   1       7.598   2.099  -3.613  0.00  0.00     0.041 A 
ATOM     21  N   LIG d   1       6.560   1.293  -3.691  0.00  0.00    -0.240 NA
ATOM     22  H   LIG d   1       7.488   3.068  -3.148  0.00  0.00     0.084 H 
ATOM     23  C   LIG d   1       6.649   0.093  -4.247  0.00  0.00     0.121 A 
ATOM     24  C   LIG d   1       7.854  -0.360  -4.777  0.00  0.00    -0.021 A 
ATOM     25  C   LIG d   1       8.965   0.456  -4.720  0.00  0.00    -0.046 A 
ATOM     26  H   LIG d   1       7.919  -1.340  -5.228  0.00  0.00     0.065 H 
ATOM     27  H   LIG d   1       9.912   0.130  -5.123  0.00  0.00     0.063 H 
BRANCH  23  28
ATOM     28  N   LIG d   1       5.526  -0.722  -4.300  0.00  0.00    -0.311 N 
ATOM     29  C   LIG d   1       4.303  -0.281  -4.990  0.00  0.00     0.037 C 
ATOM     30  C   LIG d   1       3.115  -0.479  -4.048  0.00  0.00     0.063 C 
ATOM     31  H   LIG d   1       4.389   0.773  -5.253  0.00  0.00     0.049 H 
ATOM     32  H   LIG d   1       4.156  -0.874  -5.893  0.00  0.00     0.049 H 
ATOM     33  O   LIG d   1       3.119  -1.823  -3.558  0.00  0.00    -0.377 OA
ATOM     34  H   LIG d   1       2.186  -0.292  -4.587  0.00  0.00     0.058 H 
ATOM     35  H   LIG d   1       3.197   0.214  -3.211  0.00  0.00     0.058 H 
ATOM     36  C   LIG d   1       4.272  -2.158  -2.784  0.00  0.00     0.063 C 
ATOM     37  C   LIG d   1       5.522  -2.049  -3.665  0.00  0.00     0.037 C 
ATOM     38  H   LIG d   1       4.178  -3.179  -2.412  0.00  0.00     0.058 H 
ATOM     39  H   LIG d   1       4.359  -1.472  -1.941  0.00  0.00     0.058 H 
ATOM     40  H   LIG d   1       5.500  -2.823  -4.432  0.00  0.00     0.049 H 
ATOM     41  H   LIG d   1       6.416  -2.164  -3.051  0.00  0.00     0.049 H 
ENDBRANCH  23  28
ENDBRANCH  17  19
ENDBRANCH   5  14
BRANCH   1  42
ATOM     42  C   LIG d   1      10.619   7.700  -3.041  0.00  0.00    -0.010 C 
ATOM     43  C   LIG d   1       9.874   7.644  -4.378  0.00  0.00     0.031 C 
ATOM     44  C   LIG d   1       9.903   9.029  -5.029  0.00  0.00    -0.027 C 
ATOM     45  H   LIG d   1       8.841   7.344  -4.206  0.00  0.00     0.037 H 
ATOM     46  H   LIG d   1      10.360   6.923  -5.035  0.00  0.00     0.037 H 
ATOM     47  N   LIG d   1       9.253  10.003  -4.144  0.00  0.00     0.233 N 
ATOM     48  H   LIG d   1       9.374   8.994  -5.981  0.00  0.00     0.082 H 
ATOM     49  H   LIG d   1      10.938   9.328  -5.200  0.00  0.00     0.082 H 
ATOM     50  C   LIG d   1      10.003  10.115  -2.888  0.00  0.00    -0.027 C 
ATOM     51  H   LIG d   1       8.311   9.699  -3.947  0.00  0.00     0.203 HD
ATOM     52  C   LIG d   1       9.979   8.772  -2.154  0.00  0.00     0.031 C 
ATOM     53  H   LIG d   1      11.035  10.390  -3.104  0.00  0.00     0.082 H 
ATOM     54  H   LIG d   1       9.548  10.879  -2.259  0.00  0.00     0.082 H 
ATOM     55  H   LIG d   1       8.947   8.494  -1.937  0.00  0.00     0.037 H 
ATOM     56  H   LIG d   1      10.538   8.856  -1.222  0.00  0.00     0.037 H 
ATOM     57  H   LIG d   1      11.666   7.950  -3.217  0.00  0.00     0.086 H 
BRANCH  47  58
ATOM     58  C   LIG d   1       9.213  11.314  -4.807  0.00  0.00    -0.043 C 
ATOM     59  H   LIG d   1       8.335  11.368  -5.451  0.00  0.00     0.078 H 
ATOM     60  H   LIG d   1       9.160  12.101  -4.055  0.00  0.00     0.078 H 
ATOM     61  H   LIG d   1      10.112  11.444  -5.408  0.00  0.00     0.078 H 
ENDBRANCH  47  58
ENDBRANCH   1  42
TORSDOF 5
ENDMDL
