MODEL 1
REMARK VINA RESULT:      -6.3      0.000      0.000
REMARK  9 active torsions:
REMARK  status: ('A' for Active; 'I' for Inactive)
REMARK    1  A    between atoms: C_1  and  O_2 
REMARK    2  A    between atoms: O_2  and  C_3 
REMARK    3  A    between atoms: C_8  and  O_9 
REMARK    4  A    between atoms: O_9  and  C_10 
REMARK    5  A    between atoms: C_13  and  N_20 
REMARK    6  A    between atoms: N_20  and  C_21 
REMARK    7  A    between atoms: C_21  and  C_22 
REMARK    8  A    between atoms: C_22  and  C_23 
REMARK    9  A    between atoms: C_23  and  N_24 
ROOT
ATOM      1  C   LIG d   1       1.584  -2.439 -13.033  0.00  0.00     0.162 A 
ATOM      2  C   LIG d   1       2.660  -1.560 -13.100  0.00  0.00    -0.012 A 
ATOM      3  C   LIG d   1       3.072  -0.899 -11.970  0.00  0.00    -0.033 A 
ATOM      4  C   LIG d   1       2.411  -1.104 -10.750  0.00  0.00     0.006 A 
ATOM      5  C   LIG d   1       1.334  -1.985 -10.683  0.00  0.00    -0.007 A 
ATOM      6  C   LIG d   1       0.928  -2.655 -11.823  0.00  0.00     0.162 A 
ATOM      7  C   LIG d   1       2.884  -0.362  -9.567  0.00  0.00     0.057 A 
ATOM      8  C   LIG d   1       2.607  -0.791  -8.301  0.00  0.00     0.003 A 
ATOM      9  C   LIG d   1       3.099  -0.044  -7.216  0.00  0.00     0.126 A 
ATOM     10  N   LIG d   1       3.816   1.051  -7.441  0.00  0.00    -0.178 NA
ATOM     11  C   LIG d   1       4.078   1.463  -8.679  0.00  0.00     0.351 A 
ATOM     12  O   LIG d   1       4.744   2.471  -8.848  0.00  0.00    -0.244 OA
ATOM     13  N   LIG d   1       3.620   0.786  -9.746  0.00  0.00    -0.292 N 
ATOM     14  C   LIG d   1       3.892   1.261 -11.108  0.00  0.00     0.032 C 
ATOM     15  C   LIG d   1       4.240   0.057 -11.996  0.00  0.00    -0.009 C 
ATOM     16  H   LIG d   1       3.168  -1.398 -14.038  0.00  0.00     0.066 H 
ATOM     17  H   LIG d   1       0.824  -2.147  -9.745  0.00  0.00     0.066 H 
ATOM     18  H   LIG d   1       2.025  -1.685  -8.136  0.00  0.00     0.067 H 
ATOM     19  H   LIG d   1       4.732   1.956 -11.090  0.00  0.00     0.050 H 
ATOM     20  H   LIG d   1       3.009   1.764 -11.503  0.00  0.00     0.050 H 
ATOM     21  H   LIG d   1       5.131  -0.439 -11.611  0.00  0.00     0.033 H 
ATOM     22  H   LIG d   1       4.418   0.393 -13.018  0.00  0.00     0.033 H 
ENDROOT
BRANCH   9  23
ATOM     23  N   LIG d   1       2.837  -0.446  -5.925  0.00  0.00    -0.329 NA
ATOM     24  H   LIG d   1       1.951  -0.909  -5.893  0.00  0.00     0.147 HD
BRANCH  23  25
ATOM     25  C   LIG d   1       2.756   0.546  -4.851  0.00  0.00     0.012 C 
ATOM     26  H   LIG d   1       3.603   1.229  -4.922  0.00  0.00     0.046 H 
ATOM     27  H   LIG d   1       1.828   1.109  -4.945  0.00  0.00     0.046 H 
BRANCH  25  28
ATOM     28  C   LIG d   1       2.787  -0.164  -3.496  0.00  0.00    -0.019 C 
ATOM     29  H   LIG d   1       1.823  -0.044  -3.001  0.00  0.00     0.030 H 
ATOM     30  H   LIG d   1       2.989  -1.224  -3.646  0.00  0.00     0.030 H 
BRANCH  28  31
ATOM     31  C   LIG d   1       3.887   0.446  -2.624  0.00  0.00     0.030 C 
ATOM     32  H   LIG d   1       3.967   1.512  -2.835  0.00  0.00     0.049 H 
ATOM     33  H   LIG d   1       3.638   0.301  -1.573  0.00  0.00     0.049 H 
BRANCH  31  34
ATOM     34  N   LIG d   1       5.164  -0.208  -2.919  0.00  0.00    -0.296 N 
ATOM     35  C   LIG d   1       6.337   0.407  -3.177  0.00  0.00     0.246 A 
ATOM     36  H   LIG d   1       6.497   1.474  -3.202  0.00  0.00     0.160 H 
ATOM     37  N   LIG d   1       7.246  -0.504  -3.392  0.00  0.00    -0.201 N 
ATOM     38  C   LIG d   1       6.693  -1.720  -3.282  0.00  0.00     0.187 A 
ATOM     39  H   LIG d   1       8.232  -0.318  -3.613  0.00  0.00     0.454 HD
ATOM     40  C   LIG d   1       5.390  -1.557  -2.981  0.00  0.00     0.073 A 
ATOM     41  H   LIG d   1       7.202  -2.664  -3.407  0.00  0.00     0.139 H 
ATOM     42  H   LIG d   1       4.663  -2.340  -2.820  0.00  0.00     0.087 H 
ENDBRANCH  31  34
ENDBRANCH  28  31
ENDBRANCH  25  28
ENDBRANCH  23  25
ENDBRANCH   9  23
BRANCH   6  43
ATOM     43  O   LIG d   1      -0.119  -3.521 -11.763  0.00  0.00    -0.491 OA
BRANCH  43  44
ATOM     44  C   LIG d   1       0.038  -4.673 -10.931  0.00  0.00     0.079 C 
ATOM     45  H   LIG d   1       1.022  -5.111 -11.100  0.00  0.00     0.066 H 
ATOM     46  H   LIG d   1      -0.056  -4.381  -9.886  0.00  0.00     0.066 H 
ATOM     47  H   LIG d   1      -0.732  -5.405 -11.175  0.00  0.00     0.066 H 
ENDBRANCH  43  44
ENDBRANCH   6  43
BRANCH   1  48
ATOM     48  O   LIG d   1       1.175  -3.094 -14.150  0.00  0.00    -0.491 OA
BRANCH  48  49
ATOM     49  C   LIG d   1       1.403  -2.446 -15.403  0.00  0.00     0.079 C 
ATOM     50  H   LIG d   1       2.473  -2.292 -15.543  0.00  0.00     0.066 H 
ATOM     51  H   LIG d   1       1.016  -3.069 -16.209  0.00  0.00     0.066 H 
ATOM     52  H   LIG d   1       0.894  -1.482 -15.411  0.00  0.00     0.066 H 
ENDBRANCH  48  49
ENDBRANCH   1  48
TORSDOF 9
ENDMDL
MODEL 2
REMARK VINA RESULT:      -6.2      6.738     11.462
REMARK  9 active torsions:
REMARK  status: ('A' for Active; 'I' for Inactive)
REMARK    1  A    between atoms: C_1  and  O_2 
REMARK    2  A    between atoms: O_2  and  C_3 
REMARK    3  A    between atoms: C_8  and  O_9 
REMARK    4  A    between atoms: O_9  and  C_10 
REMARK    5  A    between atoms: C_13  and  N_20 
REMARK    6  A    between atoms: N_20  and  C_21 
REMARK    7  A    between atoms: C_21  and  C_22 
REMARK    8  A    between atoms: C_22  and  C_23 
REMARK    9  A    between atoms: C_23  and  N_24 
ROOT
ATOM      1  C   LIG d   1      10.079   7.888  -1.770  0.00  0.00     0.162 A 
ATOM      2  C   LIG d   1       9.888   7.965  -3.146  0.00  0.00    -0.012 A 
ATOM      3  C   LIG d   1       9.754   6.815  -3.882  0.00  0.00    -0.033 A 
ATOM      4  C   LIG d   1       9.809   5.562  -3.253  0.00  0.00     0.006 A 
ATOM      5  C   LIG d   1       9.999   5.485  -1.875  0.00  0.00    -0.007 A 
ATOM      6  C   LIG d   1      10.127   6.648  -1.137  0.00  0.00     0.162 A 
ATOM      7  C   LIG d   1       9.670   4.355  -4.087  0.00  0.00     0.057 A 
ATOM      8  C   LIG d   1       9.291   3.159  -3.551  0.00  0.00     0.003 A 
ATOM      9  C   LIG d   1       9.165   2.050  -4.405  0.00  0.00     0.126 A 
ATOM     10  N   LIG d   1       9.411   2.185  -5.703  0.00  0.00    -0.178 NA
ATOM     11  C   LIG d   1       9.783   3.355  -6.217  0.00  0.00     0.351 A 
ATOM     12  O   LIG d   1       9.997   3.444  -7.414  0.00  0.00    -0.244 OA
ATOM     13  N   LIG d   1       9.926   4.440  -5.436  0.00  0.00    -0.292 N 
ATOM     14  C   LIG d   1      10.360   5.721  -6.007  0.00  0.00     0.032 C 
ATOM     15  C   LIG d   1       9.537   6.854  -5.375  0.00  0.00    -0.009 C 
ATOM     16  H   LIG d   1       9.848   8.928  -3.633  0.00  0.00     0.066 H 
ATOM     17  H   LIG d   1      10.040   4.523  -1.386  0.00  0.00     0.066 H 
ATOM     18  H   LIG d   1       9.092   3.067  -2.494  0.00  0.00     0.067 H 
ATOM     19  H   LIG d   1      10.201   5.712  -7.086  0.00  0.00     0.050 H 
ATOM     20  H   LIG d   1      11.418   5.876  -5.795  0.00  0.00     0.050 H 
ATOM     21  H   LIG d   1       8.480   6.708  -5.599  0.00  0.00     0.033 H 
ATOM     22  H   LIG d   1       9.868   7.814  -5.771  0.00  0.00     0.033 H 
ENDROOT
BRANCH   9  23
ATOM     23  N   LIG d   1       8.788   0.826  -3.897  0.00  0.00    -0.329 NA
ATOM     24  H   LIG d   1       9.339   0.105  -4.317  0.00  0.00     0.147 HD
BRANCH  23  25
ATOM     25  C   LIG d   1       7.409   0.358  -4.062  0.00  0.00     0.012 C 
ATOM     26  H   LIG d   1       6.876   0.456  -3.116  0.00  0.00     0.046 H 
ATOM     27  H   LIG d   1       6.911   0.957  -4.824  0.00  0.00     0.046 H 
BRANCH  25  28
ATOM     28  C   LIG d   1       7.417  -1.111  -4.491  0.00  0.00    -0.019 C 
ATOM     29  H   LIG d   1       6.807  -1.230  -5.387  0.00  0.00     0.030 H 
ATOM     30  H   LIG d   1       8.439  -1.422  -4.704  0.00  0.00     0.030 H 
BRANCH  28  31
ATOM     31  C   LIG d   1       6.846  -1.975  -3.365  0.00  0.00     0.030 C 
ATOM     32  H   LIG d   1       7.122  -3.016  -3.531  0.00  0.00     0.049 H 
ATOM     33  H   LIG d   1       7.249  -1.639  -2.410  0.00  0.00     0.049 H 
BRANCH  31  34
ATOM     34  N   LIG d   1       5.386  -1.854  -3.349  0.00  0.00    -0.296 N 
ATOM     35  C   LIG d   1       4.550  -2.107  -4.378  0.00  0.00     0.246 A 
ATOM     36  H   LIG d   1       4.845  -2.435  -5.363  0.00  0.00     0.160 H 
ATOM     37  N   LIG d   1       3.326  -1.887  -3.984  0.00  0.00    -0.201 N 
ATOM     38  C   LIG d   1       3.335  -1.490  -2.703  0.00  0.00     0.187 A 
ATOM     39  H   LIG d   1       2.486  -2.000  -4.564  0.00  0.00     0.454 HD
ATOM     40  C   LIG d   1       4.615  -1.468  -2.285  0.00  0.00     0.073 A 
ATOM     41  H   LIG d   1       2.469  -1.237  -2.110  0.00  0.00     0.139 H 
ATOM     42  H   LIG d   1       4.967  -1.196  -1.300  0.00  0.00     0.087 H 
ENDBRANCH  31  34
ENDBRANCH  28  31
ENDBRANCH  25  28
ENDBRANCH  23  25
ENDBRANCH   9  23
BRANCH   6  43
ATOM     43  O   LIG d   1      10.306   6.579   0.210  0.00  0.00    -0.491 OA
BRANCH  43  44
ATOM     44  C   LIG d   1      11.398   5.787   0.680  0.00  0.00     0.079 C 
ATOM     45  H   LIG d   1      11.033   4.803   0.975  0.00  0.00     0.066 H 
ATOM     46  H   LIG d   1      12.136   5.678  -0.115  0.00  0.00     0.066 H 
ATOM     47  H   LIG d   1      11.859   6.276   1.538  0.00  0.00     0.066 H 
ENDBRANCH  43  44
ENDBRANCH   6  43
BRANCH   1  48
ATOM     48  O   LIG d   1      10.213   9.026  -1.041  0.00  0.00    -0.491 OA
BRANCH  48  49
ATOM     49  C   LIG d   1       9.016   9.743  -0.732  0.00  0.00     0.079 C 
ATOM     50  H   LIG d   1       8.230   9.457  -1.431  0.00  0.00     0.066 H 
ATOM     51  H   LIG d   1       8.704   9.506   0.285  0.00  0.00     0.066 H 
ATOM     52  H   LIG d   1       9.203  10.814  -0.815  0.00  0.00     0.066 H 
ENDBRANCH  48  49
ENDBRANCH   1  48
TORSDOF 9
ENDMDL
MODEL 3
REMARK VINA RESULT:      -5.9     10.182     12.574
REMARK  9 active torsions:
REMARK  status: ('A' for Active; 'I' for Inactive)
REMARK    1  A    between atoms: C_1  and  O_2 
REMARK    2  A    between atoms: O_2  and  C_3 
REMARK    3  A    between atoms: C_8  and  O_9 
REMARK    4  A    between atoms: O_9  and  C_10 
REMARK    5  A    between atoms: C_13  and  N_20 
REMARK    6  A    between atoms: N_20  and  C_21 
REMARK    7  A    between atoms: C_21  and  C_22 
REMARK    8  A    between atoms: C_22  and  C_23 
REMARK    9  A    between atoms: C_23  and  N_24 
ROOT
ATOM      1  C   LIG d   1       9.627   8.106  -8.044  0.00  0.00     0.162 A 
ATOM      2  C   LIG d   1       9.625   6.724  -7.895  0.00  0.00    -0.012 A 
ATOM      3  C   LIG d   1       9.775   6.173  -6.646  0.00  0.00    -0.033 A 
ATOM      4  C   LIG d   1       9.932   6.998  -5.524  0.00  0.00     0.006 A 
ATOM      5  C   LIG d   1       9.932   8.382  -5.674  0.00  0.00    -0.007 A 
ATOM      6  C   LIG d   1       9.773   8.933  -6.933  0.00  0.00     0.162 A 
ATOM      7  C   LIG d   1      10.100   6.359  -4.206  0.00  0.00     0.057 A 
ATOM      8  C   LIG d   1       9.837   7.033  -3.049  0.00  0.00     0.003 A 
ATOM      9  C   LIG d   1      10.007   6.361  -1.826  0.00  0.00     0.126 A 
ATOM     10  N   LIG d   1      10.412   5.097  -1.819  0.00  0.00    -0.178 NA
ATOM     11  C   LIG d   1      10.669   4.448  -2.953  0.00  0.00     0.351 A 
ATOM     12  O   LIG d   1      11.036   3.285  -2.909  0.00  0.00    -0.244 OA
ATOM     13  N   LIG d   1      10.531   5.054  -4.144  0.00  0.00    -0.292 N 
ATOM     14  C   LIG d   1      10.840   4.338  -5.388  0.00  0.00     0.032 C 
ATOM     15  C   LIG d   1       9.771   4.677  -6.438  0.00  0.00    -0.009 C 
ATOM     16  H   LIG d   1       9.507   6.086  -8.757  0.00  0.00     0.066 H 
ATOM     17  H   LIG d   1      10.050   9.022  -4.811  0.00  0.00     0.066 H 
ATOM     18  H   LIG d   1       9.505   8.060  -3.073  0.00  0.00     0.067 H 
ATOM     19  H   LIG d   1      10.840   3.264  -5.200  0.00  0.00     0.050 H 
ATOM     20  H   LIG d   1      11.820   4.646  -5.752  0.00  0.00     0.050 H 
ATOM     21  H   LIG d   1       8.792   4.357  -6.081  0.00  0.00     0.033 H 
ATOM     22  H   LIG d   1      10.004   4.174  -7.376  0.00  0.00     0.033 H 
ENDROOT
BRANCH   9  23
ATOM     23  N   LIG d   1       9.753   7.013  -0.639  0.00  0.00    -0.329 NA
ATOM     24  H   LIG d   1       9.181   7.814  -0.814  0.00  0.00     0.147 HD
BRANCH  23  25
ATOM     25  C   LIG d   1      10.863   7.539   0.160  0.00  0.00     0.012 C 
ATOM     26  H   LIG d   1      10.854   7.072   1.145  0.00  0.00     0.046 H 
ATOM     27  H   LIG d   1      11.806   7.317  -0.339  0.00  0.00     0.046 H 
BRANCH  25  28
ATOM     28  C   LIG d   1      10.709   9.053   0.312  0.00  0.00    -0.019 C 
ATOM     29  H   LIG d   1       9.650   9.306   0.374  0.00  0.00     0.030 H 
ATOM     30  H   LIG d   1      11.214   9.381   1.220  0.00  0.00     0.030 H 
BRANCH  28  31
ATOM     31  C   LIG d   1      11.330   9.754  -0.898  0.00  0.00     0.030 C 
ATOM     32  H   LIG d   1      11.985  10.555  -0.558  0.00  0.00     0.049 H 
ATOM     33  H   LIG d   1      11.909   9.033  -1.477  0.00  0.00     0.049 H 
BRANCH  31  34
ATOM     34  N   LIG d   1      10.268  10.314  -1.738  0.00  0.00    -0.296 N 
ATOM     35  C   LIG d   1       8.955  10.375  -1.433  0.00  0.00     0.246 A 
ATOM     36  H   LIG d   1       8.503  10.015  -0.521  0.00  0.00     0.160 H 
ATOM     37  N   LIG d   1       8.323  10.939  -2.424  0.00  0.00    -0.201 N 
ATOM     38  C   LIG d   1       9.199  11.256  -3.388  0.00  0.00     0.187 A 
ATOM     39  H   LIG d   1       7.311  11.114  -2.461  0.00  0.00     0.454 HD
ATOM     40  C   LIG d   1      10.424  10.878  -2.975  0.00  0.00     0.073 A 
ATOM     41  H   LIG d   1       8.966  11.734  -4.328  0.00  0.00     0.139 H 
ATOM     42  H   LIG d   1      11.351  10.994  -3.518  0.00  0.00     0.087 H 
ENDBRANCH  31  34
ENDBRANCH  28  31
ENDBRANCH  25  28
ENDBRANCH  23  25
ENDBRANCH   9  23
BRANCH   6  43
ATOM     43  O   LIG d   1       9.766  10.285  -7.086  0.00  0.00    -0.491 OA
BRANCH  43  44
ATOM     44  C   LIG d   1      10.990  10.974  -6.825  0.00  0.00     0.079 C 
ATOM     45  H   LIG d   1      11.198  10.952  -5.755  0.00  0.00     0.066 H 
ATOM     46  H   LIG d   1      11.803  10.487  -7.363  0.00  0.00     0.066 H 
ATOM     47  H   LIG d   1      10.903  12.008  -7.156  0.00  0.00     0.066 H 
ENDBRANCH  43  44
ENDBRANCH   6  43
BRANCH   1  48
ATOM     48  O   LIG d   1       9.478   8.652  -9.279  0.00  0.00    -0.491 OA
BRANCH  48  49
ATOM     49  C   LIG d   1      10.429   8.273 -10.276  0.00  0.00     0.079 C 
ATOM     50  H   LIG d   1      10.096   7.358 -10.766  0.00  0.00     0.066 H 
ATOM     51  H   LIG d   1      10.517   9.070 -11.015  0.00  0.00     0.066 H 
ATOM     52  H   LIG d   1      11.398   8.103  -9.808  0.00  0.00     0.066 H 
ENDBRANCH  48  49
ENDBRANCH   1  48
TORSDOF 9
ENDMDL
MODEL 4
REMARK VINA RESULT:      -5.8     11.034     14.638
REMARK  9 active torsions:
REMARK  status: ('A' for Active; 'I' for Inactive)
REMARK    1  A    between atoms: C_1  and  O_2 
REMARK    2  A    between atoms: O_2  and  C_3 
REMARK    3  A    between atoms: C_8  and  O_9 
REMARK    4  A    between atoms: O_9  and  C_10 
REMARK    5  A    between atoms: C_13  and  N_20 
REMARK    6  A    between atoms: N_20  and  C_21 
REMARK    7  A    between atoms: C_21  and  C_22 
REMARK    8  A    between atoms: C_22  and  C_23 
REMARK    9  A    between atoms: C_23  and  N_24 
ROOT
ATOM      1  C   LIG d   1       9.781   5.164  -3.360  0.00  0.00     0.162 A 
ATOM      2  C   LIG d   1      10.320   4.883  -2.109  0.00  0.00    -0.012 A 
ATOM      3  C   LIG d   1      10.560   5.905  -1.224  0.00  0.00    -0.033 A 
ATOM      4  C   LIG d   1      10.264   7.230  -1.577  0.00  0.00     0.006 A 
ATOM      5  C   LIG d   1       9.723   7.511  -2.829  0.00  0.00    -0.007 A 
ATOM      6  C   LIG d   1       9.476   6.477  -3.715  0.00  0.00     0.162 A 
ATOM      7  C   LIG d   1      10.549   8.293  -0.597  0.00  0.00     0.057 A 
ATOM      8  C   LIG d   1       9.929   9.507  -0.663  0.00  0.00     0.003 A 
ATOM      9  C   LIG d   1      10.236  10.473   0.311  0.00  0.00     0.126 A 
ATOM     10  N   LIG d   1      11.113  10.190   1.267  0.00  0.00    -0.178 NA
ATOM     11  C   LIG d   1      11.715   9.004   1.322  0.00  0.00     0.351 A 
ATOM     12  O   LIG d   1      12.512   8.776   2.217  0.00  0.00    -0.244 OA
ATOM     13  N   LIG d   1      11.459   8.053   0.406  0.00  0.00    -0.292 N 
ATOM     14  C   LIG d   1      12.146   6.758   0.460  0.00  0.00     0.032 C 
ATOM     15  C   LIG d   1      11.136   5.644   0.146  0.00  0.00    -0.009 C 
ATOM     16  H   LIG d   1      10.551   3.865  -1.836  0.00  0.00     0.066 H 
ATOM     17  H   LIG d   1       9.491   8.529  -3.104  0.00  0.00     0.066 H 
ATOM     18  H   LIG d   1       9.216   9.720  -1.446  0.00  0.00     0.067 H 
ATOM     19  H   LIG d   1      12.560   6.605   1.458  0.00  0.00     0.050 H 
ATOM     20  H   LIG d   1      12.950   6.740  -0.276  0.00  0.00     0.050 H 
ATOM     21  H   LIG d   1      10.339   5.651   0.890  0.00  0.00     0.033 H 
ATOM     22  H   LIG d   1      11.640   4.677   0.156  0.00  0.00     0.033 H 
ENDROOT
BRANCH   9  23
ATOM     23  N   LIG d   1       9.631  11.710   0.272  0.00  0.00    -0.329 NA
ATOM     24  H   LIG d   1       9.092  11.792  -0.567  0.00  0.00     0.147 HD
BRANCH  23  25
ATOM     25  C   LIG d   1      10.447  12.926   0.287  0.00  0.00     0.012 C 
ATOM     26  H   LIG d   1       9.835  13.771   0.603  0.00  0.00     0.046 H 
ATOM     27  H   LIG d   1      11.276  12.799   0.983  0.00  0.00     0.046 H 
BRANCH  25  28
ATOM     28  C   LIG d   1      10.995  13.190  -1.116  0.00  0.00    -0.019 C 
ATOM     29  H   LIG d   1      11.687  14.032  -1.083  0.00  0.00     0.030 H 
ATOM     30  H   LIG d   1      11.518  12.305  -1.476  0.00  0.00     0.030 H 
BRANCH  28  31
ATOM     31  C   LIG d   1       9.838  13.518  -2.063  0.00  0.00     0.030 C 
ATOM     32  H   LIG d   1       8.928  13.671  -1.484  0.00  0.00     0.049 H 
ATOM     33  H   LIG d   1      10.072  14.426  -2.620  0.00  0.00     0.049 H 
BRANCH  31  34
ATOM     34  N   LIG d   1       9.642  12.408  -2.998  0.00  0.00    -0.296 N 
ATOM     35  C   LIG d   1       8.484  11.755  -3.234  0.00  0.00     0.246 A 
ATOM     36  H   LIG d   1       7.536  11.964  -2.762  0.00  0.00     0.160 H 
ATOM     37  N   LIG d   1       8.702  10.830  -4.128  0.00  0.00    -0.201 N 
ATOM     38  C   LIG d   1       9.992  10.857  -4.490  0.00  0.00     0.187 A 
ATOM     39  H   LIG d   1       7.996  10.182  -4.496  0.00  0.00     0.454 HD
ATOM     40  C   LIG d   1      10.597  11.842  -3.798  0.00  0.00     0.073 A 
ATOM     41  H   LIG d   1      10.463  10.208  -5.213  0.00  0.00     0.139 H 
ATOM     42  H   LIG d   1      11.637  12.128  -3.861  0.00  0.00     0.087 H 
ENDBRANCH  31  34
ENDBRANCH  28  31
ENDBRANCH  25  28
ENDBRANCH  23  25
ENDBRANCH   9  23
BRANCH   6  43
ATOM     43  O   LIG d   1       8.942   6.744  -4.937  0.00  0.00    -0.491 OA
BRANCH  43  44
ATOM     44  C   LIG d   1       9.800   7.358  -5.900  0.00  0.00     0.079 C 
ATOM     45  H   LIG d   1       9.204   7.969  -6.580  0.00  0.00     0.066 H 
ATOM     46  H   LIG d   1      10.527   7.988  -5.389  0.00  0.00     0.066 H 
ATOM     47  H   LIG d   1      10.321   6.587  -6.467  0.00  0.00     0.066 H 
ENDBRANCH  43  44
ENDBRANCH   6  43
BRANCH   1  48
ATOM     48  O   LIG d   1       9.543   4.154  -4.236  0.00  0.00    -0.491 OA
BRANCH  48  49
ATOM     49  C   LIG d   1      10.676   3.416  -4.700  0.00  0.00     0.079 C 
ATOM     50  H   LIG d   1      10.892   3.694  -5.731  0.00  0.00     0.066 H 
ATOM     51  H   LIG d   1      11.539   3.645  -4.074  0.00  0.00     0.066 H 
ATOM     52  H   LIG d   1      10.461   2.350  -4.648  0.00  0.00     0.066 H 
ENDBRANCH  48  49
ENDBRANCH   1  48
TORSDOF 9
ENDMDL
MODEL 5
REMARK VINA RESULT:      -5.7      6.402      8.097
REMARK  9 active torsions:
REMARK  status: ('A' for Active; 'I' for Inactive)
REMARK    1  A    between atoms: C_1  and  O_2 
REMARK    2  A    between atoms: O_2  and  C_3 
REMARK    3  A    between atoms: C_8  and  O_9 
REMARK    4  A    between atoms: O_9  and  C_10 
REMARK    5  A    between atoms: C_13  and  N_20 
REMARK    6  A    between atoms: N_20  and  C_21 
REMARK    7  A    between atoms: C_21  and  C_22 
REMARK    8  A    between atoms: C_22  and  C_23 
REMARK    9  A    between atoms: C_23  and  N_24 
ROOT
ATOM      1  C   LIG d   1       6.149  -4.801  -5.389  0.00  0.00     0.162 A 
ATOM      2  C   LIG d   1       5.042  -4.263  -4.742  0.00  0.00    -0.012 A 
ATOM      3  C   LIG d   1       5.087  -2.976  -4.268  0.00  0.00    -0.033 A 
ATOM      4  C   LIG d   1       6.245  -2.202  -4.433  0.00  0.00     0.006 A 
ATOM      5  C   LIG d   1       7.353  -2.740  -5.083  0.00  0.00    -0.007 A 
ATOM      6  C   LIG d   1       7.300  -4.036  -5.565  0.00  0.00     0.162 A 
ATOM      7  C   LIG d   1       6.249  -0.829  -3.898  0.00  0.00     0.057 A 
ATOM      8  C   LIG d   1       7.120   0.114  -4.362  0.00  0.00     0.003 A 
ATOM      9  C   LIG d   1       7.062   1.408  -3.817  0.00  0.00     0.126 A 
ATOM     10  N   LIG d   1       6.170   1.688  -2.874  0.00  0.00    -0.178 NA
ATOM     11  C   LIG d   1       5.326   0.761  -2.425  0.00  0.00     0.351 A 
ATOM     12  O   LIG d   1       4.517   1.054  -1.561  0.00  0.00    -0.244 OA
ATOM     13  N   LIG d   1       5.352  -0.492  -2.910  0.00  0.00    -0.292 N 
ATOM     14  C   LIG d   1       4.435  -1.514  -2.392  0.00  0.00     0.032 C 
ATOM     15  C   LIG d   1       3.905  -2.351  -3.566  0.00  0.00    -0.009 C 
ATOM     16  H   LIG d   1       4.150  -4.858  -4.611  0.00  0.00     0.066 H 
ATOM     17  H   LIG d   1       8.246  -2.147  -5.214  0.00  0.00     0.066 H 
ATOM     18  H   LIG d   1       7.837  -0.130  -5.131  0.00  0.00     0.067 H 
ATOM     19  H   LIG d   1       3.600  -1.030  -1.883  0.00  0.00     0.050 H 
ATOM     20  H   LIG d   1       4.965  -2.161  -1.693  0.00  0.00     0.050 H 
ATOM     21  H   LIG d   1       3.362  -1.708  -4.260  0.00  0.00     0.033 H 
ATOM     22  H   LIG d   1       3.243  -3.132  -3.193  0.00  0.00     0.033 H 
ENDROOT
BRANCH   9  23
ATOM     23  N   LIG d   1       7.929   2.383  -4.260  0.00  0.00    -0.329 NA
ATOM     24  H   LIG d   1       7.758   2.567  -5.228  0.00  0.00     0.147 HD
BRANCH  23  25
ATOM     25  C   LIG d   1       9.376   2.163  -4.194  0.00  0.00     0.012 C 
ATOM     26  H   LIG d   1       9.574   1.108  -4.003  0.00  0.00     0.046 H 
ATOM     27  H   LIG d   1       9.831   2.453  -5.140  0.00  0.00     0.046 H 
BRANCH  25  28
ATOM     28  C   LIG d   1       9.968   3.004  -3.062  0.00  0.00    -0.019 C 
ATOM     29  H   LIG d   1       9.165   3.512  -2.528  0.00  0.00     0.030 H 
ATOM     30  H   LIG d   1      10.510   2.358  -2.373  0.00  0.00     0.030 H 
BRANCH  28  31
ATOM     31  C   LIG d   1      10.927   4.043  -3.647  0.00  0.00     0.030 C 
ATOM     32  H   LIG d   1      11.728   4.241  -2.934  0.00  0.00     0.049 H 
ATOM     33  H   LIG d   1      11.354   3.662  -4.575  0.00  0.00     0.049 H 
BRANCH  31  34
ATOM     34  N   LIG d   1      10.198   5.285  -3.918  0.00  0.00    -0.296 N 
ATOM     35  C   LIG d   1       9.780   6.184  -3.002  0.00  0.00     0.246 A 
ATOM     36  H   LIG d   1       9.926   6.110  -1.935  0.00  0.00     0.160 H 
ATOM     37  N   LIG d   1       9.168   7.155  -3.621  0.00  0.00    -0.201 N 
ATOM     38  C   LIG d   1       9.173   6.915  -4.940  0.00  0.00     0.187 A 
ATOM     39  H   LIG d   1       8.748   7.976  -3.169  0.00  0.00     0.454 HD
ATOM     40  C   LIG d   1       9.818   5.751  -5.147  0.00  0.00     0.073 A 
ATOM     41  H   LIG d   1       8.740   7.546  -5.703  0.00  0.00     0.139 H 
ATOM     42  H   LIG d   1       9.999   5.275  -6.101  0.00  0.00     0.087 H 
ENDBRANCH  31  34
ENDBRANCH  28  31
ENDBRANCH  25  28
ENDBRANCH  23  25
ENDBRANCH   9  23
BRANCH   6  43
ATOM     43  O   LIG d   1       8.377  -4.565  -6.206  0.00  0.00    -0.491 OA
BRANCH  43  44
ATOM     44  C   LIG d   1       8.572  -4.186  -7.570  0.00  0.00     0.079 C 
ATOM     45  H   LIG d   1       7.651  -4.354  -8.129  0.00  0.00     0.066 H 
ATOM     46  H   LIG d   1       8.838  -3.130  -7.618  0.00  0.00     0.066 H 
ATOM     47  H   LIG d   1       9.374  -4.783  -8.002  0.00  0.00     0.066 H 
ENDBRANCH  43  44
ENDBRANCH   6  43
BRANCH   1  48
ATOM     48  O   LIG d   1       6.105  -6.075  -5.858  0.00  0.00    -0.491 OA
BRANCH  48  49
ATOM     49  C   LIG d   1       4.871  -6.780  -5.710  0.00  0.00     0.079 C 
ATOM     50  H   LIG d   1       4.851  -7.626  -6.398  0.00  0.00     0.066 H 
ATOM     51  H   LIG d   1       4.780  -7.141  -4.686  0.00  0.00     0.066 H 
ATOM     52  H   LIG d   1       4.041  -6.110  -5.935  0.00  0.00     0.066 H 
ENDBRANCH  48  49
ENDBRANCH   1  48
TORSDOF 9
ENDMDL
MODEL 6
REMARK VINA RESULT:      -5.6     10.856     13.098
REMARK  9 active torsions:
REMARK  status: ('A' for Active; 'I' for Inactive)
REMARK    1  A    between atoms: C_1  and  O_2 
REMARK    2  A    between atoms: O_2  and  C_3 
REMARK    3  A    between atoms: C_8  and  O_9 
REMARK    4  A    between atoms: O_9  and  C_10 
REMARK    5  A    between atoms: C_13  and  N_20 
REMARK    6  A    between atoms: N_20  and  C_21 
REMARK    7  A    between atoms: C_21  and  C_22 
REMARK    8  A    between atoms: C_22  and  C_23 
REMARK    9  A    between atoms: C_23  and  N_24 
ROOT
ATOM      1  C   LIG d   1      10.633   8.744  -8.819  0.00  0.00     0.162 A 
ATOM      2  C   LIG d   1      11.044  10.067  -8.702  0.00  0.00    -0.012 A 
ATOM      3  C   LIG d   1      10.691  10.796  -7.594  0.00  0.00    -0.033 A 
ATOM      4  C   LIG d   1       9.916  10.212  -6.581  0.00  0.00     0.006 A 
ATOM      5  C   LIG d   1       9.506   8.886  -6.697  0.00  0.00    -0.007 A 
ATOM      6  C   LIG d   1       9.871   8.154  -7.813  0.00  0.00     0.162 A 
ATOM      7  C   LIG d   1       9.553  11.039  -5.416  0.00  0.00     0.057 A 
ATOM      8  C   LIG d   1       9.190  10.474  -4.228  0.00  0.00     0.003 A 
ATOM      9  C   LIG d   1       8.868  11.320  -3.152  0.00  0.00     0.126 A 
ATOM     10  N   LIG d   1       8.925  12.637  -3.309  0.00  0.00    -0.178 NA
ATOM     11  C   LIG d   1       9.277  13.179  -4.473  0.00  0.00     0.351 A 
ATOM     12  O   LIG d   1       9.323  14.394  -4.580  0.00  0.00    -0.244 OA
ATOM     13  N   LIG d   1       9.584  12.410  -5.531  0.00  0.00    -0.292 N 
ATOM     14  C   LIG d   1       9.948  13.016  -6.817  0.00  0.00     0.032 C 
ATOM     15  C   LIG d   1      11.122  12.233  -7.424  0.00  0.00    -0.009 C 
ATOM     16  H   LIG d   1      11.638  10.520  -9.481  0.00  0.00     0.066 H 
ATOM     17  H   LIG d   1       8.911   8.432  -5.919  0.00  0.00     0.066 H 
ATOM     18  H   LIG d   1       9.152   9.401  -4.116  0.00  0.00     0.067 H 
ATOM     19  H   LIG d   1      10.243  14.054  -6.661  0.00  0.00     0.050 H 
ATOM     20  H   LIG d   1       9.094  12.976  -7.494  0.00  0.00     0.050 H 
ATOM     21  H   LIG d   1      11.981  12.283  -6.755  0.00  0.00     0.033 H 
ATOM     22  H   LIG d   1      11.385  12.656  -8.394  0.00  0.00     0.033 H 
ENDROOT
BRANCH   9  23
ATOM     23  N   LIG d   1       8.495  10.783  -1.940  0.00  0.00    -0.329 NA
ATOM     24  H   LIG d   1       8.188  11.515  -1.331  0.00  0.00     0.147 HD
BRANCH  23  25
ATOM     25  C   LIG d   1       9.469  10.041  -1.135  0.00  0.00     0.012 C 
ATOM     26  H   LIG d   1      10.412   9.974  -1.679  0.00  0.00     0.046 H 
ATOM     27  H   LIG d   1       9.631  10.560  -0.191  0.00  0.00     0.046 H 
BRANCH  25  28
ATOM     28  C   LIG d   1       8.938   8.633  -0.861  0.00  0.00    -0.019 C 
ATOM     29  H   LIG d   1       9.143   8.364   0.176  0.00  0.00     0.030 H 
ATOM     30  H   LIG d   1       7.863   8.609  -1.037  0.00  0.00     0.030 H 
BRANCH  28  31
ATOM     31  C   LIG d   1       9.629   7.636  -1.793  0.00  0.00     0.030 C 
ATOM     32  H   LIG d   1       8.881   7.131  -2.404  0.00  0.00     0.049 H 
ATOM     33  H   LIG d   1      10.327   8.168  -2.440  0.00  0.00     0.049 H 
BRANCH  31  34
ATOM     34  N   LIG d   1      10.358   6.646  -0.996  0.00  0.00    -0.296 N 
ATOM     35  C   LIG d   1      10.672   5.388  -1.373  0.00  0.00     0.246 A 
ATOM     36  H   LIG d   1      10.427   4.936  -2.323  0.00  0.00     0.160 H 
ATOM     37  N   LIG d   1      11.320   4.811  -0.400  0.00  0.00    -0.201 N 
ATOM     38  C   LIG d   1      11.442   5.668   0.623  0.00  0.00     0.187 A 
ATOM     39  H   LIG d   1      11.681   3.849  -0.415  0.00  0.00     0.454 HD
ATOM     40  C   LIG d   1      10.851   6.825   0.268  0.00  0.00     0.073 A 
ATOM     41  H   LIG d   1      11.932   5.469   1.565  0.00  0.00     0.139 H 
ATOM     42  H   LIG d   1      10.778   7.722   0.867  0.00  0.00     0.087 H 
ENDBRANCH  31  34
ENDBRANCH  28  31
ENDBRANCH  25  28
ENDBRANCH  23  25
ENDBRANCH   9  23
BRANCH   6  43
ATOM     43  O   LIG d   1       9.479   6.856  -7.930  0.00  0.00    -0.491 OA
BRANCH  43  44
ATOM     44  C   LIG d   1      10.127   5.904  -7.085  0.00  0.00     0.079 C 
ATOM     45  H   LIG d   1      10.700   6.427  -6.319  0.00  0.00     0.066 H 
ATOM     46  H   LIG d   1       9.378   5.271  -6.609  0.00  0.00     0.066 H 
ATOM     47  H   LIG d   1      10.798   5.286  -7.681  0.00  0.00     0.066 H 
ENDBRANCH  43  44
ENDBRANCH   6  43
BRANCH   1  48
ATOM     48  O   LIG d   1      10.982   8.022  -9.915  0.00  0.00    -0.491 OA
BRANCH  48  49
ATOM     49  C   LIG d   1      11.053   8.721 -11.159  0.00  0.00     0.079 C 
ATOM     50  H   LIG d   1      11.606   8.122 -11.882  0.00  0.00     0.066 H 
ATOM     51  H   LIG d   1      10.044   8.901 -11.531  0.00  0.00     0.066 H 
ATOM     52  H   LIG d   1      11.561   9.674 -11.012  0.00  0.00     0.066 H 
ENDBRANCH  48  49
ENDBRANCH   1  48
TORSDOF 9
ENDMDL
MODEL 7
REMARK VINA RESULT:      -5.6      7.849     11.861
REMARK  9 active torsions:
REMARK  status: ('A' for Active; 'I' for Inactive)
REMARK    1  A    between atoms: C_1  and  O_2 
REMARK    2  A    between atoms: O_2  and  C_3 
REMARK    3  A    between atoms: C_8  and  O_9 
REMARK    4  A    between atoms: O_9  and  C_10 
REMARK    5  A    between atoms: C_13  and  N_20 
REMARK    6  A    between atoms: N_20  and  C_21 
REMARK    7  A    between atoms: C_21  and  C_22 
REMARK    8  A    between atoms: C_22  and  C_23 
REMARK    9  A    between atoms: C_23  and  N_24 
ROOT
ATOM      1  C   LIG d   1       9.891  10.282  -6.720  0.00  0.00     0.162 A 
ATOM      2  C   LIG d   1      10.350  10.597  -5.445  0.00  0.00    -0.012 A 
ATOM      3  C   LIG d   1      10.354   9.636  -4.465  0.00  0.00    -0.033 A 
ATOM      4  C   LIG d   1       9.897   8.340  -4.744  0.00  0.00     0.006 A 
ATOM      5  C   LIG d   1       9.439   8.024  -6.021  0.00  0.00    -0.007 A 
ATOM      6  C   LIG d   1       9.444   8.994  -7.007  0.00  0.00     0.162 A 
ATOM      7  C   LIG d   1       9.911   7.345  -3.656  0.00  0.00     0.057 A 
ATOM      8  C   LIG d   1       9.899   6.006  -3.915  0.00  0.00     0.003 A 
ATOM      9  C   LIG d   1       9.926   5.111  -2.831  0.00  0.00     0.126 A 
ATOM     10  N   LIG d   1       9.966   5.580  -1.590  0.00  0.00    -0.178 NA
ATOM     11  C   LIG d   1       9.974   6.888  -1.346  0.00  0.00     0.351 A 
ATOM     12  O   LIG d   1      10.015   7.284  -0.193  0.00  0.00    -0.244 OA
ATOM     13  N   LIG d   1       9.939   7.781  -2.351  0.00  0.00    -0.292 N 
ATOM     14  C   LIG d   1       9.924   9.222  -2.072  0.00  0.00     0.032 C 
ATOM     15  C   LIG d   1      10.850   9.933  -3.070  0.00  0.00    -0.009 C 
ATOM     16  H   LIG d   1      10.699  11.594  -5.227  0.00  0.00     0.066 H 
ATOM     17  H   LIG d   1       9.088   7.026  -6.241  0.00  0.00     0.066 H 
ATOM     18  H   LIG d   1       9.870   5.641  -4.931  0.00  0.00     0.067 H 
ATOM     19  H   LIG d   1      10.277   9.400  -1.056  0.00  0.00     0.050 H 
ATOM     20  H   LIG d   1       8.909   9.604  -2.180  0.00  0.00     0.050 H 
ATOM     21  H   LIG d   1      11.869   9.562  -2.955  0.00  0.00     0.033 H 
ATOM     22  H   LIG d   1      10.827  11.008  -2.892  0.00  0.00     0.033 H 
ENDROOT
BRANCH   9  23
ATOM     23  N   LIG d   1       9.912   3.752  -3.057  0.00  0.00    -0.329 NA
ATOM     24  H   LIG d   1      10.823   3.450  -3.337  0.00  0.00     0.147 HD
BRANCH  23  25
ATOM     25  C   LIG d   1       9.025   3.188  -4.079  0.00  0.00     0.012 C 
ATOM     26  H   LIG d   1       8.057   3.687  -4.034  0.00  0.00     0.046 H 
ATOM     27  H   LIG d   1       9.465   3.337  -5.064  0.00  0.00     0.046 H 
BRANCH  25  28
ATOM     28  C   LIG d   1       8.839   1.692  -3.823  0.00  0.00    -0.019 C 
ATOM     29  H   LIG d   1       9.759   1.163  -4.076  0.00  0.00     0.030 H 
ATOM     30  H   LIG d   1       8.604   1.528  -2.772  0.00  0.00     0.030 H 
BRANCH  28  31
ATOM     31  C   LIG d   1       7.694   1.164  -4.690  0.00  0.00     0.030 C 
ATOM     32  H   LIG d   1       7.175   2.001  -5.156  0.00  0.00     0.049 H 
ATOM     33  H   LIG d   1       8.097   0.510  -5.464  0.00  0.00     0.049 H 
BRANCH  31  34
ATOM     34  N   LIG d   1       6.755   0.411  -3.855  0.00  0.00    -0.296 N 
ATOM     35  C   LIG d   1       5.829   0.932  -3.022  0.00  0.00     0.246 A 
ATOM     36  H   LIG d   1       5.653   1.984  -2.855  0.00  0.00     0.160 H 
ATOM     37  N   LIG d   1       5.185  -0.048  -2.451  0.00  0.00    -0.201 N 
ATOM     38  C   LIG d   1       5.669  -1.217  -2.893  0.00  0.00     0.187 A 
ATOM     39  H   LIG d   1       4.424   0.060  -1.769  0.00  0.00     0.454 HD
ATOM     40  C   LIG d   1       6.650  -0.952  -3.777  0.00  0.00     0.073 A 
ATOM     41  H   LIG d   1       5.330  -2.199  -2.597  0.00  0.00     0.139 H 
ATOM     42  H   LIG d   1       7.242  -1.675  -4.319  0.00  0.00     0.087 H 
ENDBRANCH  31  34
ENDBRANCH  28  31
ENDBRANCH  25  28
ENDBRANCH  23  25
ENDBRANCH   9  23
BRANCH   6  43
ATOM     43  O   LIG d   1       9.004   8.691  -8.258  0.00  0.00    -0.491 OA
BRANCH  43  44
ATOM     44  C   LIG d   1       9.224   7.356  -8.718  0.00  0.00     0.079 C 
ATOM     45  H   LIG d   1       8.702   7.207  -9.663  0.00  0.00     0.066 H 
ATOM     46  H   LIG d   1      10.291   7.193  -8.863  0.00  0.00     0.066 H 
ATOM     47  H   LIG d   1       8.845   6.650  -7.979  0.00  0.00     0.066 H 
ENDBRANCH  43  44
ENDBRANCH   6  43
BRANCH   1  48
ATOM     48  O   LIG d   1       9.887  11.232  -7.690  0.00  0.00    -0.491 OA
BRANCH  48  49
ATOM     49  C   LIG d   1      11.157  11.693  -8.155  0.00  0.00     0.079 C 
ATOM     50  H   LIG d   1      11.842  11.782  -7.311  0.00  0.00     0.066 H 
ATOM     51  H   LIG d   1      11.560  10.981  -8.875  0.00  0.00     0.066 H 
ATOM     52  H   LIG d   1      11.039  12.665  -8.631  0.00  0.00     0.066 H 
ENDBRANCH  48  49
ENDBRANCH   1  48
TORSDOF 9
ENDMDL
MODEL 8
REMARK VINA RESULT:      -5.5      9.302     13.644
REMARK  9 active torsions:
REMARK  status: ('A' for Active; 'I' for Inactive)
REMARK    1  A    between atoms: C_1  and  O_2 
REMARK    2  A    between atoms: O_2  and  C_3 
REMARK    3  A    between atoms: C_8  and  O_9 
REMARK    4  A    between atoms: O_9  and  C_10 
REMARK    5  A    between atoms: C_13  and  N_20 
REMARK    6  A    between atoms: N_20  and  C_21 
REMARK    7  A    between atoms: C_21  and  C_22 
REMARK    8  A    between atoms: C_22  and  C_23 
REMARK    9  A    between atoms: C_23  and  N_24 
ROOT
ATOM      1  C   LIG d   1      10.568   6.606  -0.247  0.00  0.00     0.162 A 
ATOM      2  C   LIG d   1      10.770   5.302  -0.687  0.00  0.00    -0.012 A 
ATOM      3  C   LIG d   1      10.581   4.992  -2.010  0.00  0.00    -0.033 A 
ATOM      4  C   LIG d   1      10.185   5.984  -2.919  0.00  0.00     0.006 A 
ATOM      5  C   LIG d   1       9.985   7.290  -2.479  0.00  0.00    -0.007 A 
ATOM      6  C   LIG d   1      10.184   7.599  -1.145  0.00  0.00     0.162 A 
ATOM      7  C   LIG d   1       9.985   5.600  -4.328  0.00  0.00     0.057 A 
ATOM      8  C   LIG d   1      10.021   6.526  -5.330  0.00  0.00     0.003 A 
ATOM      9  C   LIG d   1       9.836   6.091  -6.654  0.00  0.00     0.126 A 
ATOM     10  N   LIG d   1       9.633   4.802  -6.903  0.00  0.00    -0.178 NA
ATOM     11  C   LIG d   1       9.595   3.907  -5.918  0.00  0.00     0.351 A 
ATOM     12  O   LIG d   1       9.410   2.730  -6.183  0.00  0.00    -0.244 OA
ATOM     13  N   LIG d   1       9.758   4.279  -4.637  0.00  0.00    -0.292 N 
ATOM     14  C   LIG d   1       9.691   3.288  -3.556  0.00  0.00     0.032 C 
ATOM     15  C   LIG d   1      10.795   3.592  -2.532  0.00  0.00    -0.009 C 
ATOM     16  H   LIG d   1      11.071   4.536   0.011  0.00  0.00     0.066 H 
ATOM     17  H   LIG d   1       9.683   8.058  -3.176  0.00  0.00     0.066 H 
ATOM     18  H   LIG d   1      10.191   7.569  -5.111  0.00  0.00     0.067 H 
ATOM     19  H   LIG d   1       9.839   2.289  -3.967  0.00  0.00     0.050 H 
ATOM     20  H   LIG d   1       8.717   3.344  -3.069  0.00  0.00     0.050 H 
ATOM     21  H   LIG d   1      11.771   3.523  -3.013  0.00  0.00     0.033 H 
ATOM     22  H   LIG d   1      10.740   2.880  -1.708  0.00  0.00     0.033 H 
ENDROOT
BRANCH   9  23
ATOM     23  N   LIG d   1       9.864   6.998  -7.690  0.00  0.00    -0.329 NA
ATOM     24  H   LIG d   1      10.800   7.323  -7.824  0.00  0.00     0.147 HD
BRANCH  23  25
ATOM     25  C   LIG d   1       9.072   8.229  -7.607  0.00  0.00     0.012 C 
ATOM     26  H   LIG d   1       8.248   8.179  -8.319  0.00  0.00     0.046 H 
ATOM     27  H   LIG d   1       8.675   8.338  -6.599  0.00  0.00     0.046 H 
BRANCH  25  28
ATOM     28  C   LIG d   1       9.960   9.430  -7.939  0.00  0.00    -0.019 C 
ATOM     29  H   LIG d   1      10.586   9.191  -8.800  0.00  0.00     0.030 H 
ATOM     30  H   LIG d   1       9.335  10.291  -8.172  0.00  0.00     0.030 H 
BRANCH  28  31
ATOM     31  C   LIG d   1      10.850   9.755  -6.737  0.00  0.00     0.030 C 
ATOM     32  H   LIG d   1      11.172   8.829  -6.263  0.00  0.00     0.049 H 
ATOM     33  H   LIG d   1      11.723  10.314  -7.074  0.00  0.00     0.049 H 
BRANCH  31  34
ATOM     34  N   LIG d   1      10.095  10.560  -5.774  0.00  0.00    -0.296 N 
ATOM     35  C   LIG d   1       9.482  10.109  -4.659  0.00  0.00     0.246 A 
ATOM     36  H   LIG d   1       9.464   9.084  -4.322  0.00  0.00     0.160 H 
ATOM     37  N   LIG d   1       8.915  11.118  -4.058  0.00  0.00    -0.201 N 
ATOM     38  C   LIG d   1       9.142  12.238  -4.759  0.00  0.00     0.187 A 
ATOM     39  H   LIG d   1       8.378  11.063  -3.184  0.00  0.00     0.454 HD
ATOM     40  C   LIG d   1       9.883  11.912  -5.834  0.00  0.00     0.073 A 
ATOM     41  H   LIG d   1       8.795  13.229  -4.504  0.00  0.00     0.139 H 
ATOM     42  H   LIG d   1      10.241  12.586  -6.600  0.00  0.00     0.087 H 
ENDBRANCH  31  34
ENDBRANCH  28  31
ENDBRANCH  25  28
ENDBRANCH  23  25
ENDBRANCH   9  23
BRANCH   6  43
ATOM     43  O   LIG d   1       9.996   8.874  -0.709  0.00  0.00    -0.491 OA
BRANCH  43  44
ATOM     44  C   LIG d   1       8.668   9.396  -0.781  0.00  0.00     0.079 C 
ATOM     45  H   LIG d   1       8.273   9.523   0.227  0.00  0.00     0.066 H 
ATOM     46  H   LIG d   1       8.684  10.360  -1.289  0.00  0.00     0.066 H 
ATOM     47  H   LIG d   1       8.035   8.704  -1.336  0.00  0.00     0.066 H 
ENDBRANCH  43  44
ENDBRANCH   6  43
BRANCH   1  48
ATOM     48  O   LIG d   1      10.755   6.913   1.063  0.00  0.00    -0.491 OA
BRANCH  48  49
ATOM     49  C   LIG d   1      10.934   5.822   1.968  0.00  0.00     0.079 C 
ATOM     50  H   LIG d   1      11.877   5.944   2.501  0.00  0.00     0.066 H 
ATOM     51  H   LIG d   1      10.112   5.804   2.682  0.00  0.00     0.066 H 
ATOM     52  H   LIG d   1      10.952   4.887   1.409  0.00  0.00     0.066 H 
ENDBRANCH  48  49
ENDBRANCH   1  48
TORSDOF 9
ENDMDL
MODEL 9
REMARK VINA RESULT:      -5.5      2.235      3.363
REMARK  9 active torsions:
REMARK  status: ('A' for Active; 'I' for Inactive)
REMARK    1  A    between atoms: C_1  and  O_2 
REMARK    2  A    between atoms: O_2  and  C_3 
REMARK    3  A    between atoms: C_8  and  O_9 
REMARK    4  A    between atoms: O_9  and  C_10 
REMARK    5  A    between atoms: C_13  and  N_20 
REMARK    6  A    between atoms: N_20  and  C_21 
REMARK    7  A    between atoms: C_21  and  C_22 
REMARK    8  A    between atoms: C_22  and  C_23 
REMARK    9  A    between atoms: C_23  and  N_24 
ROOT
ATOM      1  C   LIG d   1       1.659  -4.888 -10.586  0.00  0.00     0.162 A 
ATOM      2  C   LIG d   1       1.465  -3.535 -10.843  0.00  0.00    -0.012 A 
ATOM      3  C   LIG d   1       2.146  -2.596 -10.109  0.00  0.00    -0.033 A 
ATOM      4  C   LIG d   1       3.036  -2.996  -9.101  0.00  0.00     0.006 A 
ATOM      5  C   LIG d   1       3.232  -4.351  -8.845  0.00  0.00    -0.007 A 
ATOM      6  C   LIG d   1       2.548  -5.294  -9.593  0.00  0.00     0.162 A 
ATOM      7  C   LIG d   1       3.737  -1.951  -8.334  0.00  0.00     0.057 A 
ATOM      8  C   LIG d   1       4.893  -2.218  -7.660  0.00  0.00     0.003 A 
ATOM      9  C   LIG d   1       5.518  -1.172  -6.957  0.00  0.00     0.126 A 
ATOM     10  N   LIG d   1       4.979   0.042  -6.965  0.00  0.00    -0.178 NA
ATOM     11  C   LIG d   1       3.849   0.291  -7.623  0.00  0.00     0.351 A 
ATOM     12  O   LIG d   1       3.384   1.419  -7.611  0.00  0.00    -0.244 OA
ATOM     13  N   LIG d   1       3.212  -0.680  -8.299  0.00  0.00    -0.292 N 
ATOM     14  C   LIG d   1       1.954  -0.401  -9.002  0.00  0.00     0.032 C 
ATOM     15  C   LIG d   1       1.971  -1.118 -10.360  0.00  0.00    -0.009 C 
ATOM     16  H   LIG d   1       0.778  -3.224 -11.615  0.00  0.00     0.066 H 
ATOM     17  H   LIG d   1       3.918  -4.664  -8.072  0.00  0.00     0.066 H 
ATOM     18  H   LIG d   1       5.320  -3.209  -7.667  0.00  0.00     0.067 H 
ATOM     19  H   LIG d   1       1.853   0.673  -9.157  0.00  0.00     0.050 H 
ATOM     20  H   LIG d   1       1.115  -0.765  -8.407  0.00  0.00     0.050 H 
ATOM     21  H   LIG d   1       2.801  -0.745 -10.961  0.00  0.00     0.033 H 
ATOM     22  H   LIG d   1       1.030  -0.942 -10.881  0.00  0.00     0.033 H 
ENDROOT
BRANCH   9  23
ATOM     23  N   LIG d   1       6.685  -1.406  -6.264  0.00  0.00    -0.329 NA
ATOM     24  H   LIG d   1       7.427  -1.585  -6.910  0.00  0.00     0.147 HD
BRANCH  23  25
ATOM     25  C   LIG d   1       6.763  -2.523  -5.319  0.00  0.00     0.012 C 
ATOM     26  H   LIG d   1       5.848  -3.113  -5.376  0.00  0.00     0.046 H 
ATOM     27  H   LIG d   1       7.617  -3.152  -5.570  0.00  0.00     0.046 H 
BRANCH  25  28
ATOM     28  C   LIG d   1       6.931  -1.979  -3.899  0.00  0.00    -0.019 C 
ATOM     29  H   LIG d   1       7.618  -2.617  -3.344  0.00  0.00     0.030 H 
ATOM     30  H   LIG d   1       7.330  -0.966  -3.942  0.00  0.00     0.030 H 
BRANCH  28  31
ATOM     31  C   LIG d   1       5.572  -1.961  -3.196  0.00  0.00     0.030 C 
ATOM     32  H   LIG d   1       4.830  -2.452  -3.825  0.00  0.00     0.049 H 
ATOM     33  H   LIG d   1       5.648  -2.489  -2.245  0.00  0.00     0.049 H 
BRANCH  31  34
ATOM     34  N   LIG d   1       5.165  -0.575  -2.953  0.00  0.00    -0.296 N 
ATOM     35  C   LIG d   1       5.803   0.534  -3.382  0.00  0.00     0.246 A 
ATOM     36  H   LIG d   1       6.710   0.552  -3.969  0.00  0.00     0.160 H 
ATOM     37  N   LIG d   1       5.143   1.581  -2.970  0.00  0.00    -0.201 N 
ATOM     38  C   LIG d   1       4.072   1.184  -2.270  0.00  0.00     0.187 A 
ATOM     39  H   LIG d   1       5.404   2.558  -3.154  0.00  0.00     0.454 HD
ATOM     40  C   LIG d   1       4.064  -0.162  -2.252  0.00  0.00     0.073 A 
ATOM     41  H   LIG d   1       3.340   1.830  -1.806  0.00  0.00     0.139 H 
ATOM     42  H   LIG d   1       3.330  -0.796  -1.774  0.00  0.00     0.087 H 
ENDBRANCH  31  34
ENDBRANCH  28  31
ENDBRANCH  25  28
ENDBRANCH  23  25
ENDBRANCH   9  23
BRANCH   6  43
ATOM     43  O   LIG d   1       2.739  -6.619  -9.352  0.00  0.00    -0.491 OA
BRANCH  43  44
ATOM     44  C   LIG d   1       4.042  -7.144  -9.611  0.00  0.00     0.079 C 
ATOM     45  H   LIG d   1       4.544  -6.522 -10.353  0.00  0.00     0.066 H 
ATOM     46  H   LIG d   1       4.623  -7.148  -8.688  0.00  0.00     0.066 H 
ATOM     47  H   LIG d   1       3.956  -8.163  -9.989  0.00  0.00     0.066 H 
ENDBRANCH  43  44
ENDBRANCH   6  43
BRANCH   1  48
ATOM     48  O   LIG d   1       0.985  -5.817 -11.311  0.00  0.00    -0.491 OA
BRANCH  48  49
ATOM     49  C   LIG d   1      -0.396  -6.010 -10.998  0.00  0.00     0.079 C 
ATOM     50  H   LIG d   1      -1.009  -5.666 -11.832  0.00  0.00     0.066 H 
ATOM     51  H   LIG d   1      -0.584  -7.068 -10.821  0.00  0.00     0.066 H 
ATOM     52  H   LIG d   1      -0.648  -5.441 -10.104  0.00  0.00     0.066 H 
ENDBRANCH  48  49
ENDBRANCH   1  48
TORSDOF 9
ENDMDL
