MODEL 1
REMARK VINA RESULT:      -7.0      0.000      0.000
REMARK  1 active torsions:
REMARK  status: ('A' for Active; 'I' for Inactive)
REMARK    1  A    between atoms: C_4  and  C_7 
ROOT
ATOM      1  C   LIG d   1       7.405  -3.383  -4.636  0.00  0.00    -0.011 C 
ATOM      2  H   LIG d   1       7.835  -2.723  -5.389  0.00  0.00     0.035 H 
ATOM      3  C   LIG d   1       6.265  -4.194  -5.260  0.00  0.00    -0.041 C 
ATOM      4  C   LIG d   1       5.312  -3.248  -6.000  0.00  0.00    -0.012 C 
ATOM      5  C   LIG d   1       4.943  -2.114  -5.073  0.00  0.00     0.020 A 
ATOM      6  C   LIG d   1       5.631  -1.807  -3.953  0.00  0.00    -0.019 A 
ATOM      7  C   LIG d   1       4.970  -0.671  -3.344  0.00  0.00     0.003 A 
ATOM      8  C   LIG d   1       5.228   0.069  -2.186  0.00  0.00    -0.052 A 
ATOM      9  C   LIG d   1       4.371   1.104  -1.908  0.00  0.00    -0.061 A 
ATOM     10  C   LIG d   1       3.297   1.412  -2.727  0.00  0.00    -0.060 A 
ATOM     11  C   LIG d   1       3.019   0.697  -3.879  0.00  0.00    -0.038 A 
ATOM     12  C   LIG d   1       3.873  -0.360  -4.187  0.00  0.00     0.047 A 
ATOM     13  N   LIG d   1       3.889  -1.251  -5.221  0.00  0.00    -0.358 N 
ATOM     14  H   LIG d   1       3.250  -1.271  -5.951  0.00  0.00     0.166 HD
ATOM     15  C   LIG d   1       6.856  -2.546  -3.475  0.00  0.00    -0.019 C 
ATOM     16  H   LIG d   1       6.676  -4.919  -5.963  0.00  0.00     0.028 H 
ATOM     17  H   LIG d   1       5.719  -4.718  -4.475  0.00  0.00     0.028 H 
ATOM     18  H   LIG d   1       5.807  -2.851  -6.886  0.00  0.00     0.033 H 
ATOM     19  H   LIG d   1       4.413  -3.789  -6.292  0.00  0.00     0.033 H 
ATOM     20  H   LIG d   1       6.062  -0.164  -1.540  0.00  0.00     0.062 H 
ATOM     21  H   LIG d   1       4.538   1.697  -1.021  0.00  0.00     0.062 H 
ATOM     22  H   LIG d   1       2.655   2.239  -2.458  0.00  0.00     0.062 H 
ATOM     23  H   LIG d   1       2.178   0.946  -4.509  0.00  0.00     0.064 H 
ATOM     24  H   LIG d   1       6.588  -3.201  -2.646  0.00  0.00     0.032 H 
ATOM     25  H   LIG d   1       7.612  -1.831  -3.150  0.00  0.00     0.032 H 
ENDROOT
BRANCH   1  26
ATOM     26  C   LIG d   1       8.467  -4.321  -4.123  0.00  0.00    -0.044 A 
ATOM     27  C   LIG d   1       9.342  -3.903  -3.138  0.00  0.00    -0.058 A 
ATOM     28  C   LIG d   1      10.315  -4.764  -2.667  0.00  0.00    -0.061 A 
ATOM     29  H   LIG d   1       9.264  -2.904  -2.737  0.00  0.00     0.062 H 
ATOM     30  C   LIG d   1      10.412  -6.044  -3.180  0.00  0.00    -0.062 A 
ATOM     31  H   LIG d   1      10.998  -4.438  -1.898  0.00  0.00     0.062 H 
ATOM     32  C   LIG d   1       9.537  -6.463  -4.164  0.00  0.00    -0.061 A 
ATOM     33  H   LIG d   1      11.175  -6.715  -2.815  0.00  0.00     0.062 H 
ATOM     34  C   LIG d   1       8.564  -5.602  -4.637  0.00  0.00    -0.058 A 
ATOM     35  H   LIG d   1       9.613  -7.463  -4.566  0.00  0.00     0.062 H 
ATOM     36  H   LIG d   1       7.880  -5.928  -5.406  0.00  0.00     0.062 H 
ENDBRANCH   1  26
TORSDOF 1
ENDMDL
MODEL 2
REMARK VINA RESULT:      -6.8      4.475      6.321
REMARK  1 active torsions:
REMARK  status: ('A' for Active; 'I' for Inactive)
REMARK    1  A    between atoms: C_4  and  C_7 
ROOT
ATOM      1  C   LIG d   1       8.429   2.096  -4.912  0.00  0.00    -0.011 C 
ATOM      2  H   LIG d   1       7.793   2.297  -5.774  0.00  0.00     0.035 H 
ATOM      3  C   LIG d   1       9.407   0.967  -5.251  0.00  0.00    -0.041 C 
ATOM      4  C   LIG d   1       8.634  -0.214  -5.850  0.00  0.00    -0.012 C 
ATOM      5  C   LIG d   1       7.471  -0.539  -4.943  0.00  0.00     0.020 A 
ATOM      6  C   LIG d   1       6.999   0.303  -3.998  0.00  0.00    -0.019 A 
ATOM      7  C   LIG d   1       5.893  -0.367  -3.345  0.00  0.00     0.003 A 
ATOM      8  C   LIG d   1       5.034   0.010  -2.308  0.00  0.00    -0.052 A 
ATOM      9  C   LIG d   1       4.076  -0.899  -1.934  0.00  0.00    -0.061 A 
ATOM     10  C   LIG d   1       3.956  -2.135  -2.547  0.00  0.00    -0.060 A 
ATOM     11  C   LIG d   1       4.791  -2.534  -3.576  0.00  0.00    -0.038 A 
ATOM     12  C   LIG d   1       5.773  -1.630  -3.977  0.00  0.00     0.047 A 
ATOM     13  N   LIG d   1       6.742  -1.699  -4.937  0.00  0.00    -0.358 N 
ATOM     14  H   LIG d   1       6.891  -2.455  -5.526  0.00  0.00     0.166 HD
ATOM     15  C   LIG d   1       7.560   1.675  -3.721  0.00  0.00    -0.019 C 
ATOM     16  H   LIG d   1      10.141   1.325  -5.974  0.00  0.00     0.028 H 
ATOM     17  H   LIG d   1       9.918   0.644  -4.344  0.00  0.00     0.028 H 
ATOM     18  H   LIG d   1       8.262   0.056  -6.838  0.00  0.00     0.033 H 
ATOM     19  H   LIG d   1       9.291  -1.080  -5.927  0.00  0.00     0.033 H 
ATOM     20  H   LIG d   1       5.121   0.971  -1.823  0.00  0.00     0.062 H 
ATOM     21  H   LIG d   1       3.396  -0.643  -1.135  0.00  0.00     0.062 H 
ATOM     22  H   LIG d   1       3.182  -2.811  -2.211  0.00  0.00     0.062 H 
ATOM     23  H   LIG d   1       4.687  -3.501  -4.046  0.00  0.00     0.064 H 
ATOM     24  H   LIG d   1       8.167   1.647  -2.817  0.00  0.00     0.032 H 
ATOM     25  H   LIG d   1       6.743   2.386  -3.596  0.00  0.00     0.032 H 
ENDROOT
BRANCH   1  26
ATOM     26  C   LIG d   1       9.202   3.340  -4.557  0.00  0.00    -0.044 A 
ATOM     27  C   LIG d   1       9.551   4.243  -5.544  0.00  0.00    -0.058 A 
ATOM     28  C   LIG d   1      10.258   5.385  -5.218  0.00  0.00    -0.061 A 
ATOM     29  H   LIG d   1       9.270   4.055  -6.570  0.00  0.00     0.062 H 
ATOM     30  C   LIG d   1      10.616   5.624  -3.904  0.00  0.00    -0.062 A 
ATOM     31  H   LIG d   1      10.531   6.089  -5.989  0.00  0.00     0.062 H 
ATOM     32  C   LIG d   1      10.266   4.722  -2.917  0.00  0.00    -0.061 A 
ATOM     33  H   LIG d   1      11.172   6.513  -3.650  0.00  0.00     0.062 H 
ATOM     34  C   LIG d   1       9.560   3.579  -3.243  0.00  0.00    -0.058 A 
ATOM     35  H   LIG d   1      10.546   4.909  -1.890  0.00  0.00     0.062 H 
ATOM     36  H   LIG d   1       9.286   2.874  -2.472  0.00  0.00     0.062 H 
ENDBRANCH   1  26
TORSDOF 1
ENDMDL
MODEL 3
REMARK VINA RESULT:      -6.8      2.121      2.856
REMARK  1 active torsions:
REMARK  status: ('A' for Active; 'I' for Inactive)
REMARK    1  A    between atoms: C_4  and  C_7 
ROOT
ATOM      1  C   LIG d   1       5.592  -3.935  -5.766  0.00  0.00    -0.011 C 
ATOM      2  H   LIG d   1       6.516  -3.440  -6.064  0.00  0.00     0.035 H 
ATOM      3  C   LIG d   1       4.501  -3.647  -6.802  0.00  0.00    -0.041 C 
ATOM      4  C   LIG d   1       4.441  -2.139  -7.073  0.00  0.00    -0.012 C 
ATOM      5  C   LIG d   1       4.363  -1.415  -5.750  0.00  0.00     0.020 A 
ATOM      6  C   LIG d   1       4.676  -1.982  -4.565  0.00  0.00    -0.019 A 
ATOM      7  C   LIG d   1       4.473  -0.975  -3.544  0.00  0.00     0.003 A 
ATOM      8  C   LIG d   1       4.632  -0.986  -2.154  0.00  0.00    -0.052 A 
ATOM      9  C   LIG d   1       4.338   0.177  -1.487  0.00  0.00    -0.061 A 
ATOM     10  C   LIG d   1       3.902   1.314  -2.146  0.00  0.00    -0.060 A 
ATOM     11  C   LIG d   1       3.736   1.354  -3.519  0.00  0.00    -0.038 A 
ATOM     12  C   LIG d   1       4.028   0.187  -4.224  0.00  0.00     0.047 A 
ATOM     13  N   LIG d   1       3.975  -0.116  -5.554  0.00  0.00    -0.358 N 
ATOM     14  H   LIG d   1       3.703   0.497  -6.256  0.00  0.00     0.166 HD
ATOM     15  C   LIG d   1       5.145  -3.405  -4.398  0.00  0.00    -0.019 C 
ATOM     16  H   LIG d   1       4.732  -4.174  -7.729  0.00  0.00     0.028 H 
ATOM     17  H   LIG d   1       3.538  -3.986  -6.420  0.00  0.00     0.028 H 
ATOM     18  H   LIG d   1       5.338  -1.828  -7.608  0.00  0.00     0.033 H 
ATOM     19  H   LIG d   1       3.558  -1.910  -7.668  0.00  0.00     0.033 H 
ATOM     20  H   LIG d   1       4.970  -1.869  -1.631  0.00  0.00     0.062 H 
ATOM     21  H   LIG d   1       4.448   0.205  -0.413  0.00  0.00     0.062 H 
ATOM     22  H   LIG d   1       3.686   2.201  -1.568  0.00  0.00     0.062 H 
ATOM     23  H   LIG d   1       3.396   2.247  -4.022  0.00  0.00     0.064 H 
ATOM     24  H   LIG d   1       4.329  -4.018  -4.017  0.00  0.00     0.032 H 
ATOM     25  H   LIG d   1       5.985  -3.435  -3.703  0.00  0.00     0.032 H 
ENDROOT
BRANCH   1  26
ATOM     26  C   LIG d   1       5.824  -5.421  -5.679  0.00  0.00    -0.044 A 
ATOM     27  C   LIG d   1       4.753  -6.293  -5.746  0.00  0.00    -0.058 A 
ATOM     28  C   LIG d   1       4.965  -7.656  -5.668  0.00  0.00    -0.061 A 
ATOM     29  H   LIG d   1       3.751  -5.908  -5.860  0.00  0.00     0.062 H 
ATOM     30  C   LIG d   1       6.250  -8.149  -5.523  0.00  0.00    -0.062 A 
ATOM     31  H   LIG d   1       4.129  -8.337  -5.720  0.00  0.00     0.062 H 
ATOM     32  C   LIG d   1       7.320  -7.277  -5.457  0.00  0.00    -0.061 A 
ATOM     33  H   LIG d   1       6.415  -9.213  -5.458  0.00  0.00     0.062 H 
ATOM     34  C   LIG d   1       7.108  -5.913  -5.534  0.00  0.00    -0.058 A 
ATOM     35  H   LIG d   1       8.324  -7.661  -5.344  0.00  0.00     0.062 H 
ATOM     36  H   LIG d   1       7.945  -5.232  -5.482  0.00  0.00     0.062 H 
ENDBRANCH   1  26
TORSDOF 1
ENDMDL
MODEL 4
REMARK VINA RESULT:      -6.7      1.338      6.544
REMARK  1 active torsions:
REMARK  status: ('A' for Active; 'I' for Inactive)
REMARK    1  A    between atoms: C_4  and  C_7 
ROOT
ATOM      1  C   LIG d   1       5.180  -2.278  -3.814  0.00  0.00    -0.011 C 
ATOM      2  H   LIG d   1       4.696  -3.098  -3.283  0.00  0.00     0.035 H 
ATOM      3  C   LIG d   1       4.951  -2.438  -5.319  0.00  0.00    -0.041 C 
ATOM      4  C   LIG d   1       5.314  -3.866  -5.741  0.00  0.00    -0.012 C 
ATOM      5  C   LIG d   1       6.685  -4.194  -5.200  0.00  0.00     0.020 A 
ATOM      6  C   LIG d   1       7.290  -3.494  -4.216  0.00  0.00    -0.019 A 
ATOM      7  C   LIG d   1       8.579  -4.113  -3.984  0.00  0.00     0.003 A 
ATOM      8  C   LIG d   1       9.624  -3.826  -3.100  0.00  0.00    -0.052 A 
ATOM      9  C   LIG d   1      10.726  -4.642  -3.157  0.00  0.00    -0.061 A 
ATOM     10  C   LIG d   1      10.812  -5.702  -4.044  0.00  0.00    -0.060 A 
ATOM     11  C   LIG d   1       9.794  -6.009  -4.929  0.00  0.00    -0.038 A 
ATOM     12  C   LIG d   1       8.661  -5.198  -4.893  0.00  0.00     0.047 A 
ATOM     13  N   LIG d   1       7.500  -5.217  -5.611  0.00  0.00    -0.358 N 
ATOM     14  H   LIG d   1       7.283  -5.858  -6.306  0.00  0.00     0.166 HD
ATOM     15  C   LIG d   1       6.686  -2.299  -3.524  0.00  0.00    -0.019 C 
ATOM     16  H   LIG d   1       3.902  -2.246  -5.551  0.00  0.00     0.028 H 
ATOM     17  H   LIG d   1       5.578  -1.728  -5.860  0.00  0.00     0.028 H 
ATOM     18  H   LIG d   1       4.583  -4.564  -5.335  0.00  0.00     0.033 H 
ATOM     19  H   LIG d   1       5.324  -3.935  -6.829  0.00  0.00     0.033 H 
ATOM     20  H   LIG d   1       9.567  -3.001  -2.405  0.00  0.00     0.062 H 
ATOM     21  H   LIG d   1      11.554  -4.450  -2.490  0.00  0.00     0.062 H 
ATOM     22  H   LIG d   1      11.705  -6.311  -4.044  0.00  0.00     0.062 H 
ATOM     23  H   LIG d   1       9.873  -6.839  -5.616  0.00  0.00     0.064 H 
ATOM     24  H   LIG d   1       7.144  -1.386  -3.903  0.00  0.00     0.032 H 
ATOM     25  H   LIG d   1       6.850  -2.376  -2.449  0.00  0.00     0.032 H 
ENDROOT
BRANCH   1  26
ATOM     26  C   LIG d   1       4.597  -0.967  -3.353  0.00  0.00    -0.044 A 
ATOM     27  C   LIG d   1       4.998  -0.416  -2.150  0.00  0.00    -0.058 A 
ATOM     28  C   LIG d   1       4.464   0.787  -1.728  0.00  0.00    -0.061 A 
ATOM     29  H   LIG d   1       5.728  -0.927  -1.540  0.00  0.00     0.062 H 
ATOM     30  C   LIG d   1       3.528   1.440  -2.510  0.00  0.00    -0.062 A 
ATOM     31  H   LIG d   1       4.776   1.216  -0.788  0.00  0.00     0.062 H 
ATOM     32  C   LIG d   1       3.128   0.890  -3.713  0.00  0.00    -0.061 A 
ATOM     33  H   LIG d   1       3.108   2.377  -2.178  0.00  0.00     0.062 H 
ATOM     34  C   LIG d   1       3.661  -0.314  -4.134  0.00  0.00    -0.058 A 
ATOM     35  H   LIG d   1       2.398   1.400  -4.324  0.00  0.00     0.062 H 
ATOM     36  H   LIG d   1       3.349  -0.744  -5.075  0.00  0.00     0.062 H 
ENDBRANCH   1  26
TORSDOF 1
ENDMDL
MODEL 5
REMARK VINA RESULT:      -6.7      5.314      6.814
REMARK  1 active torsions:
REMARK  status: ('A' for Active; 'I' for Inactive)
REMARK    1  A    between atoms: C_4  and  C_7 
ROOT
ATOM      1  C   LIG d   1       7.491   0.583  -4.241  0.00  0.00    -0.011 C 
ATOM      2  H   LIG d   1       8.401   0.062  -3.946  0.00  0.00     0.035 H 
ATOM      3  C   LIG d   1       7.178   0.275  -5.708  0.00  0.00    -0.041 C 
ATOM      4  C   LIG d   1       8.434   0.508  -6.556  0.00  0.00    -0.012 C 
ATOM      5  C   LIG d   1       8.991   1.873  -6.228  0.00  0.00     0.020 A 
ATOM      6  C   LIG d   1       8.656   2.573  -5.123  0.00  0.00    -0.019 A 
ATOM      7  C   LIG d   1       9.392   3.820  -5.170  0.00  0.00     0.003 A 
ATOM      8  C   LIG d   1       9.446   4.923  -4.312  0.00  0.00    -0.052 A 
ATOM      9  C   LIG d   1      10.273   5.955  -4.680  0.00  0.00    -0.061 A 
ATOM     10  C   LIG d   1      11.022   5.919  -5.844  0.00  0.00    -0.060 A 
ATOM     11  C   LIG d   1      10.988   4.841  -6.711  0.00  0.00    -0.038 A 
ATOM     12  C   LIG d   1      10.158   3.777  -6.363  0.00  0.00     0.047 A 
ATOM     13  N   LIG d   1       9.891   2.586  -6.975  0.00  0.00    -0.358 N 
ATOM     14  H   LIG d   1      10.280   2.290  -7.813  0.00  0.00     0.166 HD
ATOM     15  C   LIG d   1       7.688   2.094  -4.071  0.00  0.00    -0.019 C 
ATOM     16  H   LIG d   1       6.864  -0.765  -5.803  0.00  0.00     0.028 H 
ATOM     17  H   LIG d   1       6.379   0.930  -6.055  0.00  0.00     0.028 H 
ATOM     18  H   LIG d   1       9.177  -0.256  -6.327  0.00  0.00     0.033 H 
ATOM     19  H   LIG d   1       8.174   0.463  -7.614  0.00  0.00     0.033 H 
ATOM     20  H   LIG d   1       8.865   4.960  -3.402  0.00  0.00     0.062 H 
ATOM     21  H   LIG d   1      10.339   6.824  -4.042  0.00  0.00     0.062 H 
ATOM     22  H   LIG d   1      11.655   6.761  -6.084  0.00  0.00     0.062 H 
ATOM     23  H   LIG d   1      11.576   4.824  -7.616  0.00  0.00     0.064 H 
ATOM     24  H   LIG d   1       6.733   2.605  -4.192  0.00  0.00     0.032 H 
ATOM     25  H   LIG d   1       8.093   2.301  -3.080  0.00  0.00     0.032 H 
ENDROOT
BRANCH   1  26
ATOM     26  C   LIG d   1       6.345   0.124  -3.376  0.00  0.00    -0.044 A 
ATOM     27  C   LIG d   1       6.053  -1.222  -3.272  0.00  0.00    -0.058 A 
ATOM     28  C   LIG d   1       5.004  -1.643  -2.478  0.00  0.00    -0.061 A 
ATOM     29  H   LIG d   1       6.646  -1.946  -3.812  0.00  0.00     0.062 H 
ATOM     30  C   LIG d   1       4.246  -0.716  -1.786  0.00  0.00    -0.062 A 
ATOM     31  H   LIG d   1       4.775  -2.695  -2.397  0.00  0.00     0.062 H 
ATOM     32  C   LIG d   1       4.538   0.631  -1.888  0.00  0.00    -0.061 A 
ATOM     33  H   LIG d   1       3.423  -1.045  -1.168  0.00  0.00     0.062 H 
ATOM     34  C   LIG d   1       5.587   1.052  -2.684  0.00  0.00    -0.058 A 
ATOM     35  H   LIG d   1       3.947   1.355  -1.348  0.00  0.00     0.062 H 
ATOM     36  H   LIG d   1       5.816   2.104  -2.764  0.00  0.00     0.062 H 
ENDBRANCH   1  26
TORSDOF 1
ENDMDL
MODEL 6
REMARK VINA RESULT:      -6.5      3.472      6.444
REMARK  1 active torsions:
REMARK  status: ('A' for Active; 'I' for Inactive)
REMARK    1  A    between atoms: C_4  and  C_7 
ROOT
ATOM      1  C   LIG d   1       3.560  -1.669  -7.789  0.00  0.00    -0.011 C 
ATOM      2  H   LIG d   1       2.852  -2.408  -7.415  0.00  0.00     0.035 H 
ATOM      3  C   LIG d   1       4.972  -2.262  -7.779  0.00  0.00    -0.041 C 
ATOM      4  C   LIG d   1       5.255  -2.881  -6.405  0.00  0.00    -0.012 C 
ATOM      5  C   LIG d   1       4.910  -1.867  -5.340  0.00  0.00     0.020 A 
ATOM      6  C   LIG d   1       4.143  -0.778  -5.561  0.00  0.00    -0.019 A 
ATOM      7  C   LIG d   1       4.048  -0.061  -4.306  0.00  0.00     0.003 A 
ATOM      8  C   LIG d   1       3.397   1.119  -3.934  0.00  0.00    -0.052 A 
ATOM      9  C   LIG d   1       3.527   1.514  -2.626  0.00  0.00    -0.061 A 
ATOM     10  C   LIG d   1       4.267   0.787  -1.708  0.00  0.00    -0.060 A 
ATOM     11  C   LIG d   1       4.922  -0.384  -2.048  0.00  0.00    -0.038 A 
ATOM     12  C   LIG d   1       4.806  -0.810  -3.370  0.00  0.00     0.047 A 
ATOM     13  N   LIG d   1       5.311  -1.893  -4.030  0.00  0.00    -0.358 N 
ATOM     14  H   LIG d   1       5.869  -2.579  -3.631  0.00  0.00     0.166 HD
ATOM     15  C   LIG d   1       3.525  -0.427  -6.891  0.00  0.00    -0.019 C 
ATOM     16  H   LIG d   1       5.049  -3.033  -8.547  0.00  0.00     0.028 H 
ATOM     17  H   LIG d   1       5.699  -1.475  -7.979  0.00  0.00     0.028 H 
ATOM     18  H   LIG d   1       4.643  -3.773  -6.273  0.00  0.00     0.033 H 
ATOM     19  H   LIG d   1       6.310  -3.144  -6.332  0.00  0.00     0.033 H 
ATOM     20  H   LIG d   1       2.818   1.693  -4.643  0.00  0.00     0.062 H 
ATOM     21  H   LIG d   1       3.038   2.421  -2.303  0.00  0.00     0.062 H 
ATOM     22  H   LIG d   1       4.335   1.146  -0.691  0.00  0.00     0.062 H 
ATOM     23  H   LIG d   1       5.496  -0.942  -1.324  0.00  0.00     0.064 H 
ATOM     24  H   LIG d   1       4.093   0.379  -7.358  0.00  0.00     0.032 H 
ATOM     25  H   LIG d   1       2.492  -0.112  -6.743  0.00  0.00     0.032 H 
ENDROOT
BRANCH   1  26
ATOM     26  C   LIG d   1       3.187  -1.283  -9.197  0.00  0.00    -0.044 A 
ATOM     27  C   LIG d   1       2.177  -1.960  -9.855  0.00  0.00    -0.058 A 
ATOM     28  C   LIG d   1       1.834  -1.605 -11.146  0.00  0.00    -0.061 A 
ATOM     29  H   LIG d   1       1.656  -2.765  -9.359  0.00  0.00     0.062 H 
ATOM     30  C   LIG d   1       2.501  -0.573 -11.780  0.00  0.00    -0.062 A 
ATOM     31  H   LIG d   1       1.046  -2.134 -11.660  0.00  0.00     0.062 H 
ATOM     32  C   LIG d   1       3.511   0.104 -11.122  0.00  0.00    -0.061 A 
ATOM     33  H   LIG d   1       2.236  -0.299 -12.790  0.00  0.00     0.062 H 
ATOM     34  C   LIG d   1       3.855  -0.251  -9.831  0.00  0.00    -0.058 A 
ATOM     35  H   LIG d   1       4.032   0.910 -11.617  0.00  0.00     0.062 H 
ATOM     36  H   LIG d   1       4.643   0.278  -9.317  0.00  0.00     0.062 H 
ENDBRANCH   1  26
TORSDOF 1
ENDMDL
MODEL 7
REMARK VINA RESULT:      -6.5      2.036      3.375
REMARK  1 active torsions:
REMARK  status: ('A' for Active; 'I' for Inactive)
REMARK    1  A    between atoms: C_4  and  C_7 
ROOT
ATOM      1  C   LIG d   1       6.589  -4.396  -4.816  0.00  0.00    -0.011 C 
ATOM      2  H   LIG d   1       6.890  -4.738  -3.826  0.00  0.00     0.035 H 
ATOM      3  C   LIG d   1       7.730  -3.595  -5.449  0.00  0.00    -0.041 C 
ATOM      4  C   LIG d   1       8.223  -2.537  -4.455  0.00  0.00    -0.012 C 
ATOM      5  C   LIG d   1       7.030  -1.770  -3.936  0.00  0.00     0.020 A 
ATOM      6  C   LIG d   1       5.755  -2.203  -4.046  0.00  0.00    -0.019 A 
ATOM      7  C   LIG d   1       4.910  -1.198  -3.435  0.00  0.00     0.003 A 
ATOM      8  C   LIG d   1       3.527  -1.102  -3.256  0.00  0.00    -0.052 A 
ATOM      9  C   LIG d   1       3.060   0.021  -2.620  0.00  0.00    -0.061 A 
ATOM     10  C   LIG d   1       3.908   1.020  -2.172  0.00  0.00    -0.060 A 
ATOM     11  C   LIG d   1       5.280   0.952  -2.335  0.00  0.00    -0.038 A 
ATOM     12  C   LIG d   1       5.784  -0.178  -2.977  0.00  0.00     0.047 A 
ATOM     13  N   LIG d   1       7.056  -0.559  -3.297  0.00  0.00    -0.358 N 
ATOM     14  H   LIG d   1       7.857  -0.048  -3.100  0.00  0.00     0.166 HD
ATOM     15  C   LIG d   1       5.349  -3.502  -4.694  0.00  0.00    -0.019 C 
ATOM     16  H   LIG d   1       8.551  -4.267  -5.701  0.00  0.00     0.028 H 
ATOM     17  H   LIG d   1       7.372  -3.104  -6.354  0.00  0.00     0.028 H 
ATOM     18  H   LIG d   1       8.734  -3.025  -3.625  0.00  0.00     0.033 H 
ATOM     19  H   LIG d   1       8.907  -1.853  -4.958  0.00  0.00     0.033 H 
ATOM     20  H   LIG d   1       2.857  -1.875  -3.602  0.00  0.00     0.062 H 
ATOM     21  H   LIG d   1       1.996   0.130  -2.464  0.00  0.00     0.062 H 
ATOM     22  H   LIG d   1       3.484   1.883  -1.678  0.00  0.00     0.062 H 
ATOM     23  H   LIG d   1       5.932   1.737  -1.982  0.00  0.00     0.064 H 
ATOM     24  H   LIG d   1       4.940  -3.305  -5.685  0.00  0.00     0.032 H 
ATOM     25  H   LIG d   1       4.599  -4.000  -4.078  0.00  0.00     0.032 H 
ENDROOT
BRANCH   1  26
ATOM     26  C   LIG d   1       6.268  -5.586  -5.683  0.00  0.00    -0.044 A 
ATOM     27  C   LIG d   1       7.291  -6.338  -6.231  0.00  0.00    -0.058 A 
ATOM     28  C   LIG d   1       6.997  -7.430  -7.025  0.00  0.00    -0.061 A 
ATOM     29  H   LIG d   1       8.319  -6.071  -6.038  0.00  0.00     0.062 H 
ATOM     30  C   LIG d   1       5.679  -7.771  -7.271  0.00  0.00    -0.062 A 
ATOM     31  H   LIG d   1       7.795  -8.017  -7.453  0.00  0.00     0.062 H 
ATOM     32  C   LIG d   1       4.657  -7.020  -6.722  0.00  0.00    -0.061 A 
ATOM     33  H   LIG d   1       5.450  -8.622  -7.894  0.00  0.00     0.062 H 
ATOM     34  C   LIG d   1       4.951  -5.927  -5.929  0.00  0.00    -0.058 A 
ATOM     35  H   LIG d   1       3.628  -7.287  -6.914  0.00  0.00     0.062 H 
ATOM     36  H   LIG d   1       4.152  -5.340  -5.500  0.00  0.00     0.062 H 
ENDBRANCH   1  26
TORSDOF 1
ENDMDL
MODEL 8
REMARK VINA RESULT:      -6.3      2.310      6.868
REMARK  1 active torsions:
REMARK  status: ('A' for Active; 'I' for Inactive)
REMARK    1  A    between atoms: C_4  and  C_7 
ROOT
ATOM      1  C   LIG d   1       6.975  -1.873  -4.033  0.00  0.00    -0.011 C 
ATOM      2  H   LIG d   1       6.386  -2.526  -4.677  0.00  0.00     0.035 H 
ATOM      3  C   LIG d   1       7.947  -1.054  -4.886  0.00  0.00    -0.041 C 
ATOM      4  C   LIG d   1       8.709  -1.989  -5.831  0.00  0.00    -0.012 C 
ATOM      5  C   LIG d   1       9.275  -3.134  -5.023  0.00  0.00     0.020 A 
ATOM      6  C   LIG d   1       8.855  -3.454  -3.781  0.00  0.00    -0.019 A 
ATOM      7  C   LIG d   1       9.634  -4.595  -3.348  0.00  0.00     0.003 A 
ATOM      8  C   LIG d   1       9.642  -5.348  -2.170  0.00  0.00    -0.052 A 
ATOM      9  C   LIG d   1      10.538  -6.385  -2.102  0.00  0.00    -0.061 A 
ATOM     10  C   LIG d   1      11.401  -6.682  -3.144  0.00  0.00    -0.060 A 
ATOM     11  C   LIG d   1      11.416  -5.954  -4.321  0.00  0.00    -0.038 A 
ATOM     12  C   LIG d   1      10.515  -4.895  -4.419  0.00  0.00     0.047 A 
ATOM     13  N   LIG d   1      10.269  -3.992  -5.413  0.00  0.00    -0.358 N 
ATOM     14  H   LIG d   1      10.728  -3.964  -6.267  0.00  0.00     0.166 HD
ATOM     15  C   LIG d   1       7.769  -2.722  -3.033  0.00  0.00    -0.019 C 
ATOM     16  H   LIG d   1       7.389  -0.322  -5.472  0.00  0.00     0.028 H 
ATOM     17  H   LIG d   1       8.655  -0.537  -4.238  0.00  0.00     0.028 H 
ATOM     18  H   LIG d   1       8.028  -2.378  -6.589  0.00  0.00     0.033 H 
ATOM     19  H   LIG d   1       9.521  -1.444  -6.311  0.00  0.00     0.033 H 
ATOM     20  H   LIG d   1       8.973  -5.124  -1.352  0.00  0.00     0.062 H 
ATOM     21  H   LIG d   1      10.573  -6.988  -1.207  0.00  0.00     0.062 H 
ATOM     22  H   LIG d   1      12.086  -7.511  -3.035  0.00  0.00     0.062 H 
ATOM     23  H   LIG d   1      12.093  -6.195  -5.126  0.00  0.00     0.064 H 
ATOM     24  H   LIG d   1       8.216  -2.076  -2.277  0.00  0.00     0.032 H 
ATOM     25  H   LIG d   1       7.104  -3.442  -2.556  0.00  0.00     0.032 H 
ENDROOT
BRANCH   1  26
ATOM     26  C   LIG d   1       6.055  -0.942  -3.285  0.00  0.00    -0.044 A 
ATOM     27  C   LIG d   1       6.255   0.424  -3.345  0.00  0.00    -0.058 A 
ATOM     28  C   LIG d   1       5.411   1.277  -2.660  0.00  0.00    -0.061 A 
ATOM     29  H   LIG d   1       7.071   0.824  -3.928  0.00  0.00     0.062 H 
ATOM     30  C   LIG d   1       4.366   0.764  -1.914  0.00  0.00    -0.062 A 
ATOM     31  H   LIG d   1       5.568   2.344  -2.706  0.00  0.00     0.062 H 
ATOM     32  C   LIG d   1       4.165  -0.602  -1.855  0.00  0.00    -0.061 A 
ATOM     33  H   LIG d   1       3.709   1.430  -1.376  0.00  0.00     0.062 H 
ATOM     34  C   LIG d   1       5.010  -1.456  -2.539  0.00  0.00    -0.058 A 
ATOM     35  H   LIG d   1       3.348  -1.003  -1.272  0.00  0.00     0.062 H 
ATOM     36  H   LIG d   1       4.853  -2.524  -2.492  0.00  0.00     0.062 H 
ENDBRANCH   1  26
TORSDOF 1
ENDMDL
MODEL 9
REMARK VINA RESULT:      -6.3      3.681      6.125
REMARK  1 active torsions:
REMARK  status: ('A' for Active; 'I' for Inactive)
REMARK    1  A    between atoms: C_4  and  C_7 
ROOT
ATOM      1  C   LIG d   1       5.250  -1.473  -5.616  0.00  0.00    -0.011 C 
ATOM      2  H   LIG d   1       6.323  -1.431  -5.801  0.00  0.00     0.035 H 
ATOM      3  C   LIG d   1       4.742  -2.895  -5.874  0.00  0.00    -0.041 C 
ATOM      4  C   LIG d   1       5.244  -3.375  -7.240  0.00  0.00    -0.012 C 
ATOM      5  C   LIG d   1       4.925  -2.317  -8.270  0.00  0.00     0.020 A 
ATOM      6  C   LIG d   1       4.608  -1.042  -7.960  0.00  0.00    -0.019 A 
ATOM      7  C   LIG d   1       4.372  -0.347  -9.209  0.00  0.00     0.003 A 
ATOM      8  C   LIG d   1       4.015   0.972  -9.509  0.00  0.00    -0.052 A 
ATOM      9  C   LIG d   1       3.872   1.289 -10.837  0.00  0.00    -0.061 A 
ATOM     10  C   LIG d   1       4.068   0.357 -11.842  0.00  0.00    -0.060 A 
ATOM     11  C   LIG d   1       4.422  -0.954 -11.574  0.00  0.00    -0.038 A 
ATOM     12  C   LIG d   1       4.575  -1.305 -10.234  0.00  0.00     0.047 A 
ATOM     13  N   LIG d   1       4.909  -2.483  -9.630  0.00  0.00    -0.358 N 
ATOM     14  H   LIG d   1       5.105  -3.312 -10.093  0.00  0.00     0.166 HD
ATOM     15  C   LIG d   1       4.530  -0.499  -6.556  0.00  0.00    -0.019 C 
ATOM     16  H   LIG d   1       5.115  -3.561  -5.095  0.00  0.00     0.028 H 
ATOM     17  H   LIG d   1       3.652  -2.899  -5.865  0.00  0.00     0.028 H 
ATOM     18  H   LIG d   1       6.322  -3.533  -7.199  0.00  0.00     0.033 H 
ATOM     19  H   LIG d   1       4.745  -4.307  -7.506  0.00  0.00     0.033 H 
ATOM     20  H   LIG d   1       3.859   1.706  -8.732  0.00  0.00     0.062 H 
ATOM     21  H   LIG d   1       3.596   2.298 -11.106  0.00  0.00     0.062 H 
ATOM     22  H   LIG d   1       3.941   0.664 -12.870  0.00  0.00     0.062 H 
ATOM     23  H   LIG d   1       4.571  -1.672 -12.367  0.00  0.00     0.064 H 
ATOM     24  H   LIG d   1       3.486  -0.405  -6.257  0.00  0.00     0.032 H 
ATOM     25  H   LIG d   1       5.015   0.476  -6.513  0.00  0.00     0.032 H 
ENDROOT
BRANCH   1  26
ATOM     26  C   LIG d   1       4.971  -1.091  -4.185  0.00  0.00    -0.044 A 
ATOM     27  C   LIG d   1       5.198   0.203  -3.757  0.00  0.00    -0.058 A 
ATOM     28  C   LIG d   1       4.941   0.554  -2.446  0.00  0.00    -0.061 A 
ATOM     29  H   LIG d   1       5.577   0.941  -4.449  0.00  0.00     0.062 H 
ATOM     30  C   LIG d   1       4.456  -0.392  -1.560  0.00  0.00    -0.062 A 
ATOM     31  H   LIG d   1       5.119   1.564  -2.111  0.00  0.00     0.062 H 
ATOM     32  C   LIG d   1       4.227  -1.686  -1.988  0.00  0.00    -0.061 A 
ATOM     33  H   LIG d   1       4.259  -0.119  -0.535  0.00  0.00     0.062 H 
ATOM     34  C   LIG d   1       4.486  -2.037  -3.300  0.00  0.00    -0.058 A 
ATOM     35  H   LIG d   1       3.848  -2.424  -1.297  0.00  0.00     0.062 H 
ATOM     36  H   LIG d   1       4.307  -3.048  -3.634  0.00  0.00     0.062 H 
ENDBRANCH   1  26
TORSDOF 1
ENDMDL
