MODEL 1
REMARK VINA RESULT:      -5.7      0.000      0.000
REMARK  6 active torsions:
REMARK  status: ('A' for Active; 'I' for Inactive)
REMARK    1  A    between atoms: C_1  and  C_2 
REMARK    2  A    between atoms: C_13  and  C_15 
REMARK    3  A    between atoms: C_15  and  O_17 
REMARK    4  A    between atoms: O_17  and  C_18 
REMARK    5  A    between atoms: C_22  and  C_29 
REMARK    6  A    between atoms: C_25  and  O_28 
ROOT
ATOM      1  C   LIG d   1       6.130  -5.374  -6.367  0.00  0.00    -0.016 C 
ATOM      2  C   LIG d   1       4.799  -5.537  -5.658  0.00  0.00    -0.046 C 
ATOM      3  C   LIG d   1       4.355  -4.139  -5.202  0.00  0.00    -0.049 C 
ATOM      4  C   LIG d   1       5.396  -3.481  -4.300  0.00  0.00    -0.029 C 
ATOM      5  H   LIG d   1       5.464  -4.056  -3.378  0.00  0.00     0.031 H 
ATOM      6  C   LIG d   1       6.782  -3.452  -4.956  0.00  0.00    -0.031 C 
ATOM      7  H   LIG d   1       6.777  -2.833  -5.854  0.00  0.00     0.031 H 
ATOM      8  C   LIG d   1       7.153  -4.881  -5.308  0.00  0.00    -0.032 C 
ATOM      9  H   LIG d   1       7.115  -5.511  -4.420  0.00  0.00     0.031 H 
ATOM     10  C   LIG d   1       8.482  -5.062  -6.051  0.00  0.00    -0.049 C 
ATOM     11  C   LIG d   1       8.299  -6.432  -6.760  0.00  0.00    -0.039 C 
ATOM     12  C   LIG d   1       6.773  -6.648  -6.908  0.00  0.00     0.062 C 
ATOM     13  H   LIG d   1       6.455  -7.509  -6.321  0.00  0.00     0.042 H 
ATOM     14  C   LIG d   1       7.784  -2.898  -3.937  0.00  0.00    -0.031 C 
ATOM     15  C   LIG d   1       7.318  -1.549  -3.471  0.00  0.00    -0.084 C 
ATOM     16  C   LIG d   1       6.067  -1.194  -3.472  0.00  0.00    -0.065 C 
ATOM     17  C   LIG d   1       4.946  -2.074  -3.941  0.00  0.00    -0.008 C 
ATOM     18  C   LIG d   1       3.860  -2.129  -2.863  0.00  0.00    -0.041 C 
ATOM     19  C   LIG d   1       3.428  -0.705  -2.506  0.00  0.00    -0.026 C 
ATOM     20  C   LIG d   1       4.612   0.061  -1.912  0.00  0.00     0.059 C 
ATOM     21  H   LIG d   1       5.000  -0.481  -1.051  0.00  0.00     0.060 H 
ATOM     22  C   LIG d   1       5.713   0.196  -2.969  0.00  0.00    -0.005 C 
ATOM     23  H   LIG d   1       4.063  -5.956  -6.344  0.00  0.00     0.027 H 
ATOM     24  H   LIG d   1       4.916  -6.192  -4.794  0.00  0.00     0.027 H 
ATOM     25  H   LIG d   1       4.197  -3.512  -6.079  0.00  0.00     0.027 H 
ATOM     26  H   LIG d   1       3.416  -4.225  -4.657  0.00  0.00     0.027 H 
ATOM     27  H   LIG d   1       8.627  -4.265  -6.782  0.00  0.00     0.027 H 
ATOM     28  H   LIG d   1       9.315  -5.099  -5.349  0.00  0.00     0.027 H 
ATOM     29  H   LIG d   1       8.733  -7.227  -6.155  0.00  0.00     0.027 H 
ATOM     30  H   LIG d   1       8.771  -6.410  -7.743  0.00  0.00     0.027 H 
ATOM     31  H   LIG d   1       8.764  -2.803  -4.404  0.00  0.00     0.031 H 
ATOM     32  H   LIG d   1       7.849  -3.574  -3.086  0.00  0.00     0.031 H 
ATOM     33  H   LIG d   1       8.055  -0.842  -3.120  0.00  0.00     0.057 H 
ATOM     34  H   LIG d   1       3.002  -2.685  -3.240  0.00  0.00     0.027 H 
ATOM     35  H   LIG d   1       4.253  -2.624  -1.975  0.00  0.00     0.027 H 
ATOM     36  H   LIG d   1       2.620  -0.744  -1.776  0.00  0.00     0.029 H 
ATOM     37  H   LIG d   1       3.080  -0.196  -3.404  0.00  0.00     0.029 H 
ATOM     38  H   LIG d   1       5.354   0.806  -3.799  0.00  0.00     0.034 H 
ATOM     39  H   LIG d   1       6.593   0.661  -2.525  0.00  0.00     0.034 H 
ENDROOT
BRANCH  12  40
ATOM     40  C   LIG d   1       6.408  -6.840  -8.357  0.00  0.00     0.310 C 
ATOM     41  O   LIG d   1       7.242  -6.678  -9.217  0.00  0.00    -0.251 OA
BRANCH  40  42
ATOM     42  O   LIG d   1       5.157  -7.195  -8.693  0.00  0.00    -0.468 OA
BRANCH  42  43
ATOM     43  C   LIG d   1       4.617  -8.384  -8.060  0.00  0.00     0.082 C 
ATOM     44  H   LIG d   1       3.802  -8.103  -7.394  0.00  0.00     0.066 H 
ATOM     45  H   LIG d   1       4.243  -9.065  -8.826  0.00  0.00     0.066 H 
ATOM     46  H   LIG d   1       5.401  -8.879  -7.487  0.00  0.00     0.066 H 
ENDBRANCH  42  43
ENDBRANCH  40  42
ENDBRANCH  12  40
BRANCH   1  47
ATOM     47  C   LIG d   1       6.005  -4.340  -7.488  0.00  0.00    -0.059 C 
ATOM     48  H   LIG d   1       5.081  -3.776  -7.361  0.00  0.00     0.024 H 
ATOM     49  H   LIG d   1       6.855  -3.659  -7.451  0.00  0.00     0.024 H 
ATOM     50  H   LIG d   1       5.990  -4.850  -8.452  0.00  0.00     0.024 H 
ENDBRANCH   1  47
BRANCH  17  51
ATOM     51  C   LIG d   1       4.329  -1.437  -5.188  0.00  0.00    -0.056 C 
ATOM     52  H   LIG d   1       5.108  -0.938  -5.764  0.00  0.00     0.024 H 
ATOM     53  H   LIG d   1       3.864  -2.210  -5.798  0.00  0.00     0.024 H 
ATOM     54  H   LIG d   1       3.576  -0.708  -4.888  0.00  0.00     0.024 H 
ENDBRANCH  17  51
BRANCH  20  55
ATOM     55  O   LIG d   1       4.182   1.360  -1.504  0.00  0.00    -0.392 OA
ATOM     56  H   LIG d   1       4.650   2.085  -1.940  0.00  0.00     0.210 HD
ENDBRANCH  20  55
TORSDOF 6
ENDMDL
MODEL 2
REMARK VINA RESULT:      -5.6      3.218      4.821
REMARK  6 active torsions:
REMARK  status: ('A' for Active; 'I' for Inactive)
REMARK    1  A    between atoms: C_1  and  C_2 
REMARK    2  A    between atoms: C_13  and  C_15 
REMARK    3  A    between atoms: C_15  and  O_17 
REMARK    4  A    between atoms: O_17  and  C_18 
REMARK    5  A    between atoms: C_22  and  C_29 
REMARK    6  A    between atoms: C_25  and  O_28 
ROOT
ATOM      1  C   LIG d   1       4.142  -1.855  -9.157  0.00  0.00    -0.016 C 
ATOM      2  C   LIG d   1       5.587  -1.657  -8.738  0.00  0.00    -0.046 C 
ATOM      3  C   LIG d   1       5.609  -1.602  -7.203  0.00  0.00    -0.049 C 
ATOM      4  C   LIG d   1       4.710  -0.493  -6.663  0.00  0.00    -0.029 C 
ATOM      5  H   LIG d   1       5.124   0.466  -6.973  0.00  0.00     0.031 H 
ATOM      6  C   LIG d   1       3.280  -0.603  -7.208  0.00  0.00    -0.031 C 
ATOM      7  H   LIG d   1       2.801  -1.522  -6.870  0.00  0.00     0.031 H 
ATOM      8  C   LIG d   1       3.364  -0.583  -8.723  0.00  0.00    -0.032 C 
ATOM      9  H   LIG d   1       3.882   0.314  -9.062  0.00  0.00     0.031 H 
ATOM     10  C   LIG d   1       2.036  -0.762  -9.468  0.00  0.00    -0.049 C 
ATOM     11  C   LIG d   1       2.486  -1.280 -10.861  0.00  0.00    -0.039 C 
ATOM     12  C   LIG d   1       3.875  -1.934 -10.657  0.00  0.00     0.062 C 
ATOM     13  H   LIG d   1       4.637  -1.382 -11.206  0.00  0.00     0.042 H 
ATOM     14  C   LIG d   1       2.487   0.616  -6.723  0.00  0.00    -0.031 C 
ATOM     15  C   LIG d   1       2.549   0.679  -5.224  0.00  0.00    -0.084 C 
ATOM     16  C   LIG d   1       3.531   0.176  -4.535  0.00  0.00    -0.065 C 
ATOM     17  C   LIG d   1       4.706  -0.531  -5.144  0.00  0.00    -0.008 C 
ATOM     18  C   LIG d   1       6.001   0.079  -4.600  0.00  0.00    -0.041 C 
ATOM     19  C   LIG d   1       5.975   0.043  -3.070  0.00  0.00    -0.026 C 
ATOM     20  C   LIG d   1       4.821   0.904  -2.553  0.00  0.00     0.059 C 
ATOM     21  H   LIG d   1       4.921   1.917  -2.941  0.00  0.00     0.060 H 
ATOM     22  C   LIG d   1       3.489   0.307  -3.021  0.00  0.00    -0.005 C 
ATOM     23  H   LIG d   1       6.192  -2.492  -9.089  0.00  0.00     0.027 H 
ATOM     24  H   LIG d   1       5.968  -0.723  -9.151  0.00  0.00     0.027 H 
ATOM     25  H   LIG d   1       5.269  -2.559  -6.808  0.00  0.00     0.027 H 
ATOM     26  H   LIG d   1       6.631  -1.426  -6.869  0.00  0.00     0.027 H 
ATOM     27  H   LIG d   1       1.409  -1.500  -8.966  0.00  0.00     0.027 H 
ATOM     28  H   LIG d   1       1.513   0.190  -9.560  0.00  0.00     0.027 H 
ATOM     29  H   LIG d   1       2.563  -0.449 -11.562  0.00  0.00     0.027 H 
ATOM     30  H   LIG d   1       1.775  -2.019 -11.233  0.00  0.00     0.027 H 
ATOM     31  H   LIG d   1       1.449   0.525  -7.040  0.00  0.00     0.031 H 
ATOM     32  H   LIG d   1       2.919   1.523  -7.143  0.00  0.00     0.031 H 
ATOM     33  H   LIG d   1       1.743   1.164  -4.694  0.00  0.00     0.057 H 
ATOM     34  H   LIG d   1       6.853  -0.496  -4.962  0.00  0.00     0.027 H 
ATOM     35  H   LIG d   1       6.087   1.111  -4.939  0.00  0.00     0.027 H 
ATOM     36  H   LIG d   1       6.917   0.430  -2.683  0.00  0.00     0.029 H 
ATOM     37  H   LIG d   1       5.840  -0.984  -2.734  0.00  0.00     0.029 H 
ATOM     38  H   LIG d   1       3.348  -0.676  -2.572  0.00  0.00     0.034 H 
ATOM     39  H   LIG d   1       2.670   0.965  -2.732  0.00  0.00     0.034 H 
ENDROOT
BRANCH  12  40
ATOM     40  C   LIG d   1       3.847  -3.372 -11.106  0.00  0.00     0.310 C 
ATOM     41  O   LIG d   1       4.879  -3.992 -11.215  0.00  0.00    -0.251 OA
BRANCH  40  42
ATOM     42  O   LIG d   1       2.675  -3.966 -11.384  0.00  0.00    -0.468 OA
BRANCH  42  43
ATOM     43  C   LIG d   1       2.629  -5.414 -11.280  0.00  0.00     0.082 C 
ATOM     44  H   LIG d   1       2.916  -5.856 -12.233  0.00  0.00     0.066 H 
ATOM     45  H   LIG d   1       3.321  -5.745 -10.503  0.00  0.00     0.066 H 
ATOM     46  H   LIG d   1       1.618  -5.728 -11.022  0.00  0.00     0.066 H 
ENDBRANCH  42  43
ENDBRANCH  40  42
ENDBRANCH  12  40
BRANCH   1  47
ATOM     47  C   LIG d   1       3.557  -3.084  -8.460  0.00  0.00    -0.059 C 
ATOM     48  H   LIG d   1       3.200  -3.792  -9.208  0.00  0.00     0.024 H 
ATOM     49  H   LIG d   1       4.327  -3.557  -7.850  0.00  0.00     0.024 H 
ATOM     50  H   LIG d   1       2.725  -2.779  -7.824  0.00  0.00     0.024 H 
ENDBRANCH   1  47
BRANCH  17  51
ATOM     51  C   LIG d   1       4.663  -1.996  -4.702  0.00  0.00    -0.056 C 
ATOM     52  H   LIG d   1       4.635  -2.046  -3.613  0.00  0.00     0.024 H 
ATOM     53  H   LIG d   1       3.773  -2.472  -5.111  0.00  0.00     0.024 H 
ATOM     54  H   LIG d   1       5.552  -2.511  -5.067  0.00  0.00     0.024 H 
ENDBRANCH  17  51
BRANCH  20  55
ATOM     55  O   LIG d   1       4.852   0.934  -1.125  0.00  0.00    -0.392 OA
ATOM     56  H   LIG d   1       4.661   1.802  -0.746  0.00  0.00     0.210 HD
ENDBRANCH  20  55
TORSDOF 6
ENDMDL
MODEL 3
REMARK VINA RESULT:      -5.6     10.290     12.321
REMARK  6 active torsions:
REMARK  status: ('A' for Active; 'I' for Inactive)
REMARK    1  A    between atoms: C_1  and  C_2 
REMARK    2  A    between atoms: C_13  and  C_15 
REMARK    3  A    between atoms: C_15  and  O_17 
REMARK    4  A    between atoms: O_17  and  C_18 
REMARK    5  A    between atoms: C_22  and  C_29 
REMARK    6  A    between atoms: C_25  and  O_28 
ROOT
ATOM      1  C   LIG d   1      10.027   7.348  -6.535  0.00  0.00    -0.016 C 
ATOM      2  C   LIG d   1       9.450   8.457  -5.676  0.00  0.00    -0.046 C 
ATOM      3  C   LIG d   1      10.125   8.360  -4.299  0.00  0.00    -0.049 C 
ATOM      4  C   LIG d   1       9.916   6.989  -3.662  0.00  0.00    -0.029 C 
ATOM      5  H   LIG d   1       8.854   6.866  -3.451  0.00  0.00     0.031 H 
ATOM      6  C   LIG d   1      10.359   5.854  -4.594  0.00  0.00    -0.031 C 
ATOM      7  H   LIG d   1      11.432   5.899  -4.783  0.00  0.00     0.031 H 
ATOM      8  C   LIG d   1       9.592   6.002  -5.895  0.00  0.00    -0.032 C 
ATOM      9  H   LIG d   1       8.518   6.002  -5.703  0.00  0.00     0.031 H 
ATOM     10  C   LIG d   1       9.950   5.002  -7.000  0.00  0.00    -0.049 C 
ATOM     11  C   LIG d   1       9.495   5.734  -8.292  0.00  0.00    -0.039 C 
ATOM     12  C   LIG d   1       9.495   7.246  -7.961  0.00  0.00     0.062 C 
ATOM     13  H   LIG d   1       8.482   7.645  -8.015  0.00  0.00     0.042 H 
ATOM     14  C   LIG d   1       9.995   4.520  -3.933  0.00  0.00    -0.031 C 
ATOM     15  C   LIG d   1      10.628   4.454  -2.574  0.00  0.00    -0.084 C 
ATOM     16  C   LIG d   1      10.917   5.514  -1.876  0.00  0.00    -0.065 C 
ATOM     17  C   LIG d   1      10.665   6.917  -2.341  0.00  0.00    -0.008 C 
ATOM     18  C   LIG d   1       9.894   7.679  -1.259  0.00  0.00    -0.041 C 
ATOM     19  C   LIG d   1      10.657   7.588   0.065  0.00  0.00    -0.026 C 
ATOM     20  C   LIG d   1      10.738   6.128   0.514  0.00  0.00     0.059 C 
ATOM     21  H   LIG d   1       9.733   5.713   0.587  0.00  0.00     0.060 H 
ATOM     22  C   LIG d   1      11.549   5.324  -0.507  0.00  0.00    -0.005 C 
ATOM     23  H   LIG d   1       9.665   9.425  -6.127  0.00  0.00     0.027 H 
ATOM     24  H   LIG d   1       8.373   8.326  -5.574  0.00  0.00     0.027 H 
ATOM     25  H   LIG d   1      11.193   8.540  -4.412  0.00  0.00     0.027 H 
ATOM     26  H   LIG d   1       9.706   9.123  -3.644  0.00  0.00     0.027 H 
ATOM     27  H   LIG d   1      11.025   4.817  -7.019  0.00  0.00     0.027 H 
ATOM     28  H   LIG d   1       9.401   4.070  -6.870  0.00  0.00     0.027 H 
ATOM     29  H   LIG d   1       8.492   5.411  -8.571  0.00  0.00     0.027 H 
ATOM     30  H   LIG d   1      10.194   5.528  -9.104  0.00  0.00     0.027 H 
ATOM     31  H   LIG d   1      10.362   3.697  -4.545  0.00  0.00     0.031 H 
ATOM     32  H   LIG d   1       8.912   4.445  -3.834  0.00  0.00     0.031 H 
ATOM     33  H   LIG d   1      10.854   3.484  -2.156  0.00  0.00     0.057 H 
ATOM     34  H   LIG d   1       9.797   8.725  -1.551  0.00  0.00     0.027 H 
ATOM     35  H   LIG d   1       8.904   7.240  -1.141  0.00  0.00     0.027 H 
ATOM     36  H   LIG d   1      10.136   8.171   0.824  0.00  0.00     0.029 H 
ATOM     37  H   LIG d   1      11.663   7.982  -0.068  0.00  0.00     0.029 H 
ATOM     38  H   LIG d   1      12.578   5.684  -0.525  0.00  0.00     0.034 H 
ATOM     39  H   LIG d   1      11.534   4.267  -0.238  0.00  0.00     0.034 H 
ENDROOT
BRANCH  12  40
ATOM     40  C   LIG d   1      10.399   7.990  -8.909  0.00  0.00     0.310 C 
ATOM     41  O   LIG d   1      11.175   7.382  -9.608  0.00  0.00    -0.251 OA
BRANCH  40  42
ATOM     42  O   LIG d   1      10.341   9.330  -8.979  0.00  0.00    -0.468 OA
BRANCH  42  43
ATOM     43  C   LIG d   1      11.600  10.037  -9.135  0.00  0.00     0.082 C 
ATOM     44  H   LIG d   1      12.417   9.404  -8.789  0.00  0.00     0.066 H 
ATOM     45  H   LIG d   1      11.751  10.283 -10.187  0.00  0.00     0.066 H 
ATOM     46  H   LIG d   1      11.577  10.954  -8.547  0.00  0.00     0.066 H 
ENDBRANCH  42  43
ENDBRANCH  40  42
ENDBRANCH  12  40
BRANCH   1  47
ATOM     47  C   LIG d   1      11.554   7.441  -6.557  0.00  0.00    -0.059 C 
ATOM     48  H   LIG d   1      11.869   8.064  -7.394  0.00  0.00     0.024 H 
ATOM     49  H   LIG d   1      11.905   7.882  -5.623  0.00  0.00     0.024 H 
ATOM     50  H   LIG d   1      11.978   6.443  -6.668  0.00  0.00     0.024 H 
ENDBRANCH   1  47
BRANCH  17  51
ATOM     51  C   LIG d   1      12.017   7.611  -2.521  0.00  0.00    -0.056 C 
ATOM     52  H   LIG d   1      12.284   7.617  -3.579  0.00  0.00     0.024 H 
ATOM     53  H   LIG d   1      11.951   8.635  -2.156  0.00  0.00     0.024 H 
ATOM     54  H   LIG d   1      12.779   7.072  -1.957  0.00  0.00     0.024 H 
ENDBRANCH  17  51
BRANCH  20  55
ATOM     55  O   LIG d   1      11.376   6.057   1.790  0.00  0.00    -0.392 OA
ATOM     56  H   LIG d   1      10.842   5.631   2.474  0.00  0.00     0.210 HD
ENDBRANCH  20  55
TORSDOF 6
ENDMDL
MODEL 4
REMARK VINA RESULT:      -5.5     12.121     14.531
REMARK  6 active torsions:
REMARK  status: ('A' for Active; 'I' for Inactive)
REMARK    1  A    between atoms: C_1  and  C_2 
REMARK    2  A    between atoms: C_13  and  C_15 
REMARK    3  A    between atoms: C_15  and  O_17 
REMARK    4  A    between atoms: O_17  and  C_18 
REMARK    5  A    between atoms: C_22  and  C_29 
REMARK    6  A    between atoms: C_25  and  O_28 
ROOT
ATOM      1  C   LIG d   1      10.723   8.200  -1.419  0.00  0.00    -0.016 C 
ATOM      2  C   LIG d   1      10.156   6.914  -1.992  0.00  0.00    -0.046 C 
ATOM      3  C   LIG d   1      10.402   6.949  -3.509  0.00  0.00    -0.049 C 
ATOM      4  C   LIG d   1       9.771   8.179  -4.156  0.00  0.00    -0.029 C 
ATOM      5  H   LIG d   1       8.689   8.102  -4.059  0.00  0.00     0.031 H 
ATOM      6  C   LIG d   1      10.226   9.477  -3.476  0.00  0.00    -0.031 C 
ATOM      7  H   LIG d   1      11.299   9.630  -3.601  0.00  0.00     0.031 H 
ATOM      8  C   LIG d   1       9.882   9.367  -2.002  0.00  0.00    -0.032 C 
ATOM      9  H   LIG d   1       8.817   9.170  -1.875  0.00  0.00     0.031 H 
ATOM     10  C   LIG d   1      10.329  10.541  -1.123  0.00  0.00    -0.049 C 
ATOM     11  C   LIG d   1      10.389   9.910   0.295  0.00  0.00    -0.039 C 
ATOM     12  C   LIG d   1      10.587   8.388   0.089  0.00  0.00     0.062 C 
ATOM     13  H   LIG d   1       9.721   7.841   0.461  0.00  0.00     0.042 H 
ATOM     14  C   LIG d   1       9.450  10.643  -4.098  0.00  0.00    -0.031 C 
ATOM     15  C   LIG d   1       9.667  10.642  -5.584  0.00  0.00    -0.084 C 
ATOM     16  C   LIG d   1       9.952   9.566  -6.257  0.00  0.00    -0.065 C 
ATOM     17  C   LIG d   1      10.107   8.208  -5.638  0.00  0.00    -0.008 C 
ATOM     18  C   LIG d   1       9.233   7.204  -6.394  0.00  0.00    -0.041 C 
ATOM     19  C   LIG d   1       9.576   7.254  -7.884  0.00  0.00    -0.026 C 
ATOM     20  C   LIG d   1       9.253   8.641  -8.442  0.00  0.00     0.059 C 
ATOM     21  H   LIG d   1       8.207   8.876  -8.252  0.00  0.00     0.060 H 
ATOM     22  C   LIG d   1      10.142   9.686  -7.759  0.00  0.00    -0.005 C 
ATOM     23  H   LIG d   1      10.665   6.057  -1.553  0.00  0.00     0.027 H 
ATOM     24  H   LIG d   1       9.087   6.856  -1.788  0.00  0.00     0.027 H 
ATOM     25  H   LIG d   1      11.475   6.960  -3.695  0.00  0.00     0.027 H 
ATOM     26  H   LIG d   1       9.974   6.053  -3.958  0.00  0.00     0.027 H 
ATOM     27  H   LIG d   1      11.314  10.898  -1.428  0.00  0.00     0.027 H 
ATOM     28  H   LIG d   1       9.599  11.349  -1.156  0.00  0.00     0.027 H 
ATOM     29  H   LIG d   1       9.457  10.098   0.828  0.00  0.00     0.027 H 
ATOM     30  H   LIG d   1      11.229  10.324   0.854  0.00  0.00     0.027 H 
ATOM     31  H   LIG d   1       9.806  11.583  -3.679  0.00  0.00     0.031 H 
ATOM     32  H   LIG d   1       8.387  10.528  -3.886  0.00  0.00     0.031 H 
ATOM     33  H   LIG d   1       9.583  11.577  -6.118  0.00  0.00     0.057 H 
ATOM     34  H   LIG d   1       9.418   6.200  -6.012  0.00  0.00     0.027 H 
ATOM     35  H   LIG d   1       8.182   7.459  -6.253  0.00  0.00     0.027 H 
ATOM     36  H   LIG d   1       8.990   6.505  -8.416  0.00  0.00     0.029 H 
ATOM     37  H   LIG d   1      10.637   7.047  -8.019  0.00  0.00     0.029 H 
ATOM     38  H   LIG d   1      11.187   9.502  -8.013  0.00  0.00     0.034 H 
ATOM     39  H   LIG d   1       9.855  10.684  -8.088  0.00  0.00     0.034 H 
ENDROOT
BRANCH  12  40
ATOM     40  C   LIG d   1      11.838   7.923   0.787  0.00  0.00     0.310 C 
ATOM     41  O   LIG d   1      12.614   8.731   1.240  0.00  0.00    -0.251 OA
BRANCH  40  42
ATOM     42  O   LIG d   1      12.091   6.610   0.908  0.00  0.00    -0.468 OA
BRANCH  42  43
ATOM     43  C   LIG d   1      11.045   5.788   1.490  0.00  0.00     0.082 C 
ATOM     44  H   LIG d   1      10.240   6.427   1.851  0.00  0.00     0.066 H 
ATOM     45  H   LIG d   1      10.656   5.105   0.734  0.00  0.00     0.066 H 
ATOM     46  H   LIG d   1      11.454   5.214   2.321  0.00  0.00     0.066 H 
ENDBRANCH  42  43
ENDBRANCH  40  42
ENDBRANCH  12  40
BRANCH   1  47
ATOM     47  C   LIG d   1      12.187   8.358  -1.831  0.00  0.00    -0.059 C 
ATOM     48  H   LIG d   1      12.397   7.714  -2.685  0.00  0.00     0.024 H 
ATOM     49  H   LIG d   1      12.378   9.396  -2.104  0.00  0.00     0.024 H 
ATOM     50  H   LIG d   1      12.832   8.077  -0.998  0.00  0.00     0.024 H 
ENDBRANCH   1  47
BRANCH  17  51
ATOM     51  C   LIG d   1      11.564   7.770  -5.806  0.00  0.00    -0.056 C 
ATOM     52  H   LIG d   1      11.946   8.139  -6.759  0.00  0.00     0.024 H 
ATOM     53  H   LIG d   1      12.162   8.179  -4.992  0.00  0.00     0.024 H 
ATOM     54  H   LIG d   1      11.621   6.682  -5.788  0.00  0.00     0.024 H 
ENDBRANCH  17  51
BRANCH  20  55
ATOM     55  O   LIG d   1       9.497   8.657  -9.850  0.00  0.00    -0.392 OA
ATOM     56  H   LIG d   1       9.905   7.848 -10.188  0.00  0.00     0.210 HD
ENDBRANCH  20  55
TORSDOF 6
ENDMDL
MODEL 5
REMARK VINA RESULT:      -5.3      8.889     12.803
REMARK  6 active torsions:
REMARK  status: ('A' for Active; 'I' for Inactive)
REMARK    1  A    between atoms: C_1  and  C_2 
REMARK    2  A    between atoms: C_13  and  C_15 
REMARK    3  A    between atoms: C_15  and  O_17 
REMARK    4  A    between atoms: O_17  and  C_18 
REMARK    5  A    between atoms: C_22  and  C_29 
REMARK    6  A    between atoms: C_25  and  O_28 
ROOT
ATOM      1  C   LIG d   1      10.621   6.648  -1.884  0.00  0.00    -0.016 C 
ATOM      2  C   LIG d   1      10.137   5.210  -1.900  0.00  0.00    -0.046 C 
ATOM      3  C   LIG d   1      10.436   4.648  -3.299  0.00  0.00    -0.049 C 
ATOM      4  C   LIG d   1       9.773   5.477  -4.395  0.00  0.00    -0.029 C 
ATOM      5  H   LIG d   1       8.693   5.382  -4.292  0.00  0.00     0.031 H 
ATOM      6  C   LIG d   1      10.141   6.963  -4.288  0.00  0.00    -0.031 C 
ATOM      7  H   LIG d   1      11.209   7.114  -4.448  0.00  0.00     0.031 H 
ATOM      8  C   LIG d   1       9.749   7.433  -2.900  0.00  0.00    -0.032 C 
ATOM      9  H   LIG d   1       8.690   7.242  -2.721  0.00  0.00     0.031 H 
ATOM     10  C   LIG d   1      10.107   8.885  -2.560  0.00  0.00    -0.049 C 
ATOM     11  C   LIG d   1      10.144   8.879  -1.008  0.00  0.00    -0.039 C 
ATOM     12  C   LIG d   1      10.421   7.416  -0.582  0.00  0.00     0.062 C 
ATOM     13  H   LIG d   1       9.568   7.015  -0.034  0.00  0.00     0.042 H 
ATOM     14  C   LIG d   1       9.335   7.734  -5.338  0.00  0.00    -0.031 C 
ATOM     15  C   LIG d   1       9.606   7.151  -6.695  0.00  0.00    -0.084 C 
ATOM     16  C   LIG d   1       9.966   5.913  -6.874  0.00  0.00    -0.065 C 
ATOM     17  C   LIG d   1      10.161   4.929  -5.759  0.00  0.00    -0.008 C 
ATOM     18  C   LIG d   1       9.363   3.657  -6.060  0.00  0.00    -0.041 C 
ATOM     19  C   LIG d   1       9.759   3.125  -7.439  0.00  0.00    -0.026 C 
ATOM     20  C   LIG d   1       9.392   4.152  -8.513  0.00  0.00     0.059 C 
ATOM     21  H   LIG d   1       8.329   4.382  -8.449  0.00  0.00     0.060 H 
ATOM     22  C   LIG d   1      10.206   5.432  -8.295  0.00  0.00    -0.005 C 
ATOM     23  H   LIG d   1      10.669   4.631  -1.146  0.00  0.00     0.027 H 
ATOM     24  H   LIG d   1       9.064   5.177  -1.706  0.00  0.00     0.027 H 
ATOM     25  H   LIG d   1      11.514   4.645  -3.458  0.00  0.00     0.027 H 
ATOM     26  H   LIG d   1      10.068   3.624  -3.356  0.00  0.00     0.027 H 
ATOM     27  H   LIG d   1      11.085   9.146  -2.969  0.00  0.00     0.027 H 
ATOM     28  H   LIG d   1       9.342   9.568  -2.927  0.00  0.00     0.027 H 
ATOM     29  H   LIG d   1       9.185   9.211  -0.610  0.00  0.00     0.027 H 
ATOM     30  H   LIG d   1      10.942   9.530  -0.650  0.00  0.00     0.027 H 
ATOM     31  H   LIG d   1       9.631   8.783  -5.328  0.00  0.00     0.031 H 
ATOM     32  H   LIG d   1       8.272   7.653  -5.114  0.00  0.00     0.031 H 
ATOM     33  H   LIG d   1       9.498   7.786  -7.561  0.00  0.00     0.057 H 
ATOM     34  H   LIG d   1       9.581   2.904  -5.304  0.00  0.00     0.027 H 
ATOM     35  H   LIG d   1       8.298   3.886  -6.049  0.00  0.00     0.027 H 
ATOM     36  H   LIG d   1       9.228   2.193  -7.634  0.00  0.00     0.029 H 
ATOM     37  H   LIG d   1      10.832   2.943  -7.464  0.00  0.00     0.029 H 
ATOM     38  H   LIG d   1      11.266   5.222  -8.437  0.00  0.00     0.034 H 
ATOM     39  H   LIG d   1       9.884   6.196  -9.001  0.00  0.00     0.034 H 
ENDROOT
BRANCH  12  40
ATOM     40  C   LIG d   1      11.666   7.343   0.264  0.00  0.00     0.310 C 
ATOM     41  O   LIG d   1      12.390   8.306   0.358  0.00  0.00    -0.251 OA
BRANCH  40  42
ATOM     42  O   LIG d   1      11.970   6.208   0.913  0.00  0.00    -0.468 OA
BRANCH  42  43
ATOM     43  C   LIG d   1      10.971   5.684   1.827  0.00  0.00     0.082 C 
ATOM     44  H   LIG d   1      10.922   4.600   1.730  0.00  0.00     0.066 H 
ATOM     45  H   LIG d   1      11.242   5.945   2.851  0.00  0.00     0.066 H 
ATOM     46  H   LIG d   1       9.998   6.114   1.588  0.00  0.00     0.066 H 
ENDBRANCH  42  43
ENDBRANCH  40  42
ENDBRANCH  12  40
BRANCH   1  47
ATOM     47  C   LIG d   1      12.090   6.711  -2.303  0.00  0.00    -0.059 C 
ATOM     48  H   LIG d   1      12.605   5.811  -1.967  0.00  0.00     0.024 H 
ATOM     49  H   LIG d   1      12.156   6.783  -3.389  0.00  0.00     0.024 H 
ATOM     50  H   LIG d   1      12.559   7.587  -1.853  0.00  0.00     0.024 H 
ENDBRANCH   1  47
BRANCH  17  51
ATOM     51  C   LIG d   1      11.642   4.545  -5.715  0.00  0.00    -0.056 C 
ATOM     52  H   LIG d   1      11.737   3.490  -5.456  0.00  0.00     0.024 H 
ATOM     53  H   LIG d   1      12.092   4.722  -6.692  0.00  0.00     0.024 H 
ATOM     54  H   LIG d   1      12.152   5.150  -4.965  0.00  0.00     0.024 H 
ENDBRANCH  17  51
BRANCH  20  55
ATOM     55  O   LIG d   1       9.686   3.616  -9.804  0.00  0.00    -0.392 OA
ATOM     56  H   LIG d   1       9.032   2.980 -10.125  0.00  0.00     0.210 HD
ENDBRANCH  20  55
TORSDOF 6
ENDMDL
MODEL 6
REMARK VINA RESULT:      -5.2      1.296      2.558
REMARK  6 active torsions:
REMARK  status: ('A' for Active; 'I' for Inactive)
REMARK    1  A    between atoms: C_1  and  C_2 
REMARK    2  A    between atoms: C_13  and  C_15 
REMARK    3  A    between atoms: C_15  and  O_17 
REMARK    4  A    between atoms: O_17  and  C_18 
REMARK    5  A    between atoms: C_22  and  C_29 
REMARK    6  A    between atoms: C_25  and  O_28 
ROOT
ATOM      1  C   LIG d   1       6.225  -4.618  -6.288  0.00  0.00    -0.016 C 
ATOM      2  C   LIG d   1       7.164  -4.167  -5.185  0.00  0.00    -0.046 C 
ATOM      3  C   LIG d   1       6.342  -3.300  -4.218  0.00  0.00    -0.049 C 
ATOM      4  C   LIG d   1       5.699  -2.113  -4.930  0.00  0.00    -0.029 C 
ATOM      5  H   LIG d   1       6.490  -1.451  -5.279  0.00  0.00     0.031 H 
ATOM      6  C   LIG d   1       4.869  -2.557  -6.141  0.00  0.00    -0.031 C 
ATOM      7  H   LIG d   1       4.024  -3.173  -5.833  0.00  0.00     0.031 H 
ATOM      8  C   LIG d   1       5.784  -3.346  -7.060  0.00  0.00    -0.032 C 
ATOM      9  H   LIG d   1       6.653  -2.747  -7.334  0.00  0.00     0.031 H 
ATOM     10  C   LIG d   1       5.122  -3.950  -8.304  0.00  0.00    -0.049 C 
ATOM     11  C   LIG d   1       6.082  -5.113  -8.677  0.00  0.00    -0.039 C 
ATOM     12  C   LIG d   1       6.830  -5.497  -7.377  0.00  0.00     0.062 C 
ATOM     13  H   LIG d   1       7.896  -5.292  -7.480  0.00  0.00     0.042 H 
ATOM     14  C   LIG d   1       4.372  -1.302  -6.868  0.00  0.00    -0.031 C 
ATOM     15  C   LIG d   1       3.604  -0.446  -5.903  0.00  0.00    -0.084 C 
ATOM     16  C   LIG d   1       3.816  -0.462  -4.619  0.00  0.00    -0.065 C 
ATOM     17  C   LIG d   1       4.837  -1.334  -3.950  0.00  0.00    -0.008 C 
ATOM     18  C   LIG d   1       5.721  -0.474  -3.042  0.00  0.00    -0.041 C 
ATOM     19  C   LIG d   1       4.837   0.311  -2.070  0.00  0.00    -0.026 C 
ATOM     20  C   LIG d   1       3.932   1.266  -2.851  0.00  0.00     0.059 C 
ATOM     21  H   LIG d   1       4.543   1.919  -3.474  0.00  0.00     0.060 H 
ATOM     22  C   LIG d   1       2.982   0.456  -3.740  0.00  0.00    -0.005 C 
ATOM     23  H   LIG d   1       7.563  -5.034  -4.659  0.00  0.00     0.027 H 
ATOM     24  H   LIG d   1       7.980  -3.582  -5.609  0.00  0.00     0.027 H 
ATOM     25  H   LIG d   1       5.561  -3.912  -3.769  0.00  0.00     0.027 H 
ATOM     26  H   LIG d   1       6.997  -2.929  -3.430  0.00  0.00     0.027 H 
ATOM     27  H   LIG d   1       4.128  -4.332  -8.064  0.00  0.00     0.027 H 
ATOM     28  H   LIG d   1       5.070  -3.218  -9.108  0.00  0.00     0.027 H 
ATOM     29  H   LIG d   1       6.792  -4.782  -9.435  0.00  0.00     0.027 H 
ATOM     30  H   LIG d   1       5.511  -5.965  -9.047  0.00  0.00     0.027 H 
ATOM     31  H   LIG d   1       3.722  -1.592  -7.693  0.00  0.00     0.031 H 
ATOM     32  H   LIG d   1       5.223  -0.742  -7.253  0.00  0.00     0.031 H 
ATOM     33  H   LIG d   1       2.841   0.212  -6.291  0.00  0.00     0.057 H 
ATOM     34  H   LIG d   1       6.398  -1.117  -2.479  0.00  0.00     0.027 H 
ATOM     35  H   LIG d   1       6.300   0.220  -3.651  0.00  0.00     0.027 H 
ATOM     36  H   LIG d   1       5.467   0.885  -1.391  0.00  0.00     0.029 H 
ATOM     37  H   LIG d   1       4.223  -0.382  -1.497  0.00  0.00     0.029 H 
ATOM     38  H   LIG d   1       2.315  -0.140  -3.118  0.00  0.00     0.034 H 
ATOM     39  H   LIG d   1       2.398   1.131  -4.364  0.00  0.00     0.034 H 
ENDROOT
BRANCH  12  40
ATOM     40  C   LIG d   1       6.608  -6.953  -7.056  0.00  0.00     0.310 C 
ATOM     41  O   LIG d   1       7.215  -7.472  -6.149  0.00  0.00    -0.251 OA
BRANCH  40  42
ATOM     42  O   LIG d   1       5.734  -7.673  -7.778  0.00  0.00    -0.468 OA
BRANCH  42  43
ATOM     43  C   LIG d   1       4.876  -8.591  -7.049  0.00  0.00     0.082 C 
ATOM     44  H   LIG d   1       4.944  -8.382  -5.982  0.00  0.00     0.066 H 
ATOM     45  H   LIG d   1       3.845  -8.463  -7.380  0.00  0.00     0.066 H 
ATOM     46  H   LIG d   1       5.195  -9.615  -7.241  0.00  0.00     0.066 H 
ENDBRANCH  42  43
ENDBRANCH  40  42
ENDBRANCH  12  40
BRANCH   1  47
ATOM     47  C   LIG d   1       5.001  -5.309  -5.684  0.00  0.00    -0.059 C 
ATOM     48  H   LIG d   1       4.389  -4.575  -5.160  0.00  0.00     0.024 H 
ATOM     49  H   LIG d   1       4.414  -5.769  -6.480  0.00  0.00     0.024 H 
ATOM     50  H   LIG d   1       5.326  -6.077  -4.983  0.00  0.00     0.024 H 
ENDBRANCH   1  47
BRANCH  17  51
ATOM     51  C   LIG d   1       4.098  -2.337  -3.061  0.00  0.00    -0.056 C 
ATOM     52  H   LIG d   1       3.028  -2.283  -3.264  0.00  0.00     0.024 H 
ATOM     53  H   LIG d   1       4.458  -3.343  -3.273  0.00  0.00     0.024 H 
ATOM     54  H   LIG d   1       4.282  -2.098  -2.013  0.00  0.00     0.024 H 
ENDBRANCH  17  51
BRANCH  20  55
ATOM     55  O   LIG d   1       3.170   2.055  -1.937  0.00  0.00    -0.392 OA
ATOM     56  H   LIG d   1       2.720   2.807  -2.345  0.00  0.00     0.210 HD
ENDBRANCH  20  55
TORSDOF 6
ENDMDL
MODEL 7
REMARK VINA RESULT:      -5.1      9.027     11.976
REMARK  6 active torsions:
REMARK  status: ('A' for Active; 'I' for Inactive)
REMARK    1  A    between atoms: C_1  and  C_2 
REMARK    2  A    between atoms: C_13  and  C_15 
REMARK    3  A    between atoms: C_15  and  O_17 
REMARK    4  A    between atoms: O_17  and  C_18 
REMARK    5  A    between atoms: C_22  and  C_29 
REMARK    6  A    between atoms: C_25  and  O_28 
ROOT
ATOM      1  C   LIG d   1      10.042   5.448  -3.945  0.00  0.00    -0.016 C 
ATOM      2  C   LIG d   1       9.168   6.666  -4.177  0.00  0.00    -0.046 C 
ATOM      3  C   LIG d   1       9.801   7.831  -3.401  0.00  0.00    -0.049 C 
ATOM      4  C   LIG d   1       9.937   7.513  -1.915  0.00  0.00    -0.029 C 
ATOM      5  H   LIG d   1       8.939   7.417  -1.491  0.00  0.00     0.031 H 
ATOM      6  C   LIG d   1      10.691   6.197  -1.681  0.00  0.00    -0.031 C 
ATOM      7  H   LIG d   1      11.721   6.268  -2.034  0.00  0.00     0.031 H 
ATOM      8  C   LIG d   1       9.953   5.105  -2.433  0.00  0.00    -0.032 C 
ATOM      9  H   LIG d   1       8.912   5.063  -2.113  0.00  0.00     0.031 H 
ATOM     10  C   LIG d   1      10.596   3.714  -2.391  0.00  0.00    -0.049 C 
ATOM     11  C   LIG d   1      10.006   3.021  -3.650  0.00  0.00    -0.039 C 
ATOM     12  C   LIG d   1       9.600   4.155  -4.623  0.00  0.00     0.062 C 
ATOM     13  H   LIG d   1       8.520   4.157  -4.772  0.00  0.00     0.042 H 
ATOM     14  C   LIG d   1      10.668   5.891  -0.179  0.00  0.00    -0.031 C 
ATOM     15  C   LIG d   1      11.253   7.053   0.570  0.00  0.00    -0.084 C 
ATOM     16  C   LIG d   1      11.233   8.272   0.114  0.00  0.00    -0.065 C 
ATOM     17  C   LIG d   1      10.637   8.661  -1.207  0.00  0.00    -0.008 C 
ATOM     18  C   LIG d   1       9.660   9.822  -0.999  0.00  0.00    -0.041 C 
ATOM     19  C   LIG d   1      10.378  10.965  -0.276  0.00  0.00    -0.026 C 
ATOM     20  C   LIG d   1      10.824  10.499   1.111  0.00  0.00     0.059 C 
ATOM     21  H   LIG d   1       9.961  10.135   1.668  0.00  0.00     0.060 H 
ATOM     22  C   LIG d   1      11.849   9.369   0.965  0.00  0.00    -0.005 C 
ATOM     23  H   LIG d   1       9.136   6.902  -5.241  0.00  0.00     0.027 H 
ATOM     24  H   LIG d   1       8.160   6.475  -3.809  0.00  0.00     0.027 H 
ATOM     25  H   LIG d   1      10.788   8.039  -3.813  0.00  0.00     0.027 H 
ATOM     26  H   LIG d   1       9.176   8.716  -3.519  0.00  0.00     0.027 H 
ATOM     27  H   LIG d   1      11.682   3.788  -2.464  0.00  0.00     0.027 H 
ATOM     28  H   LIG d   1      10.305   3.182  -1.486  0.00  0.00     0.027 H 
ATOM     29  H   LIG d   1       9.132   2.431  -3.377  0.00  0.00     0.027 H 
ATOM     30  H   LIG d   1      10.759   2.383  -4.113  0.00  0.00     0.027 H 
ATOM     31  H   LIG d   1      11.257   4.997   0.020  0.00  0.00     0.031 H 
ATOM     32  H   LIG d   1       9.640   5.730   0.144  0.00  0.00     0.031 H 
ATOM     33  H   LIG d   1      11.711   6.870   1.530  0.00  0.00     0.057 H 
ATOM     34  H   LIG d   1       9.302  10.173  -1.967  0.00  0.00     0.027 H 
ATOM     35  H   LIG d   1       8.816   9.484  -0.399  0.00  0.00     0.027 H 
ATOM     36  H   LIG d   1       9.699  11.811  -0.172  0.00  0.00     0.029 H 
ATOM     37  H   LIG d   1      11.250  11.269  -0.853  0.00  0.00     0.029 H 
ATOM     38  H   LIG d   1      12.748   9.749   0.479  0.00  0.00     0.034 H 
ATOM     39  H   LIG d   1      12.102   8.973   1.949  0.00  0.00     0.034 H 
ENDROOT
BRANCH  12  40
ATOM     40  C   LIG d   1      10.308   3.991  -5.944  0.00  0.00     0.310 C 
ATOM     41  O   LIG d   1      11.199   3.182  -6.056  0.00  0.00    -0.251 OA
BRANCH  40  42
ATOM     42  O   LIG d   1       9.947   4.742  -6.996  0.00  0.00    -0.468 OA
BRANCH  42  43
ATOM     43  C   LIG d   1       9.550   4.039  -8.203  0.00  0.00     0.082 C 
ATOM     44  H   LIG d   1       9.429   2.979  -7.983  0.00  0.00     0.066 H 
ATOM     45  H   LIG d   1       8.605   4.445  -8.566  0.00  0.00     0.066 H 
ATOM     46  H   LIG d   1      10.317   4.166  -8.967  0.00  0.00     0.066 H 
ENDBRANCH  42  43
ENDBRANCH  40  42
ENDBRANCH  12  40
BRANCH   1  47
ATOM     47  C   LIG d   1      11.491   5.762  -4.321  0.00  0.00    -0.059 C 
ATOM     48  H   LIG d   1      12.165   5.264  -3.624  0.00  0.00     0.024 H 
ATOM     49  H   LIG d   1      11.689   5.408  -5.333  0.00  0.00     0.024 H 
ATOM     50  H   LIG d   1      11.653   6.839  -4.275  0.00  0.00     0.024 H 
ENDBRANCH   1  47
BRANCH  17  51
ATOM     51  C   LIG d   1      11.766   9.163  -2.110  0.00  0.00    -0.056 C 
ATOM     52  H   LIG d   1      12.075   8.362  -2.783  0.00  0.00     0.024 H 
ATOM     53  H   LIG d   1      11.414  10.013  -2.694  0.00  0.00     0.024 H 
ATOM     54  H   LIG d   1      12.613   9.469  -1.496  0.00  0.00     0.024 H 
ENDBRANCH  17  51
BRANCH  20  55
ATOM     55  O   LIG d   1      11.417  11.592   1.813  0.00  0.00    -0.392 OA
ATOM     56  H   LIG d   1      11.232  12.457   1.423  0.00  0.00     0.210 HD
ENDBRANCH  20  55
TORSDOF 6
ENDMDL
MODEL 8
REMARK VINA RESULT:      -5.1      6.513      9.880
REMARK  6 active torsions:
REMARK  status: ('A' for Active; 'I' for Inactive)
REMARK    1  A    between atoms: C_1  and  C_2 
REMARK    2  A    between atoms: C_13  and  C_15 
REMARK    3  A    between atoms: C_15  and  O_17 
REMARK    4  A    between atoms: O_17  and  C_18 
REMARK    5  A    between atoms: C_22  and  C_29 
REMARK    6  A    between atoms: C_25  and  O_28 
ROOT
ATOM      1  C   LIG d   1       2.858  -0.090  -9.516  0.00  0.00    -0.016 C 
ATOM      2  C   LIG d   1       1.397  -0.428  -9.747  0.00  0.00    -0.046 C 
ATOM      3  C   LIG d   1       1.354  -1.579 -10.764  0.00  0.00    -0.049 C 
ATOM      4  C   LIG d   1       2.058  -1.211 -12.066  0.00  0.00    -0.029 C 
ATOM      5  H   LIG d   1       1.499  -0.408 -12.544  0.00  0.00     0.031 H 
ATOM      6  C   LIG d   1       3.492  -0.722 -11.820  0.00  0.00    -0.031 C 
ATOM      7  H   LIG d   1       4.109  -1.516 -11.399  0.00  0.00     0.031 H 
ATOM      8  C   LIG d   1       3.418   0.450 -10.859  0.00  0.00    -0.032 C 
ATOM      9  H   LIG d   1       2.765   1.227 -11.259  0.00  0.00     0.031 H 
ATOM     10  C   LIG d   1       4.764   1.040 -10.420  0.00  0.00    -0.049 C 
ATOM     11  C   LIG d   1       4.414   1.744  -9.081  0.00  0.00    -0.039 C 
ATOM     12  C   LIG d   1       3.147   1.041  -8.535  0.00  0.00     0.062 C 
ATOM     13  H   LIG d   1       2.310   1.740  -8.507  0.00  0.00     0.042 H 
ATOM     14  C   LIG d   1       4.075  -0.253 -13.158  0.00  0.00    -0.031 C 
ATOM     15  C   LIG d   1       3.991  -1.374 -14.152  0.00  0.00    -0.084 C 
ATOM     16  C   LIG d   1       3.098  -2.317 -14.082  0.00  0.00    -0.065 C 
ATOM     17  C   LIG d   1       2.056  -2.405 -13.006  0.00  0.00    -0.008 C 
ATOM     18  C   LIG d   1       0.676  -2.565 -13.648  0.00  0.00    -0.041 C 
ATOM     19  C   LIG d   1       0.695  -3.764 -14.599  0.00  0.00    -0.026 C 
ATOM     20  C   LIG d   1       1.691  -3.510 -15.731  0.00  0.00     0.059 C 
ATOM     21  H   LIG d   1       1.433  -2.583 -16.242  0.00  0.00     0.060 H 
ATOM     22  C   LIG d   1       3.105  -3.397 -15.151  0.00  0.00    -0.005 C 
ATOM     23  H   LIG d   1       0.937  -0.741  -8.811  0.00  0.00     0.027 H 
ATOM     24  H   LIG d   1       0.873   0.442 -10.145  0.00  0.00     0.027 H 
ATOM     25  H   LIG d   1       1.840  -2.454 -10.331  0.00  0.00     0.027 H 
ATOM     26  H   LIG d   1       0.314  -1.824 -10.979  0.00  0.00     0.027 H 
ATOM     27  H   LIG d   1       5.497   0.248 -10.260  0.00  0.00     0.027 H 
ATOM     28  H   LIG d   1       5.127   1.760 -11.153  0.00  0.00     0.027 H 
ATOM     29  H   LIG d   1       4.211   2.800  -9.256  0.00  0.00     0.027 H 
ATOM     30  H   LIG d   1       5.237   1.634  -8.375  0.00  0.00     0.027 H 
ATOM     31  H   LIG d   1       5.117   0.035 -13.021  0.00  0.00     0.031 H 
ATOM     32  H   LIG d   1       3.506   0.602 -13.524  0.00  0.00     0.031 H 
ATOM     33  H   LIG d   1       4.705  -1.400 -14.962  0.00  0.00     0.057 H 
ATOM     34  H   LIG d   1      -0.070  -2.730 -12.871  0.00  0.00     0.027 H 
ATOM     35  H   LIG d   1       0.428  -1.662 -14.206  0.00  0.00     0.027 H 
ATOM     36  H   LIG d   1      -0.300  -3.910 -15.019  0.00  0.00     0.029 H 
ATOM     37  H   LIG d   1       0.990  -4.658 -14.050  0.00  0.00     0.029 H 
ATOM     38  H   LIG d   1       3.399  -4.349 -14.709  0.00  0.00     0.034 H 
ATOM     39  H   LIG d   1       3.806  -3.127 -15.942  0.00  0.00     0.034 H 
ENDROOT
BRANCH  12  40
ATOM     40  C   LIG d   1       3.408   0.485  -7.159  0.00  0.00     0.310 C 
ATOM     41  O   LIG d   1       4.543   0.345  -6.769  0.00  0.00    -0.251 OA
BRANCH  40  42
ATOM     42  O   LIG d   1       2.379   0.145  -6.366  0.00  0.00    -0.468 OA
BRANCH  42  43
ATOM     43  C   LIG d   1       2.532   0.396  -4.945  0.00  0.00     0.082 C 
ATOM     44  H   LIG d   1       2.557   1.470  -4.766  0.00  0.00     0.066 H 
ATOM     45  H   LIG d   1       1.690  -0.042  -4.406  0.00  0.00     0.066 H 
ATOM     46  H   LIG d   1       3.460  -0.053  -4.594  0.00  0.00     0.066 H 
ENDBRANCH  42  43
ENDBRANCH  40  42
ENDBRANCH  12  40
BRANCH   1  47
ATOM     47  C   LIG d   1       3.627  -1.346  -9.101  0.00  0.00    -0.059 C 
ATOM     48  H   LIG d   1       3.237  -1.715  -8.153  0.00  0.00     0.024 H 
ATOM     49  H   LIG d   1       3.510  -2.113  -9.866  0.00  0.00     0.024 H 
ATOM     50  H   LIG d   1       4.685  -1.103  -8.989  0.00  0.00     0.024 H 
ENDBRANCH   1  47
BRANCH  17  51
ATOM     51  C   LIG d   1       2.330  -3.664 -12.179  0.00  0.00    -0.056 C 
ATOM     52  H   LIG d   1       3.035  -3.428 -11.382  0.00  0.00     0.024 H 
ATOM     53  H   LIG d   1       1.397  -4.023 -11.745  0.00  0.00     0.024 H 
ATOM     54  H   LIG d   1       2.753  -4.435 -12.822  0.00  0.00     0.024 H 
ENDBRANCH  17  51
BRANCH  20  55
ATOM     55  O   LIG d   1       1.644  -4.595 -16.660  0.00  0.00    -0.392 OA
ATOM     56  H   LIG d   1       1.634  -4.320 -17.586  0.00  0.00     0.210 HD
ENDBRANCH  20  55
TORSDOF 6
ENDMDL
MODEL 9
REMARK VINA RESULT:      -5.1     10.732     13.515
REMARK  6 active torsions:
REMARK  status: ('A' for Active; 'I' for Inactive)
REMARK    1  A    between atoms: C_1  and  C_2 
REMARK    2  A    between atoms: C_13  and  C_15 
REMARK    3  A    between atoms: C_15  and  O_17 
REMARK    4  A    between atoms: O_17  and  C_18 
REMARK    5  A    between atoms: C_22  and  C_29 
REMARK    6  A    between atoms: C_25  and  O_28 
ROOT
ATOM      1  C   LIG d   1      11.274   6.937  -2.511  0.00  0.00    -0.016 C 
ATOM      2  C   LIG d   1      12.162   8.024  -3.085  0.00  0.00    -0.046 C 
ATOM      3  C   LIG d   1      11.486   8.529  -4.370  0.00  0.00    -0.049 C 
ATOM      4  C   LIG d   1      11.261   7.399  -5.371  0.00  0.00    -0.029 C 
ATOM      5  H   LIG d   1      12.232   7.035  -5.703  0.00  0.00     0.031 H 
ATOM      6  C   LIG d   1      10.492   6.228  -4.746  0.00  0.00    -0.031 C 
ATOM      7  H   LIG d   1       9.486   6.531  -4.455  0.00  0.00     0.031 H 
ATOM      8  C   LIG d   1      11.272   5.765  -3.529  0.00  0.00    -0.032 C 
ATOM      9  H   LIG d   1      12.293   5.504  -3.810  0.00  0.00     0.031 H 
ATOM     10  C   LIG d   1      10.626   4.642  -2.709  0.00  0.00    -0.049 C 
ATOM     11  C   LIG d   1      11.288   4.805  -1.314  0.00  0.00    -0.039 C 
ATOM     12  C   LIG d   1      11.754   6.279  -1.221  0.00  0.00     0.062 C 
ATOM     13  H   LIG d   1      12.840   6.329  -1.153  0.00  0.00     0.042 H 
ATOM     14  C   LIG d   1      10.426   5.094  -5.774  0.00  0.00    -0.031 C 
ATOM     15  C   LIG d   1       9.799   5.609  -7.037  0.00  0.00    -0.084 C 
ATOM     16  C   LIG d   1       9.848   6.860  -7.392  0.00  0.00    -0.065 C 
ATOM     17  C   LIG d   1      10.522   7.933  -6.588  0.00  0.00    -0.008 C 
ATOM     18  C   LIG d   1      11.486   8.710  -7.488  0.00  0.00    -0.041 C 
ATOM     19  C   LIG d   1      10.729   9.230  -8.712  0.00  0.00    -0.026 C 
ATOM     20  C   LIG d   1      10.201   8.052  -9.532  0.00  0.00     0.059 C 
ATOM     21  H   LIG d   1      11.028   7.398  -9.805  0.00  0.00     0.060 H 
ATOM     22  C   LIG d   1       9.184   7.265  -8.697  0.00  0.00    -0.005 C 
ATOM     23  H   LIG d   1      12.258   8.841  -2.371  0.00  0.00     0.027 H 
ATOM     24  H   LIG d   1      13.146   7.616  -3.317  0.00  0.00     0.027 H 
ATOM     25  H   LIG d   1      10.526   8.975  -4.115  0.00  0.00     0.027 H 
ATOM     26  H   LIG d   1      12.118   9.289  -4.828  0.00  0.00     0.027 H 
ATOM     27  H   LIG d   1       9.547   4.785  -2.644  0.00  0.00     0.027 H 
ATOM     28  H   LIG d   1      10.861   3.667  -3.137  0.00  0.00     0.027 H 
ATOM     29  H   LIG d   1      12.144   4.136  -1.226  0.00  0.00     0.027 H 
ATOM     30  H   LIG d   1      10.563   4.591  -0.529  0.00  0.00     0.027 H 
ATOM     31  H   LIG d   1       9.824   4.276  -5.378  0.00  0.00     0.031 H 
ATOM     32  H   LIG d   1      11.432   4.735  -5.988  0.00  0.00     0.031 H 
ATOM     33  H   LIG d   1       9.284   4.911  -7.680  0.00  0.00     0.057 H 
ATOM     34  H   LIG d   1      11.902   9.552  -6.934  0.00  0.00     0.027 H 
ATOM     35  H   LIG d   1      12.293   8.052  -7.811  0.00  0.00     0.027 H 
ATOM     36  H   LIG d   1      11.402   9.826  -9.328  0.00  0.00     0.029 H 
ATOM     37  H   LIG d   1       9.894   9.849  -8.386  0.00  0.00     0.029 H 
ATOM     38  H   LIG d   1       8.316   7.891  -8.488  0.00  0.00     0.034 H 
ATOM     39  H   LIG d   1       8.872   6.374  -9.243  0.00  0.00     0.034 H 
ENDROOT
BRANCH  12  40
ATOM     40  C   LIG d   1      11.126   6.952  -0.027  0.00  0.00     0.310 C 
ATOM     41  O   LIG d   1      10.358   6.341   0.677  0.00  0.00    -0.251 OA
BRANCH  40  42
ATOM     42  O   LIG d   1      11.420   8.232   0.253  0.00  0.00    -0.468 OA
BRANCH  42  43
ATOM     43  C   LIG d   1      11.570   8.581   1.655  0.00  0.00     0.082 C 
ATOM     44  H   LIG d   1      12.600   8.881   1.846  0.00  0.00     0.066 H 
ATOM     45  H   LIG d   1      10.900   9.407   1.897  0.00  0.00     0.066 H 
ATOM     46  H   LIG d   1      11.322   7.719   2.273  0.00  0.00     0.066 H 
ENDBRANCH  42  43
ENDBRANCH  40  42
ENDBRANCH  12  40
BRANCH   1  47
ATOM     47  C   LIG d   1       9.851   7.465  -2.325  0.00  0.00    -0.059 C 
ATOM     48  H   LIG d   1       9.399   6.996  -1.451  0.00  0.00     0.024 H 
ATOM     49  H   LIG d   1       9.880   8.546  -2.184  0.00  0.00     0.024 H 
ATOM     50  H   LIG d   1       9.258   7.230  -3.210  0.00  0.00     0.024 H 
ENDBRANCH   1  47
BRANCH  17  51
ATOM     51  C   LIG d   1       9.450   8.911  -6.104  0.00  0.00    -0.056 C 
ATOM     52  H   LIG d   1       8.529   8.366  -5.894  0.00  0.00     0.024 H 
ATOM     53  H   LIG d   1       9.794   9.407  -5.197  0.00  0.00     0.024 H 
ATOM     54  H   LIG d   1       9.263   9.656  -6.878  0.00  0.00     0.024 H 
ENDBRANCH  17  51
BRANCH  20  55
ATOM     55  O   LIG d   1       9.568   8.541 -10.715  0.00  0.00    -0.392 OA
ATOM     56  H   LIG d   1      10.137   9.096 -11.265  0.00  0.00     0.210 HD
ENDBRANCH  20  55
TORSDOF 6
ENDMDL
MODEL 10
REMARK VINA RESULT:      -5.1      8.962     13.774
REMARK  6 active torsions:
REMARK  status: ('A' for Active; 'I' for Inactive)
REMARK    1  A    between atoms: C_1  and  C_2 
REMARK    2  A    between atoms: C_13  and  C_15 
REMARK    3  A    between atoms: C_15  and  O_17 
REMARK    4  A    between atoms: O_17  and  C_18 
REMARK    5  A    between atoms: C_22  and  C_29 
REMARK    6  A    between atoms: C_25  and  O_28 
ROOT
ATOM      1  C   LIG d   1      11.027   7.572  -0.295  0.00  0.00    -0.016 C 
ATOM      2  C   LIG d   1      11.032   6.190   0.330  0.00  0.00    -0.046 C 
ATOM      3  C   LIG d   1      11.439   5.197  -0.770  0.00  0.00    -0.049 C 
ATOM      4  C   LIG d   1      10.500   5.268  -1.971  0.00  0.00    -0.029 C 
ATOM      5  H   LIG d   1       9.512   4.932  -1.656  0.00  0.00     0.031 H 
ATOM      6  C   LIG d   1      10.374   6.698  -2.513  0.00  0.00    -0.031 C 
ATOM      7  H   LIG d   1      11.329   7.056  -2.899  0.00  0.00     0.031 H 
ATOM      8  C   LIG d   1       9.908   7.582  -1.370  0.00  0.00    -0.032 C 
ATOM      9  H   LIG d   1       8.976   7.200  -0.953  0.00  0.00     0.031 H 
ATOM     10  C   LIG d   1       9.794   9.077  -1.687  0.00  0.00    -0.049 C 
ATOM     11  C   LIG d   1       9.894   9.738  -0.285  0.00  0.00    -0.039 C 
ATOM     12  C   LIG d   1      10.644   8.730   0.621  0.00  0.00     0.062 C 
ATOM     13  H   LIG d   1       9.989   8.380   1.419  0.00  0.00     0.042 H 
ATOM     14  C   LIG d   1       9.319   6.699  -3.625  0.00  0.00    -0.031 C 
ATOM     15  C   LIG d   1       9.708   5.698  -4.674  0.00  0.00    -0.084 C 
ATOM     16  C   LIG d   1      10.440   4.653  -4.418  0.00  0.00    -0.065 C 
ATOM     17  C   LIG d   1      10.988   4.327  -3.060  0.00  0.00    -0.008 C 
ATOM     18  C   LIG d   1      10.630   2.881  -2.703  0.00  0.00    -0.041 C 
ATOM     19  C   LIG d   1      11.119   1.949  -3.814  0.00  0.00    -0.026 C 
ATOM     20  C   LIG d   1      10.398   2.282  -5.122  0.00  0.00     0.059 C 
ATOM     21  H   LIG d   1       9.321   2.215  -4.971  0.00  0.00     0.060 H 
ATOM     22  C   LIG d   1      10.764   3.704  -5.559  0.00  0.00    -0.005 C 
ATOM     23  H   LIG d   1      11.752   6.154   1.147  0.00  0.00     0.027 H 
ATOM     24  H   LIG d   1      10.036   5.947   0.702  0.00  0.00     0.027 H 
ATOM     25  H   LIG d   1      12.453   5.425  -1.098  0.00  0.00     0.027 H 
ATOM     26  H   LIG d   1      11.418   4.187  -0.362  0.00  0.00     0.027 H 
ATOM     27  H   LIG d   1      10.617   9.400  -2.325  0.00  0.00     0.027 H 
ATOM     28  H   LIG d   1       8.834   9.302  -2.152  0.00  0.00     0.027 H 
ATOM     29  H   LIG d   1       8.896   9.927   0.111  0.00  0.00     0.027 H 
ATOM     30  H   LIG d   1      10.454  10.671  -0.350  0.00  0.00     0.027 H 
ATOM     31  H   LIG d   1       9.262   7.691  -4.072  0.00  0.00     0.031 H 
ATOM     32  H   LIG d   1       8.349   6.431  -3.208  0.00  0.00     0.031 H 
ATOM     33  H   LIG d   1       9.366   5.852  -5.686  0.00  0.00     0.057 H 
ATOM     34  H   LIG d   1      11.110   2.609  -1.764  0.00  0.00     0.027 H 
ATOM     35  H   LIG d   1       9.549   2.789  -2.600  0.00  0.00     0.027 H 
ATOM     36  H   LIG d   1      10.909   0.916  -3.539  0.00  0.00     0.029 H 
ATOM     37  H   LIG d   1      12.192   2.077  -3.950  0.00  0.00     0.029 H 
ATOM     38  H   LIG d   1      11.828   3.755  -5.789  0.00  0.00     0.034 H 
ATOM     39  H   LIG d   1      10.184   3.977  -6.441  0.00  0.00     0.034 H 
ENDROOT
BRANCH  12  40
ATOM     40  C   LIG d   1      11.880   9.367   1.202  0.00  0.00     0.310 C 
ATOM     41  O   LIG d   1      12.474   8.823   2.102  0.00  0.00    -0.251 OA
BRANCH  40  42
ATOM     42  O   LIG d   1      12.322  10.539   0.717  0.00  0.00    -0.468 OA
BRANCH  42  43
ATOM     43  C   LIG d   1      12.506  11.619   1.670  0.00  0.00     0.082 C 
ATOM     44  H   LIG d   1      13.408  11.439   2.253  0.00  0.00     0.066 H 
ATOM     45  H   LIG d   1      12.602  12.564   1.134  0.00  0.00     0.066 H 
ATOM     46  H   LIG d   1      11.645  11.665   2.337  0.00  0.00     0.066 H 
ENDBRANCH  42  43
ENDBRANCH  40  42
ENDBRANCH  12  40
BRANCH   1  47
ATOM     47  C   LIG d   1      12.380   7.856  -0.951  0.00  0.00    -0.059 C 
ATOM     48  H   LIG d   1      13.178   7.454  -0.328  0.00  0.00     0.024 H 
ATOM     49  H   LIG d   1      12.413   7.384  -1.934  0.00  0.00     0.024 H 
ATOM     50  H   LIG d   1      12.511   8.933  -1.061  0.00  0.00     0.024 H 
ENDBRANCH   1  47
BRANCH  17  51
ATOM     51  C   LIG d   1      12.514   4.422  -3.125  0.00  0.00    -0.056 C 
ATOM     52  H   LIG d   1      12.811   5.471  -3.156  0.00  0.00     0.024 H 
ATOM     53  H   LIG d   1      12.945   3.948  -2.244  0.00  0.00     0.024 H 
ATOM     54  H   LIG d   1      12.871   3.917  -4.022  0.00  0.00     0.024 H 
ENDBRANCH  17  51
BRANCH  20  55
ATOM     55  O   LIG d   1      10.796   1.355  -6.134  0.00  0.00    -0.392 OA
ATOM     56  H   LIG d   1      11.753   1.255  -6.221  0.00  0.00     0.210 HD
ENDBRANCH  20  55
TORSDOF 6
ENDMDL
