MODEL 1
REMARK VINA RESULT:      -7.0      0.000      0.000
REMARK  8 active torsions:
REMARK  status: ('A' for Active; 'I' for Inactive)
REMARK    1  A    between atoms: C_4  and  C_7 
REMARK    2  A    between atoms: C_7  and  C_9 
REMARK    3  A    between atoms: C_7  and  N_16 
REMARK    4  A    between atoms: N_19  and  C_22 
REMARK    5  A    between atoms: C_22  and  C_23 
REMARK    6  A    between atoms: C_23  and  O_24 
REMARK    7  A    between atoms: O_24  and  C_25 
REMARK    8  A    between atoms: C_25  and  C_26 
ROOT
ATOM      1  N   LIG d   1       4.698  -2.529  -5.858  0.00  0.00     0.246 N 
ATOM      2  C   LIG d   1       4.866  -2.959  -7.253  0.00  0.00    -0.018 C 
ATOM      3  C   LIG d   1       4.246  -4.346  -7.436  0.00  0.00     0.039 C 
ATOM      4  N   LIG d   1       4.904  -5.297  -6.530  0.00  0.00    -0.290 N 
ATOM      5  C   LIG d   1       4.765  -4.867  -5.131  0.00  0.00     0.039 C 
ATOM      6  C   LIG d   1       5.381  -3.475  -4.966  0.00  0.00    -0.018 C 
ATOM      7  H   LIG d   1       4.370  -2.248  -7.914  0.00  0.00     0.083 H 
ATOM      8  H   LIG d   1       5.928  -3.001  -7.495  0.00  0.00     0.083 H 
ATOM      9  H   LIG d   1       3.182  -4.302  -7.208  0.00  0.00     0.048 H 
ATOM     10  H   LIG d   1       4.385  -4.672  -8.468  0.00  0.00     0.048 H 
ATOM     11  H   LIG d   1       3.709  -4.831  -4.865  0.00  0.00     0.048 H 
ATOM     12  H   LIG d   1       5.281  -5.572  -4.481  0.00  0.00     0.048 H 
ATOM     13  H   LIG d   1       6.440  -3.514  -5.220  0.00  0.00     0.083 H 
ATOM     14  H   LIG d   1       5.266  -3.148  -3.933  0.00  0.00     0.083 H 
ATOM     15  H   LIG d   1       3.715  -2.502  -5.632  0.00  0.00     0.204 HD
ENDROOT
BRANCH   1  16
ATOM     16  C   LIG d   1       5.277  -1.190  -5.687  0.00  0.00     0.031 C 
ATOM     17  H   LIG d   1       6.364  -1.260  -5.695  0.00  0.00     0.096 H 
BRANCH  16  18
ATOM     18  C   LIG d   1       4.822  -0.610  -4.371  0.00  0.00     0.005 A 
ATOM     19  C   LIG d   1       3.580  -0.939  -3.863  0.00  0.00    -0.053 A 
ATOM     20  C   LIG d   1       3.164  -0.409  -2.656  0.00  0.00    -0.061 A 
ATOM     21  H   LIG d   1       2.934  -1.612  -4.408  0.00  0.00     0.062 H 
ATOM     22  C   LIG d   1       3.991   0.452  -1.958  0.00  0.00    -0.062 A 
ATOM     23  H   LIG d   1       2.194  -0.666  -2.259  0.00  0.00     0.062 H 
ATOM     24  C   LIG d   1       5.233   0.781  -2.466  0.00  0.00    -0.061 A 
ATOM     25  H   LIG d   1       3.663   0.870  -1.018  0.00  0.00     0.062 H 
ATOM     26  C   LIG d   1       5.648   0.251  -3.673  0.00  0.00    -0.053 A 
ATOM     27  H   LIG d   1       5.879   1.454  -1.921  0.00  0.00     0.062 H 
ATOM     28  H   LIG d   1       6.620   0.508  -4.071  0.00  0.00     0.062 H 
ENDBRANCH  16  18
BRANCH  16  29
ATOM     29  C   LIG d   1       4.822  -0.297  -6.812  0.00  0.00     0.005 A 
ATOM     30  C   LIG d   1       5.751   0.254  -7.675  0.00  0.00    -0.051 A 
ATOM     31  C   LIG d   1       5.334   1.068  -8.712  0.00  0.00    -0.043 A 
ATOM     32  H   LIG d   1       6.802   0.045  -7.542  0.00  0.00     0.062 H 
ATOM     33  C   LIG d   1       3.987   1.339  -8.878  0.00  0.00     0.041 A 
ATOM     34  H   LIG d   1       6.058   1.494  -9.389  0.00  0.00     0.063 H 
ATOM     35  C   LIG d   1       3.059   0.793  -8.011  0.00  0.00    -0.043 A 
ATOM     36 CL   LIG d   1       3.463   2.367 -10.176  0.00  0.00    -0.084 Cl
ATOM     37  C   LIG d   1       3.476  -0.026  -6.978  0.00  0.00    -0.051 A 
ATOM     38  H   LIG d   1       2.008   1.004  -8.140  0.00  0.00     0.063 H 
ATOM     39  H   LIG d   1       2.752  -0.453  -6.301  0.00  0.00     0.062 H 
ENDBRANCH  16  29
ENDBRANCH   1  16
BRANCH   4  40
ATOM     40  C   LIG d   1       4.375  -6.656  -6.717  0.00  0.00     0.023 C 
ATOM     41  H   LIG d   1       3.322  -6.678  -6.436  0.00  0.00     0.045 H 
ATOM     42  H   LIG d   1       4.477  -6.943  -7.764  0.00  0.00     0.045 H 
BRANCH  40  43
ATOM     43  C   LIG d   1       5.159  -7.634  -5.842  0.00  0.00     0.061 C 
ATOM     44  H   LIG d   1       5.945  -8.101  -6.434  0.00  0.00     0.057 H 
ATOM     45  H   LIG d   1       5.606  -7.095  -5.006  0.00  0.00     0.057 H 
BRANCH  43  46
ATOM     46  O   LIG d   1       4.276  -8.641  -5.343  0.00  0.00    -0.373 OA
BRANCH  46  47
ATOM     47  C   LIG d   1       4.837  -9.442  -4.301  0.00  0.00     0.087 C 
ATOM     48  H   LIG d   1       5.493 -10.195  -4.734  0.00  0.00     0.062 H 
ATOM     49  H   LIG d   1       5.408  -8.807  -3.623  0.00  0.00     0.062 H 
BRANCH  47  50
ATOM     50  C   LIG d   1       3.728 -10.120  -3.538  0.00  0.00     0.067 C 
ATOM     51  O   LIG d   1       3.778 -11.320  -3.329  0.00  0.00    -0.547 OA
ATOM     52  O   LIG d   1       2.782  -9.468  -3.129  0.00  0.00    -0.547 OA
ENDBRANCH  47  50
ENDBRANCH  46  47
ENDBRANCH  43  46
ENDBRANCH  40  43
ENDBRANCH   4  40
TORSDOF 8
ENDMDL
MODEL 2
REMARK VINA RESULT:      -6.4      3.129      4.654
REMARK  8 active torsions:
REMARK  status: ('A' for Active; 'I' for Inactive)
REMARK    1  A    between atoms: C_4  and  C_7 
REMARK    2  A    between atoms: C_7  and  C_9 
REMARK    3  A    between atoms: C_7  and  N_16 
REMARK    4  A    between atoms: N_19  and  C_22 
REMARK    5  A    between atoms: C_22  and  C_23 
REMARK    6  A    between atoms: C_23  and  O_24 
REMARK    7  A    between atoms: O_24  and  C_25 
REMARK    8  A    between atoms: C_25  and  C_26 
ROOT
ATOM      1  N   LIG d   1       6.598  -4.003  -5.202  0.00  0.00     0.246 N 
ATOM      2  C   LIG d   1       5.421  -3.683  -6.020  0.00  0.00    -0.018 C 
ATOM      3  C   LIG d   1       4.561  -4.937  -6.188  0.00  0.00     0.039 C 
ATOM      4  N   LIG d   1       5.356  -5.991  -6.834  0.00  0.00    -0.290 N 
ATOM      5  C   LIG d   1       6.551  -6.305  -6.038  0.00  0.00     0.039 C 
ATOM      6  C   LIG d   1       7.396  -5.040  -5.872  0.00  0.00    -0.018 C 
ATOM      7  H   LIG d   1       4.838  -2.905  -5.528  0.00  0.00     0.083 H 
ATOM      8  H   LIG d   1       5.745  -3.331  -7.000  0.00  0.00     0.083 H 
ATOM      9  H   LIG d   1       4.226  -5.282  -5.210  0.00  0.00     0.048 H 
ATOM     10  H   LIG d   1       3.695  -4.704  -6.809  0.00  0.00     0.048 H 
ATOM     11  H   LIG d   1       6.249  -6.672  -5.058  0.00  0.00     0.048 H 
ATOM     12  H   LIG d   1       7.137  -7.069  -6.549  0.00  0.00     0.048 H 
ATOM     13  H   LIG d   1       7.709  -4.680  -6.851  0.00  0.00     0.083 H 
ATOM     14  H   LIG d   1       8.276  -5.267  -5.270  0.00  0.00     0.083 H 
ATOM     15  H   LIG d   1       6.298  -4.341  -4.300  0.00  0.00     0.204 HD
ENDROOT
BRANCH   1  16
ATOM     16  C   LIG d   1       7.415  -2.796  -5.026  0.00  0.00     0.031 C 
ATOM     17  H   LIG d   1       7.606  -2.341  -5.997  0.00  0.00     0.096 H 
BRANCH  16  18
ATOM     18  C   LIG d   1       8.726  -3.164  -4.378  0.00  0.00     0.005 A 
ATOM     19  C   LIG d   1       9.919  -2.821  -4.986  0.00  0.00    -0.053 A 
ATOM     20  C   LIG d   1      11.120  -3.159  -4.392  0.00  0.00    -0.061 A 
ATOM     21  H   LIG d   1       9.911  -2.288  -5.926  0.00  0.00     0.062 H 
ATOM     22  C   LIG d   1      11.128  -3.840  -3.189  0.00  0.00    -0.062 A 
ATOM     23  H   LIG d   1      12.051  -2.890  -4.867  0.00  0.00     0.062 H 
ATOM     24  C   LIG d   1       9.935  -4.183  -2.581  0.00  0.00    -0.061 A 
ATOM     25  H   LIG d   1      12.067  -4.108  -2.728  0.00  0.00     0.062 H 
ATOM     26  C   LIG d   1       8.734  -3.847  -3.176  0.00  0.00    -0.053 A 
ATOM     27  H   LIG d   1       9.943  -4.717  -1.641  0.00  0.00     0.062 H 
ATOM     28  H   LIG d   1       7.802  -4.115  -2.700  0.00  0.00     0.062 H 
ENDBRANCH  16  18
BRANCH  16  29
ATOM     29  C   LIG d   1       6.680  -1.816  -4.147  0.00  0.00     0.005 A 
ATOM     30  C   LIG d   1       5.618  -2.245  -3.373  0.00  0.00    -0.051 A 
ATOM     31  C   LIG d   1       4.947  -1.348  -2.562  0.00  0.00    -0.043 A 
ATOM     32  H   LIG d   1       5.315  -3.281  -3.398  0.00  0.00     0.062 H 
ATOM     33  C   LIG d   1       5.332  -0.020  -2.535  0.00  0.00     0.041 A 
ATOM     34  H   LIG d   1       4.121  -1.684  -1.954  0.00  0.00     0.063 H 
ATOM     35  C   LIG d   1       6.390   0.410  -3.314  0.00  0.00    -0.043 A 
ATOM     36 CL   LIG d   1       4.485   1.109  -1.523  0.00  0.00    -0.084 Cl
ATOM     37  C   LIG d   1       7.064  -0.488  -4.121  0.00  0.00    -0.051 A 
ATOM     38  H   LIG d   1       6.691   1.447  -3.295  0.00  0.00     0.063 H 
ATOM     39  H   LIG d   1       7.891  -0.154  -4.729  0.00  0.00     0.062 H 
ENDBRANCH  16  29
ENDBRANCH   1  16
BRANCH   4  40
ATOM     40  C   LIG d   1       4.546  -7.195  -7.066  0.00  0.00     0.023 C 
ATOM     41  H   LIG d   1       3.528  -7.022  -6.715  0.00  0.00     0.045 H 
ATOM     42  H   LIG d   1       4.529  -7.421  -8.133  0.00  0.00     0.045 H 
BRANCH  40  43
ATOM     43  C   LIG d   1       5.155  -8.373  -6.304  0.00  0.00     0.061 C 
ATOM     44  H   LIG d   1       5.465  -9.142  -7.012  0.00  0.00     0.057 H 
ATOM     45  H   LIG d   1       6.021  -8.031  -5.738  0.00  0.00     0.057 H 
BRANCH  43  46
ATOM     46  O   LIG d   1       4.182  -8.915  -5.408  0.00  0.00    -0.373 OA
BRANCH  46  47
ATOM     47  C   LIG d   1       4.735  -9.439  -4.199  0.00  0.00     0.087 C 
ATOM     48  H   LIG d   1       5.547 -10.125  -4.437  0.00  0.00     0.062 H 
ATOM     49  H   LIG d   1       5.117  -8.620  -3.589  0.00  0.00     0.062 H 
BRANCH  47  50
ATOM     50  C   LIG d   1       3.664 -10.175  -3.435  0.00  0.00     0.067 C 
ATOM     51  O   LIG d   1       2.655  -9.589  -3.083  0.00  0.00    -0.547 OA
ATOM     52  O   LIG d   1       3.807 -11.357  -3.171  0.00  0.00    -0.547 OA
ENDBRANCH  47  50
ENDBRANCH  46  47
ENDBRANCH  43  46
ENDBRANCH  40  43
ENDBRANCH   4  40
TORSDOF 8
ENDMDL
MODEL 3
REMARK VINA RESULT:      -6.3      5.470      7.335
REMARK  8 active torsions:
REMARK  status: ('A' for Active; 'I' for Inactive)
REMARK    1  A    between atoms: C_4  and  C_7 
REMARK    2  A    between atoms: C_7  and  C_9 
REMARK    3  A    between atoms: C_7  and  N_16 
REMARK    4  A    between atoms: N_19  and  C_22 
REMARK    5  A    between atoms: C_22  and  C_23 
REMARK    6  A    between atoms: C_23  and  O_24 
REMARK    7  A    between atoms: O_24  and  C_25 
REMARK    8  A    between atoms: C_25  and  C_26 
ROOT
ATOM      1  N   LIG d   1       5.470  -1.564  -6.130  0.00  0.00     0.246 N 
ATOM      2  C   LIG d   1       5.480  -2.634  -7.135  0.00  0.00    -0.018 C 
ATOM      3  C   LIG d   1       5.088  -2.057  -8.497  0.00  0.00     0.039 C 
ATOM      4  N   LIG d   1       3.749  -1.459  -8.407  0.00  0.00    -0.290 N 
ATOM      5  C   LIG d   1       3.718  -0.402  -7.386  0.00  0.00     0.039 C 
ATOM      6  C   LIG d   1       4.120  -0.993  -6.033  0.00  0.00    -0.018 C 
ATOM      7  H   LIG d   1       6.479  -3.066  -7.196  0.00  0.00     0.083 H 
ATOM      8  H   LIG d   1       4.767  -3.407  -6.850  0.00  0.00     0.083 H 
ATOM      9  H   LIG d   1       5.809  -1.294  -8.790  0.00  0.00     0.048 H 
ATOM     10  H   LIG d   1       5.081  -2.855  -9.241  0.00  0.00     0.048 H 
ATOM     11  H   LIG d   1       4.416   0.389  -7.660  0.00  0.00     0.048 H 
ATOM     12  H   LIG d   1       2.711   0.009  -7.319  0.00  0.00     0.048 H 
ATOM     13  H   LIG d   1       3.414  -1.774  -5.753  0.00  0.00     0.083 H 
ATOM     14  H   LIG d   1       4.111  -0.207  -5.277  0.00  0.00     0.083 H 
ATOM     15  H   LIG d   1       6.122  -0.843  -6.401  0.00  0.00     0.204 HD
ENDROOT
BRANCH   1  16
ATOM     16  C   LIG d   1       5.863  -2.114  -4.826  0.00  0.00     0.031 C 
ATOM     17  H   LIG d   1       5.369  -3.073  -4.672  0.00  0.00     0.096 H 
BRANCH  16  18
ATOM     18  C   LIG d   1       5.456  -1.158  -3.733  0.00  0.00     0.005 A 
ATOM     19  C   LIG d   1       4.641  -1.591  -2.704  0.00  0.00    -0.053 A 
ATOM     20  C   LIG d   1       4.269  -0.715  -1.702  0.00  0.00    -0.061 A 
ATOM     21  H   LIG d   1       4.296  -2.615  -2.683  0.00  0.00     0.062 H 
ATOM     22  C   LIG d   1       4.711   0.595  -1.729  0.00  0.00    -0.062 A 
ATOM     23  H   LIG d   1       3.633  -1.053  -0.898  0.00  0.00     0.062 H 
ATOM     24  C   LIG d   1       5.526   1.027  -2.758  0.00  0.00    -0.061 A 
ATOM     25  H   LIG d   1       4.416   1.280  -0.949  0.00  0.00     0.062 H 
ATOM     26  C   LIG d   1       5.897   0.152  -3.761  0.00  0.00    -0.053 A 
ATOM     27  H   LIG d   1       5.871   2.051  -2.780  0.00  0.00     0.062 H 
ATOM     28  H   LIG d   1       6.535   0.490  -4.565  0.00  0.00     0.062 H 
ENDBRANCH  16  18
BRANCH  16  29
ATOM     29  C   LIG d   1       7.357  -2.307  -4.792  0.00  0.00     0.005 A 
ATOM     30  C   LIG d   1       7.909  -3.287  -3.986  0.00  0.00    -0.051 A 
ATOM     31  C   LIG d   1       9.279  -3.469  -3.959  0.00  0.00    -0.043 A 
ATOM     32  H   LIG d   1       7.269  -3.912  -3.382  0.00  0.00     0.062 H 
ATOM     33  C   LIG d   1      10.098  -2.664  -4.729  0.00  0.00     0.041 A 
ATOM     34  H   LIG d   1       9.709  -4.237  -3.334  0.00  0.00     0.063 H 
ATOM     35  C   LIG d   1       9.547  -1.680  -5.530  0.00  0.00    -0.043 A 
ATOM     36 CL   LIG d   1      11.820  -2.887  -4.691  0.00  0.00    -0.084 Cl
ATOM     37  C   LIG d   1       8.176  -1.502  -5.561  0.00  0.00    -0.051 A 
ATOM     38  H   LIG d   1      10.186  -1.050  -6.132  0.00  0.00     0.063 H 
ATOM     39  H   LIG d   1       7.745  -0.735  -6.186  0.00  0.00     0.062 H 
ENDBRANCH  16  29
ENDBRANCH   1  16
BRANCH   4  40
ATOM     40  C   LIG d   1       3.313  -0.944  -9.712  0.00  0.00     0.023 C 
ATOM     41  H   LIG d   1       2.548  -1.602 -10.125  0.00  0.00     0.045 H 
ATOM     42  H   LIG d   1       2.901   0.058  -9.587  0.00  0.00     0.045 H 
BRANCH  40  43
ATOM     43  C   LIG d   1       4.509  -0.889 -10.664  0.00  0.00     0.061 C 
ATOM     44  H   LIG d   1       5.309  -1.521 -10.279  0.00  0.00     0.057 H 
ATOM     45  H   LIG d   1       4.207  -1.246 -11.649  0.00  0.00     0.057 H 
BRANCH  43  46
ATOM     46  O   LIG d   1       4.974   0.459 -10.766  0.00  0.00    -0.373 OA
BRANCH  46  47
ATOM     47  C   LIG d   1       3.958   1.442 -10.551  0.00  0.00     0.087 C 
ATOM     48  H   LIG d   1       3.801   2.008 -11.468  0.00  0.00     0.062 H 
ATOM     49  H   LIG d   1       3.030   0.947 -10.264  0.00  0.00     0.062 H 
BRANCH  47  50
ATOM     50  C   LIG d   1       4.390   2.376  -9.451  0.00  0.00     0.067 C 
ATOM     51  O   LIG d   1       3.566   2.821  -8.670  0.00  0.00    -0.547 OA
ATOM     52  O   LIG d   1       5.565   2.687  -9.342  0.00  0.00    -0.547 OA
ENDBRANCH  47  50
ENDBRANCH  46  47
ENDBRANCH  43  46
ENDBRANCH  40  43
ENDBRANCH   4  40
TORSDOF 8
ENDMDL
MODEL 4
REMARK VINA RESULT:      -6.2      6.920      9.677
REMARK  8 active torsions:
REMARK  status: ('A' for Active; 'I' for Inactive)
REMARK    1  A    between atoms: C_4  and  C_7 
REMARK    2  A    between atoms: C_7  and  C_9 
REMARK    3  A    between atoms: C_7  and  N_16 
REMARK    4  A    between atoms: N_19  and  C_22 
REMARK    5  A    between atoms: C_22  and  C_23 
REMARK    6  A    between atoms: C_23  and  O_24 
REMARK    7  A    between atoms: O_24  and  C_25 
REMARK    8  A    between atoms: C_25  and  C_26 
ROOT
ATOM      1  N   LIG d   1       7.833  -0.470  -4.382  0.00  0.00     0.246 N 
ATOM      2  C   LIG d   1       8.932  -0.347  -5.349  0.00  0.00    -0.018 C 
ATOM      3  C   LIG d   1       9.969   0.646  -4.819  0.00  0.00     0.039 C 
ATOM      4  N   LIG d   1       9.330   1.952  -4.610  0.00  0.00    -0.290 N 
ATOM      5  C   LIG d   1       8.212   1.840  -3.662  0.00  0.00     0.039 C 
ATOM      6  C   LIG d   1       7.189   0.838  -4.201  0.00  0.00    -0.018 C 
ATOM      7  H   LIG d   1       9.400  -1.321  -5.492  0.00  0.00     0.083 H 
ATOM      8  H   LIG d   1       8.539   0.011  -6.301  0.00  0.00     0.083 H 
ATOM      9  H   LIG d   1      10.372   0.282  -3.874  0.00  0.00     0.048 H 
ATOM     10  H   LIG d   1      10.777   0.749  -5.544  0.00  0.00     0.048 H 
ATOM     11  H   LIG d   1       8.586   1.496  -2.698  0.00  0.00     0.048 H 
ATOM     12  H   LIG d   1       7.739   2.815  -3.541  0.00  0.00     0.048 H 
ATOM     13  H   LIG d   1       6.806   1.190  -5.159  0.00  0.00     0.083 H 
ATOM     14  H   LIG d   1       6.366   0.743  -3.493  0.00  0.00     0.083 H 
ATOM     15  H   LIG d   1       8.199  -0.789  -3.498  0.00  0.00     0.204 HD
ENDROOT
BRANCH   1  16
ATOM     16  C   LIG d   1       6.847  -1.436  -4.882  0.00  0.00     0.031 C 
ATOM     17  H   LIG d   1       6.644  -1.237  -5.935  0.00  0.00     0.096 H 
BRANCH  16  18
ATOM     18  C   LIG d   1       5.569  -1.305  -4.092  0.00  0.00     0.005 A 
ATOM     19  C   LIG d   1       5.551  -1.624  -2.748  0.00  0.00    -0.053 A 
ATOM     20  C   LIG d   1       4.380  -1.502  -2.024  0.00  0.00    -0.061 A 
ATOM     21  H   LIG d   1       6.454  -1.966  -2.262  0.00  0.00     0.062 H 
ATOM     22  C   LIG d   1       3.226  -1.063  -2.645  0.00  0.00    -0.062 A 
ATOM     23  H   LIG d   1       4.366  -1.751  -0.974  0.00  0.00     0.062 H 
ATOM     24  C   LIG d   1       3.244  -0.744  -3.990  0.00  0.00    -0.061 A 
ATOM     25  H   LIG d   1       2.310  -0.973  -2.081  0.00  0.00     0.062 H 
ATOM     26  C   LIG d   1       4.415  -0.866  -4.714  0.00  0.00    -0.053 A 
ATOM     27  H   LIG d   1       2.342  -0.401  -4.476  0.00  0.00     0.062 H 
ATOM     28  H   LIG d   1       4.429  -0.617  -5.765  0.00  0.00     0.062 H 
ENDBRANCH  16  18
BRANCH  16  29
ATOM     29  C   LIG d   1       7.390  -2.833  -4.730  0.00  0.00     0.005 A 
ATOM     30  C   LIG d   1       8.406  -3.084  -3.825  0.00  0.00    -0.051 A 
ATOM     31  C   LIG d   1       8.900  -4.367  -3.680  0.00  0.00    -0.043 A 
ATOM     32  H   LIG d   1       8.809  -2.279  -3.230  0.00  0.00     0.062 H 
ATOM     33  C   LIG d   1       8.386  -5.397  -4.448  0.00  0.00     0.041 A 
ATOM     34  H   LIG d   1       9.690  -4.564  -2.971  0.00  0.00     0.063 H 
ATOM     35  C   LIG d   1       7.375  -5.144  -5.356  0.00  0.00    -0.043 A 
ATOM     36 CL   LIG d   1       9.012  -7.007  -4.272  0.00  0.00    -0.084 Cl
ATOM     37  C   LIG d   1       6.877  -3.862  -5.497  0.00  0.00    -0.051 A 
ATOM     38  H   LIG d   1       6.973  -5.947  -5.957  0.00  0.00     0.063 H 
ATOM     39  H   LIG d   1       6.087  -3.664  -6.206  0.00  0.00     0.062 H 
ENDBRANCH  16  29
ENDBRANCH   1  16
BRANCH   4  40
ATOM     40  C   LIG d   1      10.308   2.950  -4.154  0.00  0.00     0.023 C 
ATOM     41  H   LIG d   1      11.141   2.446  -3.663  0.00  0.00     0.045 H 
ATOM     42  H   LIG d   1      10.680   3.511  -5.013  0.00  0.00     0.045 H 
BRANCH  40  43
ATOM     43  C   LIG d   1       9.638   3.909  -3.169  0.00  0.00     0.061 C 
ATOM     44  H   LIG d   1       9.168   4.724  -3.719  0.00  0.00     0.057 H 
ATOM     45  H   LIG d   1       8.881   3.372  -2.598  0.00  0.00     0.057 H 
BRANCH  43  46
ATOM     46  O   LIG d   1      10.621   4.440  -2.278  0.00  0.00    -0.373 OA
BRANCH  46  47
ATOM     47  C   LIG d   1      10.711   5.867  -2.296  0.00  0.00     0.087 C 
ATOM     48  H   LIG d   1      11.758   6.165  -2.314  0.00  0.00     0.062 H 
ATOM     49  H   LIG d   1      10.207   6.251  -3.182  0.00  0.00     0.062 H 
BRANCH  47  50
ATOM     50  C   LIG d   1      10.051   6.426  -1.061  0.00  0.00     0.067 C 
ATOM     51  O   LIG d   1      10.393   6.037   0.042  0.00  0.00    -0.547 OA
ATOM     52  O   LIG d   1       9.175   7.268  -1.167  0.00  0.00    -0.547 OA
ENDBRANCH  47  50
ENDBRANCH  46  47
ENDBRANCH  43  46
ENDBRANCH  40  43
ENDBRANCH   4  40
TORSDOF 8
ENDMDL
MODEL 5
REMARK VINA RESULT:      -6.2      5.484      6.935
REMARK  8 active torsions:
REMARK  status: ('A' for Active; 'I' for Inactive)
REMARK    1  A    between atoms: C_4  and  C_7 
REMARK    2  A    between atoms: C_7  and  C_9 
REMARK    3  A    between atoms: C_7  and  N_16 
REMARK    4  A    between atoms: N_19  and  C_22 
REMARK    5  A    between atoms: C_22  and  C_23 
REMARK    6  A    between atoms: C_23  and  O_24 
REMARK    7  A    between atoms: O_24  and  C_25 
REMARK    8  A    between atoms: C_25  and  C_26 
ROOT
ATOM      1  N   LIG d   1       5.836  -0.377  -6.209  0.00  0.00     0.246 N 
ATOM      2  C   LIG d   1       6.103  -1.574  -7.017  0.00  0.00    -0.018 C 
ATOM      3  C   LIG d   1       5.213  -1.556  -8.262  0.00  0.00     0.039 C 
ATOM      4  N   LIG d   1       3.803  -1.524  -7.854  0.00  0.00    -0.290 N 
ATOM      5  C   LIG d   1       3.527  -0.344  -7.023  0.00  0.00     0.039 C 
ATOM      6  C   LIG d   1       4.429  -0.372  -5.787  0.00  0.00    -0.018 C 
ATOM      7  H   LIG d   1       7.150  -1.583  -7.317  0.00  0.00     0.083 H 
ATOM      8  H   LIG d   1       5.885  -2.466  -6.428  0.00  0.00     0.083 H 
ATOM      9  H   LIG d   1       5.440  -0.672  -8.858  0.00  0.00     0.048 H 
ATOM     10  H   LIG d   1       5.400  -2.453  -8.855  0.00  0.00     0.048 H 
ATOM     11  H   LIG d   1       3.725   0.560  -7.598  0.00  0.00     0.048 H 
ATOM     12  H   LIG d   1       2.482  -0.355  -6.711  0.00  0.00     0.048 H 
ATOM     13  H   LIG d   1       4.220  -1.269  -5.205  0.00  0.00     0.083 H 
ATOM     14  H   LIG d   1       4.236   0.511  -5.177  0.00  0.00     0.083 H 
ATOM     15  H   LIG d   1       6.026   0.448  -6.758  0.00  0.00     0.204 HD
ENDROOT
BRANCH   1  16
ATOM     16  C   LIG d   1       6.702  -0.385  -5.022  0.00  0.00     0.031 C 
ATOM     17  H   LIG d   1       7.288  -1.304  -5.006  0.00  0.00     0.096 H 
BRANCH  16  18
ATOM     18  C   LIG d   1       5.852  -0.310  -3.779  0.00  0.00     0.005 A 
ATOM     19  C   LIG d   1       5.486   0.920  -3.265  0.00  0.00    -0.053 A 
ATOM     20  C   LIG d   1       4.706   0.989  -2.126  0.00  0.00    -0.061 A 
ATOM     21  H   LIG d   1       5.808   1.827  -3.755  0.00  0.00     0.062 H 
ATOM     22  C   LIG d   1       4.293  -0.173  -1.500  0.00  0.00    -0.062 A 
ATOM     23  H   LIG d   1       4.420   1.949  -1.725  0.00  0.00     0.062 H 
ATOM     24  C   LIG d   1       4.660  -1.403  -2.014  0.00  0.00    -0.061 A 
ATOM     25  H   LIG d   1       3.688  -0.119  -0.608  0.00  0.00     0.062 H 
ATOM     26  C   LIG d   1       5.440  -1.471  -3.152  0.00  0.00    -0.053 A 
ATOM     27  H   LIG d   1       4.337  -2.310  -1.524  0.00  0.00     0.062 H 
ATOM     28  H   LIG d   1       5.726  -2.432  -3.554  0.00  0.00     0.062 H 
ENDBRANCH  16  18
BRANCH  16  29
ATOM     29  C   LIG d   1       7.630   0.801  -5.069  0.00  0.00     0.005 A 
ATOM     30  C   LIG d   1       7.873   1.441  -6.271  0.00  0.00    -0.051 A 
ATOM     31  C   LIG d   1       8.719   2.533  -6.313  0.00  0.00    -0.043 A 
ATOM     32  H   LIG d   1       7.398   1.090  -7.175  0.00  0.00     0.062 H 
ATOM     33  C   LIG d   1       9.331   2.979  -5.156  0.00  0.00     0.041 A 
ATOM     34  H   LIG d   1       8.904   3.036  -7.250  0.00  0.00     0.063 H 
ATOM     35  C   LIG d   1       9.092   2.336  -3.955  0.00  0.00    -0.043 A 
ATOM     36 CL   LIG d   1      10.399   4.347  -5.209  0.00  0.00    -0.084 Cl
ATOM     37  C   LIG d   1       8.242   1.246  -3.912  0.00  0.00    -0.051 A 
ATOM     38  H   LIG d   1       9.569   2.682  -3.051  0.00  0.00     0.063 H 
ATOM     39  H   LIG d   1       8.055   0.744  -2.975  0.00  0.00     0.062 H 
ENDBRANCH  16  29
ENDBRANCH   1  16
BRANCH   4  40
ATOM     40  C   LIG d   1       2.914  -1.564  -9.024  0.00  0.00     0.023 C 
ATOM     41  H   LIG d   1       2.531  -2.577  -9.155  0.00  0.00     0.045 H 
ATOM     42  H   LIG d   1       2.081  -0.878  -8.869  0.00  0.00     0.045 H 
BRANCH  40  43
ATOM     43  C   LIG d   1       3.695  -1.147 -10.271  0.00  0.00     0.061 C 
ATOM     44  H   LIG d   1       4.726  -0.924  -9.996  0.00  0.00     0.057 H 
ATOM     45  H   LIG d   1       3.680  -1.959 -10.998  0.00  0.00     0.057 H 
BRANCH  43  46
ATOM     46  O   LIG d   1       3.092   0.016 -10.843  0.00  0.00    -0.373 OA
BRANCH  46  47
ATOM     47  C   LIG d   1       4.013   1.076 -11.109  0.00  0.00     0.087 C 
ATOM     48  H   LIG d   1       4.986   0.657 -11.362  0.00  0.00     0.062 H 
ATOM     49  H   LIG d   1       3.647   1.675 -11.942  0.00  0.00     0.062 H 
BRANCH  47  50
ATOM     50  C   LIG d   1       4.143   1.946  -9.885  0.00  0.00     0.067 C 
ATOM     51  O   LIG d   1       5.247   2.275  -9.486  0.00  0.00    -0.547 OA
ATOM     52  O   LIG d   1       3.144   2.321  -9.295  0.00  0.00    -0.547 OA
ENDBRANCH  47  50
ENDBRANCH  46  47
ENDBRANCH  43  46
ENDBRANCH  40  43
ENDBRANCH   4  40
TORSDOF 8
ENDMDL
MODEL 6
REMARK VINA RESULT:      -6.1      6.916      9.687
REMARK  8 active torsions:
REMARK  status: ('A' for Active; 'I' for Inactive)
REMARK    1  A    between atoms: C_4  and  C_7 
REMARK    2  A    between atoms: C_7  and  C_9 
REMARK    3  A    between atoms: C_7  and  N_16 
REMARK    4  A    between atoms: N_19  and  C_22 
REMARK    5  A    between atoms: C_22  and  C_23 
REMARK    6  A    between atoms: C_23  and  O_24 
REMARK    7  A    between atoms: O_24  and  C_25 
REMARK    8  A    between atoms: C_25  and  C_26 
ROOT
ATOM      1  N   LIG d   1       7.811  -0.426  -4.380  0.00  0.00     0.246 N 
ATOM      2  C   LIG d   1       8.937  -0.349  -5.321  0.00  0.00    -0.018 C 
ATOM      3  C   LIG d   1       9.986   0.625  -4.781  0.00  0.00     0.039 C 
ATOM      4  N   LIG d   1       9.378   1.951  -4.608  0.00  0.00    -0.290 N 
ATOM      5  C   LIG d   1       8.235   1.885  -3.687  0.00  0.00     0.039 C 
ATOM      6  C   LIG d   1       7.199   0.901  -4.236  0.00  0.00    -0.018 C 
ATOM      7  H   LIG d   1       9.382  -1.337  -5.437  0.00  0.00     0.083 H 
ATOM      8  H   LIG d   1       8.578   0.004  -6.288  0.00  0.00     0.083 H 
ATOM      9  H   LIG d   1      10.356   0.266  -3.820  0.00  0.00     0.048 H 
ATOM     10  H   LIG d   1      10.815   0.695  -5.487  0.00  0.00     0.048 H 
ATOM     11  H   LIG d   1       8.574   1.546  -2.709  0.00  0.00     0.048 H 
ATOM     12  H   LIG d   1       7.785   2.873  -3.594  0.00  0.00     0.048 H 
ATOM     13  H   LIG d   1       6.849   1.247  -5.209  0.00  0.00     0.083 H 
ATOM     14  H   LIG d   1       6.356   0.840  -3.548  0.00  0.00     0.083 H 
ATOM     15  H   LIG d   1       8.146  -0.741  -3.482  0.00  0.00     0.204 HD
ENDROOT
BRANCH   1  16
ATOM     16  C   LIG d   1       6.812  -1.374  -4.890  0.00  0.00     0.031 C 
ATOM     17  H   LIG d   1       6.604  -1.155  -5.937  0.00  0.00     0.096 H 
BRANCH  16  18
ATOM     18  C   LIG d   1       5.541  -1.244  -4.089  0.00  0.00     0.005 A 
ATOM     19  C   LIG d   1       4.392  -0.765  -4.688  0.00  0.00    -0.053 A 
ATOM     20  C   LIG d   1       3.227  -0.648  -3.953  0.00  0.00    -0.061 A 
ATOM     21  H   LIG d   1       4.404  -0.483  -5.731  0.00  0.00     0.062 H 
ATOM     22  C   LIG d   1       3.212  -1.009  -2.619  0.00  0.00    -0.062 A 
ATOM     23  H   LIG d   1       2.329  -0.274  -4.421  0.00  0.00     0.062 H 
ATOM     24  C   LIG d   1       4.362  -1.489  -2.020  0.00  0.00    -0.061 A 
ATOM     25  H   LIG d   1       2.303  -0.913  -2.044  0.00  0.00     0.062 H 
ATOM     26  C   LIG d   1       5.526  -1.605  -2.754  0.00  0.00    -0.053 A 
ATOM     27  H   LIG d   1       4.350  -1.770  -0.977  0.00  0.00     0.062 H 
ATOM     28  H   LIG d   1       6.425  -1.980  -2.286  0.00  0.00     0.062 H 
ENDBRANCH  16  18
BRANCH  16  29
ATOM     29  C   LIG d   1       7.342  -2.779  -4.766  0.00  0.00     0.005 A 
ATOM     30  C   LIG d   1       6.808  -3.790  -5.544  0.00  0.00    -0.051 A 
ATOM     31  C   LIG d   1       7.298  -5.078  -5.435  0.00  0.00    -0.043 A 
ATOM     32  H   LIG d   1       6.011  -3.572  -6.239  0.00  0.00     0.062 H 
ATOM     33  C   LIG d   1       8.316  -5.356  -4.540  0.00  0.00     0.041 A 
ATOM     34  H   LIG d   1       6.885  -5.866  -6.046  0.00  0.00     0.063 H 
ATOM     35  C   LIG d   1       8.846  -4.346  -3.758  0.00  0.00    -0.043 A 
ATOM     36 CL   LIG d   1       8.927  -6.975  -4.397  0.00  0.00    -0.084 Cl
ATOM     37  C   LIG d   1       8.359  -3.057  -3.871  0.00  0.00    -0.051 A 
ATOM     38  H   LIG d   1       9.639  -4.563  -3.058  0.00  0.00     0.063 H 
ATOM     39  H   LIG d   1       8.772  -2.268  -3.261  0.00  0.00     0.062 H 
ENDBRANCH  16  29
ENDBRANCH   1  16
BRANCH   4  40
ATOM     40  C   LIG d   1      10.372   2.930  -4.144  0.00  0.00     0.023 C 
ATOM     41  H   LIG d   1      11.034   2.459  -3.417  0.00  0.00     0.045 H 
ATOM     42  H   LIG d   1      10.957   3.282  -4.993  0.00  0.00     0.045 H 
BRANCH  40  43
ATOM     43  C   LIG d   1       9.655   4.114  -3.492  0.00  0.00     0.061 C 
ATOM     44  H   LIG d   1       9.678   4.969  -4.167  0.00  0.00     0.057 H 
ATOM     45  H   LIG d   1       8.620   3.842  -3.284  0.00  0.00     0.057 H 
BRANCH  43  46
ATOM     46  O   LIG d   1      10.313   4.454  -2.269  0.00  0.00    -0.373 OA
BRANCH  46  47
ATOM     47  C   LIG d   1      10.694   5.829  -2.178  0.00  0.00     0.087 C 
ATOM     48  H   LIG d   1      11.778   5.902  -2.105  0.00  0.00     0.062 H 
ATOM     49  H   LIG d   1      10.352   6.360  -3.067  0.00  0.00     0.062 H 
BRANCH  47  50
ATOM     50  C   LIG d   1      10.064   6.443  -0.954  0.00  0.00     0.067 C 
ATOM     51  O   LIG d   1       9.227   7.321  -1.075  0.00  0.00    -0.547 OA
ATOM     52  O   LIG d   1      10.392   6.060   0.156  0.00  0.00    -0.547 OA
ENDBRANCH  47  50
ENDBRANCH  46  47
ENDBRANCH  43  46
ENDBRANCH  40  43
ENDBRANCH   4  40
TORSDOF 8
ENDMDL
MODEL 7
REMARK VINA RESULT:      -6.0      5.475      7.287
REMARK  8 active torsions:
REMARK  status: ('A' for Active; 'I' for Inactive)
REMARK    1  A    between atoms: C_4  and  C_7 
REMARK    2  A    between atoms: C_7  and  C_9 
REMARK    3  A    between atoms: C_7  and  N_16 
REMARK    4  A    between atoms: N_19  and  C_22 
REMARK    5  A    between atoms: C_22  and  C_23 
REMARK    6  A    between atoms: C_23  and  O_24 
REMARK    7  A    between atoms: O_24  and  C_25 
REMARK    8  A    between atoms: C_25  and  C_26 
ROOT
ATOM      1  N   LIG d   1       6.142  -0.412  -6.311  0.00  0.00     0.246 N 
ATOM      2  C   LIG d   1       6.612   0.384  -7.453  0.00  0.00    -0.018 C 
ATOM      3  C   LIG d   1       8.105   0.131  -7.671  0.00  0.00     0.039 C 
ATOM      4  N   LIG d   1       8.845   0.500  -6.457  0.00  0.00    -0.290 N 
ATOM      5  C   LIG d   1       8.369  -0.272  -5.300  0.00  0.00     0.039 C 
ATOM      6  C   LIG d   1       6.873  -0.014  -5.101  0.00  0.00    -0.018 C 
ATOM      7  H   LIG d   1       6.059   0.097  -8.347  0.00  0.00     0.083 H 
ATOM      8  H   LIG d   1       6.450   1.443  -7.249  0.00  0.00     0.083 H 
ATOM      9  H   LIG d   1       8.267  -0.925  -7.889  0.00  0.00     0.048 H 
ATOM     10  H   LIG d   1       8.458   0.733  -8.509  0.00  0.00     0.048 H 
ATOM     11  H   LIG d   1       8.534  -1.334  -5.478  0.00  0.00     0.048 H 
ATOM     12  H   LIG d   1       8.913   0.037  -4.408  0.00  0.00     0.048 H 
ATOM     13  H   LIG d   1       6.709   1.046  -4.909  0.00  0.00     0.083 H 
ATOM     14  H   LIG d   1       6.515  -0.597  -4.252  0.00  0.00     0.083 H 
ATOM     15  H   LIG d   1       6.304  -1.390  -6.495  0.00  0.00     0.204 HD
ENDROOT
BRANCH   1  16
ATOM     16  C   LIG d   1       4.705  -0.182  -6.113  0.00  0.00     0.031 C 
ATOM     17  H   LIG d   1       4.508   0.890  -6.090  0.00  0.00     0.096 H 
BRANCH  16  18
ATOM     18  C   LIG d   1       4.273  -0.799  -4.807  0.00  0.00     0.005 A 
ATOM     19  C   LIG d   1       3.405  -0.119  -3.974  0.00  0.00    -0.053 A 
ATOM     20  C   LIG d   1       3.007  -0.686  -2.778  0.00  0.00    -0.061 A 
ATOM     21  H   LIG d   1       3.036   0.856  -4.259  0.00  0.00     0.062 H 
ATOM     22  C   LIG d   1       3.479  -1.934  -2.415  0.00  0.00    -0.062 A 
ATOM     23  H   LIG d   1       2.329  -0.155  -2.128  0.00  0.00     0.062 H 
ATOM     24  C   LIG d   1       4.347  -2.614  -3.248  0.00  0.00    -0.061 A 
ATOM     25  H   LIG d   1       3.172  -2.374  -1.478  0.00  0.00     0.062 H 
ATOM     26  C   LIG d   1       4.745  -2.047  -4.443  0.00  0.00    -0.053 A 
ATOM     27  H   LIG d   1       4.716  -3.589  -2.963  0.00  0.00     0.062 H 
ATOM     28  H   LIG d   1       5.423  -2.579  -5.095  0.00  0.00     0.062 H 
ENDBRANCH  16  18
BRANCH  16  29
ATOM     29  C   LIG d   1       3.935  -0.810  -7.245  0.00  0.00     0.005 A 
ATOM     30  C   LIG d   1       4.250  -2.089  -7.669  0.00  0.00    -0.051 A 
ATOM     31  C   LIG d   1       3.539  -2.668  -8.703  0.00  0.00    -0.043 A 
ATOM     32  H   LIG d   1       5.047  -2.635  -7.189  0.00  0.00     0.062 H 
ATOM     33  C   LIG d   1       2.521  -1.965  -9.321  0.00  0.00     0.041 A 
ATOM     34  H   LIG d   1       3.781  -3.668  -9.031  0.00  0.00     0.063 H 
ATOM     35  C   LIG d   1       2.210  -0.684  -8.901  0.00  0.00    -0.043 A 
ATOM     36 CL   LIG d   1       1.632  -2.690 -10.625  0.00  0.00    -0.084 Cl
ATOM     37  C   LIG d   1       2.918  -0.107  -7.863  0.00  0.00    -0.051 A 
ATOM     38  H   LIG d   1       1.416  -0.134  -9.383  0.00  0.00     0.063 H 
ATOM     39  H   LIG d   1       2.676   0.892  -7.534  0.00  0.00     0.062 H 
ENDBRANCH  16  29
ENDBRANCH   1  16
BRANCH   4  40
ATOM     40  C   LIG d   1      10.292   0.325  -6.647  0.00  0.00     0.023 C 
ATOM     41  H   LIG d   1      10.490  -0.679  -7.025  0.00  0.00     0.045 H 
ATOM     42  H   LIG d   1      10.655   1.061  -7.365  0.00  0.00     0.045 H 
BRANCH  40  43
ATOM     43  C   LIG d   1      11.009   0.519  -5.310  0.00  0.00     0.061 C 
ATOM     44  H   LIG d   1      10.486  -0.039  -4.534  0.00  0.00     0.057 H 
ATOM     45  H   LIG d   1      12.033   0.155  -5.391  0.00  0.00     0.057 H 
BRANCH  43  46
ATOM     46  O   LIG d   1      11.021   1.908  -4.974  0.00  0.00    -0.373 OA
BRANCH  46  47
ATOM     47  C   LIG d   1      11.065   2.165  -3.568  0.00  0.00     0.087 C 
ATOM     48  H   LIG d   1      11.057   1.220  -3.026  0.00  0.00     0.062 H 
ATOM     49  H   LIG d   1      11.975   2.714  -3.328  0.00  0.00     0.062 H 
BRANCH  47  50
ATOM     50  C   LIG d   1       9.865   2.984  -3.170  0.00  0.00     0.067 C 
ATOM     51  O   LIG d   1       8.741   2.546  -3.352  0.00  0.00    -0.547 OA
ATOM     52  O   LIG d   1      10.017   4.083  -2.665  0.00  0.00    -0.547 OA
ENDBRANCH  47  50
ENDBRANCH  46  47
ENDBRANCH  43  46
ENDBRANCH  40  43
ENDBRANCH   4  40
TORSDOF 8
ENDMDL
MODEL 8
REMARK VINA RESULT:      -5.9      2.231      2.977
REMARK  8 active torsions:
REMARK  status: ('A' for Active; 'I' for Inactive)
REMARK    1  A    between atoms: C_4  and  C_7 
REMARK    2  A    between atoms: C_7  and  C_9 
REMARK    3  A    between atoms: C_7  and  N_16 
REMARK    4  A    between atoms: N_19  and  C_22 
REMARK    5  A    between atoms: C_22  and  C_23 
REMARK    6  A    between atoms: C_23  and  O_24 
REMARK    7  A    between atoms: O_24  and  C_25 
REMARK    8  A    between atoms: C_25  and  C_26 
ROOT
ATOM      1  N   LIG d   1       6.518  -1.817  -5.085  0.00  0.00     0.246 N 
ATOM      2  C   LIG d   1       7.769  -2.529  -5.375  0.00  0.00    -0.018 C 
ATOM      3  C   LIG d   1       7.458  -3.813  -6.149  0.00  0.00     0.039 C 
ATOM      4  N   LIG d   1       6.565  -4.661  -5.347  0.00  0.00    -0.290 N 
ATOM      5  C   LIG d   1       5.318  -3.952  -5.029  0.00  0.00     0.039 C 
ATOM      6  C   LIG d   1       5.647  -2.667  -4.263  0.00  0.00    -0.018 C 
ATOM      7  H   LIG d   1       8.419  -1.892  -5.974  0.00  0.00     0.083 H 
ATOM      8  H   LIG d   1       8.268  -2.782  -4.439  0.00  0.00     0.083 H 
ATOM      9  H   LIG d   1       6.971  -3.560  -7.091  0.00  0.00     0.048 H 
ATOM     10  H   LIG d   1       8.385  -4.349  -6.351  0.00  0.00     0.048 H 
ATOM     11  H   LIG d   1       4.796  -3.701  -5.952  0.00  0.00     0.048 H 
ATOM     12  H   LIG d   1       4.684  -4.589  -4.413  0.00  0.00     0.048 H 
ATOM     13  H   LIG d   1       6.157  -2.919  -3.334  0.00  0.00     0.083 H 
ATOM     14  H   LIG d   1       4.723  -2.133  -4.038  0.00  0.00     0.083 H 
ATOM     15  H   LIG d   1       6.050  -1.595  -5.951  0.00  0.00     0.204 HD
ENDROOT
BRANCH   1  16
ATOM     16  C   LIG d   1       6.818  -0.577  -4.358  0.00  0.00     0.031 C 
ATOM     17  H   LIG d   1       7.539  -0.785  -3.567  0.00  0.00     0.096 H 
BRANCH  16  18
ATOM     18  C   LIG d   1       5.551  -0.030  -3.751  0.00  0.00     0.005 A 
ATOM     19  C   LIG d   1       5.564   0.486  -2.469  0.00  0.00    -0.053 A 
ATOM     20  C   LIG d   1       4.403   0.988  -1.914  0.00  0.00    -0.061 A 
ATOM     21  H   LIG d   1       6.484   0.497  -1.902  0.00  0.00     0.062 H 
ATOM     22  C   LIG d   1       3.227   0.974  -2.641  0.00  0.00    -0.062 A 
ATOM     23  H   LIG d   1       4.414   1.391  -0.913  0.00  0.00     0.062 H 
ATOM     24  C   LIG d   1       3.213   0.457  -3.923  0.00  0.00    -0.061 A 
ATOM     25  H   LIG d   1       2.318   1.361  -2.204  0.00  0.00     0.062 H 
ATOM     26  C   LIG d   1       4.374  -0.045  -4.478  0.00  0.00    -0.053 A 
ATOM     27  H   LIG d   1       2.294   0.446  -4.490  0.00  0.00     0.062 H 
ATOM     28  H   LIG d   1       4.364  -0.448  -5.480  0.00  0.00     0.062 H 
ENDBRANCH  16  18
BRANCH  16  29
ATOM     29  C   LIG d   1       7.396   0.437  -5.311  0.00  0.00     0.005 A 
ATOM     30  C   LIG d   1       7.130   0.343  -6.665  0.00  0.00    -0.051 A 
ATOM     31  C   LIG d   1       7.654   1.276  -7.540  0.00  0.00    -0.043 A 
ATOM     32  H   LIG d   1       6.509  -0.458  -7.038  0.00  0.00     0.062 H 
ATOM     33  C   LIG d   1       8.455   2.298  -7.061  0.00  0.00     0.041 A 
ATOM     34  H   LIG d   1       7.442   1.205  -8.596  0.00  0.00     0.063 H 
ATOM     35  C   LIG d   1       8.725   2.389  -5.708  0.00  0.00    -0.043 A 
ATOM     36 CL   LIG d   1       9.120   3.467  -8.159  0.00  0.00    -0.084 Cl
ATOM     37  C   LIG d   1       8.196   1.458  -4.833  0.00  0.00    -0.051 A 
ATOM     38  H   LIG d   1       9.350   3.185  -5.333  0.00  0.00     0.063 H 
ATOM     39  H   LIG d   1       8.407   1.528  -3.777  0.00  0.00     0.062 H 
ENDBRANCH  16  29
ENDBRANCH   1  16
BRANCH   4  40
ATOM     40  C   LIG d   1       6.288  -5.931  -6.033  0.00  0.00     0.023 C 
ATOM     41  H   LIG d   1       6.689  -5.891  -7.047  0.00  0.00     0.045 H 
ATOM     42  H   LIG d   1       6.761  -6.748  -5.488  0.00  0.00     0.045 H 
BRANCH  40  43
ATOM     43  C   LIG d   1       4.777  -6.161  -6.089  0.00  0.00     0.061 C 
ATOM     44  H   LIG d   1       4.260  -5.243  -5.812  0.00  0.00     0.057 H 
ATOM     45  H   LIG d   1       4.490  -6.449  -7.100  0.00  0.00     0.057 H 
BRANCH  43  46
ATOM     46  O   LIG d   1       4.421  -7.202  -5.176  0.00  0.00    -0.373 OA
BRANCH  46  47
ATOM     47  C   LIG d   1       4.829  -8.506  -5.595  0.00  0.00     0.087 C 
ATOM     48  H   LIG d   1       4.214  -8.827  -6.435  0.00  0.00     0.062 H 
ATOM     49  H   LIG d   1       5.875  -8.479  -5.899  0.00  0.00     0.062 H 
BRANCH  47  50
ATOM     50  C   LIG d   1       4.663  -9.475  -4.452  0.00  0.00     0.067 C 
ATOM     51  O   LIG d   1       3.553  -9.704  -4.003  0.00  0.00    -0.547 OA
ATOM     52  O   LIG d   1       5.640 -10.029  -3.977  0.00  0.00    -0.547 OA
ENDBRANCH  47  50
ENDBRANCH  46  47
ENDBRANCH  43  46
ENDBRANCH  40  43
ENDBRANCH   4  40
TORSDOF 8
ENDMDL
MODEL 9
REMARK VINA RESULT:      -5.7      7.882     11.087
REMARK  8 active torsions:
REMARK  status: ('A' for Active; 'I' for Inactive)
REMARK    1  A    between atoms: C_4  and  C_7 
REMARK    2  A    between atoms: C_7  and  C_9 
REMARK    3  A    between atoms: C_7  and  N_16 
REMARK    4  A    between atoms: N_19  and  C_22 
REMARK    5  A    between atoms: C_22  and  C_23 
REMARK    6  A    between atoms: C_23  and  O_24 
REMARK    7  A    between atoms: O_24  and  C_25 
REMARK    8  A    between atoms: C_25  and  C_26 
ROOT
ATOM      1  N   LIG d   1       9.142   2.503  -3.881  0.00  0.00     0.246 N 
ATOM      2  C   LIG d   1      10.367   2.539  -3.071  0.00  0.00    -0.018 C 
ATOM      3  C   LIG d   1      10.525   3.928  -2.447  0.00  0.00     0.039 C 
ATOM      4  N   LIG d   1      10.591   4.937  -3.513  0.00  0.00    -0.290 N 
ATOM      5  C   LIG d   1       9.381   4.895  -4.347  0.00  0.00     0.039 C 
ATOM      6  C   LIG d   1       9.234   3.499  -4.956  0.00  0.00    -0.018 C 
ATOM      7  H   LIG d   1      10.303   1.790  -2.282  0.00  0.00     0.083 H 
ATOM      8  H   LIG d   1      11.228   2.327  -3.705  0.00  0.00     0.083 H 
ATOM      9  H   LIG d   1       9.671   4.135  -1.802  0.00  0.00     0.048 H 
ATOM     10  H   LIG d   1      11.442   3.960  -1.859  0.00  0.00     0.048 H 
ATOM     11  H   LIG d   1       8.509   5.119  -3.734  0.00  0.00     0.048 H 
ATOM     12  H   LIG d   1       9.465   5.633  -5.145  0.00  0.00     0.048 H 
ATOM     13  H   LIG d   1      10.100   3.281  -5.581  0.00  0.00     0.083 H 
ATOM     14  H   LIG d   1       8.329   3.463  -5.564  0.00  0.00     0.083 H 
ATOM     15  H   LIG d   1       8.347   2.712  -3.296  0.00  0.00     0.204 HD
ENDROOT
BRANCH   1  16
ATOM     16  C   LIG d   1       8.982   1.165  -4.465  0.00  0.00     0.031 C 
ATOM     17  H   LIG d   1       9.843   0.550  -4.207  0.00  0.00     0.096 H 
BRANCH  16  18
ATOM     18  C   LIG d   1       8.880   1.281  -5.965  0.00  0.00     0.005 A 
ATOM     19  C   LIG d   1      10.013   1.159  -6.747  0.00  0.00    -0.053 A 
ATOM     20  C   LIG d   1       9.919   1.263  -8.122  0.00  0.00    -0.061 A 
ATOM     21  H   LIG d   1      10.972   0.980  -6.283  0.00  0.00     0.062 H 
ATOM     22  C   LIG d   1       8.691   1.491  -8.715  0.00  0.00    -0.062 A 
ATOM     23  H   LIG d   1      10.804   1.167  -8.733  0.00  0.00     0.062 H 
ATOM     24  C   LIG d   1       7.558   1.613  -7.933  0.00  0.00    -0.061 A 
ATOM     25  H   LIG d   1       8.619   1.578  -9.789  0.00  0.00     0.062 H 
ATOM     26  C   LIG d   1       7.652   1.509  -6.559  0.00  0.00    -0.053 A 
ATOM     27  H   LIG d   1       6.599   1.792  -8.397  0.00  0.00     0.062 H 
ATOM     28  H   LIG d   1       6.766   1.604  -5.947  0.00  0.00     0.062 H 
ENDBRANCH  16  18
BRANCH  16  29
ATOM     29  C   LIG d   1       7.728   0.528  -3.925  0.00  0.00     0.005 A 
ATOM     30  C   LIG d   1       7.567  -0.845  -3.991  0.00  0.00    -0.051 A 
ATOM     31  C   LIG d   1       6.420  -1.431  -3.490  0.00  0.00    -0.043 A 
ATOM     32  H   LIG d   1       8.340  -1.458  -4.430  0.00  0.00     0.062 H 
ATOM     33  C   LIG d   1       5.428  -0.643  -2.933  0.00  0.00     0.041 A 
ATOM     34  H   LIG d   1       6.297  -2.502  -3.536  0.00  0.00     0.063 H 
ATOM     35  C   LIG d   1       5.587   0.729  -2.873  0.00  0.00    -0.043 A 
ATOM     36 CL   LIG d   1       3.984  -1.378  -2.310  0.00  0.00    -0.084 Cl
ATOM     37  C   LIG d   1       6.737   1.314  -3.369  0.00  0.00    -0.051 A 
ATOM     38  H   LIG d   1       4.813   1.345  -2.439  0.00  0.00     0.063 H 
ATOM     39  H   LIG d   1       6.861   2.386  -3.322  0.00  0.00     0.062 H 
ENDBRANCH  16  29
ENDBRANCH   1  16
BRANCH   4  40
ATOM     40  C   LIG d   1      10.800   6.280  -2.955  0.00  0.00     0.023 C 
ATOM     41  H   LIG d   1      11.569   6.237  -2.183  0.00  0.00     0.045 H 
ATOM     42  H   LIG d   1      11.120   6.956  -3.748  0.00  0.00     0.045 H 
BRANCH  40  43
ATOM     43  C   LIG d   1       9.492   6.788  -2.347  0.00  0.00     0.061 C 
ATOM     44  H   LIG d   1       9.264   7.775  -2.749  0.00  0.00     0.057 H 
ATOM     45  H   LIG d   1       8.685   6.100  -2.594  0.00  0.00     0.057 H 
BRANCH  43  46
ATOM     46  O   LIG d   1       9.629   6.873  -0.926  0.00  0.00    -0.373 OA
BRANCH  46  47
ATOM     47  C   LIG d   1      10.964   7.131  -0.486  0.00  0.00     0.087 C 
ATOM     48  H   LIG d   1      11.659   6.513  -1.053  0.00  0.00     0.062 H 
ATOM     49  H   LIG d   1      11.201   8.183  -0.642  0.00  0.00     0.062 H 
BRANCH  47  50
ATOM     50  C   LIG d   1      11.081   6.802   0.981  0.00  0.00     0.067 C 
ATOM     51  O   LIG d   1      10.724   5.711   1.391  0.00  0.00    -0.547 OA
ATOM     52  O   LIG d   1      11.532   7.629   1.756  0.00  0.00    -0.547 OA
ENDBRANCH  47  50
ENDBRANCH  46  47
ENDBRANCH  43  46
ENDBRANCH  40  43
ENDBRANCH   4  40
TORSDOF 8
ENDMDL
MODEL 10
REMARK VINA RESULT:      -5.7      5.746      7.786
REMARK  8 active torsions:
REMARK  status: ('A' for Active; 'I' for Inactive)
REMARK    1  A    between atoms: C_4  and  C_7 
REMARK    2  A    between atoms: C_7  and  C_9 
REMARK    3  A    between atoms: C_7  and  N_16 
REMARK    4  A    between atoms: N_19  and  C_22 
REMARK    5  A    between atoms: C_22  and  C_23 
REMARK    6  A    between atoms: C_23  and  O_24 
REMARK    7  A    between atoms: O_24  and  C_25 
REMARK    8  A    between atoms: C_25  and  C_26 
ROOT
ATOM      1  N   LIG d   1       6.069  -0.489  -6.543  0.00  0.00     0.246 N 
ATOM      2  C   LIG d   1       6.467   0.096  -7.830  0.00  0.00    -0.018 C 
ATOM      3  C   LIG d   1       7.948  -0.191  -8.085  0.00  0.00     0.039 C 
ATOM      4  N   LIG d   1       8.751   0.384  -6.997  0.00  0.00    -0.290 N 
ATOM      5  C   LIG d   1       8.347  -0.175  -5.699  0.00  0.00     0.039 C 
ATOM      6  C   LIG d   1       6.862   0.113  -5.463  0.00  0.00    -0.018 C 
ATOM      7  H   LIG d   1       5.868  -0.342  -8.628  0.00  0.00     0.083 H 
ATOM      8  H   LIG d   1       6.305   1.174  -7.804  0.00  0.00     0.083 H 
ATOM      9  H   LIG d   1       8.107  -1.269  -8.124  0.00  0.00     0.048 H 
ATOM     10  H   LIG d   1       8.247   0.257  -9.033  0.00  0.00     0.048 H 
ATOM     11  H   LIG d   1       8.513  -1.251  -5.699  0.00  0.00     0.048 H 
ATOM     12  H   LIG d   1       8.937   0.285  -4.906  0.00  0.00     0.048 H 
ATOM     13  H   LIG d   1       6.699   1.191  -5.449  0.00  0.00     0.083 H 
ATOM     14  H   LIG d   1       6.558  -0.313  -4.506  0.00  0.00     0.083 H 
ATOM     15  H   LIG d   1       6.230  -1.485  -6.563  0.00  0.00     0.204 HD
ENDROOT
BRANCH   1  16
ATOM     16  C   LIG d   1       4.643  -0.228  -6.306  0.00  0.00     0.031 C 
ATOM     17  H   LIG d   1       4.469   0.848  -6.283  0.00  0.00     0.096 H 
BRANCH  16  18
ATOM     18  C   LIG d   1       4.234  -0.831  -4.986  0.00  0.00     0.005 A 
ATOM     19  C   LIG d   1       3.316  -0.180  -4.183  0.00  0.00    -0.053 A 
ATOM     20  C   LIG d   1       2.940  -0.734  -2.974  0.00  0.00    -0.061 A 
ATOM     21  H   LIG d   1       2.892   0.761  -4.502  0.00  0.00     0.062 H 
ATOM     22  C   LIG d   1       3.482  -1.939  -2.567  0.00  0.00    -0.062 A 
ATOM     23  H   LIG d   1       2.223  -0.225  -2.348  0.00  0.00     0.062 H 
ATOM     24  C   LIG d   1       4.400  -2.589  -3.370  0.00  0.00    -0.061 A 
ATOM     25  H   LIG d   1       3.192  -2.368  -1.620  0.00  0.00     0.062 H 
ATOM     26  C   LIG d   1       4.777  -2.035  -4.579  0.00  0.00    -0.053 A 
ATOM     27  H   LIG d   1       4.824  -3.531  -3.052  0.00  0.00     0.062 H 
ATOM     28  H   LIG d   1       5.494  -2.544  -5.207  0.00  0.00     0.062 H 
ENDBRANCH  16  18
BRANCH  16  29
ATOM     29  C   LIG d   1       3.829  -0.845  -7.414  0.00  0.00     0.005 A 
ATOM     30  C   LIG d   1       2.792  -0.132  -7.989  0.00  0.00    -0.051 A 
ATOM     31  C   LIG d   1       2.049  -0.696  -9.009  0.00  0.00    -0.043 A 
ATOM     32  H   LIG d   1       2.567   0.865  -7.643  0.00  0.00     0.062 H 
ATOM     33  C   LIG d   1       2.335  -1.976  -9.447  0.00  0.00     0.041 A 
ATOM     34  H   LIG d   1       1.243  -0.138  -9.461  0.00  0.00     0.063 H 
ATOM     35  C   LIG d   1       3.368  -2.691  -8.868  0.00  0.00    -0.043 A 
ATOM     36 CL   LIG d   1       1.398  -2.687 -10.724  0.00  0.00    -0.084 Cl
ATOM     37  C   LIG d   1       4.115  -2.125  -7.851  0.00  0.00    -0.051 A 
ATOM     38  H   LIG d   1       3.592  -3.690  -9.209  0.00  0.00     0.063 H 
ATOM     39  H   LIG d   1       4.921  -2.682  -7.399  0.00  0.00     0.062 H 
ENDBRANCH  16  29
ENDBRANCH   1  16
BRANCH   4  40
ATOM     40  C   LIG d   1      10.186   0.178  -7.235  0.00  0.00     0.023 C 
ATOM     41  H   LIG d   1      10.604  -0.430  -6.433  0.00  0.00     0.045 H 
ATOM     42  H   LIG d   1      10.325  -0.333  -8.189  0.00  0.00     0.045 H 
BRANCH  40  43
ATOM     43  C   LIG d   1      10.896   1.532  -7.274  0.00  0.00     0.061 C 
ATOM     44  H   LIG d   1      11.434   1.687  -6.339  0.00  0.00     0.057 H 
ATOM     45  H   LIG d   1      11.599   1.551  -8.106  0.00  0.00     0.057 H 
BRANCH  43  46
ATOM     46  O   LIG d   1       9.929   2.572  -7.443  0.00  0.00    -0.373 OA
BRANCH  46  47
ATOM     47  C   LIG d   1      10.101   3.336  -8.639  0.00  0.00     0.087 C 
ATOM     48  H   LIG d   1      10.779   4.166  -8.446  0.00  0.00     0.062 H 
ATOM     49  H   LIG d   1      10.518   2.699  -9.419  0.00  0.00     0.062 H 
BRANCH  47  50
ATOM     50  C   LIG d   1       8.766   3.871  -9.089  0.00  0.00     0.067 C 
ATOM     51  O   LIG d   1       8.628   5.063  -9.304  0.00  0.00    -0.547 OA
ATOM     52  O   LIG d   1       7.824   3.111  -9.238  0.00  0.00    -0.547 OA
ENDBRANCH  47  50
ENDBRANCH  46  47
ENDBRANCH  43  46
ENDBRANCH  40  43
ENDBRANCH   4  40
TORSDOF 8
ENDMDL
