MODEL 1
REMARK VINA RESULT:      -5.0      0.000      0.000
REMARK  10 active torsions:
REMARK  status: ('A' for Active; 'I' for Inactive)
REMARK    1  A    between atoms: C_1  and  C_2 
REMARK    2  A    between atoms: C_2  and  O_3 
REMARK    3  A    between atoms: O_3  and  C_4 
REMARK    4  A    between atoms: C_4  and  C_6 
REMARK    5  A    between atoms: C_8  and  C_21 
REMARK    6  A    between atoms: C_14  and  C_16 
REMARK    7  A    between atoms: C_14  and  C_17 
REMARK    8  A    between atoms: C_21  and  O_23 
REMARK    9  A    between atoms: O_23  and  C_24 
REMARK   10  A    between atoms: C_24  and  C_25 
ROOT
ATOM      1  C   LIG d   1       4.322  -0.999  -5.520  0.00  0.00     0.169 C 
ATOM      2  H   LIG d   1       3.817  -1.913  -5.208  0.00  0.00     0.054 H 
ATOM      3  C   LIG d   1       4.995  -1.193  -6.903  0.00  0.00     0.119 C 
ATOM      4  H   LIG d   1       5.107  -2.250  -7.142  0.00  0.00     0.047 H 
ATOM      5  C   LIG d   1       3.952  -0.520  -7.825  0.00  0.00     0.132 C 
ATOM      6  C   LIG d   1       2.851  -1.510  -8.184  0.00  0.00     0.012 C 
ATOM      7  C   LIG d   1       1.865  -0.841  -9.149  0.00  0.00     0.052 C 
ATOM      8  O   LIG d   1       2.574  -0.366 -10.295  0.00  0.00    -0.374 OA
ATOM      9  C   LIG d   1       3.566   0.622 -10.006  0.00  0.00     0.068 C 
ATOM     10  C   LIG d   1       4.627   0.018  -9.080  0.00  0.00     0.017 C 
ATOM     11  O   LIG d   1       3.434   0.552  -7.024  0.00  0.00    -0.456 OA
ATOM     12  C   LIG d   1       3.313   0.111  -5.751  0.00  0.00     0.323 C 
ATOM     13  O   LIG d   1       2.530   0.531  -4.931  0.00  0.00    -0.250 OA
ATOM     14  H   LIG d   1       3.290  -2.385  -8.663  0.00  0.00     0.033 H 
ATOM     15  H   LIG d   1       2.325  -1.814  -7.280  0.00  0.00     0.033 H 
ATOM     16  H   LIG d   1       1.113  -1.565  -9.460  0.00  0.00     0.056 H 
ATOM     17  H   LIG d   1       1.380  -0.003  -8.648  0.00  0.00     0.056 H 
ATOM     18  H   LIG d   1       5.349   0.787  -8.804  0.00  0.00     0.033 H 
ATOM     19  H   LIG d   1       5.139  -0.795  -9.595  0.00  0.00     0.033 H 
ENDROOT
BRANCH   3  20
ATOM     20  C   LIG d   1       6.321  -0.479  -6.968  0.00  0.00     0.315 C 
ATOM     21  O   LIG d   1       7.348  -1.115  -6.985  0.00  0.00    -0.250 OA
BRANCH  20  22
ATOM     22  O   LIG d   1       6.359   0.862  -7.007  0.00  0.00    -0.465 OA
BRANCH  22  23
ATOM     23  C   LIG d   1       7.615   1.465  -7.328  0.00  0.00     0.090 C 
ATOM     24  H   LIG d   1       7.881   2.185  -6.554  0.00  0.00     0.069 H 
ATOM     25  H   LIG d   1       8.383   0.694  -7.387  0.00  0.00     0.069 H 
BRANCH  23  26
ATOM     26  C   LIG d   1       7.507   2.182  -8.676  0.00  0.00    -0.031 C 
ATOM     27  H   LIG d   1       6.823   3.026  -8.585  0.00  0.00     0.026 H 
ATOM     28  H   LIG d   1       8.491   2.540  -8.976  0.00  0.00     0.026 H 
ATOM     29  H   LIG d   1       7.129   1.487  -9.426  0.00  0.00     0.026 H 
ENDBRANCH  23  26
ENDBRANCH  22  23
ENDBRANCH  20  22
ENDBRANCH   3  20
BRANCH   1  30
ATOM     30  C   LIG d   1       5.340  -0.580  -4.490  0.00  0.00     0.322 C 
ATOM     31  O   LIG d   1       6.082  -1.401  -4.007  0.00  0.00    -0.250 OA
BRANCH  30  32
ATOM     32  O   LIG d   1       5.419   0.704  -4.111  0.00  0.00    -0.464 OA
BRANCH  32  33
ATOM     33  C   LIG d   1       5.682   0.957  -2.728  0.00  0.00     0.090 C 
ATOM     34  H   LIG d   1       6.130   1.945  -2.619  0.00  0.00     0.069 H 
ATOM     35  H   LIG d   1       6.369   0.202  -2.346  0.00  0.00     0.069 H 
BRANCH  33  36
ATOM     36  C   LIG d   1       4.371   0.902  -1.941  0.00  0.00    -0.031 C 
ATOM     37  H   LIG d   1       4.148   1.891  -1.540  0.00  0.00     0.026 H 
ATOM     38  H   LIG d   1       3.565   0.585  -2.600  0.00  0.00     0.026 H 
ATOM     39  H   LIG d   1       4.470   0.191  -1.121  0.00  0.00     0.026 H 
ENDBRANCH  33  36
ENDBRANCH  32  33
ENDBRANCH  30  32
ENDBRANCH   1  30
BRANCH   9  40
ATOM     40  C   LIG d   1       4.225   1.081 -11.307  0.00  0.00    -0.036 C 
ATOM     41  H   LIG d   1       4.697   0.229 -11.796  0.00  0.00     0.026 H 
ATOM     42  H   LIG d   1       3.468   1.505 -11.967  0.00  0.00     0.026 H 
ATOM     43  H   LIG d   1       4.978   1.837 -11.086  0.00  0.00     0.026 H 
ENDBRANCH   9  40
BRANCH   9  44
ATOM     44  C   LIG d   1       2.907   1.818  -9.315  0.00  0.00    -0.036 C 
ATOM     45  H   LIG d   1       3.356   2.741  -9.681  0.00  0.00     0.026 H 
ATOM     46  H   LIG d   1       1.840   1.820  -9.534  0.00  0.00     0.026 H 
ATOM     47  H   LIG d   1       3.057   1.743  -8.238  0.00  0.00     0.026 H 
ENDBRANCH   9  44
TORSDOF 10
ENDMDL
MODEL 2
REMARK VINA RESULT:      -4.9      2.642      6.200
REMARK  10 active torsions:
REMARK  status: ('A' for Active; 'I' for Inactive)
REMARK    1  A    between atoms: C_1  and  C_2 
REMARK    2  A    between atoms: C_2  and  O_3 
REMARK    3  A    between atoms: O_3  and  C_4 
REMARK    4  A    between atoms: C_4  and  C_6 
REMARK    5  A    between atoms: C_8  and  C_21 
REMARK    6  A    between atoms: C_14  and  C_16 
REMARK    7  A    between atoms: C_14  and  C_17 
REMARK    8  A    between atoms: C_21  and  O_23 
REMARK    9  A    between atoms: O_23  and  C_24 
REMARK   10  A    between atoms: C_24  and  C_25 
ROOT
ATOM      1  C   LIG d   1       6.890  -0.449  -6.002  0.00  0.00     0.169 C 
ATOM      2  H   LIG d   1       7.375  -1.307  -6.466  0.00  0.00     0.054 H 
ATOM      3  C   LIG d   1       7.504  -0.166  -4.606  0.00  0.00     0.119 C 
ATOM      4  H   LIG d   1       8.052  -1.031  -4.234  0.00  0.00     0.047 H 
ATOM      5  C   LIG d   1       8.464   0.998  -4.946  0.00  0.00     0.132 C 
ATOM      6  C   LIG d   1       9.791   0.452  -5.457  0.00  0.00     0.012 C 
ATOM      7  C   LIG d   1      10.747   1.621  -5.727  0.00  0.00     0.052 C 
ATOM      8  O   LIG d   1      10.892   2.396  -4.535  0.00  0.00    -0.374 OA
ATOM      9  C   LIG d   1       9.678   2.988  -4.067  0.00  0.00     0.068 C 
ATOM     10  C   LIG d   1       8.675   1.880  -3.724  0.00  0.00     0.017 C 
ATOM     11  O   LIG d   1       7.773   1.714  -5.981  0.00  0.00    -0.456 OA
ATOM     12  C   LIG d   1       7.175   0.814  -6.794  0.00  0.00     0.323 C 
ATOM     13  O   LIG d   1       6.910   0.985  -7.961  0.00  0.00    -0.250 OA
ATOM     14  H   LIG d   1      10.227  -0.208  -4.707  0.00  0.00     0.033 H 
ATOM     15  H   LIG d   1       9.626  -0.103  -6.381  0.00  0.00     0.033 H 
ATOM     16  H   LIG d   1      11.719   1.233  -6.029  0.00  0.00     0.056 H 
ATOM     17  H   LIG d   1      10.340   2.246  -6.521  0.00  0.00     0.056 H 
ATOM     18  H   LIG d   1       7.725   2.329  -3.429  0.00  0.00     0.033 H 
ATOM     19  H   LIG d   1       9.065   1.278  -2.903  0.00  0.00     0.033 H 
ENDROOT
BRANCH   3  20
ATOM     20  C   LIG d   1       6.447   0.269  -3.624  0.00  0.00     0.315 C 
ATOM     21  O   LIG d   1       5.973   1.377  -3.698  0.00  0.00    -0.250 OA
BRANCH  20  22
ATOM     22  O   LIG d   1       6.032  -0.576  -2.667  0.00  0.00    -0.465 OA
BRANCH  22  23
ATOM     23  C   LIG d   1       4.685  -0.432  -2.214  0.00  0.00     0.090 C 
ATOM     24  H   LIG d   1       4.683  -0.043  -1.196  0.00  0.00     0.069 H 
ATOM     25  H   LIG d   1       4.154   0.258  -2.869  0.00  0.00     0.069 H 
BRANCH  23  26
ATOM     26  C   LIG d   1       3.990  -1.796  -2.240  0.00  0.00    -0.031 C 
ATOM     27  H   LIG d   1       4.228  -2.307  -3.173  0.00  0.00     0.026 H 
ATOM     28  H   LIG d   1       4.335  -2.395  -1.398  0.00  0.00     0.026 H 
ATOM     29  H   LIG d   1       2.912  -1.654  -2.168  0.00  0.00     0.026 H 
ENDBRANCH  23  26
ENDBRANCH  22  23
ENDBRANCH  20  22
ENDBRANCH   3  20
BRANCH   1  30
ATOM     30  C   LIG d   1       5.405  -0.677  -5.890  0.00  0.00     0.322 C 
ATOM     31  O   LIG d   1       4.982  -1.769  -5.591  0.00  0.00    -0.250 OA
BRANCH  30  32
ATOM     32  O   LIG d   1       4.552   0.333  -6.123  0.00  0.00    -0.464 OA
BRANCH  32  33
ATOM     33  C   LIG d   1       3.159   0.012  -6.154  0.00  0.00     0.090 C 
ATOM     34  H   LIG d   1       3.036  -1.071  -6.151  0.00  0.00     0.069 H 
ATOM     35  H   LIG d   1       2.712   0.426  -7.058  0.00  0.00     0.069 H 
BRANCH  33  36
ATOM     36  C   LIG d   1       2.471   0.607  -4.924  0.00  0.00    -0.031 C 
ATOM     37  H   LIG d   1       1.628  -0.024  -4.640  0.00  0.00     0.026 H 
ATOM     38  H   LIG d   1       3.181   0.659  -4.100  0.00  0.00     0.026 H 
ATOM     39  H   LIG d   1       2.112   1.609  -5.159  0.00  0.00     0.026 H 
ENDBRANCH  33  36
ENDBRANCH  32  33
ENDBRANCH  30  32
ENDBRANCH   1  30
BRANCH   9  40
ATOM     40  C   LIG d   1       9.964   3.822  -2.818  0.00  0.00    -0.036 C 
ATOM     41  H   LIG d   1      11.035   4.016  -2.748  0.00  0.00     0.026 H 
ATOM     42  H   LIG d   1       9.429   4.769  -2.883  0.00  0.00     0.026 H 
ATOM     43  H   LIG d   1       9.635   3.278  -1.933  0.00  0.00     0.026 H 
ENDBRANCH   9  40
BRANCH   9  44
ATOM     44  C   LIG d   1       9.093   3.885  -5.160  0.00  0.00    -0.036 C 
ATOM     45  H   LIG d   1       9.262   4.930  -4.901  0.00  0.00     0.026 H 
ATOM     46  H   LIG d   1       9.578   3.662  -6.110  0.00  0.00     0.026 H 
ATOM     47  H   LIG d   1       8.022   3.700  -5.247  0.00  0.00     0.026 H 
ENDBRANCH   9  44
TORSDOF 10
ENDMDL
MODEL 3
REMARK VINA RESULT:      -4.9      1.631      5.634
REMARK  10 active torsions:
REMARK  status: ('A' for Active; 'I' for Inactive)
REMARK    1  A    between atoms: C_1  and  C_2 
REMARK    2  A    between atoms: C_2  and  O_3 
REMARK    3  A    between atoms: O_3  and  C_4 
REMARK    4  A    between atoms: C_4  and  C_6 
REMARK    5  A    between atoms: C_8  and  C_21 
REMARK    6  A    between atoms: C_14  and  C_16 
REMARK    7  A    between atoms: C_14  and  C_17 
REMARK    8  A    between atoms: C_21  and  O_23 
REMARK    9  A    between atoms: O_23  and  C_24 
REMARK   10  A    between atoms: C_24  and  C_25 
ROOT
ATOM      1  C   LIG d   1       6.557  -0.253  -7.492  0.00  0.00     0.169 C 
ATOM      2  H   LIG d   1       7.459  -0.762  -7.830  0.00  0.00     0.054 H 
ATOM      3  C   LIG d   1       5.542  -1.271  -6.911  0.00  0.00     0.119 C 
ATOM      4  H   LIG d   1       5.775  -2.286  -7.231  0.00  0.00     0.047 H 
ATOM      5  C   LIG d   1       5.793  -1.092  -5.396  0.00  0.00     0.132 C 
ATOM      6  C   LIG d   1       6.966  -1.957  -4.951  0.00  0.00     0.012 C 
ATOM      7  C   LIG d   1       7.154  -1.811  -3.437  0.00  0.00     0.052 C 
ATOM      8  O   LIG d   1       5.936  -2.154  -2.774  0.00  0.00    -0.374 OA
ATOM      9  C   LIG d   1       4.828  -1.316  -3.110  0.00  0.00     0.068 C 
ATOM     10  C   LIG d   1       4.536  -1.439  -4.609  0.00  0.00     0.017 C 
ATOM     11  O   LIG d   1       6.107   0.302  -5.268  0.00  0.00    -0.456 OA
ATOM     12  C   LIG d   1       6.871   0.664  -6.324  0.00  0.00     0.323 C 
ATOM     13  O   LIG d   1       7.671   1.569  -6.338  0.00  0.00    -0.250 OA
ATOM     14  H   LIG d   1       6.763  -2.999  -5.194  0.00  0.00     0.033 H 
ATOM     15  H   LIG d   1       7.872  -1.633  -5.463  0.00  0.00     0.033 H 
ATOM     16  H   LIG d   1       7.950  -2.477  -3.104  0.00  0.00     0.056 H 
ATOM     17  H   LIG d   1       7.419  -0.781  -3.201  0.00  0.00     0.056 H 
ATOM     18  H   LIG d   1       3.734  -0.751  -4.881  0.00  0.00     0.033 H 
ATOM     19  H   LIG d   1       4.233  -2.461  -4.838  0.00  0.00     0.033 H 
ENDROOT
BRANCH   3  20
ATOM     20  C   LIG d   1       4.128  -0.900  -7.277  0.00  0.00     0.315 C 
ATOM     21  O   LIG d   1       3.566  -0.008  -6.687  0.00  0.00    -0.250 OA
BRANCH  20  22
ATOM     22  O   LIG d   1       3.493  -1.562  -8.258  0.00  0.00    -0.465 OA
BRANCH  22  23
ATOM     23  C   LIG d   1       2.384  -0.903  -8.871  0.00  0.00     0.090 C 
ATOM     24  H   LIG d   1       1.466  -1.443  -8.640  0.00  0.00     0.069 H 
ATOM     25  H   LIG d   1       2.311   0.116  -8.491  0.00  0.00     0.069 H 
BRANCH  23  26
ATOM     26  C   LIG d   1       2.587  -0.867 -10.388  0.00  0.00    -0.031 C 
ATOM     27  H   LIG d   1       3.379  -1.562 -10.665  0.00  0.00     0.026 H 
ATOM     28  H   LIG d   1       1.660  -1.154 -10.885  0.00  0.00     0.026 H 
ATOM     29  H   LIG d   1       2.866   0.142 -10.693  0.00  0.00     0.026 H 
ENDBRANCH  23  26
ENDBRANCH  22  23
ENDBRANCH  20  22
ENDBRANCH   3  20
BRANCH   1  30
ATOM     30  C   LIG d   1       5.936   0.526  -8.623  0.00  0.00     0.322 C 
ATOM     31  O   LIG d   1       5.933   0.070  -9.741  0.00  0.00    -0.250 OA
BRANCH  30  32
ATOM     32  O   LIG d   1       5.386   1.727  -8.386  0.00  0.00    -0.464 OA
BRANCH  32  33
ATOM     33  C   LIG d   1       4.606   2.303  -9.437  0.00  0.00     0.090 C 
ATOM     34  H   LIG d   1       4.587   1.622 -10.289  0.00  0.00     0.069 H 
ATOM     35  H   LIG d   1       5.050   3.251  -9.740  0.00  0.00     0.069 H 
BRANCH  33  36
ATOM     36  C   LIG d   1       3.178   2.540  -8.942  0.00  0.00    -0.031 C 
ATOM     37  H   LIG d   1       3.093   3.555  -8.553  0.00  0.00     0.026 H 
ATOM     38  H   LIG d   1       2.480   2.406  -9.767  0.00  0.00     0.026 H 
ATOM     39  H   LIG d   1       2.945   1.828  -8.150  0.00  0.00     0.026 H 
ENDBRANCH  33  36
ENDBRANCH  32  33
ENDBRANCH  30  32
ENDBRANCH   1  30
BRANCH   9  40
ATOM     40  C   LIG d   1       3.598  -1.751  -2.312  0.00  0.00    -0.036 C 
ATOM     41  H   LIG d   1       2.863  -0.945  -2.308  0.00  0.00     0.026 H 
ATOM     42  H   LIG d   1       3.161  -2.637  -2.773  0.00  0.00     0.026 H 
ATOM     43  H   LIG d   1       3.891  -1.981  -1.288  0.00  0.00     0.026 H 
ENDBRANCH   9  40
BRANCH   9  44
ATOM     44  C   LIG d   1       5.168   0.138  -2.774  0.00  0.00    -0.036 C 
ATOM     45  H   LIG d   1       4.966   0.768  -3.640  0.00  0.00     0.026 H 
ATOM     46  H   LIG d   1       4.558   0.468  -1.933  0.00  0.00     0.026 H 
ATOM     47  H   LIG d   1       6.223   0.212  -2.509  0.00  0.00     0.026 H 
ENDBRANCH   9  44
TORSDOF 10
ENDMDL
MODEL 4
REMARK VINA RESULT:      -4.7      1.876      2.693
REMARK  10 active torsions:
REMARK  status: ('A' for Active; 'I' for Inactive)
REMARK    1  A    between atoms: C_1  and  C_2 
REMARK    2  A    between atoms: C_2  and  O_3 
REMARK    3  A    between atoms: O_3  and  C_4 
REMARK    4  A    between atoms: C_4  and  C_6 
REMARK    5  A    between atoms: C_8  and  C_21 
REMARK    6  A    between atoms: C_14  and  C_16 
REMARK    7  A    between atoms: C_14  and  C_17 
REMARK    8  A    between atoms: C_21  and  O_23 
REMARK    9  A    between atoms: O_23  and  C_24 
REMARK   10  A    between atoms: C_24  and  C_25 
ROOT
ATOM      1  C   LIG d   1       4.364  -1.314  -5.880  0.00  0.00     0.169 C 
ATOM      2  H   LIG d   1       3.930  -2.262  -6.197  0.00  0.00     0.054 H 
ATOM      3  C   LIG d   1       5.878  -1.269  -6.212  0.00  0.00     0.119 C 
ATOM      4  H   LIG d   1       6.271  -2.270  -6.395  0.00  0.00     0.047 H 
ATOM      5  C   LIG d   1       5.862  -0.431  -7.510  0.00  0.00     0.132 C 
ATOM      6  C   LIG d   1       5.590  -1.327  -8.712  0.00  0.00     0.012 C 
ATOM      7  C   LIG d   1       5.642  -0.484  -9.991  0.00  0.00     0.052 C 
ATOM      8  O   LIG d   1       6.907   0.176 -10.072  0.00  0.00    -0.374 OA
ATOM      9  C   LIG d   1       7.165   1.084  -8.998  0.00  0.00     0.068 C 
ATOM     10  C   LIG d   1       7.181   0.311  -7.675  0.00  0.00     0.017 C 
ATOM     11  O   LIG d   1       4.780   0.490  -7.304  0.00  0.00    -0.456 OA
ATOM     12  C   LIG d   1       3.775  -0.167  -6.681  0.00  0.00     0.323 C 
ATOM     13  O   LIG d   1       2.602   0.112  -6.749  0.00  0.00    -0.250 OA
ATOM     14  H   LIG d   1       6.346  -2.109  -8.761  0.00  0.00     0.033 H 
ATOM     15  H   LIG d   1       4.603  -1.779  -8.614  0.00  0.00     0.033 H 
ATOM     16  H   LIG d   1       5.513  -1.132 -10.858  0.00  0.00     0.056 H 
ATOM     17  H   LIG d   1       4.845   0.258  -9.970  0.00  0.00     0.056 H 
ATOM     18  H   LIG d   1       7.312   1.010  -6.848  0.00  0.00     0.033 H 
ATOM     19  H   LIG d   1       8.003  -0.405  -7.681  0.00  0.00     0.033 H 
ENDROOT
BRANCH   3  20
ATOM     20  C   LIG d   1       6.654  -0.574  -5.123  0.00  0.00     0.315 C 
ATOM     21  O   LIG d   1       7.378  -1.211  -4.396  0.00  0.00    -0.250 OA
BRANCH  20  22
ATOM     22  O   LIG d   1       6.540   0.754  -4.961  0.00  0.00    -0.465 OA
BRANCH  22  23
ATOM     23  C   LIG d   1       7.392   1.364  -3.991  0.00  0.00     0.090 C 
ATOM     24  H   LIG d   1       6.786   1.833  -3.216  0.00  0.00     0.069 H 
ATOM     25  H   LIG d   1       8.033   0.605  -3.541  0.00  0.00     0.069 H 
BRANCH  23  26
ATOM     26  C   LIG d   1       8.261   2.426  -4.671  0.00  0.00    -0.031 C 
ATOM     27  H   LIG d   1       8.443   2.137  -5.706  0.00  0.00     0.026 H 
ATOM     28  H   LIG d   1       7.747   3.386  -4.645  0.00  0.00     0.026 H 
ATOM     29  H   LIG d   1       9.212   2.508  -4.144  0.00  0.00     0.026 H 
ENDBRANCH  23  26
ENDBRANCH  22  23
ENDBRANCH  20  22
ENDBRANCH   3  20
BRANCH   1  30
ATOM     30  C   LIG d   1       4.139  -1.098  -4.405  0.00  0.00     0.322 C 
ATOM     31  O   LIG d   1       4.216  -2.028  -3.639  0.00  0.00    -0.250 OA
BRANCH  30  32
ATOM     32  O   LIG d   1       3.853   0.130  -3.944  0.00  0.00    -0.464 OA
BRANCH  32  33
ATOM     33  C   LIG d   1       3.411   0.227  -2.588  0.00  0.00     0.090 C 
ATOM     34  H   LIG d   1       3.204  -0.771  -2.202  0.00  0.00     0.069 H 
ATOM     35  H   LIG d   1       2.503   0.829  -2.544  0.00  0.00     0.069 H 
BRANCH  33  36
ATOM     36  C   LIG d   1       4.503   0.884  -1.741  0.00  0.00    -0.031 C 
ATOM     37  H   LIG d   1       5.457   0.814  -2.263  0.00  0.00     0.026 H 
ATOM     38  H   LIG d   1       4.254   1.932  -1.577  0.00  0.00     0.026 H 
ATOM     39  H   LIG d   1       4.575   0.373  -0.781  0.00  0.00     0.026 H 
ENDBRANCH  33  36
ENDBRANCH  32  33
ENDBRANCH  30  32
ENDBRANCH   1  30
BRANCH   9  40
ATOM     40  C   LIG d   1       8.521   1.756  -9.214  0.00  0.00    -0.036 C 
ATOM     41  H   LIG d   1       9.241   1.363  -8.495  0.00  0.00     0.026 H 
ATOM     42  H   LIG d   1       8.872   1.553 -10.225  0.00  0.00     0.026 H 
ATOM     43  H   LIG d   1       8.420   2.832  -9.074  0.00  0.00     0.026 H 
ENDBRANCH   9  40
BRANCH   9  44
ATOM     44  C   LIG d   1       6.067   2.148  -8.955  0.00  0.00    -0.036 C 
ATOM     45  H   LIG d   1       5.234   1.786  -8.351  0.00  0.00     0.026 H 
ATOM     46  H   LIG d   1       6.465   3.062  -8.516  0.00  0.00     0.026 H 
ATOM     47  H   LIG d   1       5.719   2.352  -9.967  0.00  0.00     0.026 H 
ENDBRANCH   9  44
TORSDOF 10
ENDMDL
MODEL 5
REMARK VINA RESULT:      -4.7      1.715      5.599
REMARK  10 active torsions:
REMARK  status: ('A' for Active; 'I' for Inactive)
REMARK    1  A    between atoms: C_1  and  C_2 
REMARK    2  A    between atoms: C_2  and  O_3 
REMARK    3  A    between atoms: O_3  and  C_4 
REMARK    4  A    between atoms: C_4  and  C_6 
REMARK    5  A    between atoms: C_8  and  C_21 
REMARK    6  A    between atoms: C_14  and  C_16 
REMARK    7  A    between atoms: C_14  and  C_17 
REMARK    8  A    between atoms: C_21  and  O_23 
REMARK    9  A    between atoms: O_23  and  C_24 
REMARK   10  A    between atoms: C_24  and  C_25 
ROOT
ATOM      1  C   LIG d   1       5.598  -1.526  -7.767  0.00  0.00     0.169 C 
ATOM      2  H   LIG d   1       5.858  -2.578  -7.878  0.00  0.00     0.054 H 
ATOM      3  C   LIG d   1       4.299  -1.370  -6.936  0.00  0.00     0.119 C 
ATOM      4  H   LIG d   1       3.741  -2.305  -6.897  0.00  0.00     0.047 H 
ATOM      5  C   LIG d   1       4.886  -1.013  -5.551  0.00  0.00     0.132 C 
ATOM      6  C   LIG d   1       5.258  -2.282  -4.794  0.00  0.00     0.012 C 
ATOM      7  C   LIG d   1       5.778  -1.905  -3.402  0.00  0.00     0.052 C 
ATOM      8  O   LIG d   1       4.789  -1.129  -2.723  0.00  0.00    -0.374 OA
ATOM      9  C   LIG d   1       4.468   0.107  -3.365  0.00  0.00     0.068 C 
ATOM     10  C   LIG d   1       3.890  -0.180  -4.755  0.00  0.00     0.017 C 
ATOM     11  O   LIG d   1       6.056  -0.244  -5.868  0.00  0.00    -0.456 OA
ATOM     12  C   LIG d   1       6.651  -0.803  -6.947  0.00  0.00     0.323 C 
ATOM     13  O   LIG d   1       7.827  -0.737  -7.216  0.00  0.00    -0.250 OA
ATOM     14  H   LIG d   1       4.379  -2.917  -4.694  0.00  0.00     0.033 H 
ATOM     15  H   LIG d   1       6.035  -2.817  -5.340  0.00  0.00     0.033 H 
ATOM     16  H   LIG d   1       5.983  -2.811  -2.833  0.00  0.00     0.056 H 
ATOM     17  H   LIG d   1       6.693  -1.321  -3.502  0.00  0.00     0.056 H 
ATOM     18  H   LIG d   1       3.706   0.762  -5.274  0.00  0.00     0.033 H 
ATOM     19  H   LIG d   1       2.954  -0.730  -4.654  0.00  0.00     0.033 H 
ENDROOT
BRANCH   3  20
ATOM     20  C   LIG d   1       3.441  -0.251  -7.469  0.00  0.00     0.315 C 
ATOM     21  O   LIG d   1       2.316  -0.478  -7.843  0.00  0.00    -0.250 OA
BRANCH  20  22
ATOM     22  O   LIG d   1       3.930   0.998  -7.530  0.00  0.00    -0.465 OA
BRANCH  22  23
ATOM     23  C   LIG d   1       3.129   1.976  -8.196  0.00  0.00     0.090 C 
ATOM     24  H   LIG d   1       2.276   1.488  -8.667  0.00  0.00     0.069 H 
ATOM     25  H   LIG d   1       2.775   2.710  -7.473  0.00  0.00     0.069 H 
BRANCH  23  26
ATOM     26  C   LIG d   1       3.968   2.678  -9.267  0.00  0.00    -0.031 C 
ATOM     27  H   LIG d   1       5.026   2.578  -9.023  0.00  0.00     0.026 H 
ATOM     28  H   LIG d   1       3.773   2.223 -10.238  0.00  0.00     0.026 H 
ATOM     29  H   LIG d   1       3.701   3.734  -9.301  0.00  0.00     0.026 H 
ENDBRANCH  23  26
ENDBRANCH  22  23
ENDBRANCH  20  22
ENDBRANCH   3  20
BRANCH   1  30
ATOM     30  C   LIG d   1       5.443  -0.876  -9.118  0.00  0.00     0.322 C 
ATOM     31  O   LIG d   1       6.104   0.095  -9.400  0.00  0.00    -0.250 OA
BRANCH  30  32
ATOM     32  O   LIG d   1       4.570  -1.376 -10.006  0.00  0.00    -0.464 OA
BRANCH  32  33
ATOM     33  C   LIG d   1       4.292  -0.580 -11.161  0.00  0.00     0.090 C 
ATOM     34  H   LIG d   1       4.674  -1.084 -12.049  0.00  0.00     0.069 H 
ATOM     35  H   LIG d   1       4.776   0.391 -11.057  0.00  0.00     0.069 H 
BRANCH  33  36
ATOM     36  C   LIG d   1       2.780  -0.387 -11.295  0.00  0.00    -0.031 C 
ATOM     37  H   LIG d   1       2.417  -0.954 -12.153  0.00  0.00     0.026 H 
ATOM     38  H   LIG d   1       2.287  -0.740 -10.391  0.00  0.00     0.026 H 
ATOM     39  H   LIG d   1       2.561   0.671 -11.440  0.00  0.00     0.026 H 
ENDBRANCH  33  36
ENDBRANCH  32  33
ENDBRANCH  30  32
ENDBRANCH   1  30
BRANCH   9  40
ATOM     40  C   LIG d   1       3.435   0.865  -2.529  0.00  0.00    -0.036 C 
ATOM     41  H   LIG d   1       2.517   0.985  -3.106  0.00  0.00     0.026 H 
ATOM     42  H   LIG d   1       3.222   0.303  -1.620  0.00  0.00     0.026 H 
ATOM     43  H   LIG d   1       3.830   1.846  -2.266  0.00  0.00     0.026 H 
ENDBRANCH   9  40
BRANCH   9  44
ATOM     44  C   LIG d   1       5.735   0.954  -3.504  0.00  0.00    -0.036 C 
ATOM     45  H   LIG d   1       6.415   0.728  -2.683  0.00  0.00     0.026 H 
ATOM     46  H   LIG d   1       6.221   0.725  -4.452  0.00  0.00     0.026 H 
ATOM     47  H   LIG d   1       5.470   2.011  -3.477  0.00  0.00     0.026 H 
ENDBRANCH   9  44
TORSDOF 10
ENDMDL
MODEL 6
REMARK VINA RESULT:      -4.6      2.171      3.694
REMARK  10 active torsions:
REMARK  status: ('A' for Active; 'I' for Inactive)
REMARK    1  A    between atoms: C_1  and  C_2 
REMARK    2  A    between atoms: C_2  and  O_3 
REMARK    3  A    between atoms: O_3  and  C_4 
REMARK    4  A    between atoms: C_4  and  C_6 
REMARK    5  A    between atoms: C_8  and  C_21 
REMARK    6  A    between atoms: C_14  and  C_16 
REMARK    7  A    between atoms: C_14  and  C_17 
REMARK    8  A    between atoms: C_21  and  O_23 
REMARK    9  A    between atoms: O_23  and  C_24 
REMARK   10  A    between atoms: C_24  and  C_25 
ROOT
ATOM      1  C   LIG d   1       5.554  -2.745  -6.495  0.00  0.00     0.169 C 
ATOM      2  H   LIG d   1       6.446  -3.220  -6.903  0.00  0.00     0.054 H 
ATOM      3  C   LIG d   1       5.642  -1.204  -6.639  0.00  0.00     0.119 C 
ATOM      4  H   LIG d   1       6.669  -0.883  -6.816  0.00  0.00     0.047 H 
ATOM      5  C   LIG d   1       4.764  -0.983  -7.892  0.00  0.00     0.132 C 
ATOM      6  C   LIG d   1       5.591  -1.183  -9.156  0.00  0.00     0.012 C 
ATOM      7  C   LIG d   1       4.716  -0.896 -10.381  0.00  0.00     0.052 C 
ATOM      8  O   LIG d   1       4.177   0.424 -10.278  0.00  0.00    -0.374 OA
ATOM      9  C   LIG d   1       3.333   0.627  -9.143  0.00  0.00     0.068 C 
ATOM     10  C   LIG d   1       4.146   0.408  -7.863  0.00  0.00     0.017 C 
ATOM     11  O   LIG d   1       3.752  -1.994  -7.778  0.00  0.00    -0.456 OA
ATOM     12  C   LIG d   1       4.331  -3.124  -7.310  0.00  0.00     0.323 C 
ATOM     13  O   LIG d   1       3.940  -4.250  -7.508  0.00  0.00    -0.250 OA
ATOM     14  H   LIG d   1       6.440  -0.499  -9.147  0.00  0.00     0.033 H 
ATOM     15  H   LIG d   1       5.950  -2.211  -9.198  0.00  0.00     0.033 H 
ATOM     16  H   LIG d   1       5.320  -0.973 -11.285  0.00  0.00     0.056 H 
ATOM     17  H   LIG d   1       3.902  -1.619 -10.423  0.00  0.00     0.056 H 
ATOM     18  H   LIG d   1       3.490   0.498  -6.996  0.00  0.00     0.033 H 
ATOM     19  H   LIG d   1       4.936   1.157  -7.801  0.00  0.00     0.033 H 
ENDROOT
BRANCH   3  20
ATOM     20  C   LIG d   1       5.059  -0.510  -5.435  0.00  0.00     0.315 C 
ATOM     21  O   LIG d   1       5.772   0.142  -4.710  0.00  0.00    -0.250 OA
BRANCH  20  22
ATOM     22  O   LIG d   1       3.748  -0.619  -5.167  0.00  0.00    -0.465 OA
BRANCH  22  23
ATOM     23  C   LIG d   1       3.249   0.127  -4.055  0.00  0.00     0.090 C 
ATOM     24  H   LIG d   1       4.038   0.769  -3.664  0.00  0.00     0.069 H 
ATOM     25  H   LIG d   1       2.407   0.739  -4.376  0.00  0.00     0.069 H 
BRANCH  23  26
ATOM     26  C   LIG d   1       2.789  -0.839  -2.960  0.00  0.00    -0.031 C 
ATOM     27  H   LIG d   1       3.523  -1.636  -2.846  0.00  0.00     0.026 H 
ATOM     28  H   LIG d   1       2.688  -0.298  -2.019  0.00  0.00     0.026 H 
ATOM     29  H   LIG d   1       1.826  -1.268  -3.237  0.00  0.00     0.026 H 
ENDBRANCH  23  26
ENDBRANCH  22  23
ENDBRANCH  20  22
ENDBRANCH   3  20
BRANCH   1  30
ATOM     30  C   LIG d   1       5.365  -3.132  -5.050  0.00  0.00     0.322 C 
ATOM     31  O   LIG d   1       4.295  -3.545  -4.670  0.00  0.00    -0.250 OA
BRANCH  30  32
ATOM     32  O   LIG d   1       6.386  -3.016  -4.187  0.00  0.00    -0.464 OA
BRANCH  32  33
ATOM     33  C   LIG d   1       7.621  -3.635  -4.556  0.00  0.00     0.090 C 
ATOM     34  H   LIG d   1       7.520  -4.086  -5.543  0.00  0.00     0.069 H 
ATOM     35  H   LIG d   1       7.872  -4.406  -3.827  0.00  0.00     0.069 H 
BRANCH  33  36
ATOM     36  C   LIG d   1       8.730  -2.581  -4.588  0.00  0.00    -0.031 C 
ATOM     37  H   LIG d   1       9.063  -2.437  -5.616  0.00  0.00     0.026 H 
ATOM     38  H   LIG d   1       8.349  -1.640  -4.193  0.00  0.00     0.026 H 
ATOM     39  H   LIG d   1       9.568  -2.918  -3.979  0.00  0.00     0.026 H 
ENDBRANCH  33  36
ENDBRANCH  32  33
ENDBRANCH  30  32
ENDBRANCH   1  30
BRANCH   9  40
ATOM     40  C   LIG d   1       2.785   2.055  -9.163  0.00  0.00    -0.036 C 
ATOM     41  H   LIG d   1       2.492   2.346  -8.153  0.00  0.00     0.026 H 
ATOM     42  H   LIG d   1       3.555   2.734  -9.528  0.00  0.00     0.026 H 
ATOM     43  H   LIG d   1       1.917   2.102  -9.820  0.00  0.00     0.026 H 
ENDBRANCH   9  40
BRANCH   9  44
ATOM     44  C   LIG d   1       2.171  -0.368  -9.186  0.00  0.00    -0.036 C 
ATOM     45  H   LIG d   1       1.585  -0.283  -8.271  0.00  0.00     0.026 H 
ATOM     46  H   LIG d   1       1.538  -0.149 -10.045  0.00  0.00     0.026 H 
ATOM     47  H   LIG d   1       2.564  -1.381  -9.273  0.00  0.00     0.026 H 
ENDBRANCH   9  44
TORSDOF 10
ENDMDL
MODEL 7
REMARK VINA RESULT:      -4.6      2.912      4.985
REMARK  10 active torsions:
REMARK  status: ('A' for Active; 'I' for Inactive)
REMARK    1  A    between atoms: C_1  and  C_2 
REMARK    2  A    between atoms: C_2  and  O_3 
REMARK    3  A    between atoms: O_3  and  C_4 
REMARK    4  A    between atoms: C_4  and  C_6 
REMARK    5  A    between atoms: C_8  and  C_21 
REMARK    6  A    between atoms: C_14  and  C_16 
REMARK    7  A    between atoms: C_14  and  C_17 
REMARK    8  A    between atoms: C_21  and  O_23 
REMARK    9  A    between atoms: O_23  and  C_24 
REMARK   10  A    between atoms: C_24  and  C_25 
ROOT
ATOM      1  C   LIG d   1       6.049  -2.694  -6.237  0.00  0.00     0.169 C 
ATOM      2  H   LIG d   1       5.941  -2.612  -7.319  0.00  0.00     0.054 H 
ATOM      3  C   LIG d   1       6.325  -1.303  -5.610  0.00  0.00     0.119 C 
ATOM      4  H   LIG d   1       6.663  -0.591  -6.363  0.00  0.00     0.047 H 
ATOM      5  C   LIG d   1       4.914  -0.938  -5.092  0.00  0.00     0.132 C 
ATOM      6  C   LIG d   1       4.091  -0.309  -6.209  0.00  0.00     0.012 C 
ATOM      7  C   LIG d   1       2.721   0.101  -5.656  0.00  0.00     0.052 C 
ATOM      8  O   LIG d   1       2.905   0.981  -4.545  0.00  0.00    -0.374 OA
ATOM      9  C   LIG d   1       3.610   0.400  -3.445  0.00  0.00     0.068 C 
ATOM     10  C   LIG d   1       5.018   0.003  -3.900  0.00  0.00     0.017 C 
ATOM     11  O   LIG d   1       4.361  -2.203  -4.699  0.00  0.00    -0.456 OA
ATOM     12  C   LIG d   1       4.742  -3.133  -5.605  0.00  0.00     0.323 C 
ATOM     13  O   LIG d   1       4.140  -4.147  -5.867  0.00  0.00    -0.250 OA
ATOM     14  H   LIG d   1       4.607   0.571  -6.591  0.00  0.00     0.033 H 
ATOM     15  H   LIG d   1       3.956  -1.031  -7.014  0.00  0.00     0.033 H 
ATOM     16  H   LIG d   1       2.153   0.611  -6.433  0.00  0.00     0.056 H 
ATOM     17  H   LIG d   1       2.180  -0.787  -5.331  0.00  0.00     0.056 H 
ATOM     18  H   LIG d   1       5.535  -0.500  -3.082  0.00  0.00     0.033 H 
ATOM     19  H   LIG d   1       5.573   0.896  -4.188  0.00  0.00     0.033 H 
ENDROOT
BRANCH   3  20
ATOM     20  C   LIG d   1       7.313  -1.402  -4.476  0.00  0.00     0.315 C 
ATOM     21  O   LIG d   1       7.014  -1.991  -3.465  0.00  0.00    -0.250 OA
BRANCH  20  22
ATOM     22  O   LIG d   1       8.525  -0.836  -4.591  0.00  0.00    -0.465 OA
BRANCH  22  23
ATOM     23  C   LIG d   1       8.572   0.493  -5.114  0.00  0.00     0.090 C 
ATOM     24  H   LIG d   1       9.538   0.663  -5.588  0.00  0.00     0.069 H 
ATOM     25  H   LIG d   1       7.778   0.622  -5.849  0.00  0.00     0.069 H 
BRANCH  23  26
ATOM     26  C   LIG d   1       8.379   1.497  -3.974  0.00  0.00    -0.031 C 
ATOM     27  H   LIG d   1       7.442   2.034  -4.119  0.00  0.00     0.026 H 
ATOM     28  H   LIG d   1       8.351   0.965  -3.024  0.00  0.00     0.026 H 
ATOM     29  H   LIG d   1       9.207   2.205  -3.971  0.00  0.00     0.026 H 
ENDBRANCH  23  26
ENDBRANCH  22  23
ENDBRANCH  20  22
ENDBRANCH   3  20
BRANCH   1  30
ATOM     30  C   LIG d   1       7.154  -3.659  -5.890  0.00  0.00     0.322 C 
ATOM     31  O   LIG d   1       6.962  -4.527  -5.072  0.00  0.00    -0.250 OA
BRANCH  30  32
ATOM     32  O   LIG d   1       8.350  -3.552  -6.489  0.00  0.00    -0.464 OA
BRANCH  32  33
ATOM     33  C   LIG d   1       9.447  -4.232  -5.873  0.00  0.00     0.090 C 
ATOM     34  H   LIG d   1       9.697  -5.119  -6.455  0.00  0.00     0.069 H 
ATOM     35  H   LIG d   1       9.168  -4.527  -4.862  0.00  0.00     0.069 H 
BRANCH  33  36
ATOM     36  C   LIG d   1      10.658  -3.299  -5.819  0.00  0.00    -0.031 C 
ATOM     37  H   LIG d   1      11.404  -3.631  -6.542  0.00  0.00     0.026 H 
ATOM     38  H   LIG d   1      10.347  -2.283  -6.057  0.00  0.00     0.026 H 
ATOM     39  H   LIG d   1      11.089  -3.321  -4.817  0.00  0.00     0.026 H 
ENDBRANCH  33  36
ENDBRANCH  32  33
ENDBRANCH  30  32
ENDBRANCH   1  30
BRANCH   9  40
ATOM     40  C   LIG d   1       3.708   1.416  -2.307  0.00  0.00    -0.036 C 
ATOM     41  H   LIG d   1       3.243   1.005  -1.410  0.00  0.00     0.026 H 
ATOM     42  H   LIG d   1       4.756   1.636  -2.105  0.00  0.00     0.026 H 
ATOM     43  H   LIG d   1       3.193   2.334  -2.593  0.00  0.00     0.026 H 
ENDBRANCH   9  40
BRANCH   9  44
ATOM     44  C   LIG d   1       2.861  -0.843  -2.959  0.00  0.00    -0.036 C 
ATOM     45  H   LIG d   1       2.474  -0.665  -1.956  0.00  0.00     0.026 H 
ATOM     46  H   LIG d   1       2.034  -1.055  -3.636  0.00  0.00     0.026 H 
ATOM     47  H   LIG d   1       3.542  -1.693  -2.940  0.00  0.00     0.026 H 
ENDBRANCH   9  44
TORSDOF 10
ENDMDL
MODEL 8
REMARK VINA RESULT:      -4.6      2.450      4.184
REMARK  10 active torsions:
REMARK  status: ('A' for Active; 'I' for Inactive)
REMARK    1  A    between atoms: C_1  and  C_2 
REMARK    2  A    between atoms: C_2  and  O_3 
REMARK    3  A    between atoms: O_3  and  C_4 
REMARK    4  A    between atoms: C_4  and  C_6 
REMARK    5  A    between atoms: C_8  and  C_21 
REMARK    6  A    between atoms: C_14  and  C_16 
REMARK    7  A    between atoms: C_14  and  C_17 
REMARK    8  A    between atoms: C_21  and  O_23 
REMARK    9  A    between atoms: O_23  and  C_24 
REMARK   10  A    between atoms: C_24  and  C_25 
ROOT
ATOM      1  C   LIG d   1       5.049  -1.261  -4.410  0.00  0.00     0.169 C 
ATOM      2  H   LIG d   1       5.919  -1.124  -3.768  0.00  0.00     0.054 H 
ATOM      3  C   LIG d   1       5.477  -1.350  -5.898  0.00  0.00     0.119 C 
ATOM      4  H   LIG d   1       6.482  -0.954  -6.043  0.00  0.00     0.047 H 
ATOM      5  C   LIG d   1       5.444  -2.880  -6.114  0.00  0.00     0.132 C 
ATOM      6  C   LIG d   1       6.758  -3.504  -5.662  0.00  0.00     0.012 C 
ATOM      7  C   LIG d   1       6.725  -5.010  -5.946  0.00  0.00     0.052 C 
ATOM      8  O   LIG d   1       6.462  -5.225  -7.334  0.00  0.00    -0.374 OA
ATOM      9  C   LIG d   1       5.201  -4.719  -7.778  0.00  0.00     0.068 C 
ATOM     10  C   LIG d   1       5.166  -3.200  -7.576  0.00  0.00     0.017 C 
ATOM     11  O   LIG d   1       4.359  -3.316  -5.281  0.00  0.00    -0.456 OA
ATOM     12  C   LIG d   1       4.390  -2.600  -4.133  0.00  0.00     0.323 C 
ATOM     13  O   LIG d   1       3.965  -2.966  -3.063  0.00  0.00    -0.250 OA
ATOM     14  H   LIG d   1       7.584  -3.050  -6.210  0.00  0.00     0.033 H 
ATOM     15  H   LIG d   1       6.893  -3.338  -4.594  0.00  0.00     0.033 H 
ATOM     16  H   LIG d   1       7.688  -5.450  -5.685  0.00  0.00     0.056 H 
ATOM     17  H   LIG d   1       5.939  -5.475  -5.350  0.00  0.00     0.056 H 
ATOM     18  H   LIG d   1       4.182  -2.819  -7.853  0.00  0.00     0.033 H 
ATOM     19  H   LIG d   1       5.927  -2.732  -8.202  0.00  0.00     0.033 H 
ENDROOT
BRANCH   3  20
ATOM     20  C   LIG d   1       4.486  -0.651  -6.793  0.00  0.00     0.315 C 
ATOM     21  O   LIG d   1       3.459  -1.205  -7.104  0.00  0.00    -0.250 OA
BRANCH  20  22
ATOM     22  O   LIG d   1       4.746   0.587  -7.244  0.00  0.00    -0.465 OA
BRANCH  22  23
ATOM     23  C   LIG d   1       4.359   0.881  -8.587  0.00  0.00     0.090 C 
ATOM     24  H   LIG d   1       5.219   1.258  -9.140  0.00  0.00     0.069 H 
ATOM     25  H   LIG d   1       3.988  -0.026  -9.065  0.00  0.00     0.069 H 
BRANCH  23  26
ATOM     26  C   LIG d   1       3.254   1.941  -8.579  0.00  0.00    -0.031 C 
ATOM     27  H   LIG d   1       2.778   1.977  -9.559  0.00  0.00     0.026 H 
ATOM     28  H   LIG d   1       2.512   1.685  -7.823  0.00  0.00     0.026 H 
ATOM     29  H   LIG d   1       3.687   2.914  -8.349  0.00  0.00     0.026 H 
ENDBRANCH  23  26
ENDBRANCH  22  23
ENDBRANCH  20  22
ENDBRANCH   3  20
BRANCH   1  30
ATOM     30  C   LIG d   1       4.064  -0.138  -4.210  0.00  0.00     0.322 C 
ATOM     31  O   LIG d   1       2.879  -0.350  -4.304  0.00  0.00    -0.250 OA
BRANCH  30  32
ATOM     32  O   LIG d   1       4.505   1.098  -3.927  0.00  0.00    -0.464 OA
BRANCH  32  33
ATOM     33  C   LIG d   1       5.366   1.235  -2.793  0.00  0.00     0.090 C 
ATOM     34  H   LIG d   1       5.723   2.263  -2.731  0.00  0.00     0.069 H 
ATOM     35  H   LIG d   1       6.216   0.561  -2.899  0.00  0.00     0.069 H 
BRANCH  33  36
ATOM     36  C   LIG d   1       4.592   0.887  -1.520  0.00  0.00    -0.031 C 
ATOM     37  H   LIG d   1       3.581   0.576  -1.784  0.00  0.00     0.026 H 
ATOM     38  H   LIG d   1       5.098   0.077  -0.997  0.00  0.00     0.026 H 
ATOM     39  H   LIG d   1       4.545   1.763  -0.873  0.00  0.00     0.026 H 
ENDBRANCH  33  36
ENDBRANCH  32  33
ENDBRANCH  30  32
ENDBRANCH   1  30
BRANCH   9  40
ATOM     40  C   LIG d   1       5.015  -5.042  -9.260  0.00  0.00    -0.036 C 
ATOM     41  H   LIG d   1       5.653  -4.391  -9.858  0.00  0.00     0.026 H 
ATOM     42  H   LIG d   1       5.285  -6.082  -9.443  0.00  0.00     0.026 H 
ATOM     43  H   LIG d   1       3.973  -4.884  -9.539  0.00  0.00     0.026 H 
ENDBRANCH   9  40
BRANCH   9  44
ATOM     44  C   LIG d   1       4.077  -5.367  -6.967  0.00  0.00    -0.036 C 
ATOM     45  H   LIG d   1       3.302  -5.727  -7.643  0.00  0.00     0.026 H 
ATOM     46  H   LIG d   1       4.479  -6.203  -6.394  0.00  0.00     0.026 H 
ATOM     47  H   LIG d   1       3.651  -4.631  -6.285  0.00  0.00     0.026 H 
ENDBRANCH   9  44
TORSDOF 10
ENDMDL
MODEL 9
REMARK VINA RESULT:      -4.6      2.265      5.615
REMARK  10 active torsions:
REMARK  status: ('A' for Active; 'I' for Inactive)
REMARK    1  A    between atoms: C_1  and  C_2 
REMARK    2  A    between atoms: C_2  and  O_3 
REMARK    3  A    between atoms: O_3  and  C_4 
REMARK    4  A    between atoms: C_4  and  C_6 
REMARK    5  A    between atoms: C_8  and  C_21 
REMARK    6  A    between atoms: C_14  and  C_16 
REMARK    7  A    between atoms: C_14  and  C_17 
REMARK    8  A    between atoms: C_21  and  O_23 
REMARK    9  A    between atoms: O_23  and  C_24 
REMARK   10  A    between atoms: C_24  and  C_25 
ROOT
ATOM      1  C   LIG d   1       3.856  -1.063  -7.092  0.00  0.00     0.169 C 
ATOM      2  H   LIG d   1       2.914  -1.575  -7.288  0.00  0.00     0.054 H 
ATOM      3  C   LIG d   1       4.322  -1.317  -5.635  0.00  0.00     0.119 C 
ATOM      4  H   LIG d   1       3.499  -1.673  -5.015  0.00  0.00     0.047 H 
ATOM      5  C   LIG d   1       5.372  -2.428  -5.860  0.00  0.00     0.132 C 
ATOM      6  C   LIG d   1       4.693  -3.791  -5.916  0.00  0.00     0.012 C 
ATOM      7  C   LIG d   1       5.760  -4.880  -6.075  0.00  0.00     0.052 C 
ATOM      8  O   LIG d   1       6.702  -4.779  -5.006  0.00  0.00    -0.374 OA
ATOM      9  C   LIG d   1       7.415  -3.540  -4.966  0.00  0.00     0.068 C 
ATOM     10  C   LIG d   1       6.422  -2.392  -4.757  0.00  0.00     0.017 C 
ATOM     11  O   LIG d   1       5.953  -2.093  -7.129  0.00  0.00    -0.456 OA
ATOM     12  C   LIG d   1       4.966  -1.651  -7.943  0.00  0.00     0.323 C 
ATOM     13  O   LIG d   1       4.968  -1.713  -9.150  0.00  0.00    -0.250 OA
ATOM     14  H   LIG d   1       4.137  -3.959  -4.994  0.00  0.00     0.033 H 
ATOM     15  H   LIG d   1       4.011  -3.823  -6.765  0.00  0.00     0.033 H 
ATOM     16  H   LIG d   1       5.285  -5.860  -6.050  0.00  0.00     0.056 H 
ATOM     17  H   LIG d   1       6.274  -4.748  -7.027  0.00  0.00     0.056 H 
ATOM     18  H   LIG d   1       6.955  -1.440  -4.793  0.00  0.00     0.033 H 
ATOM     19  H   LIG d   1       5.936  -2.502  -3.788  0.00  0.00     0.033 H 
ENDROOT
BRANCH   3  20
ATOM     20  C   LIG d   1       4.951  -0.083  -5.041  0.00  0.00     0.315 C 
ATOM     21  O   LIG d   1       6.013   0.313  -5.459  0.00  0.00    -0.250 OA
BRANCH  20  22
ATOM     22  O   LIG d   1       4.332   0.575  -4.048  0.00  0.00    -0.465 OA
BRANCH  22  23
ATOM     23  C   LIG d   1       3.498  -0.196  -3.182  0.00  0.00     0.090 C 
ATOM     24  H   LIG d   1       2.635   0.398  -2.884  0.00  0.00     0.069 H 
ATOM     25  H   LIG d   1       3.162  -1.092  -3.703  0.00  0.00     0.069 H 
BRANCH  23  26
ATOM     26  C   LIG d   1       4.293  -0.600  -1.937  0.00  0.00    -0.031 C 
ATOM     27  H   LIG d   1       5.236  -1.054  -2.240  0.00  0.00     0.026 H 
ATOM     28  H   LIG d   1       4.492   0.283  -1.331  0.00  0.00     0.026 H 
ATOM     29  H   LIG d   1       3.715  -1.318  -1.355  0.00  0.00     0.026 H 
ENDBRANCH  23  26
ENDBRANCH  22  23
ENDBRANCH  20  22
ENDBRANCH   3  20
BRANCH   1  30
ATOM     30  C   LIG d   1       3.717   0.415  -7.353  0.00  0.00     0.322 C 
ATOM     31  O   LIG d   1       2.814   1.036  -6.846  0.00  0.00    -0.250 OA
BRANCH  30  32
ATOM     32  O   LIG d   1       4.598   1.040  -8.150  0.00  0.00    -0.464 OA
BRANCH  32  33
ATOM     33  C   LIG d   1       4.077   2.025  -9.045  0.00  0.00     0.090 C 
ATOM     34  H   LIG d   1       4.765   2.870  -9.095  0.00  0.00     0.069 H 
ATOM     35  H   LIG d   1       3.107   2.367  -8.684  0.00  0.00     0.069 H 
BRANCH  33  36
ATOM     36  C   LIG d   1       3.918   1.415 -10.439  0.00  0.00    -0.031 C 
ATOM     37  H   LIG d   1       3.128   1.940 -10.977  0.00  0.00     0.026 H 
ATOM     38  H   LIG d   1       4.855   1.508 -10.986  0.00  0.00     0.026 H 
ATOM     39  H   LIG d   1       3.655   0.361 -10.346  0.00  0.00     0.026 H 
ENDBRANCH  33  36
ENDBRANCH  32  33
ENDBRANCH  30  32
ENDBRANCH   1  30
BRANCH   9  40
ATOM     40  C   LIG d   1       8.418  -3.565  -3.812  0.00  0.00    -0.036 C 
ATOM     41  H   LIG d   1       7.961  -4.039  -2.943  0.00  0.00     0.026 H 
ATOM     42  H   LIG d   1       9.301  -4.129  -4.110  0.00  0.00     0.026 H 
ATOM     43  H   LIG d   1       8.707  -2.545  -3.559  0.00  0.00     0.026 H 
ENDBRANCH   9  40
BRANCH   9  44
ATOM     44  C   LIG d   1       8.159  -3.337  -6.287  0.00  0.00    -0.036 C 
ATOM     45  H   LIG d   1       7.869  -4.117  -6.992  0.00  0.00     0.026 H 
ATOM     46  H   LIG d   1       7.906  -2.361  -6.700  0.00  0.00     0.026 H 
ATOM     47  H   LIG d   1       9.233  -3.390  -6.111  0.00  0.00     0.026 H 
ENDBRANCH   9  44
TORSDOF 10
ENDMDL
MODEL 10
REMARK VINA RESULT:      -4.5      2.184      5.031
REMARK  10 active torsions:
REMARK  status: ('A' for Active; 'I' for Inactive)
REMARK    1  A    between atoms: C_1  and  C_2 
REMARK    2  A    between atoms: C_2  and  O_3 
REMARK    3  A    between atoms: O_3  and  C_4 
REMARK    4  A    between atoms: C_4  and  C_6 
REMARK    5  A    between atoms: C_8  and  C_21 
REMARK    6  A    between atoms: C_14  and  C_16 
REMARK    7  A    between atoms: C_14  and  C_17 
REMARK    8  A    between atoms: C_21  and  O_23 
REMARK    9  A    between atoms: O_23  and  C_24 
REMARK   10  A    between atoms: C_24  and  C_25 
ROOT
ATOM      1  C   LIG d   1       7.855  -0.139  -4.639  0.00  0.00     0.169 C 
ATOM      2  H   LIG d   1       8.474  -0.726  -3.961  0.00  0.00     0.054 H 
ATOM      3  C   LIG d   1       6.620  -0.959  -5.096  0.00  0.00     0.119 C 
ATOM      4  H   LIG d   1       6.768  -2.025  -4.920  0.00  0.00     0.047 H 
ATOM      5  C   LIG d   1       5.533  -0.385  -4.160  0.00  0.00     0.132 C 
ATOM      6  C   LIG d   1       5.558  -1.107  -2.819  0.00  0.00     0.012 C 
ATOM      7  C   LIG d   1       4.431  -0.565  -1.933  0.00  0.00     0.052 C 
ATOM      8  O   LIG d   1       3.183  -0.711  -2.613  0.00  0.00    -0.374 OA
ATOM      9  C   LIG d   1       3.094   0.015  -3.841  0.00  0.00     0.068 C 
ATOM     10  C   LIG d   1       4.162  -0.502  -4.812  0.00  0.00     0.017 C 
ATOM     11  O   LIG d   1       5.910   0.991  -4.007  0.00  0.00    -0.456 OA
ATOM     12  C   LIG d   1       7.259   1.054  -3.915  0.00  0.00     0.323 C 
ATOM     13  O   LIG d   1       7.887   1.918  -3.350  0.00  0.00    -0.250 OA
ATOM     14  H   LIG d   1       5.413  -2.175  -2.978  0.00  0.00     0.033 H 
ATOM     15  H   LIG d   1       6.518  -0.937  -2.331  0.00  0.00     0.033 H 
ATOM     16  H   LIG d   1       4.403  -1.123  -0.997  0.00  0.00     0.056 H 
ATOM     17  H   LIG d   1       4.610   0.490  -1.723  0.00  0.00     0.056 H 
ATOM     18  H   LIG d   1       4.140   0.094  -5.726  0.00  0.00     0.033 H 
ATOM     19  H   LIG d   1       3.960  -1.546  -5.053  0.00  0.00     0.033 H 
ENDROOT
BRANCH   3  20
ATOM     20  C   LIG d   1       6.293  -0.690  -6.543  0.00  0.00     0.315 C 
ATOM     21  O   LIG d   1       6.519  -1.531  -7.379  0.00  0.00    -0.250 OA
BRANCH  20  22
ATOM     22  O   LIG d   1       5.751   0.485  -6.900  0.00  0.00    -0.465 OA
BRANCH  22  23
ATOM     23  C   LIG d   1       5.321   0.614  -8.256  0.00  0.00     0.090 C 
ATOM     24  H   LIG d   1       5.828   1.459  -8.721  0.00  0.00     0.069 H 
ATOM     25  H   LIG d   1       5.561  -0.299  -8.802  0.00  0.00     0.069 H 
BRANCH  23  26
ATOM     26  C   LIG d   1       3.808   0.845  -8.292  0.00  0.00    -0.031 C 
ATOM     27  H   LIG d   1       3.453   0.772  -9.320  0.00  0.00     0.026 H 
ATOM     28  H   LIG d   1       3.311   0.092  -7.681  0.00  0.00     0.026 H 
ATOM     29  H   LIG d   1       3.584   1.837  -7.900  0.00  0.00     0.026 H 
ENDBRANCH  23  26
ENDBRANCH  22  23
ENDBRANCH  20  22
ENDBRANCH   3  20
BRANCH   1  30
ATOM     30  C   LIG d   1       8.659   0.314  -5.830  0.00  0.00     0.322 C 
ATOM     31  O   LIG d   1       8.527   1.437  -6.256  0.00  0.00    -0.250 OA
BRANCH  30  32
ATOM     32  O   LIG d   1       9.521  -0.530  -6.418  0.00  0.00    -0.464 OA
BRANCH  32  33
ATOM     33  C   LIG d   1      10.384  -1.278  -5.558  0.00  0.00     0.090 C 
ATOM     34  H   LIG d   1      10.812  -2.114  -6.112  0.00  0.00     0.069 H 
ATOM     35  H   LIG d   1       9.812  -1.659  -4.712  0.00  0.00     0.069 H 
BRANCH  33  36
ATOM     36  C   LIG d   1      11.508  -0.373  -5.051  0.00  0.00    -0.031 C 
ATOM     37  H   LIG d   1      12.168  -0.946  -4.399  0.00  0.00     0.026 H 
ATOM     38  H   LIG d   1      12.076   0.010  -5.898  0.00  0.00     0.026 H 
ATOM     39  H   LIG d   1      11.080   0.460  -4.493  0.00  0.00     0.026 H 
ENDBRANCH  33  36
ENDBRANCH  32  33
ENDBRANCH  30  32
ENDBRANCH   1  30
BRANCH   9  40
ATOM     40  C   LIG d   1       1.707  -0.184  -4.453  0.00  0.00    -0.036 C 
ATOM     41  H   LIG d   1       1.808  -0.618  -5.449  0.00  0.00     0.026 H 
ATOM     42  H   LIG d   1       1.125  -0.855  -3.822  0.00  0.00     0.026 H 
ATOM     43  H   LIG d   1       1.200   0.778  -4.526  0.00  0.00     0.026 H 
ENDBRANCH   9  40
BRANCH   9  44
ATOM     44  C   LIG d   1       3.327   1.503  -3.572  0.00  0.00    -0.036 C 
ATOM     45  H   LIG d   1       3.935   1.927  -4.371  0.00  0.00     0.026 H 
ATOM     46  H   LIG d   1       2.367   2.019  -3.532  0.00  0.00     0.026 H 
ATOM     47  H   LIG d   1       3.843   1.623  -2.620  0.00  0.00     0.026 H 
ENDBRANCH   9  44
TORSDOF 10
ENDMDL
