MODEL 1
REMARK VINA RESULT:      -6.4      0.000      0.000
REMARK  7 active torsions:
REMARK  status: ('A' for Active; 'I' for Inactive)
REMARK    1  A    between atoms: C_1  and  C_2 
REMARK    2  A    between atoms: C_2  and  C_3 
REMARK    3  A    between atoms: C_2  and  C_4 
REMARK    4  A    between atoms: C_9  and  O_10 
REMARK    5  A    between atoms: C_11  and  C_22 
REMARK    6  A    between atoms: C_15  and  C_20 
REMARK    7  A    between atoms: C_15  and  C_21 
ROOT
ATOM      1  C   LIG d   1       3.649  -0.559  -9.084  0.00  0.00    -0.003 A 
ATOM      2  C   LIG d   1       2.941  -0.064  -8.010  0.00  0.00    -0.051 A 
ATOM      3  C   LIG d   1       3.363  -0.305  -6.706  0.00  0.00    -0.043 A 
ATOM      4  C   LIG d   1       4.504  -1.051  -6.497  0.00  0.00    -0.035 A 
ATOM      5  C   LIG d   1       5.220  -1.549  -7.571  0.00  0.00    -0.016 A 
ATOM      6  C   LIG d   1       4.798  -1.305  -8.869  0.00  0.00     0.121 A 
ATOM      7  C   LIG d   1       4.997  -1.350  -5.096  0.00  0.00    -0.003 C 
ATOM      8  C   LIG d   1       6.522  -1.400  -5.080  0.00  0.00    -0.043 C 
ATOM      9  C   LIG d   1       7.012  -1.599  -3.644  0.00  0.00    -0.052 C 
ATOM     10  C   LIG d   1       6.566  -0.433  -2.772  0.00  0.00    -0.048 C 
ATOM     11  C   LIG d   1       5.045  -0.269  -2.770  0.00  0.00    -0.031 C 
ATOM     12  C   LIG d   1       4.484  -0.260  -4.174  0.00  0.00    -0.026 C 
ATOM     13  H   LIG d   1       4.813   0.709  -4.632  0.00  0.00     0.031 H 
ATOM     14  C   LIG d   1       2.958  -0.235  -4.220  0.00  0.00    -0.045 C 
ATOM     15  C   LIG d   1       2.530   0.275  -5.597  0.00  0.00    -0.027 C 
ATOM     16  H   LIG d   1       2.048   0.519  -8.181  0.00  0.00     0.062 H 
ATOM     17  H   LIG d   1       6.114  -2.134  -7.408  0.00  0.00     0.066 H 
ATOM     18  H   LIG d   1       6.868  -2.232  -5.695  0.00  0.00     0.027 H 
ATOM     19  H   LIG d   1       6.923  -0.467  -5.477  0.00  0.00     0.027 H 
ATOM     20  H   LIG d   1       6.651  -2.539  -3.239  0.00  0.00     0.027 H 
ATOM     21  H   LIG d   1       8.110  -1.633  -3.652  0.00  0.00     0.027 H 
ATOM     22  H   LIG d   1       6.907  -0.598  -1.746  0.00  0.00     0.027 H 
ATOM     23  H   LIG d   1       7.023   0.490  -3.141  0.00  0.00     0.027 H 
ATOM     24  H   LIG d   1       2.529  -1.214  -4.042  0.00  0.00     0.027 H 
ATOM     25  H   LIG d   1       2.571   0.455  -3.463  0.00  0.00     0.027 H 
ATOM     26  H   LIG d   1       2.623   1.363  -5.614  0.00  0.00     0.031 H 
ATOM     27  H   LIG d   1       1.484   0.011  -5.761  0.00  0.00     0.031 H 
ENDROOT
BRANCH   1  28
ATOM     28  C   LIG d   1       3.177  -0.289 -10.490  0.00  0.00    -0.018 C 
ATOM     29  H   LIG d   1       3.579  -1.048 -11.160  0.00  0.00     0.035 H 
BRANCH  28  30
ATOM     30  C   LIG d   1       1.648  -0.330 -10.532  0.00  0.00    -0.059 C 
ATOM     31  H   LIG d   1       1.289   0.312 -11.336  0.00  0.00     0.024 H 
ATOM     32  H   LIG d   1       1.317  -1.353 -10.707  0.00  0.00     0.024 H 
ATOM     33  H   LIG d   1       1.249   0.023  -9.580  0.00  0.00     0.024 H 
ENDBRANCH  28  30
BRANCH  28  34
ATOM     34  C   LIG d   1       3.663   1.093 -10.933  0.00  0.00    -0.059 C 
ATOM     35  H   LIG d   1       3.184   1.362 -11.874  0.00  0.00     0.024 H 
ATOM     36  H   LIG d   1       3.407   1.830 -10.171  0.00  0.00     0.024 H 
ATOM     37  H   LIG d   1       4.745   1.071 -11.069  0.00  0.00     0.024 H 
ENDBRANCH  28  34
ENDBRANCH   1  28
BRANCH   6  38
ATOM     38  O   LIG d   1       5.504  -1.796  -9.920  0.00  0.00    -0.506 OA
ATOM     39  H   LIG d   1       4.963  -1.998 -10.696  0.00  0.00     0.292 HD
ENDBRANCH   6  38
BRANCH   7  40
ATOM     40  C   LIG d   1       4.454  -2.729  -4.726  0.00  0.00    -0.055 C 
ATOM     41  H   LIG d   1       5.234  -3.307  -4.230  0.00  0.00     0.024 H 
ATOM     42  H   LIG d   1       3.603  -2.616  -4.053  0.00  0.00     0.024 H 
ATOM     43  H   LIG d   1       4.135  -3.249  -5.630  0.00  0.00     0.024 H 
ENDBRANCH   7  40
BRANCH  11  44
ATOM     44  C   LIG d   1       4.402  -1.338  -1.887  0.00  0.00    -0.059 C 
ATOM     45  H   LIG d   1       3.707  -0.865  -1.192  0.00  0.00     0.024 H 
ATOM     46  H   LIG d   1       3.862  -2.049  -2.512  0.00  0.00     0.024 H 
ATOM     47  H   LIG d   1       5.177  -1.861  -1.327  0.00  0.00     0.024 H 
ENDBRANCH  11  44
BRANCH  11  48
ATOM     48  C   LIG d   1       4.748   1.105  -2.120  0.00  0.00    -0.059 C 
ATOM     49  H   LIG d   1       5.040   1.080  -1.071  0.00  0.00     0.024 H 
ATOM     50  H   LIG d   1       5.312   1.881  -2.636  0.00  0.00     0.024 H 
ATOM     51  H   LIG d   1       3.682   1.319  -2.195  0.00  0.00     0.024 H 
ENDBRANCH  11  48
TORSDOF 7
ENDMDL
MODEL 2
REMARK VINA RESULT:      -6.1      1.737      6.110
REMARK  7 active torsions:
REMARK  status: ('A' for Active; 'I' for Inactive)
REMARK    1  A    between atoms: C_1  and  C_2 
REMARK    2  A    between atoms: C_2  and  C_3 
REMARK    3  A    between atoms: C_2  and  C_4 
REMARK    4  A    between atoms: C_9  and  O_10 
REMARK    5  A    between atoms: C_11  and  C_22 
REMARK    6  A    between atoms: C_15  and  C_20 
REMARK    7  A    between atoms: C_15  and  C_21 
ROOT
ATOM      1  C   LIG d   1       4.922  -0.920  -4.052  0.00  0.00    -0.003 A 
ATOM      2  C   LIG d   1       3.847  -0.367  -4.712  0.00  0.00    -0.051 A 
ATOM      3  C   LIG d   1       3.890  -0.145  -6.086  0.00  0.00    -0.043 A 
ATOM      4  C   LIG d   1       5.029  -0.487  -6.784  0.00  0.00    -0.035 A 
ATOM      5  C   LIG d   1       6.111  -1.045  -6.128  0.00  0.00    -0.016 A 
ATOM      6  C   LIG d   1       6.064  -1.265  -4.761  0.00  0.00     0.121 A 
ATOM      7  C   LIG d   1       5.128  -0.254  -8.279  0.00  0.00    -0.003 C 
ATOM      8  C   LIG d   1       5.966  -1.355  -8.922  0.00  0.00    -0.043 C 
ATOM      9  C   LIG d   1       5.975  -1.169 -10.441  0.00  0.00    -0.052 C 
ATOM     10  C   LIG d   1       4.557  -1.271 -10.988  0.00  0.00    -0.048 C 
ATOM     11  C   LIG d   1       3.623  -0.236 -10.356  0.00  0.00    -0.031 C 
ATOM     12  C   LIG d   1       3.722  -0.246  -8.848  0.00  0.00    -0.026 C 
ATOM     13  H   LIG d   1       3.250  -1.206  -8.514  0.00  0.00     0.031 H 
ATOM     14  C   LIG d   1       2.911   0.861  -8.178  0.00  0.00    -0.045 C 
ATOM     15  C   LIG d   1       2.670   0.462  -6.721  0.00  0.00    -0.027 C 
ATOM     16  H   LIG d   1       2.959  -0.100  -4.158  0.00  0.00     0.062 H 
ATOM     17  H   LIG d   1       7.004  -1.312  -6.675  0.00  0.00     0.066 H 
ATOM     18  H   LIG d   1       6.991  -1.300  -8.549  0.00  0.00     0.027 H 
ATOM     19  H   LIG d   1       5.543  -2.329  -8.675  0.00  0.00     0.027 H 
ATOM     20  H   LIG d   1       6.421  -0.218 -10.712  0.00  0.00     0.027 H 
ATOM     21  H   LIG d   1       6.582  -1.968 -10.886  0.00  0.00     0.027 H 
ATOM     22  H   LIG d   1       4.576  -1.118 -12.071  0.00  0.00     0.027 H 
ATOM     23  H   LIG d   1       4.164  -2.273 -10.790  0.00  0.00     0.027 H 
ATOM     24  H   LIG d   1       3.418   1.818  -8.217  0.00  0.00     0.027 H 
ATOM     25  H   LIG d   1       1.938   0.965  -8.670  0.00  0.00     0.027 H 
ATOM     26  H   LIG d   1       1.853  -0.261  -6.685  0.00  0.00     0.031 H 
ATOM     27  H   LIG d   1       2.377   1.349  -6.156  0.00  0.00     0.031 H 
ENDROOT
BRANCH   1  28
ATOM     28  C   LIG d   1       4.859  -1.152  -2.564  0.00  0.00    -0.018 C 
ATOM     29  H   LIG d   1       5.825  -1.512  -2.211  0.00  0.00     0.035 H 
BRANCH  28  30
ATOM     30  C   LIG d   1       4.514   0.160  -1.857  0.00  0.00    -0.059 C 
ATOM     31  H   LIG d   1       5.431   0.650  -1.531  0.00  0.00     0.024 H 
ATOM     32  H   LIG d   1       3.978   0.813  -2.546  0.00  0.00     0.024 H 
ATOM     33  H   LIG d   1       3.886  -0.048  -0.991  0.00  0.00     0.024 H 
ENDBRANCH  28  30
BRANCH  28  34
ATOM     34  C   LIG d   1       3.782  -2.195  -2.257  0.00  0.00    -0.059 C 
ATOM     35  H   LIG d   1       3.328  -1.975  -1.292  0.00  0.00     0.024 H 
ATOM     36  H   LIG d   1       3.018  -2.167  -3.033  0.00  0.00     0.024 H 
ATOM     37  H   LIG d   1       4.235  -3.187  -2.228  0.00  0.00     0.024 H 
ENDBRANCH  28  34
ENDBRANCH   1  28
BRANCH   6  38
ATOM     38  O   LIG d   1       7.129  -1.814  -4.120  0.00  0.00    -0.506 OA
ATOM     39  H   LIG d   1       7.253  -1.490  -3.217  0.00  0.00     0.292 HD
ENDBRANCH   6  38
BRANCH   7  40
ATOM     40  C   LIG d   1       5.841   1.085  -8.467  0.00  0.00    -0.055 C 
ATOM     41  H   LIG d   1       5.553   1.766  -7.667  0.00  0.00     0.024 H 
ATOM     42  H   LIG d   1       6.919   0.929  -8.441  0.00  0.00     0.024 H 
ATOM     43  H   LIG d   1       5.559   1.514  -9.429  0.00  0.00     0.024 H 
ENDBRANCH   7  40
BRANCH  11  44
ATOM     44  C   LIG d   1       3.888   1.145 -10.954  0.00  0.00    -0.059 C 
ATOM     45  H   LIG d   1       3.852   1.084 -12.042  0.00  0.00     0.024 H 
ATOM     46  H   LIG d   1       3.129   1.844 -10.604  0.00  0.00     0.024 H 
ATOM     47  H   LIG d   1       4.874   1.493 -10.643  0.00  0.00     0.024 H 
ENDBRANCH  11  44
BRANCH  11  48
ATOM     48  C   LIG d   1       2.182  -0.639 -10.752  0.00  0.00    -0.059 C 
ATOM     49  H   LIG d   1       1.475   0.066 -10.316  0.00  0.00     0.024 H 
ATOM     50  H   LIG d   1       2.085  -0.626 -11.838  0.00  0.00     0.024 H 
ATOM     51  H   LIG d   1       1.970  -1.642 -10.380  0.00  0.00     0.024 H 
ENDBRANCH  11  48
TORSDOF 7
ENDMDL
MODEL 3
REMARK VINA RESULT:      -6.0      3.273      4.671
REMARK  7 active torsions:
REMARK  status: ('A' for Active; 'I' for Inactive)
REMARK    1  A    between atoms: C_1  and  C_2 
REMARK    2  A    between atoms: C_2  and  C_3 
REMARK    3  A    between atoms: C_2  and  C_4 
REMARK    4  A    between atoms: C_9  and  O_10 
REMARK    5  A    between atoms: C_11  and  C_22 
REMARK    6  A    between atoms: C_15  and  C_20 
REMARK    7  A    between atoms: C_15  and  C_21 
ROOT
ATOM      1  C   LIG d   1       8.564   1.558  -6.767  0.00  0.00    -0.003 A 
ATOM      2  C   LIG d   1       7.537   0.701  -7.097  0.00  0.00    -0.051 A 
ATOM      3  C   LIG d   1       6.652   0.242  -6.126  0.00  0.00    -0.043 A 
ATOM      4  C   LIG d   1       6.814   0.656  -4.821  0.00  0.00    -0.035 A 
ATOM      5  C   LIG d   1       7.842   1.518  -4.483  0.00  0.00    -0.016 A 
ATOM      6  C   LIG d   1       8.721   1.974  -5.453  0.00  0.00     0.121 A 
ATOM      7  C   LIG d   1       5.882   0.175  -3.727  0.00  0.00    -0.003 C 
ATOM      8  C   LIG d   1       5.688   1.275  -2.687  0.00  0.00    -0.043 C 
ATOM      9  C   LIG d   1       4.668   0.817  -1.643  0.00  0.00    -0.052 C 
ATOM     10  C   LIG d   1       3.324   0.549  -2.308  0.00  0.00    -0.048 C 
ATOM     11  C   LIG d   1       3.430  -0.507  -3.410  0.00  0.00    -0.031 C 
ATOM     12  C   LIG d   1       4.560  -0.201  -4.367  0.00  0.00    -0.026 C 
ATOM     13  H   LIG d   1       4.235   0.699  -4.950  0.00  0.00     0.031 H 
ATOM     14  C   LIG d   1       4.792  -1.297  -5.404  0.00  0.00    -0.045 C 
ATOM     15  C   LIG d   1       5.560  -0.688  -6.578  0.00  0.00    -0.027 C 
ATOM     16  H   LIG d   1       7.416   0.380  -8.122  0.00  0.00     0.062 H 
ATOM     17  H   LIG d   1       7.970   1.841  -3.461  0.00  0.00     0.066 H 
ATOM     18  H   LIG d   1       6.639   1.482  -2.192  0.00  0.00     0.027 H 
ATOM     19  H   LIG d   1       5.331   2.181  -3.176  0.00  0.00     0.027 H 
ATOM     20  H   LIG d   1       5.018  -0.067  -1.121  0.00  0.00     0.027 H 
ATOM     21  H   LIG d   1       4.541   1.619  -0.905  0.00  0.00     0.027 H 
ATOM     22  H   LIG d   1       2.610   0.206  -1.554  0.00  0.00     0.027 H 
ATOM     23  H   LIG d   1       2.944   1.480  -2.742  0.00  0.00     0.027 H 
ATOM     24  H   LIG d   1       5.348  -2.133  -4.995  0.00  0.00     0.027 H 
ATOM     25  H   LIG d   1       3.833  -1.670  -5.779  0.00  0.00     0.027 H 
ATOM     26  H   LIG d   1       4.860  -0.137  -7.209  0.00  0.00     0.031 H 
ATOM     27  H   LIG d   1       6.001  -1.495  -7.168  0.00  0.00     0.031 H 
ENDROOT
BRANCH   1  28
ATOM     28  C   LIG d   1       9.515   2.044  -7.831  0.00  0.00    -0.018 C 
ATOM     29  H   LIG d   1      10.399   2.473  -7.360  0.00  0.00     0.035 H 
BRANCH  28  30
ATOM     30  C   LIG d   1       9.929   0.870  -8.721  0.00  0.00    -0.059 C 
ATOM     31  H   LIG d   1      10.907   1.072  -9.158  0.00  0.00     0.024 H 
ATOM     32  H   LIG d   1       9.979  -0.039  -8.122  0.00  0.00     0.024 H 
ATOM     33  H   LIG d   1       9.195   0.741  -9.516  0.00  0.00     0.024 H 
ENDBRANCH  28  30
BRANCH  28  34
ATOM     34  C   LIG d   1       8.823   3.111  -8.683  0.00  0.00    -0.059 C 
ATOM     35  H   LIG d   1       9.423   4.019  -8.687  0.00  0.00     0.024 H 
ATOM     36  H   LIG d   1       8.712   2.744  -9.704  0.00  0.00     0.024 H 
ATOM     37  H   LIG d   1       7.839   3.326  -8.266  0.00  0.00     0.024 H 
ENDBRANCH  28  34
ENDBRANCH   1  28
BRANCH   6  38
ATOM     38  O   LIG d   1       9.729   2.820  -5.117  0.00  0.00    -0.506 OA
ATOM     39  H   LIG d   1      10.601   2.534  -5.424  0.00  0.00     0.292 HD
ENDBRANCH   6  38
BRANCH   7  40
ATOM     40  C   LIG d   1       6.568  -1.019  -3.062  0.00  0.00    -0.055 C 
ATOM     41  H   LIG d   1       5.824  -1.622  -2.541  0.00  0.00     0.024 H 
ATOM     42  H   LIG d   1       7.058  -1.626  -3.823  0.00  0.00     0.024 H 
ATOM     43  H   LIG d   1       7.310  -0.660  -2.349  0.00  0.00     0.024 H 
ENDBRANCH   7  40
BRANCH  11  44
ATOM     44  C   LIG d   1       3.543  -1.901  -2.793  0.00  0.00    -0.059 C 
ATOM     45  H   LIG d   1       2.559  -2.231  -2.459  0.00  0.00     0.024 H 
ATOM     46  H   LIG d   1       3.926  -2.598  -3.538  0.00  0.00     0.024 H 
ATOM     47  H   LIG d   1       4.224  -1.867  -1.942  0.00  0.00     0.024 H 
ENDBRANCH  11  44
BRANCH  11  48
ATOM     48  C   LIG d   1       2.099  -0.460  -4.199  0.00  0.00    -0.059 C 
ATOM     49  H   LIG d   1       1.652  -1.453  -4.216  0.00  0.00     0.024 H 
ATOM     50  H   LIG d   1       1.414   0.238  -3.716  0.00  0.00     0.024 H 
ATOM     51  H   LIG d   1       2.293  -0.131  -5.220  0.00  0.00     0.024 H 
ENDBRANCH  11  48
TORSDOF 7
ENDMDL
MODEL 4
REMARK VINA RESULT:      -5.8      1.953      6.484
REMARK  7 active torsions:
REMARK  status: ('A' for Active; 'I' for Inactive)
REMARK    1  A    between atoms: C_1  and  C_2 
REMARK    2  A    between atoms: C_2  and  C_3 
REMARK    3  A    between atoms: C_2  and  C_4 
REMARK    4  A    between atoms: C_9  and  O_10 
REMARK    5  A    between atoms: C_11  and  C_22 
REMARK    6  A    between atoms: C_15  and  C_20 
REMARK    7  A    between atoms: C_15  and  C_21 
ROOT
ATOM      1  C   LIG d   1       4.366  -0.968  -4.347  0.00  0.00    -0.003 A 
ATOM      2  C   LIG d   1       4.836  -1.726  -5.397  0.00  0.00    -0.051 A 
ATOM      3  C   LIG d   1       4.499  -1.413  -6.711  0.00  0.00    -0.043 A 
ATOM      4  C   LIG d   1       3.682  -0.329  -6.953  0.00  0.00    -0.035 A 
ATOM      5  C   LIG d   1       3.208   0.438  -5.904  0.00  0.00    -0.016 A 
ATOM      6  C   LIG d   1       3.548   0.124  -4.597  0.00  0.00     0.121 A 
ATOM      7  C   LIG d   1       3.278   0.045  -8.365  0.00  0.00    -0.003 C 
ATOM      8  C   LIG d   1       3.145   1.560  -8.485  0.00  0.00    -0.043 C 
ATOM      9  C   LIG d   1       2.838   1.934  -9.936  0.00  0.00    -0.052 C 
ATOM     10  C   LIG d   1       3.975   1.483 -10.844  0.00  0.00    -0.048 C 
ATOM     11  C   LIG d   1       4.221  -0.024 -10.750  0.00  0.00    -0.031 C 
ATOM     12  C   LIG d   1       4.340  -0.479  -9.313  0.00  0.00    -0.026 C 
ATOM     13  H   LIG d   1       5.313  -0.070  -8.939  0.00  0.00     0.031 H 
ATOM     14  C   LIG d   1       4.450  -1.995  -9.162  0.00  0.00    -0.045 C 
ATOM     15  C   LIG d   1       5.059  -2.295  -7.792  0.00  0.00    -0.027 C 
ATOM     16  H   LIG d   1       5.475  -2.575  -5.200  0.00  0.00     0.062 H 
ATOM     17  H   LIG d   1       2.568   1.287  -6.093  0.00  0.00     0.066 H 
ATOM     18  H   LIG d   1       2.332   1.908  -7.845  0.00  0.00     0.027 H 
ATOM     19  H   LIG d   1       4.076   2.035  -8.174  0.00  0.00     0.027 H 
ATOM     20  H   LIG d   1       1.898   1.497 -10.257  0.00  0.00     0.027 H 
ATOM     21  H   LIG d   1       2.746   3.026 -10.003  0.00  0.00     0.027 H 
ATOM     22  H   LIG d   1       3.734   1.740 -11.880  0.00  0.00     0.027 H 
ATOM     23  H   LIG d   1       4.891   2.012 -10.564  0.00  0.00     0.027 H 
ATOM     24  H   LIG d   1       3.486  -2.484  -9.250  0.00  0.00     0.027 H 
ATOM     25  H   LIG d   1       5.115  -2.402  -9.930  0.00  0.00     0.027 H 
ATOM     26  H   LIG d   1       6.140  -2.148  -7.847  0.00  0.00     0.031 H 
ATOM     27  H   LIG d   1       4.862  -3.339  -7.539  0.00  0.00     0.031 H 
ENDROOT
BRANCH   1  28
ATOM     28  C   LIG d   1       4.740  -1.321  -2.931  0.00  0.00    -0.018 C 
ATOM     29  H   LIG d   1       4.718  -0.424  -2.314  0.00  0.00     0.035 H 
BRANCH  28  30
ATOM     30  C   LIG d   1       3.744  -2.344  -2.380  0.00  0.00    -0.059 C 
ATOM     31  H   LIG d   1       2.728  -1.995  -2.560  0.00  0.00     0.024 H 
ATOM     32  H   LIG d   1       3.894  -3.301  -2.879  0.00  0.00     0.024 H 
ATOM     33  H   LIG d   1       3.903  -2.465  -1.308  0.00  0.00     0.024 H 
ENDBRANCH  28  30
BRANCH  28  34
ATOM     34  C   LIG d   1       6.149  -1.920  -2.911  0.00  0.00    -0.059 C 
ATOM     35  H   LIG d   1       6.097  -2.980  -3.156  0.00  0.00     0.024 H 
ATOM     36  H   LIG d   1       6.772  -1.407  -3.643  0.00  0.00     0.024 H 
ATOM     37  H   LIG d   1       6.581  -1.797  -1.917  0.00  0.00     0.024 H 
ENDBRANCH  28  34
ENDBRANCH   1  28
BRANCH   6  38
ATOM     38  O   LIG d   1       3.080   0.880  -3.570  0.00  0.00    -0.506 OA
ATOM     39  H   LIG d   1       3.397   1.794  -3.579  0.00  0.00     0.292 HD
ENDBRANCH   6  38
BRANCH   7  40
ATOM     40  C   LIG d   1       1.911  -0.592  -8.612  0.00  0.00    -0.055 C 
ATOM     41  H   LIG d   1       1.526  -0.265  -9.578  0.00  0.00     0.024 H 
ATOM     42  H   LIG d   1       2.010  -1.678  -8.610  0.00  0.00     0.024 H 
ATOM     43  H   LIG d   1       1.221  -0.289  -7.824  0.00  0.00     0.024 H 
ENDBRANCH   7  40
BRANCH  11  44
ATOM     44  C   LIG d   1       3.139  -0.782 -11.519  0.00  0.00    -0.059 C 
ATOM     45  H   LIG d   1       3.569  -1.206 -12.427  0.00  0.00     0.024 H 
ATOM     46  H   LIG d   1       2.744  -1.584 -10.895  0.00  0.00     0.024 H 
ATOM     47  H   LIG d   1       2.334  -0.097 -11.784  0.00  0.00     0.024 H 
ENDBRANCH  11  44
BRANCH  11  48
ATOM     48  C   LIG d   1       5.569  -0.299 -11.460  0.00  0.00    -0.059 C 
ATOM     49  H   LIG d   1       6.384   0.098 -10.857  0.00  0.00     0.024 H 
ATOM     50  H   LIG d   1       5.700  -1.374 -11.585  0.00  0.00     0.024 H 
ATOM     51  H   LIG d   1       5.570   0.184 -12.437  0.00  0.00     0.024 H 
ENDBRANCH  11  48
TORSDOF 7
ENDMDL
MODEL 5
REMARK VINA RESULT:      -5.3      3.504      5.965
REMARK  7 active torsions:
REMARK  status: ('A' for Active; 'I' for Inactive)
REMARK    1  A    between atoms: C_1  and  C_2 
REMARK    2  A    between atoms: C_2  and  C_3 
REMARK    3  A    between atoms: C_2  and  C_4 
REMARK    4  A    between atoms: C_9  and  O_10 
REMARK    5  A    between atoms: C_11  and  C_22 
REMARK    6  A    between atoms: C_15  and  C_20 
REMARK    7  A    between atoms: C_15  and  C_21 
ROOT
ATOM      1  C   LIG d   1       4.764  -1.049  -4.088  0.00  0.00    -0.003 A 
ATOM      2  C   LIG d   1       4.731  -2.185  -4.867  0.00  0.00    -0.051 A 
ATOM      3  C   LIG d   1       5.835  -3.030  -4.943  0.00  0.00    -0.043 A 
ATOM      4  C   LIG d   1       6.970  -2.716  -4.226  0.00  0.00    -0.035 A 
ATOM      5  C   LIG d   1       7.009  -1.578  -3.440  0.00  0.00    -0.016 A 
ATOM      6  C   LIG d   1       5.907  -0.740  -3.366  0.00  0.00     0.121 A 
ATOM      7  C   LIG d   1       8.200  -3.599  -4.285  0.00  0.00    -0.003 C 
ATOM      8  C   LIG d   1       8.914  -3.588  -2.936  0.00  0.00    -0.043 C 
ATOM      9  C   LIG d   1      10.094  -4.560  -2.974  0.00  0.00    -0.052 C 
ATOM     10  C   LIG d   1       9.598  -5.975  -3.238  0.00  0.00    -0.048 C 
ATOM     11  C   LIG d   1       8.818  -6.074  -4.550  0.00  0.00    -0.031 C 
ATOM     12  C   LIG d   1       7.756  -5.002  -4.648  0.00  0.00    -0.026 C 
ATOM     13  H   LIG d   1       6.969  -5.278  -3.899  0.00  0.00     0.031 H 
ATOM     14  C   LIG d   1       7.041  -4.975  -5.997  0.00  0.00    -0.045 C 
ATOM     15  C   LIG d   1       5.708  -4.247  -5.817  0.00  0.00    -0.027 C 
ATOM     16  H   LIG d   1       3.839  -2.424  -5.427  0.00  0.00     0.062 H 
ATOM     17  H   LIG d   1       7.898  -1.332  -2.879  0.00  0.00     0.066 H 
ATOM     18  H   LIG d   1       9.284  -2.583  -2.725  0.00  0.00     0.027 H 
ATOM     19  H   LIG d   1       8.218  -3.888  -2.152  0.00  0.00     0.027 H 
ATOM     20  H   LIG d   1      10.816  -4.263  -3.728  0.00  0.00     0.027 H 
ATOM     21  H   LIG d   1      10.595  -4.539  -1.998  0.00  0.00     0.027 H 
ATOM     22  H   LIG d   1      10.453  -6.657  -3.281  0.00  0.00     0.027 H 
ATOM     23  H   LIG d   1       8.950  -6.290  -2.414  0.00  0.00     0.027 H 
ATOM     24  H   LIG d   1       7.631  -4.477  -6.759  0.00  0.00     0.027 H 
ATOM     25  H   LIG d   1       6.832  -5.995  -6.333  0.00  0.00     0.027 H 
ATOM     26  H   LIG d   1       4.990  -4.935  -5.367  0.00  0.00     0.031 H 
ATOM     27  H   LIG d   1       5.336  -3.945  -6.797  0.00  0.00     0.031 H 
ENDROOT
BRANCH   1  28
ATOM     28  C   LIG d   1       3.560  -0.145  -4.018  0.00  0.00    -0.018 C 
ATOM     29  H   LIG d   1       3.850   0.814  -3.590  0.00  0.00     0.035 H 
BRANCH  28  30
ATOM     30  C   LIG d   1       3.003   0.073  -5.427  0.00  0.00    -0.059 C 
ATOM     31  H   LIG d   1       2.155  -0.592  -5.589  0.00  0.00     0.024 H 
ATOM     32  H   LIG d   1       2.680   1.108  -5.533  0.00  0.00     0.024 H 
ATOM     33  H   LIG d   1       3.779  -0.143  -6.162  0.00  0.00     0.024 H 
ENDBRANCH  28  30
BRANCH  28  34
ATOM     34  C   LIG d   1       2.487  -0.792  -3.140  0.00  0.00    -0.059 C 
ATOM     35  H   LIG d   1       1.544  -0.261  -3.266  0.00  0.00     0.024 H 
ATOM     36  H   LIG d   1       2.359  -1.835  -3.432  0.00  0.00     0.024 H 
ATOM     37  H   LIG d   1       2.795  -0.743  -2.095  0.00  0.00     0.024 H 
ENDBRANCH  28  34
ENDBRANCH   1  28
BRANCH   6  38
ATOM     38  O   LIG d   1       5.949   0.376  -2.593  0.00  0.00    -0.506 OA
ATOM     39  H   LIG d   1       6.410   1.121  -3.003  0.00  0.00     0.292 HD
ENDBRANCH   6  38
BRANCH   7  40
ATOM     40  C   LIG d   1       9.126  -2.990  -5.338  0.00  0.00    -0.055 C 
ATOM     41  H   LIG d   1       9.239  -1.922  -5.150  0.00  0.00     0.024 H 
ATOM     42  H   LIG d   1      10.102  -3.473  -5.287  0.00  0.00     0.024 H 
ATOM     43  H   LIG d   1       8.697  -3.141  -6.329  0.00  0.00     0.024 H 
ENDBRANCH   7  40
BRANCH  11  44
ATOM     44  C   LIG d   1       9.781  -6.057  -5.737  0.00  0.00    -0.059 C 
ATOM     45  H   LIG d   1      10.242  -5.073  -5.816  0.00  0.00     0.024 H 
ATOM     46  H   LIG d   1      10.554  -6.810  -5.588  0.00  0.00     0.024 H 
ATOM     47  H   LIG d   1       9.232  -6.276  -6.653  0.00  0.00     0.024 H 
ENDBRANCH  11  44
BRANCH  11  48
ATOM     48  C   LIG d   1       8.116  -7.454  -4.547  0.00  0.00    -0.059 C 
ATOM     49  H   LIG d   1       7.978  -7.789  -3.520  0.00  0.00     0.024 H 
ATOM     50  H   LIG d   1       7.145  -7.369  -5.036  0.00  0.00     0.024 H 
ATOM     51  H   LIG d   1       8.731  -8.176  -5.085  0.00  0.00     0.024 H 
ENDBRANCH  11  48
TORSDOF 7
ENDMDL
MODEL 6
REMARK VINA RESULT:      -5.3      3.128      5.636
REMARK  7 active torsions:
REMARK  status: ('A' for Active; 'I' for Inactive)
REMARK    1  A    between atoms: C_1  and  C_2 
REMARK    2  A    between atoms: C_2  and  C_3 
REMARK    3  A    between atoms: C_2  and  C_4 
REMARK    4  A    between atoms: C_9  and  O_10 
REMARK    5  A    between atoms: C_11  and  C_22 
REMARK    6  A    between atoms: C_15  and  C_20 
REMARK    7  A    between atoms: C_15  and  C_21 
ROOT
ATOM      1  C   LIG d   1      10.273  -1.014  -5.466  0.00  0.00    -0.003 A 
ATOM      2  C   LIG d   1       9.700   0.129  -4.952  0.00  0.00    -0.051 A 
ATOM      3  C   LIG d   1       8.361   0.147  -4.573  0.00  0.00    -0.043 A 
ATOM      4  C   LIG d   1       7.607  -0.999  -4.718  0.00  0.00    -0.035 A 
ATOM      5  C   LIG d   1       8.176  -2.150  -5.231  0.00  0.00    -0.016 A 
ATOM      6  C   LIG d   1       9.511  -2.165  -5.606  0.00  0.00     0.121 A 
ATOM      7  C   LIG d   1       6.142  -1.025  -4.330  0.00  0.00    -0.003 C 
ATOM      8  C   LIG d   1       5.771  -2.403  -3.791  0.00  0.00    -0.043 C 
ATOM      9  C   LIG d   1       4.320  -2.390  -3.307  0.00  0.00    -0.052 C 
ATOM     10  C   LIG d   1       4.155  -1.378  -2.180  0.00  0.00    -0.048 C 
ATOM     11  C   LIG d   1       4.558   0.033  -2.612  0.00  0.00    -0.031 C 
ATOM     12  C   LIG d   1       5.915   0.044  -3.277  0.00  0.00    -0.026 C 
ATOM     13  H   LIG d   1       6.659  -0.163  -2.466  0.00  0.00     0.031 H 
ATOM     14  C   LIG d   1       6.302   1.407  -3.848  0.00  0.00    -0.045 C 
ATOM     15  C   LIG d   1       7.822   1.438  -4.021  0.00  0.00    -0.027 C 
ATOM     16  H   LIG d   1      10.296   1.023  -4.842  0.00  0.00     0.062 H 
ATOM     17  H   LIG d   1       7.586  -3.047  -5.346  0.00  0.00     0.066 H 
ATOM     18  H   LIG d   1       5.878  -3.147  -4.583  0.00  0.00     0.027 H 
ATOM     19  H   LIG d   1       6.431  -2.662  -2.962  0.00  0.00     0.027 H 
ATOM     20  H   LIG d   1       3.642  -2.165  -4.123  0.00  0.00     0.027 H 
ATOM     21  H   LIG d   1       4.071  -3.388  -2.923  0.00  0.00     0.027 H 
ATOM     22  H   LIG d   1       3.109  -1.366  -1.856  0.00  0.00     0.027 H 
ATOM     23  H   LIG d   1       4.773  -1.681  -1.329  0.00  0.00     0.027 H 
ATOM     24  H   LIG d   1       5.820   1.601  -4.799  0.00  0.00     0.027 H 
ATOM     25  H   LIG d   1       6.020   2.201  -3.148  0.00  0.00     0.027 H 
ATOM     26  H   LIG d   1       8.283   1.630  -3.050  0.00  0.00     0.031 H 
ATOM     27  H   LIG d   1       8.083   2.252  -4.699  0.00  0.00     0.031 H 
ENDROOT
BRANCH   1  28
ATOM     28  C   LIG d   1      11.724  -1.016  -5.873  0.00  0.00    -0.018 C 
ATOM     29  H   LIG d   1      11.916  -1.862  -6.532  0.00  0.00     0.035 H 
BRANCH  28  30
ATOM     30  C   LIG d   1      12.050   0.286  -6.607  0.00  0.00    -0.059 C 
ATOM     31  H   LIG d   1      13.008   0.187  -7.115  0.00  0.00     0.024 H 
ATOM     32  H   LIG d   1      11.270   0.496  -7.338  0.00  0.00     0.024 H 
ATOM     33  H   LIG d   1      12.103   1.105  -5.888  0.00  0.00     0.024 H 
ENDBRANCH  28  30
BRANCH  28  34
ATOM     34  C   LIG d   1      12.602  -1.132  -4.625  0.00  0.00    -0.059 C 
ATOM     35  H   LIG d   1      12.630  -0.172  -4.109  0.00  0.00     0.024 H 
ATOM     36  H   LIG d   1      12.190  -1.890  -3.959  0.00  0.00     0.024 H 
ATOM     37  H   LIG d   1      13.614  -1.416  -4.918  0.00  0.00     0.024 H 
ENDBRANCH  28  34
ENDBRANCH   1  28
BRANCH   6  38
ATOM     38  O   LIG d   1      10.066  -3.298  -6.110  0.00  0.00    -0.506 OA
ATOM     39  H   LIG d   1      11.007  -3.215  -6.319  0.00  0.00     0.292 HD
ENDBRANCH   6  38
BRANCH   7  40
ATOM     40  C   LIG d   1       5.346  -0.763  -5.608  0.00  0.00    -0.055 C 
ATOM     41  H   LIG d   1       4.726   0.124  -5.475  0.00  0.00     0.024 H 
ATOM     42  H   LIG d   1       6.034  -0.603  -6.438  0.00  0.00     0.024 H 
ATOM     43  H   LIG d   1       4.711  -1.622  -5.823  0.00  0.00     0.024 H 
ENDBRANCH   7  40
BRANCH  11  44
ATOM     44  C   LIG d   1       3.467   0.646  -3.490  0.00  0.00    -0.059 C 
ATOM     45  H   LIG d   1       3.849   0.780  -4.502  0.00  0.00     0.024 H 
ATOM     46  H   LIG d   1       2.603  -0.018  -3.512  0.00  0.00     0.024 H 
ATOM     47  H   LIG d   1       3.173   1.613  -3.081  0.00  0.00     0.024 H 
ENDBRANCH  11  44
BRANCH  11  48
ATOM     48  C   LIG d   1       4.643   0.885  -1.322  0.00  0.00    -0.059 C 
ATOM     49  H   LIG d   1       4.362   1.913  -1.547  0.00  0.00     0.024 H 
ATOM     50  H   LIG d   1       3.963   0.478  -0.572  0.00  0.00     0.024 H 
ATOM     51  H   LIG d   1       5.663   0.862  -0.938  0.00  0.00     0.024 H 
ENDBRANCH  11  48
TORSDOF 7
ENDMDL
MODEL 7
REMARK VINA RESULT:      -5.2      1.853      3.153
REMARK  7 active torsions:
REMARK  status: ('A' for Active; 'I' for Inactive)
REMARK    1  A    between atoms: C_1  and  C_2 
REMARK    2  A    between atoms: C_2  and  C_3 
REMARK    3  A    between atoms: C_2  and  C_4 
REMARK    4  A    between atoms: C_9  and  O_10 
REMARK    5  A    between atoms: C_11  and  C_22 
REMARK    6  A    between atoms: C_15  and  C_20 
REMARK    7  A    between atoms: C_15  and  C_21 
ROOT
ATOM      1  C   LIG d   1       3.407  -2.484  -9.312  0.00  0.00    -0.003 A 
ATOM      2  C   LIG d   1       3.969  -3.230  -8.299  0.00  0.00    -0.051 A 
ATOM      3  C   LIG d   1       4.206  -2.669  -7.047  0.00  0.00    -0.043 A 
ATOM      4  C   LIG d   1       3.871  -1.349  -6.829  0.00  0.00    -0.035 A 
ATOM      5  C   LIG d   1       3.305  -0.595  -7.841  0.00  0.00    -0.016 A 
ATOM      6  C   LIG d   1       3.069  -1.158  -9.086  0.00  0.00     0.121 A 
ATOM      7  C   LIG d   1       4.120  -0.691  -5.487  0.00  0.00    -0.003 C 
ATOM      8  C   LIG d   1       3.027   0.333  -5.198  0.00  0.00    -0.043 C 
ATOM      9  C   LIG d   1       3.229   0.917  -3.799  0.00  0.00    -0.052 C 
ATOM     10  C   LIG d   1       3.135  -0.186  -2.753  0.00  0.00    -0.048 C 
ATOM     11  C   LIG d   1       4.163  -1.293  -2.994  0.00  0.00    -0.031 C 
ATOM     12  C   LIG d   1       4.136  -1.775  -4.427  0.00  0.00    -0.026 C 
ATOM     13  H   LIG d   1       3.173  -2.335  -4.546  0.00  0.00     0.031 H 
ATOM     14  C   LIG d   1       5.237  -2.784  -4.750  0.00  0.00    -0.045 C 
ATOM     15  C   LIG d   1       4.821  -3.558  -6.002  0.00  0.00    -0.027 C 
ATOM     16  H   LIG d   1       4.230  -4.263  -8.476  0.00  0.00     0.062 H 
ATOM     17  H   LIG d   1       3.044   0.439  -7.671  0.00  0.00     0.066 H 
ATOM     18  H   LIG d   1       3.076   1.139  -5.933  0.00  0.00     0.027 H 
ATOM     19  H   LIG d   1       2.050  -0.149  -5.256  0.00  0.00     0.027 H 
ATOM     20  H   LIG d   1       4.183   1.430  -3.728  0.00  0.00     0.027 H 
ATOM     21  H   LIG d   1       2.435   1.651  -3.609  0.00  0.00     0.027 H 
ATOM     22  H   LIG d   1       3.300   0.242  -1.760  0.00  0.00     0.027 H 
ATOM     23  H   LIG d   1       2.131  -0.621  -2.777  0.00  0.00     0.027 H 
ATOM     24  H   LIG d   1       6.194  -2.303  -4.917  0.00  0.00     0.027 H 
ATOM     25  H   LIG d   1       5.347  -3.497  -3.926  0.00  0.00     0.027 H 
ATOM     26  H   LIG d   1       4.098  -4.326  -5.717  0.00  0.00     0.031 H 
ATOM     27  H   LIG d   1       5.702  -4.047  -6.423  0.00  0.00     0.031 H 
ENDROOT
BRANCH   1  28
ATOM     28  C   LIG d   1       3.159  -3.107 -10.661  0.00  0.00    -0.018 C 
ATOM     29  H   LIG d   1       3.099  -2.325 -11.418  0.00  0.00     0.035 H 
BRANCH  28  30
ATOM     30  C   LIG d   1       4.305  -4.061 -11.002  0.00  0.00    -0.059 C 
ATOM     31  H   LIG d   1       4.751  -3.768 -11.952  0.00  0.00     0.024 H 
ATOM     32  H   LIG d   1       5.060  -4.017 -10.217  0.00  0.00     0.024 H 
ATOM     33  H   LIG d   1       3.921  -5.078 -11.079  0.00  0.00     0.024 H 
ENDBRANCH  28  30
BRANCH  28  34
ATOM     34  C   LIG d   1       1.841  -3.885 -10.628  0.00  0.00    -0.059 C 
ATOM     35  H   LIG d   1       1.596  -4.141  -9.598  0.00  0.00     0.024 H 
ATOM     36  H   LIG d   1       1.045  -3.271 -11.049  0.00  0.00     0.024 H 
ATOM     37  H   LIG d   1       1.944  -4.798 -11.215  0.00  0.00     0.024 H 
ENDBRANCH  28  34
ENDBRANCH   1  28
BRANCH   6  38
ATOM     38  O   LIG d   1       2.513  -0.414 -10.077  0.00  0.00    -0.506 OA
ATOM     39  H   LIG d   1       1.622  -0.696 -10.327  0.00  0.00     0.292 HD
ENDBRANCH   6  38
BRANCH   7  40
ATOM     40  C   LIG d   1       5.461   0.035  -5.598  0.00  0.00    -0.055 C 
ATOM     41  H   LIG d   1       6.057  -0.162  -4.707  0.00  0.00     0.024 H 
ATOM     42  H   LIG d   1       5.995  -0.321  -6.479  0.00  0.00     0.024 H 
ATOM     43  H   LIG d   1       5.286   1.108  -5.688  0.00  0.00     0.024 H 
ENDBRANCH   7  40
BRANCH  11  44
ATOM     44  C   LIG d   1       5.551  -0.826  -2.557  0.00  0.00    -0.059 C 
ATOM     45  H   LIG d   1       6.036  -1.615  -1.982  0.00  0.00     0.024 H 
ATOM     46  H   LIG d   1       6.151  -0.597  -3.437  0.00  0.00     0.024 H 
ATOM     47  H   LIG d   1       5.456   0.067  -1.939  0.00  0.00     0.024 H 
ENDBRANCH  11  44
BRANCH  11  48
ATOM     48  C   LIG d   1       3.766  -2.475  -2.076  0.00  0.00    -0.059 C 
ATOM     49  H   LIG d   1       3.529  -3.345  -2.687  0.00  0.00     0.024 H 
ATOM     50  H   LIG d   1       4.596  -2.714  -1.411  0.00  0.00     0.024 H 
ATOM     51  H   LIG d   1       2.894  -2.198  -1.484  0.00  0.00     0.024 H 
ENDBRANCH  11  48
TORSDOF 7
ENDMDL
MODEL 8
REMARK VINA RESULT:      -5.0      2.171      6.709
REMARK  7 active torsions:
REMARK  status: ('A' for Active; 'I' for Inactive)
REMARK    1  A    between atoms: C_1  and  C_2 
REMARK    2  A    between atoms: C_2  and  C_3 
REMARK    3  A    between atoms: C_2  and  C_4 
REMARK    4  A    between atoms: C_9  and  O_10 
REMARK    5  A    between atoms: C_11  and  C_22 
REMARK    6  A    between atoms: C_15  and  C_20 
REMARK    7  A    between atoms: C_15  and  C_21 
ROOT
ATOM      1  C   LIG d   1       5.196  -1.854  -5.625  0.00  0.00    -0.003 A 
ATOM      2  C   LIG d   1       4.664  -2.786  -6.489  0.00  0.00    -0.051 A 
ATOM      3  C   LIG d   1       4.141  -2.400  -7.720  0.00  0.00    -0.043 A 
ATOM      4  C   LIG d   1       4.160  -1.066  -8.069  0.00  0.00    -0.035 A 
ATOM      5  C   LIG d   1       4.695  -0.126  -7.207  0.00  0.00    -0.016 A 
ATOM      6  C   LIG d   1       5.216  -0.514  -5.982  0.00  0.00     0.121 A 
ATOM      7  C   LIG d   1       3.593  -0.597  -9.393  0.00  0.00    -0.003 C 
ATOM      8  C   LIG d   1       4.399   0.591  -9.913  0.00  0.00    -0.043 C 
ATOM      9  C   LIG d   1       3.885   0.991 -11.296  0.00  0.00    -0.052 C 
ATOM     10  C   LIG d   1       4.057  -0.164 -12.274  0.00  0.00    -0.048 C 
ATOM     11  C   LIG d   1       3.325  -1.424 -11.807  0.00  0.00    -0.031 C 
ATOM     12  C   LIG d   1       3.653  -1.756 -10.369  0.00  0.00    -0.026 C 
ATOM     13  H   LIG d   1       4.719  -2.103 -10.367  0.00  0.00     0.031 H 
ATOM     14  C   LIG d   1       2.843  -2.927  -9.815  0.00  0.00    -0.045 C 
ATOM     15  C   LIG d   1       3.583  -3.486  -8.598  0.00  0.00    -0.027 C 
ATOM     16  H   LIG d   1       4.650  -3.829  -6.209  0.00  0.00     0.062 H 
ATOM     17  H   LIG d   1       4.710   0.919  -7.479  0.00  0.00     0.066 H 
ATOM     18  H   LIG d   1       4.288   1.435  -9.231  0.00  0.00     0.027 H 
ATOM     19  H   LIG d   1       5.452   0.317  -9.979  0.00  0.00     0.027 H 
ATOM     20  H   LIG d   1       2.845   1.299 -11.249  0.00  0.00     0.027 H 
ATOM     21  H   LIG d   1       4.474   1.846 -11.654  0.00  0.00     0.027 H 
ATOM     22  H   LIG d   1       3.668   0.130 -13.254  0.00  0.00     0.027 H 
ATOM     23  H   LIG d   1       5.122  -0.390 -12.381  0.00  0.00     0.027 H 
ATOM     24  H   LIG d   1       1.840  -2.629  -9.530  0.00  0.00     0.027 H 
ATOM     25  H   LIG d   1       2.768  -3.721 -10.565  0.00  0.00     0.027 H 
ATOM     26  H   LIG d   1       4.401  -4.120  -8.945  0.00  0.00     0.031 H 
ATOM     27  H   LIG d   1       2.891  -4.096  -8.015  0.00  0.00     0.031 H 
ENDROOT
BRANCH   1  28
ATOM     28  C   LIG d   1       5.756  -2.288  -4.295  0.00  0.00    -0.018 C 
ATOM     29  H   LIG d   1       6.311  -1.465  -3.847  0.00  0.00     0.035 H 
BRANCH  28  30
ATOM     30  C   LIG d   1       4.610  -2.695  -3.366  0.00  0.00    -0.059 C 
ATOM     31  H   LIG d   1       4.344  -3.735  -3.551  0.00  0.00     0.024 H 
ATOM     32  H   LIG d   1       4.924  -2.579  -2.330  0.00  0.00     0.024 H 
ATOM     33  H   LIG d   1       3.745  -2.059  -3.557  0.00  0.00     0.024 H 
ENDBRANCH  28  30
BRANCH  28  34
ATOM     34  C   LIG d   1       6.692  -3.482  -4.502  0.00  0.00    -0.059 C 
ATOM     35  H   LIG d   1       7.658  -3.269  -4.047  0.00  0.00     0.024 H 
ATOM     36  H   LIG d   1       6.258  -4.368  -4.039  0.00  0.00     0.024 H 
ATOM     37  H   LIG d   1       6.824  -3.658  -5.570  0.00  0.00     0.024 H 
ENDBRANCH  28  34
ENDBRANCH   1  28
BRANCH   6  38
ATOM     38  O   LIG d   1       5.740   0.413  -5.139  0.00  0.00    -0.506 OA
ATOM     39  H   LIG d   1       5.201   1.211  -5.048  0.00  0.00     0.292 HD
ENDBRANCH   6  38
BRANCH   7  40
ATOM     40  C   LIG d   1       2.161  -0.140  -9.119  0.00  0.00    -0.055 C 
ATOM     41  H   LIG d   1       1.844  -0.504  -8.142  0.00  0.00     0.024 H 
ATOM     42  H   LIG d   1       2.119   0.950  -9.130  0.00  0.00     0.024 H 
ATOM     43  H   LIG d   1       1.499  -0.537  -9.888  0.00  0.00     0.024 H 
ENDBRANCH   7  40
BRANCH  11  44
ATOM     44  C   LIG d   1       1.823  -1.280 -12.049  0.00  0.00    -0.059 C 
ATOM     45  H   LIG d   1       1.498  -2.027 -12.773  0.00  0.00     0.024 H 
ATOM     46  H   LIG d   1       1.288  -1.426 -11.110  0.00  0.00     0.024 H 
ATOM     47  H   LIG d   1       1.611  -0.282 -12.436  0.00  0.00     0.024 H 
ENDBRANCH  11  44
BRANCH  11  48
ATOM     48  C   LIG d   1       3.825  -2.585 -12.700  0.00  0.00    -0.059 C 
ATOM     49  H   LIG d   1       4.914  -2.584 -12.720  0.00  0.00     0.024 H 
ATOM     50  H   LIG d   1       3.470  -3.533 -12.296  0.00  0.00     0.024 H 
ATOM     51  H   LIG d   1       3.443  -2.455 -13.713  0.00  0.00     0.024 H 
ENDBRANCH  11  48
TORSDOF 7
ENDMDL
MODEL 9
REMARK VINA RESULT:      -4.8      9.420     11.129
REMARK  7 active torsions:
REMARK  status: ('A' for Active; 'I' for Inactive)
REMARK    1  A    between atoms: C_1  and  C_2 
REMARK    2  A    between atoms: C_2  and  C_3 
REMARK    3  A    between atoms: C_2  and  C_4 
REMARK    4  A    between atoms: C_9  and  O_10 
REMARK    5  A    between atoms: C_11  and  C_22 
REMARK    6  A    between atoms: C_15  and  C_20 
REMARK    7  A    between atoms: C_15  and  C_21 
ROOT
ATOM      1  C   LIG d   1       5.774  -9.964  -3.522  0.00  0.00    -0.003 A 
ATOM      2  C   LIG d   1       6.156 -10.715  -2.433  0.00  0.00    -0.051 A 
ATOM      3  C   LIG d   1       7.413 -10.549  -1.857  0.00  0.00    -0.043 A 
ATOM      4  C   LIG d   1       8.278  -9.618  -2.392  0.00  0.00    -0.035 A 
ATOM      5  C   LIG d   1       7.900  -8.859  -3.485  0.00  0.00    -0.016 A 
ATOM      6  C   LIG d   1       6.647  -9.026  -4.055  0.00  0.00     0.121 A 
ATOM      7  C   LIG d   1       9.660  -9.408  -1.807  0.00  0.00    -0.003 C 
ATOM      8  C   LIG d   1      10.062  -7.942  -1.934  0.00  0.00    -0.043 C 
ATOM      9  C   LIG d   1      11.412  -7.721  -1.249  0.00  0.00    -0.052 C 
ATOM     10  C   LIG d   1      11.310  -8.060   0.232  0.00  0.00    -0.048 C 
ATOM     11  C   LIG d   1      10.856  -9.503   0.460  0.00  0.00    -0.031 C 
ATOM     12  C   LIG d   1       9.624  -9.833  -0.352  0.00  0.00    -0.026 C 
ATOM     13  H   LIG d   1       8.783  -9.258   0.115  0.00  0.00     0.031 H 
ATOM     14  C   LIG d   1       9.213 -11.302  -0.262  0.00  0.00    -0.045 C 
ATOM     15  C   LIG d   1       7.743 -11.411  -0.670  0.00  0.00    -0.027 C 
ATOM     16  H   LIG d   1       5.474 -11.443  -2.019  0.00  0.00     0.062 H 
ATOM     17  H   LIG d   1       8.577  -8.130  -3.905  0.00  0.00     0.066 H 
ATOM     18  H   LIG d   1      10.147  -7.675  -2.989  0.00  0.00     0.027 H 
ATOM     19  H   LIG d   1       9.306  -7.313  -1.462  0.00  0.00     0.027 H 
ATOM     20  H   LIG d   1      12.188  -8.314  -1.723  0.00  0.00     0.027 H 
ATOM     21  H   LIG d   1      11.685  -6.662  -1.350  0.00  0.00     0.027 H 
ATOM     22  H   LIG d   1      12.286  -7.914   0.705  0.00  0.00     0.027 H 
ATOM     23  H   LIG d   1      10.594  -7.382   0.708  0.00  0.00     0.027 H 
ATOM     24  H   LIG d   1       9.819 -11.933  -0.902  0.00  0.00     0.027 H 
ATOM     25  H   LIG d   1       9.311 -11.657   0.768  0.00  0.00     0.027 H 
ATOM     26  H   LIG d   1       7.120 -11.108   0.174  0.00  0.00     0.031 H 
ATOM     27  H   LIG d   1       7.520 -12.452  -0.913  0.00  0.00     0.031 H 
ENDROOT
BRANCH   1  28
ATOM     28  C   LIG d   1       4.411 -10.158  -4.134  0.00  0.00    -0.018 C 
ATOM     29  H   LIG d   1       4.228  -9.376  -4.871  0.00  0.00     0.035 H 
BRANCH  28  30
ATOM     30  C   LIG d   1       4.347 -11.526  -4.815  0.00  0.00    -0.059 C 
ATOM     31  H   LIG d   1       3.754 -12.208  -4.207  0.00  0.00     0.024 H 
ATOM     32  H   LIG d   1       3.887 -11.422  -5.798  0.00  0.00     0.024 H 
ATOM     33  H   LIG d   1       5.356 -11.923  -4.928  0.00  0.00     0.024 H 
ENDBRANCH  28  30
BRANCH  28  34
ATOM     34  C   LIG d   1       3.345 -10.084  -3.038  0.00  0.00    -0.059 C 
ATOM     35  H   LIG d   1       3.822 -10.161  -2.062  0.00  0.00     0.024 H 
ATOM     36  H   LIG d   1       2.815  -9.134  -3.110  0.00  0.00     0.024 H 
ATOM     37  H   LIG d   1       2.639 -10.905  -3.163  0.00  0.00     0.024 H 
ENDBRANCH  28  34
ENDBRANCH   1  28
BRANCH   6  38
ATOM     38  O   LIG d   1       6.280  -8.278  -5.127  0.00  0.00    -0.506 OA
ATOM     39  H   LIG d   1       5.325  -8.257  -5.283  0.00  0.00     0.292 HD
ENDBRANCH   6  38
BRANCH   7  40
ATOM     40  C   LIG d   1      10.621 -10.258  -2.639  0.00  0.00    -0.055 C 
ATOM     41  H   LIG d   1      11.199  -9.612  -3.300  0.00  0.00     0.024 H 
ATOM     42  H   LIG d   1      11.297 -10.796  -1.975  0.00  0.00     0.024 H 
ATOM     43  H   LIG d   1      10.052 -10.972  -3.234  0.00  0.00     0.024 H 
ENDBRANCH   7  40
BRANCH  11  44
ATOM     44  C   LIG d   1      12.013 -10.466   0.193  0.00  0.00    -0.059 C 
ATOM     45  H   LIG d   1      11.748 -11.460   0.553  0.00  0.00     0.024 H 
ATOM     46  H   LIG d   1      12.210 -10.507  -0.878  0.00  0.00     0.024 H 
ATOM     47  H   LIG d   1      12.904 -10.116   0.713  0.00  0.00     0.024 H 
ENDBRANCH  11  44
BRANCH  11  48
ATOM     48  C   LIG d   1      10.496  -9.623   1.961  0.00  0.00    -0.059 C 
ATOM     49  H   LIG d   1       9.985 -10.569   2.137  0.00  0.00     0.024 H 
ATOM     50  H   LIG d   1      11.407  -9.586   2.558  0.00  0.00     0.024 H 
ATOM     51  H   LIG d   1       9.842  -8.798   2.245  0.00  0.00     0.024 H 
ENDBRANCH  11  48
TORSDOF 7
ENDMDL
