MODEL 1
REMARK VINA RESULT:      -6.9      0.000      0.000
REMARK  10 active torsions:
REMARK  status: ('A' for Active; 'I' for Inactive)
REMARK    1  A    between atoms: C_1  and  N_2 
REMARK    2  A    between atoms: C_3  and  C_12 
REMARK    3  A    between atoms: C_5  and  C_7 
REMARK    4  A    between atoms: C_20  and  C_22 
REMARK    5  A    between atoms: C_22  and  N_23 
REMARK    6  A    between atoms: N_23  and  C_24 
REMARK    7  A    between atoms: N_26  and  C_27 
REMARK    8  A    between atoms: C_31  and  C_33 
REMARK    9  A    between atoms: C_33  and  O_35 
REMARK   10  A    between atoms: O_35  and  C_36 
ROOT
ATOM      1  C   LIG d   1       6.739  -5.395  -5.599  0.00  0.00     0.044 C 
ATOM      2  H   LIG d   1       7.489  -5.894  -4.985  0.00  0.00     0.042 H 
ATOM      3  C   LIG d   1       5.508  -6.297  -5.738  0.00  0.00    -0.023 C 
ATOM      4  C   LIG d   1       6.424  -7.337  -7.723  0.00  0.00    -0.031 C 
ATOM      5  C   LIG d   1       7.682  -6.466  -7.642  0.00  0.00    -0.009 C 
ATOM      6  C   LIG d   1       7.313  -5.125  -6.996  0.00  0.00    -0.018 C 
ATOM      7  H   LIG d   1       8.194  -4.484  -6.933  0.00  0.00     0.031 H 
ATOM      8  C   LIG d   1       6.231  -4.451  -7.848  0.00  0.00    -0.004 C 
ATOM      9  C   LIG d   1       5.014  -5.377  -7.923  0.00  0.00    -0.005 C 
ATOM     10  H   LIG d   1       4.818  -5.636  -8.964  0.00  0.00     0.087 H 
ATOM     11  H   LIG d   1       4.636  -5.785  -5.333  0.00  0.00     0.082 H 
ATOM     12  H   LIG d   1       5.673  -7.224  -5.189  0.00  0.00     0.082 H 
ATOM     13  H   LIG d   1       6.218  -7.581  -8.766  0.00  0.00     0.081 H 
ATOM     14  H   LIG d   1       6.581  -8.255  -7.158  0.00  0.00     0.081 H 
ATOM     15  H   LIG d   1       8.071  -6.293  -8.645  0.00  0.00     0.032 H 
ATOM     16  H   LIG d   1       8.437  -6.968  -7.038  0.00  0.00     0.032 H 
ATOM     17  H   LIG d   1       6.615  -4.270  -8.852  0.00  0.00     0.032 H 
ATOM     18  H   LIG d   1       5.941  -3.505  -7.390  0.00  0.00     0.032 H 
ATOM     19  N   LIG d   1       5.262  -6.619  -7.159  0.00  0.00     0.239 N 
ATOM     20  H   LIG d   1       4.433  -7.222  -7.225  0.00  0.00     0.204 HD
ENDROOT
BRANCH   9  21
ATOM     21  C   LIG d   1       3.794  -4.667  -7.335  0.00  0.00     0.054 C 
ATOM     22  H   LIG d   1       4.121  -3.930  -6.600  0.00  0.00     0.052 H 
ATOM     23  H   LIG d   1       3.145  -5.397  -6.853  0.00  0.00     0.052 H 
BRANCH  21  24
ATOM     24  N   LIG d   1       3.058  -3.991  -8.407  0.00  0.00    -0.321 N 
ATOM     25  H   LIG d   1       2.326  -4.445  -8.854  0.00  0.00     0.148 HD
BRANCH  24  26
ATOM     26  C   LIG d   1       3.394  -2.738  -8.770  0.00  0.00     0.135 C 
ATOM     27  S   LIG d   1       3.759  -2.389 -10.406  0.00  0.00    -0.019 SA
ATOM     28  N   LIG d   1       3.445  -1.758  -7.845  0.00  0.00    -0.297 N 
ATOM     29  H   LIG d   1       3.319  -1.970  -6.907  0.00  0.00     0.154 HD
BRANCH  28  30
ATOM     30  C   LIG d   1       3.678  -0.436  -8.238  0.00  0.00     0.033 A 
ATOM     31  C   LIG d   1       4.974   0.051  -8.294  0.00  0.00    -0.026 A 
ATOM     32  C   LIG d   1       5.202   1.371  -8.687  0.00  0.00     0.061 A 
ATOM     33  H   LIG d   1       5.805  -0.588  -8.035  0.00  0.00     0.064 H 
ATOM     34  C   LIG d   1       4.121   2.193  -9.015  0.00  0.00    -0.048 A 
ATOM     35  C   LIG d   1       2.835   1.696  -8.961  0.00  0.00    -0.059 A 
ATOM     36  H   LIG d   1       4.292   3.216  -9.315  0.00  0.00     0.063 H 
ATOM     37  C   LIG d   1       2.610   0.389  -8.572  0.00  0.00    -0.041 A 
ATOM     38  H   LIG d   1       2.001   2.331  -9.219  0.00  0.00     0.062 H 
ATOM     39  H   LIG d   1       1.601   0.006  -8.528  0.00  0.00     0.064 H 
BRANCH  32  40
ATOM     40  C   LIG d   1       6.580   1.900  -8.750  0.00  0.00     0.339 C 
ATOM     41  O   LIG d   1       6.801   2.953  -9.314  0.00  0.00    -0.245 OA
BRANCH  40  42
ATOM     42  O   LIG d   1       7.591   1.215  -8.181  0.00  0.00    -0.464 OA
BRANCH  42  43
ATOM     43  C   LIG d   1       8.061   1.683  -6.890  0.00  0.00     0.082 C 
ATOM     44  H   LIG d   1       8.294   2.746  -6.952  0.00  0.00     0.066 H 
ATOM     45  H   LIG d   1       7.285   1.525  -6.142  0.00  0.00     0.066 H 
ATOM     46  H   LIG d   1       8.957   1.132  -6.607  0.00  0.00     0.066 H 
ENDBRANCH  42  43
ENDBRANCH  40  42
ENDBRANCH  32  40
ENDBRANCH  28  30
ENDBRANCH  24  26
ENDBRANCH  21  24
ENDBRANCH   9  21
BRANCH   1  47
ATOM     47  C   LIG d   1       6.341  -4.093  -4.955  0.00  0.00     0.048 A 
ATOM     48  N   LIG d   1       7.163  -3.061  -4.675  0.00  0.00    -0.271 N 
ATOM     49  N   LIG d   1       6.397  -2.048  -4.083  0.00  0.00    -0.176 NA
ATOM     50  C   LIG d   1       5.157  -2.462  -4.012  0.00  0.00     0.066 A 
ATOM     51  C   LIG d   1       5.094  -3.747  -4.560  0.00  0.00    -0.017 A 
ATOM     52  H   LIG d   1       4.206  -4.355  -4.650  0.00  0.00     0.065 H 
BRANCH  48  53
ATOM     53  C   LIG d   1       8.603  -3.007  -4.942  0.00  0.00     0.030 C 
ATOM     54  H   LIG d   1       8.769  -2.715  -5.978  0.00  0.00     0.047 H 
ATOM     55  H   LIG d   1       9.068  -2.279  -4.278  0.00  0.00     0.047 H 
ATOM     56  H   LIG d   1       9.041  -3.990  -4.766  0.00  0.00     0.047 H 
ENDBRANCH  48  53
BRANCH  50  57
ATOM     57  C   LIG d   1       3.998  -1.684  -3.443  0.00  0.00     0.003 C 
ATOM     58  C   LIG d   1       4.295  -1.287  -1.986  0.00  0.00    -0.045 C 
ATOM     59  C   LIG d   1       4.275   0.255  -1.937  0.00  0.00    -0.052 C 
ATOM     60  H   LIG d   1       3.529  -1.692  -1.325  0.00  0.00     0.027 H 
ATOM     61  H   LIG d   1       5.277  -1.658  -1.691  0.00  0.00     0.027 H 
ATOM     62  C   LIG d   1       3.400   0.662  -3.147  0.00  0.00    -0.052 C 
ATOM     63  H   LIG d   1       3.825   0.600  -1.006  0.00  0.00     0.026 H 
ATOM     64  H   LIG d   1       5.284   0.653  -2.044  0.00  0.00     0.026 H 
ATOM     65  C   LIG d   1       3.808  -0.371  -4.228  0.00  0.00    -0.045 C 
ATOM     66  H   LIG d   1       2.341   0.570  -2.906  0.00  0.00     0.026 H 
ATOM     67  H   LIG d   1       3.634   1.677  -3.470  0.00  0.00     0.026 H 
ATOM     68  H   LIG d   1       4.741  -0.073  -4.707  0.00  0.00     0.027 H 
ATOM     69  H   LIG d   1       3.017  -0.481  -4.970  0.00  0.00     0.027 H 
ATOM     70  H   LIG d   1       3.089  -2.283  -3.489  0.00  0.00     0.036 H 
ENDBRANCH  50  57
ENDBRANCH   1  47
TORSDOF 10
ENDMDL
MODEL 2
REMARK VINA RESULT:      -6.9      2.736      5.648
REMARK  10 active torsions:
REMARK  status: ('A' for Active; 'I' for Inactive)
REMARK    1  A    between atoms: C_1  and  N_2 
REMARK    2  A    between atoms: C_3  and  C_12 
REMARK    3  A    between atoms: C_5  and  C_7 
REMARK    4  A    between atoms: C_20  and  C_22 
REMARK    5  A    between atoms: C_22  and  N_23 
REMARK    6  A    between atoms: N_23  and  C_24 
REMARK    7  A    between atoms: N_26  and  C_27 
REMARK    8  A    between atoms: C_31  and  C_33 
REMARK    9  A    between atoms: C_33  and  O_35 
REMARK   10  A    between atoms: O_35  and  C_36 
ROOT
ATOM      1  C   LIG d   1       5.795  -1.200  -3.136  0.00  0.00     0.044 C 
ATOM      2  H   LIG d   1       6.652  -1.226  -2.461  0.00  0.00     0.042 H 
ATOM      3  C   LIG d   1       5.868   0.057  -4.008  0.00  0.00    -0.023 C 
ATOM      4  C   LIG d   1       4.610   1.331  -2.378  0.00  0.00    -0.031 C 
ATOM      5  C   LIG d   1       4.501   0.111  -1.458  0.00  0.00    -0.009 C 
ATOM      6  C   LIG d   1       4.498  -1.159  -2.318  0.00  0.00    -0.018 C 
ATOM      7  H   LIG d   1       4.414  -2.042  -1.683  0.00  0.00     0.031 H 
ATOM      8  C   LIG d   1       3.311  -1.092  -3.287  0.00  0.00    -0.004 C 
ATOM      9  C   LIG d   1       3.453   0.160  -4.156  0.00  0.00    -0.005 C 
ATOM     10  H   LIG d   1       2.588   0.807  -4.007  0.00  0.00     0.087 H 
ATOM     11  H   LIG d   1       5.913  -0.233  -5.058  0.00  0.00     0.082 H 
ATOM     12  H   LIG d   1       6.761   0.627  -3.750  0.00  0.00     0.082 H 
ATOM     13  H   LIG d   1       3.737   1.968  -2.242  0.00  0.00     0.081 H 
ATOM     14  H   LIG d   1       5.513   1.890  -2.134  0.00  0.00     0.081 H 
ATOM     15  H   LIG d   1       3.574   0.167  -0.887  0.00  0.00     0.032 H 
ATOM     16  H   LIG d   1       5.350   0.089  -0.776  0.00  0.00     0.032 H 
ATOM     17  H   LIG d   1       2.380  -1.041  -2.722  0.00  0.00     0.032 H 
ATOM     18  H   LIG d   1       3.307  -1.978  -3.922  0.00  0.00     0.032 H 
ATOM     19  N   LIG d   1       4.678   0.905  -3.792  0.00  0.00     0.239 N 
ATOM     20  H   LIG d   1       4.751   1.739  -4.388  0.00  0.00     0.204 HD
ENDROOT
BRANCH   9  21
ATOM     21  C   LIG d   1       3.538  -0.247  -5.628  0.00  0.00     0.054 C 
ATOM     22  H   LIG d   1       2.852  -1.074  -5.817  0.00  0.00     0.052 H 
ATOM     23  H   LIG d   1       4.556  -0.559  -5.861  0.00  0.00     0.052 H 
BRANCH  21  24
ATOM     24  N   LIG d   1       3.171   0.893  -6.473  0.00  0.00    -0.321 N 
ATOM     25  H   LIG d   1       3.100   1.780  -6.086  0.00  0.00     0.148 HD
BRANCH  24  26
ATOM     26  C   LIG d   1       2.934   0.710  -7.786  0.00  0.00     0.135 C 
ATOM     27  S   LIG d   1       2.917   2.053  -8.849  0.00  0.00    -0.019 SA
ATOM     28  N   LIG d   1       2.709  -0.530  -8.265  0.00  0.00    -0.297 N 
ATOM     29  H   LIG d   1       2.637  -1.280  -7.654  0.00  0.00     0.154 HD
BRANCH  28  30
ATOM     30  C   LIG d   1       2.581  -0.736  -9.642  0.00  0.00     0.033 A 
ATOM     31  C   LIG d   1       3.699  -0.672 -10.459  0.00  0.00    -0.026 A 
ATOM     32  C   LIG d   1       3.566  -0.879 -11.833  0.00  0.00     0.061 A 
ATOM     33  H   LIG d   1       4.670  -0.462 -10.035  0.00  0.00     0.064 H 
ATOM     34  C   LIG d   1       2.307  -1.143 -12.375  0.00  0.00    -0.048 A 
ATOM     35  C   LIG d   1       1.201  -1.211 -11.553  0.00  0.00    -0.059 A 
ATOM     36  H   LIG d   1       2.199  -1.300 -13.439  0.00  0.00     0.063 H 
ATOM     37  C   LIG d   1       1.333  -1.006 -10.192  0.00  0.00    -0.041 A 
ATOM     38  H   LIG d   1       0.229  -1.419 -11.973  0.00  0.00     0.062 H 
ATOM     39  H   LIG d   1       0.464  -1.056  -9.553  0.00  0.00     0.064 H 
BRANCH  32  40
ATOM     40  C   LIG d   1       4.752  -0.812 -12.712  0.00  0.00     0.339 C 
ATOM     41  O   LIG d   1       5.864  -0.946 -12.241  0.00  0.00    -0.245 OA
BRANCH  40  42
ATOM     42  O   LIG d   1       4.601  -0.602 -14.034  0.00  0.00    -0.464 OA
BRANCH  42  43
ATOM     43  C   LIG d   1       5.779  -0.763 -14.866  0.00  0.00     0.082 C 
ATOM     44  H   LIG d   1       6.406  -1.556 -14.458  0.00  0.00     0.066 H 
ATOM     45  H   LIG d   1       5.475  -1.026 -15.879  0.00  0.00     0.066 H 
ATOM     46  H   LIG d   1       6.341   0.170 -14.885  0.00  0.00     0.066 H 
ENDBRANCH  42  43
ENDBRANCH  40  42
ENDBRANCH  32  40
ENDBRANCH  28  30
ENDBRANCH  24  26
ENDBRANCH  21  24
ENDBRANCH   9  21
BRANCH   1  47
ATOM     47  C   LIG d   1       5.802  -2.425  -4.012  0.00  0.00     0.048 A 
ATOM     48  N   LIG d   1       6.845  -2.878  -4.738  0.00  0.00    -0.271 N 
ATOM     49  N   LIG d   1       6.433  -4.039  -5.406  0.00  0.00    -0.176 NA
ATOM     50  C   LIG d   1       5.184  -4.272  -5.089  0.00  0.00     0.066 A 
ATOM     51  C   LIG d   1       4.764  -3.271  -4.207  0.00  0.00    -0.017 A 
ATOM     52  H   LIG d   1       3.783  -3.188  -3.763  0.00  0.00     0.065 H 
BRANCH  48  53
ATOM     53  C   LIG d   1       8.173  -2.266  -4.815  0.00  0.00     0.030 C 
ATOM     54  H   LIG d   1       8.205  -1.572  -5.654  0.00  0.00     0.047 H 
ATOM     55  H   LIG d   1       8.379  -1.728  -3.889  0.00  0.00     0.047 H 
ATOM     56  H   LIG d   1       8.924  -3.043  -4.957  0.00  0.00     0.047 H 
ENDBRANCH  48  53
BRANCH  50  57
ATOM     57  C   LIG d   1       4.348  -5.423  -5.586  0.00  0.00     0.003 C 
ATOM     58  C   LIG d   1       3.858  -5.140  -7.017  0.00  0.00    -0.045 C 
ATOM     59  C   LIG d   1       4.434  -6.259  -7.909  0.00  0.00    -0.052 C 
ATOM     60  H   LIG d   1       2.770  -5.159  -7.050  0.00  0.00     0.027 H 
ATOM     61  H   LIG d   1       4.225  -4.169  -7.351  0.00  0.00     0.027 H 
ATOM     62  C   LIG d   1       4.695  -7.429  -6.929  0.00  0.00    -0.052 C 
ATOM     63  H   LIG d   1       3.709  -6.551  -8.668  0.00  0.00     0.026 H 
ATOM     64  H   LIG d   1       5.365  -5.935  -8.374  0.00  0.00     0.026 H 
ATOM     65  C   LIG d   1       5.203  -6.704  -5.657  0.00  0.00    -0.045 C 
ATOM     66  H   LIG d   1       3.772  -7.972  -6.722  0.00  0.00     0.026 H 
ATOM     67  H   LIG d   1       5.456  -8.102  -7.324  0.00  0.00     0.026 H 
ATOM     68  H   LIG d   1       6.259  -6.454  -5.758  0.00  0.00     0.027 H 
ATOM     69  H   LIG d   1       5.040  -7.322  -4.774  0.00  0.00     0.027 H 
ATOM     70  H   LIG d   1       3.496  -5.578  -4.924  0.00  0.00     0.036 H 
ENDBRANCH  50  57
ENDBRANCH   1  47
TORSDOF 10
ENDMDL
MODEL 3
REMARK VINA RESULT:      -6.9      3.518      6.979
REMARK  10 active torsions:
REMARK  status: ('A' for Active; 'I' for Inactive)
REMARK    1  A    between atoms: C_1  and  N_2 
REMARK    2  A    between atoms: C_3  and  C_12 
REMARK    3  A    between atoms: C_5  and  C_7 
REMARK    4  A    between atoms: C_20  and  C_22 
REMARK    5  A    between atoms: C_22  and  N_23 
REMARK    6  A    between atoms: N_23  and  C_24 
REMARK    7  A    between atoms: N_26  and  C_27 
REMARK    8  A    between atoms: C_31  and  C_33 
REMARK    9  A    between atoms: C_33  and  O_35 
REMARK   10  A    between atoms: O_35  and  C_36 
ROOT
ATOM      1  C   LIG d   1       4.978   0.631  -8.148  0.00  0.00     0.044 C 
ATOM      2  H   LIG d   1       5.449   1.610  -8.057  0.00  0.00     0.042 H 
ATOM      3  C   LIG d   1       5.269   0.048  -9.534  0.00  0.00    -0.023 C 
ATOM      4  C   LIG d   1       3.279   1.080 -10.449  0.00  0.00    -0.031 C 
ATOM      5  C   LIG d   1       2.930   1.693  -9.089  0.00  0.00    -0.009 C 
ATOM      6  C   LIG d   1       3.459   0.774  -7.982  0.00  0.00    -0.018 C 
ATOM      7  H   LIG d   1       3.216   1.188  -7.003  0.00  0.00     0.031 H 
ATOM      8  C   LIG d   1       2.816  -0.609  -8.143  0.00  0.00    -0.004 C 
ATOM      9  C   LIG d   1       3.169  -1.158  -9.529  0.00  0.00    -0.005 C 
ATOM     10  H   LIG d   1       2.254  -1.336 -10.094  0.00  0.00     0.087 H 
ATOM     11  H   LIG d   1       5.803  -0.896  -9.426  0.00  0.00     0.082 H 
ATOM     12  H   LIG d   1       5.882   0.749 -10.101  0.00  0.00     0.082 H 
ATOM     13  H   LIG d   1       2.363   0.886 -11.007  0.00  0.00     0.081 H 
ATOM     14  H   LIG d   1       3.908   1.772 -11.009  0.00  0.00     0.081 H 
ATOM     15  H   LIG d   1       1.848   1.787  -8.999  0.00  0.00     0.032 H 
ATOM     16  H   LIG d   1       3.391   2.676  -9.001  0.00  0.00     0.032 H 
ATOM     17  H   LIG d   1       1.734  -0.523  -8.049  0.00  0.00     0.032 H 
ATOM     18  H   LIG d   1       3.199  -1.282  -7.376  0.00  0.00     0.032 H 
ATOM     19  N   LIG d   1       4.010  -0.192 -10.268  0.00  0.00     0.239 N 
ATOM     20  H   LIG d   1       4.232  -0.583 -11.192  0.00  0.00     0.204 HD
ENDROOT
BRANCH   9  21
ATOM     21  C   LIG d   1       3.938  -2.472  -9.376  0.00  0.00     0.054 C 
ATOM     22  H   LIG d   1       5.007  -2.281  -9.477  0.00  0.00     0.052 H 
ATOM     23  H   LIG d   1       3.620  -3.171 -10.149  0.00  0.00     0.052 H 
BRANCH  21  24
ATOM     24  N   LIG d   1       3.669  -3.046  -8.055  0.00  0.00    -0.321 N 
ATOM     25  H   LIG d   1       3.025  -2.623  -7.465  0.00  0.00     0.148 HD
BRANCH  24  26
ATOM     26  C   LIG d   1       4.313  -4.162  -7.661  0.00  0.00     0.135 C 
ATOM     27  S   LIG d   1       4.893  -5.273  -8.828  0.00  0.00    -0.019 SA
ATOM     28  N   LIG d   1       4.500  -4.404  -6.349  0.00  0.00    -0.297 N 
ATOM     29  H   LIG d   1       4.101  -3.819  -5.685  0.00  0.00     0.154 HD
BRANCH  28  30
ATOM     30  C   LIG d   1       5.270  -5.499  -5.942  0.00  0.00     0.033 A 
ATOM     31  C   LIG d   1       4.662  -6.722  -5.704  0.00  0.00    -0.026 A 
ATOM     32  C   LIG d   1       5.435  -7.812  -5.299  0.00  0.00     0.061 A 
ATOM     33  H   LIG d   1       3.596  -6.832  -5.831  0.00  0.00     0.064 H 
ATOM     34  C   LIG d   1       6.812  -7.660  -5.130  0.00  0.00    -0.048 A 
ATOM     35  C   LIG d   1       7.408  -6.440  -5.375  0.00  0.00    -0.059 A 
ATOM     36  H   LIG d   1       7.413  -8.500  -4.812  0.00  0.00     0.063 H 
ATOM     37  C   LIG d   1       6.643  -5.362  -5.777  0.00  0.00    -0.041 A 
ATOM     38  H   LIG d   1       8.474  -6.326  -5.248  0.00  0.00     0.062 H 
ATOM     39  H   LIG d   1       7.114  -4.407  -5.963  0.00  0.00     0.064 H 
BRANCH  32  40
ATOM     40  C   LIG d   1       4.796  -9.119  -5.042  0.00  0.00     0.339 C 
ATOM     41  O   LIG d   1       5.154 -10.101  -5.662  0.00  0.00    -0.245 OA
BRANCH  40  42
ATOM     42  O   LIG d   1       3.819  -9.223  -4.122  0.00  0.00    -0.464 OA
BRANCH  42  43
ATOM     43  C   LIG d   1       3.894 -10.344  -3.202  0.00  0.00     0.082 C 
ATOM     44  H   LIG d   1       3.349 -10.103  -2.290  0.00  0.00     0.066 H 
ATOM     45  H   LIG d   1       3.453 -11.226  -3.667  0.00  0.00     0.066 H 
ATOM     46  H   LIG d   1       4.937 -10.545  -2.958  0.00  0.00     0.066 H 
ENDBRANCH  42  43
ENDBRANCH  40  42
ENDBRANCH  32  40
ENDBRANCH  28  30
ENDBRANCH  24  26
ENDBRANCH  21  24
ENDBRANCH   9  21
BRANCH   1  47
ATOM     47  C   LIG d   1       5.517  -0.293  -7.088  0.00  0.00     0.048 A 
ATOM     48  N   LIG d   1       6.547  -1.153  -7.230  0.00  0.00    -0.271 N 
ATOM     49  N   LIG d   1       6.725  -1.819  -6.010  0.00  0.00    -0.176 NA
ATOM     50  C   LIG d   1       5.830  -1.372  -5.166  0.00  0.00     0.066 A 
ATOM     51  C   LIG d   1       5.059  -0.405  -5.819  0.00  0.00    -0.017 A 
ATOM     52  H   LIG d   1       4.241   0.152  -5.387  0.00  0.00     0.065 H 
BRANCH  48  53
ATOM     53  C   LIG d   1       7.340  -1.354  -8.446  0.00  0.00     0.030 C 
ATOM     54  H   LIG d   1       8.399  -1.260  -8.208  0.00  0.00     0.047 H 
ATOM     55  H   LIG d   1       7.144  -2.349  -8.846  0.00  0.00     0.047 H 
ATOM     56  H   LIG d   1       7.065  -0.604  -9.187  0.00  0.00     0.047 H 
ENDBRANCH  48  53
BRANCH  50  57
ATOM     57  C   LIG d   1       5.665  -1.819  -3.737  0.00  0.00     0.003 C 
ATOM     58  C   LIG d   1       5.695  -0.601  -2.797  0.00  0.00    -0.045 C 
ATOM     59  C   LIG d   1       4.334  -0.570  -2.071  0.00  0.00    -0.052 C 
ATOM     60  H   LIG d   1       6.502  -0.708  -2.073  0.00  0.00     0.027 H 
ATOM     61  H   LIG d   1       5.832   0.313  -3.375  0.00  0.00     0.027 H 
ATOM     62  C   LIG d   1       3.836  -2.034  -2.137  0.00  0.00    -0.052 C 
ATOM     63  H   LIG d   1       4.463  -0.258  -1.035  0.00  0.00     0.026 H 
ATOM     64  H   LIG d   1       3.641   0.094  -2.587  0.00  0.00     0.026 H 
ATOM     65  C   LIG d   1       4.287  -2.486  -3.549  0.00  0.00    -0.045 C 
ATOM     66  H   LIG d   1       4.313  -2.641  -1.367  0.00  0.00     0.026 H 
ATOM     67  H   LIG d   1       2.750  -2.078  -2.043  0.00  0.00     0.026 H 
ATOM     68  H   LIG d   1       3.585  -2.133  -4.305  0.00  0.00     0.027 H 
ATOM     69  H   LIG d   1       4.379  -3.572  -3.592  0.00  0.00     0.027 H 
ATOM     70  H   LIG d   1       6.458  -2.517  -3.470  0.00  0.00     0.036 H 
ENDBRANCH  50  57
ENDBRANCH   1  47
TORSDOF 10
ENDMDL
MODEL 4
REMARK VINA RESULT:      -6.8      3.241      6.213
REMARK  10 active torsions:
REMARK  status: ('A' for Active; 'I' for Inactive)
REMARK    1  A    between atoms: C_1  and  N_2 
REMARK    2  A    between atoms: C_3  and  C_12 
REMARK    3  A    between atoms: C_5  and  C_7 
REMARK    4  A    between atoms: C_20  and  C_22 
REMARK    5  A    between atoms: C_22  and  N_23 
REMARK    6  A    between atoms: N_23  and  C_24 
REMARK    7  A    between atoms: N_26  and  C_27 
REMARK    8  A    between atoms: C_31  and  C_33 
REMARK    9  A    between atoms: C_33  and  O_35 
REMARK   10  A    between atoms: O_35  and  C_36 
ROOT
ATOM      1  C   LIG d   1       5.786  -1.194  -3.153  0.00  0.00     0.044 C 
ATOM      2  H   LIG d   1       6.638  -1.211  -2.473  0.00  0.00     0.042 H 
ATOM      3  C   LIG d   1       5.860   0.054  -4.038  0.00  0.00    -0.023 C 
ATOM      4  C   LIG d   1       4.590   1.341  -2.427  0.00  0.00    -0.031 C 
ATOM      5  C   LIG d   1       4.478   0.130  -1.495  0.00  0.00    -0.009 C 
ATOM      6  C   LIG d   1       4.484  -1.148  -2.342  0.00  0.00    -0.018 C 
ATOM      7  H   LIG d   1       4.399  -2.025  -1.699  0.00  0.00     0.031 H 
ATOM      8  C   LIG d   1       3.302  -1.094  -3.318  0.00  0.00    -0.004 C 
ATOM      9  C   LIG d   1       3.446   0.150  -4.199  0.00  0.00    -0.005 C 
ATOM     10  H   LIG d   1       2.578   0.796  -4.061  0.00  0.00     0.087 H 
ATOM     11  H   LIG d   1       5.911  -0.246  -5.084  0.00  0.00     0.082 H 
ATOM     12  H   LIG d   1       6.750   0.629  -3.780  0.00  0.00     0.082 H 
ATOM     13  H   LIG d   1       3.714   1.978  -2.302  0.00  0.00     0.081 H 
ATOM     14  H   LIG d   1       5.489   1.906  -2.184  0.00  0.00     0.081 H 
ATOM     15  H   LIG d   1       3.549   0.190  -0.930  0.00  0.00     0.032 H 
ATOM     16  H   LIG d   1       5.324   0.118  -0.808  0.00  0.00     0.032 H 
ATOM     17  H   LIG d   1       2.368  -1.040  -2.759  0.00  0.00     0.032 H 
ATOM     18  H   LIG d   1       3.303  -1.987  -3.944  0.00  0.00     0.032 H 
ATOM     19  N   LIG d   1       4.667   0.901  -3.837  0.00  0.00     0.239 N 
ATOM     20  H   LIG d   1       4.740   1.729  -4.440  0.00  0.00     0.204 HD
ENDROOT
BRANCH   9  21
ATOM     21  C   LIG d   1       3.540  -0.272  -5.667  0.00  0.00     0.054 C 
ATOM     22  H   LIG d   1       2.887  -1.128  -5.842  0.00  0.00     0.052 H 
ATOM     23  H   LIG d   1       4.568  -0.545  -5.901  0.00  0.00     0.052 H 
BRANCH  21  24
ATOM     24  N   LIG d   1       3.122   0.841  -6.524  0.00  0.00    -0.321 N 
ATOM     25  H   LIG d   1       2.958   1.716  -6.136  0.00  0.00     0.148 HD
BRANCH  24  26
ATOM     26  C   LIG d   1       2.968   0.652  -7.848  0.00  0.00     0.135 C 
ATOM     27  S   LIG d   1       2.855   1.999  -8.899  0.00  0.00    -0.019 SA
ATOM     28  N   LIG d   1       2.902  -0.598  -8.348  0.00  0.00    -0.297 N 
ATOM     29  H   LIG d   1       2.884  -1.360  -7.747  0.00  0.00     0.154 HD
BRANCH  28  30
ATOM     30  C   LIG d   1       2.862  -0.799  -9.731  0.00  0.00     0.033 A 
ATOM     31  C   LIG d   1       1.714  -1.300 -10.325  0.00  0.00    -0.026 A 
ATOM     32  C   LIG d   1       1.677  -1.497 -11.706  0.00  0.00     0.061 A 
ATOM     33  H   LIG d   1       0.850  -1.537  -9.721  0.00  0.00     0.064 H 
ATOM     34  C   LIG d   1       2.800  -1.195 -12.479  0.00  0.00    -0.048 A 
ATOM     35  C   LIG d   1       3.936  -0.691 -11.879  0.00  0.00    -0.059 A 
ATOM     36  H   LIG d   1       2.778  -1.350 -13.548  0.00  0.00     0.063 H 
ATOM     37  C   LIG d   1       3.971  -0.495 -10.511  0.00  0.00    -0.041 A 
ATOM     38  H   LIG d   1       4.802  -0.453 -12.479  0.00  0.00     0.062 H 
ATOM     39  H   LIG d   1       4.864  -0.104 -10.046  0.00  0.00     0.064 H 
BRANCH  32  40
ATOM     40  C   LIG d   1       0.458  -2.031 -12.348  0.00  0.00     0.339 C 
ATOM     41  O   LIG d   1      -0.413  -1.272 -12.722  0.00  0.00    -0.245 OA
BRANCH  40  42
ATOM     42  O   LIG d   1       0.313  -3.359 -12.518  0.00  0.00    -0.464 OA
BRANCH  42  43
ATOM     43  C   LIG d   1      -1.035  -3.892 -12.431  0.00  0.00     0.082 C 
ATOM     44  H   LIG d   1      -1.396  -3.801 -11.407  0.00  0.00     0.066 H 
ATOM     45  H   LIG d   1      -1.690  -3.332 -13.098  0.00  0.00     0.066 H 
ATOM     46  H   LIG d   1      -1.031  -4.942 -12.723  0.00  0.00     0.066 H 
ENDBRANCH  42  43
ENDBRANCH  40  42
ENDBRANCH  32  40
ENDBRANCH  28  30
ENDBRANCH  24  26
ENDBRANCH  21  24
ENDBRANCH   9  21
BRANCH   1  47
ATOM     47  C   LIG d   1       5.800  -2.427  -4.016  0.00  0.00     0.048 A 
ATOM     48  N   LIG d   1       6.851  -2.890  -4.725  0.00  0.00    -0.271 N 
ATOM     49  N   LIG d   1       6.445  -4.057  -5.386  0.00  0.00    -0.176 NA
ATOM     50  C   LIG d   1       5.192  -4.284  -5.083  0.00  0.00     0.066 A 
ATOM     51  C   LIG d   1       4.763  -3.273  -4.216  0.00  0.00    -0.017 A 
ATOM     52  H   LIG d   1       3.777  -3.184  -3.784  0.00  0.00     0.065 H 
BRANCH  48  53
ATOM     53  C   LIG d   1       8.182  -2.281  -4.792  0.00  0.00     0.030 C 
ATOM     54  H   LIG d   1       8.126  -1.349  -5.353  0.00  0.00     0.047 H 
ATOM     55  H   LIG d   1       8.540  -2.078  -3.782  0.00  0.00     0.047 H 
ATOM     56  H   LIG d   1       8.870  -2.965  -5.290  0.00  0.00     0.047 H 
ENDBRANCH  48  53
BRANCH  50  57
ATOM     57  C   LIG d   1       4.359  -5.438  -5.578  0.00  0.00     0.003 C 
ATOM     58  C   LIG d   1       3.866  -5.157  -7.008  0.00  0.00    -0.045 C 
ATOM     59  C   LIG d   1       4.445  -6.273  -7.901  0.00  0.00    -0.052 C 
ATOM     60  H   LIG d   1       2.777  -5.180  -7.040  0.00  0.00     0.027 H 
ATOM     61  H   LIG d   1       4.229  -4.185  -7.343  0.00  0.00     0.027 H 
ATOM     62  C   LIG d   1       4.711  -7.443  -6.922  0.00  0.00    -0.052 C 
ATOM     63  H   LIG d   1       3.720  -6.568  -8.660  0.00  0.00     0.026 H 
ATOM     64  H   LIG d   1       5.374  -5.946  -8.368  0.00  0.00     0.026 H 
ATOM     65  C   LIG d   1       5.219  -6.716  -5.651  0.00  0.00    -0.045 C 
ATOM     66  H   LIG d   1       3.792  -7.989  -6.713  0.00  0.00     0.026 H 
ATOM     67  H   LIG d   1       5.475  -8.113  -7.319  0.00  0.00     0.026 H 
ATOM     68  H   LIG d   1       6.274  -6.462  -5.754  0.00  0.00     0.027 H 
ATOM     69  H   LIG d   1       5.060  -7.335  -4.768  0.00  0.00     0.027 H 
ATOM     70  H   LIG d   1       3.509  -5.597  -4.915  0.00  0.00     0.036 H 
ENDBRANCH  50  57
ENDBRANCH   1  47
TORSDOF 10
ENDMDL
MODEL 5
REMARK VINA RESULT:      -6.5      3.738      6.874
REMARK  10 active torsions:
REMARK  status: ('A' for Active; 'I' for Inactive)
REMARK    1  A    between atoms: C_1  and  N_2 
REMARK    2  A    between atoms: C_3  and  C_12 
REMARK    3  A    between atoms: C_5  and  C_7 
REMARK    4  A    between atoms: C_20  and  C_22 
REMARK    5  A    between atoms: C_22  and  N_23 
REMARK    6  A    between atoms: N_23  and  C_24 
REMARK    7  A    between atoms: N_26  and  C_27 
REMARK    8  A    between atoms: C_31  and  C_33 
REMARK    9  A    between atoms: C_33  and  O_35 
REMARK   10  A    between atoms: O_35  and  C_36 
ROOT
ATOM      1  C   LIG d   1       8.453   0.129  -6.176  0.00  0.00     0.044 C 
ATOM      2  H   LIG d   1       9.503   0.316  -5.950  0.00  0.00     0.042 H 
ATOM      3  C   LIG d   1       8.256  -1.353  -6.509  0.00  0.00    -0.023 C 
ATOM      4  C   LIG d   1       8.676  -0.939  -8.857  0.00  0.00    -0.031 C 
ATOM      5  C   LIG d   1       8.886   0.555  -8.592  0.00  0.00    -0.009 C 
ATOM      6  C   LIG d   1       8.031   0.969  -7.388  0.00  0.00    -0.018 C 
ATOM      7  H   LIG d   1       8.159   2.032  -7.184  0.00  0.00     0.031 H 
ATOM      8  C   LIG d   1       6.561   0.667  -7.704  0.00  0.00    -0.004 C 
ATOM      9  C   LIG d   1       6.416  -0.830  -7.994  0.00  0.00    -0.005 C 
ATOM     10  H   LIG d   1       6.032  -0.969  -9.005  0.00  0.00     0.087 H 
ATOM     11  H   LIG d   1       7.552  -1.793  -5.803  0.00  0.00     0.082 H 
ATOM     12  H   LIG d   1       9.213  -1.871  -6.440  0.00  0.00     0.082 H 
ATOM     13  H   LIG d   1       8.276  -1.077  -9.862  0.00  0.00     0.081 H 
ATOM     14  H   LIG d   1       9.629  -1.461  -8.769  0.00  0.00     0.081 H 
ATOM     15  H   LIG d   1       8.582   1.127  -9.469  0.00  0.00     0.032 H 
ATOM     16  H   LIG d   1       9.937   0.745  -8.377  0.00  0.00     0.032 H 
ATOM     17  H   LIG d   1       6.249   1.239  -8.577  0.00  0.00     0.032 H 
ATOM     18  H   LIG d   1       5.940   0.934  -6.849  0.00  0.00     0.032 H 
ATOM     19  N   LIG d   1       7.725  -1.508  -7.879  0.00  0.00     0.239 N 
ATOM     20  H   LIG d   1       7.601  -2.508  -8.078  0.00  0.00     0.204 HD
ENDROOT
BRANCH   9  21
ATOM     21  C   LIG d   1       5.445  -1.452  -6.989  0.00  0.00     0.054 C 
ATOM     22  H   LIG d   1       4.684  -0.720  -6.716  0.00  0.00     0.052 H 
ATOM     23  H   LIG d   1       5.991  -1.759  -6.097  0.00  0.00     0.052 H 
BRANCH  21  24
ATOM     24  N   LIG d   1       4.799  -2.622  -7.593  0.00  0.00    -0.321 N 
ATOM     25  H   LIG d   1       4.058  -2.503  -8.207  0.00  0.00     0.148 HD
BRANCH  24  26
ATOM     26  C   LIG d   1       5.237  -3.861  -7.296  0.00  0.00     0.135 C 
ATOM     27  S   LIG d   1       5.851  -4.871  -8.535  0.00  0.00    -0.019 SA
ATOM     28  N   LIG d   1       5.191  -4.307  -6.025  0.00  0.00    -0.297 N 
ATOM     29  H   LIG d   1       4.768  -3.768  -5.338  0.00  0.00     0.154 HD
BRANCH  28  30
ATOM     30  C   LIG d   1       5.752  -5.545  -5.697  0.00  0.00     0.033 A 
ATOM     31  C   LIG d   1       4.944  -6.667  -5.595  0.00  0.00    -0.026 A 
ATOM     32  C   LIG d   1       5.509  -7.900  -5.267  0.00  0.00     0.061 A 
ATOM     33  H   LIG d   1       3.881  -6.587  -5.768  0.00  0.00     0.064 H 
ATOM     34  C   LIG d   1       6.883  -7.994  -5.038  0.00  0.00    -0.048 A 
ATOM     35  C   LIG d   1       7.679  -6.873  -5.147  0.00  0.00    -0.059 A 
ATOM     36  H   LIG d   1       7.324  -8.946  -4.780  0.00  0.00     0.063 H 
ATOM     37  C   LIG d   1       7.120  -5.652  -5.472  0.00  0.00    -0.041 A 
ATOM     38  H   LIG d   1       8.742  -6.948  -4.974  0.00  0.00     0.062 H 
ATOM     39  H   LIG d   1       7.747  -4.776  -5.553  0.00  0.00     0.064 H 
BRANCH  32  40
ATOM     40  C   LIG d   1       4.655  -9.101  -5.156  0.00  0.00     0.339 C 
ATOM     41  O   LIG d   1       4.710  -9.965  -6.009  0.00  0.00    -0.245 OA
BRANCH  40  42
ATOM     42  O   LIG d   1       3.817  -9.238  -4.111  0.00  0.00    -0.464 OA
BRANCH  42  43
ATOM     43  C   LIG d   1       4.120 -10.289  -3.156  0.00  0.00     0.082 C 
ATOM     44  H   LIG d   1       3.378 -11.083  -3.243  0.00  0.00     0.066 H 
ATOM     45  H   LIG d   1       5.110 -10.693  -3.362  0.00  0.00     0.066 H 
ATOM     46  H   LIG d   1       4.096  -9.879  -2.146  0.00  0.00     0.066 H 
ENDBRANCH  42  43
ENDBRANCH  40  42
ENDBRANCH  32  40
ENDBRANCH  28  30
ENDBRANCH  24  26
ENDBRANCH  21  24
ENDBRANCH   9  21
BRANCH   1  47
ATOM     47  C   LIG d   1       7.606   0.496  -4.986  0.00  0.00     0.048 A 
ATOM     48  N   LIG d   1       7.608   1.683  -4.344  0.00  0.00    -0.271 N 
ATOM     49  N   LIG d   1       6.677   1.609  -3.299  0.00  0.00    -0.176 NA
ATOM     50  C   LIG d   1       6.136   0.417  -3.316  0.00  0.00     0.066 A 
ATOM     51  C   LIG d   1       6.701  -0.303  -4.375  0.00  0.00    -0.017 A 
ATOM     52  H   LIG d   1       6.458  -1.318  -4.652  0.00  0.00     0.065 H 
BRANCH  48  53
ATOM     53  C   LIG d   1       8.437   2.843  -4.679  0.00  0.00     0.030 C 
ATOM     54  H   LIG d   1       8.053   3.724  -4.164  0.00  0.00     0.047 H 
ATOM     55  H   LIG d   1       9.464   2.658  -4.367  0.00  0.00     0.047 H 
ATOM     56  H   LIG d   1       8.409   3.011  -5.756  0.00  0.00     0.047 H 
ENDBRANCH  48  53
BRANCH  50  57
ATOM     57  C   LIG d   1       5.083  -0.088  -2.364  0.00  0.00     0.003 C 
ATOM     58  C   LIG d   1       3.712   0.505  -2.731  0.00  0.00    -0.045 C 
ATOM     59  C   LIG d   1       2.792  -0.686  -3.069  0.00  0.00    -0.052 C 
ATOM     60  H   LIG d   1       3.307   1.062  -1.886  0.00  0.00     0.027 H 
ATOM     61  H   LIG d   1       3.809   1.160  -3.597  0.00  0.00     0.027 H 
ATOM     62  C   LIG d   1       3.431  -1.882  -2.323  0.00  0.00    -0.052 C 
ATOM     63  H   LIG d   1       1.782  -0.503  -2.702  0.00  0.00     0.026 H 
ATOM     64  H   LIG d   1       2.781  -0.867  -4.143  0.00  0.00     0.026 H 
ATOM     65  C   LIG d   1       4.949  -1.620  -2.491  0.00  0.00    -0.045 C 
ATOM     66  H   LIG d   1       3.152  -1.874  -1.269  0.00  0.00     0.026 H 
ATOM     67  H   LIG d   1       3.146  -2.826  -2.789  0.00  0.00     0.026 H 
ATOM     68  H   LIG d   1       5.287  -1.953  -3.472  0.00  0.00     0.027 H 
ATOM     69  H   LIG d   1       5.513  -2.119  -1.703  0.00  0.00     0.027 H 
ATOM     70  H   LIG d   1       5.345   0.181  -1.341  0.00  0.00     0.036 H 
ENDBRANCH  50  57
ENDBRANCH   1  47
TORSDOF 10
ENDMDL
MODEL 6
REMARK VINA RESULT:      -6.4      4.368      6.792
REMARK  10 active torsions:
REMARK  status: ('A' for Active; 'I' for Inactive)
REMARK    1  A    between atoms: C_1  and  N_2 
REMARK    2  A    between atoms: C_3  and  C_12 
REMARK    3  A    between atoms: C_5  and  C_7 
REMARK    4  A    between atoms: C_20  and  C_22 
REMARK    5  A    between atoms: C_22  and  N_23 
REMARK    6  A    between atoms: N_23  and  C_24 
REMARK    7  A    between atoms: N_26  and  C_27 
REMARK    8  A    between atoms: C_31  and  C_33 
REMARK    9  A    between atoms: C_33  and  O_35 
REMARK   10  A    between atoms: O_35  and  C_36 
ROOT
ATOM      1  C   LIG d   1       4.664  -1.237  -8.150  0.00  0.00     0.044 C 
ATOM      2  H   LIG d   1       3.926  -1.629  -8.850  0.00  0.00     0.042 H 
ATOM      3  C   LIG d   1       5.625  -0.300  -8.887  0.00  0.00    -0.023 C 
ATOM      4  C   LIG d   1       7.110  -2.139  -9.408  0.00  0.00    -0.031 C 
ATOM      5  C   LIG d   1       6.193  -3.130  -8.685  0.00  0.00    -0.009 C 
ATOM      6  C   LIG d   1       5.470  -2.397  -7.550  0.00  0.00    -0.018 C 
ATOM      7  H   LIG d   1       4.814  -3.086  -7.016  0.00  0.00     0.031 H 
ATOM      8  C   LIG d   1       6.520  -1.820  -6.592  0.00  0.00    -0.004 C 
ATOM      9  C   LIG d   1       7.427  -0.865  -7.372  0.00  0.00    -0.005 C 
ATOM     10  H   LIG d   1       8.457  -1.219  -7.321  0.00  0.00     0.087 H 
ATOM     11  H   LIG d   1       5.574   0.694  -8.444  0.00  0.00     0.082 H 
ATOM     12  H   LIG d   1       5.342  -0.244  -9.939  0.00  0.00     0.082 H 
ATOM     13  H   LIG d   1       8.142  -2.484  -9.342  0.00  0.00     0.081 H 
ATOM     14  H   LIG d   1       6.816  -2.068 -10.455  0.00  0.00     0.081 H 
ATOM     15  H   LIG d   1       6.789  -3.945  -8.273  0.00  0.00     0.032 H 
ATOM     16  H   LIG d   1       5.462  -3.531  -9.387  0.00  0.00     0.032 H 
ATOM     17  H   LIG d   1       7.116  -2.629  -6.172  0.00  0.00     0.032 H 
ATOM     18  H   LIG d   1       6.022  -1.275  -5.789  0.00  0.00     0.032 H 
ATOM     19  N   LIG d   1       7.011  -0.800  -8.790  0.00  0.00     0.239 N 
ATOM     20  H   LIG d   1       7.634  -0.155  -9.291  0.00  0.00     0.204 HD
ENDROOT
BRANCH   9  21
ATOM     21  C   LIG d   1       7.338   0.536  -6.764  0.00  0.00     0.054 C 
ATOM     22  H   LIG d   1       6.292   0.831  -6.682  0.00  0.00     0.052 H 
ATOM     23  H   LIG d   1       7.867   1.243  -7.401  0.00  0.00     0.052 H 
BRANCH  21  24
ATOM     24  N   LIG d   1       7.948   0.529  -5.431  0.00  0.00    -0.321 N 
ATOM     25  H   LIG d   1       7.683  -0.141  -4.780  0.00  0.00     0.148 HD
BRANCH  24  26
ATOM     26  C   LIG d   1       8.876   1.450  -5.109  0.00  0.00     0.135 C 
ATOM     27  S   LIG d   1       9.295   2.672  -6.234  0.00  0.00    -0.019 SA
ATOM     28  N   LIG d   1       9.476   1.411  -3.903  0.00  0.00    -0.297 N 
ATOM     29  H   LIG d   1       9.300   0.674  -3.297  0.00  0.00     0.154 HD
BRANCH  28  30
ATOM     30  C   LIG d   1      10.351   2.434  -3.522  0.00  0.00     0.033 A 
ATOM     31  C   LIG d   1       9.862   3.559  -2.876  0.00  0.00    -0.026 A 
ATOM     32  C   LIG d   1      10.740   4.577  -2.498  0.00  0.00     0.061 A 
ATOM     33  H   LIG d   1       8.807   3.648  -2.666  0.00  0.00     0.064 H 
ATOM     34  C   LIG d   1      12.102   4.457  -2.779  0.00  0.00    -0.048 A 
ATOM     35  C   LIG d   1      12.579   3.330  -3.418  0.00  0.00    -0.059 A 
ATOM     36  H   LIG d   1      12.784   5.244  -2.492  0.00  0.00     0.063 H 
ATOM     37  C   LIG d   1      11.710   2.323  -3.791  0.00  0.00    -0.041 A 
ATOM     38  H   LIG d   1      13.634   3.238  -3.630  0.00  0.00     0.062 H 
ATOM     39  H   LIG d   1      12.088   1.445  -4.295  0.00  0.00     0.064 H 
BRANCH  32  40
ATOM     40  C   LIG d   1      10.228   5.779  -1.810  0.00  0.00     0.339 C 
ATOM     41  O   LIG d   1       9.462   6.528  -2.384  0.00  0.00    -0.245 OA
BRANCH  40  42
ATOM     42  O   LIG d   1      10.610   6.047  -0.546  0.00  0.00    -0.464 OA
BRANCH  42  43
ATOM     43  C   LIG d   1      10.564   7.435  -0.123  0.00  0.00     0.082 C 
ATOM     44  H   LIG d   1      10.576   7.483   0.966  0.00  0.00     0.066 H 
ATOM     45  H   LIG d   1      11.430   7.965  -0.519  0.00  0.00     0.066 H 
ATOM     46  H   LIG d   1       9.652   7.899  -0.496  0.00  0.00     0.066 H 
ENDBRANCH  42  43
ENDBRANCH  40  42
ENDBRANCH  32  40
ENDBRANCH  28  30
ENDBRANCH  24  26
ENDBRANCH  21  24
ENDBRANCH   9  21
BRANCH   1  47
ATOM     47  C   LIG d   1       3.968  -0.483  -7.048  0.00  0.00     0.048 A 
ATOM     48  N   LIG d   1       3.158   0.585  -7.204  0.00  0.00    -0.271 N 
ATOM     49  N   LIG d   1       2.719   0.983  -5.934  0.00  0.00    -0.176 NA
ATOM     50  C   LIG d   1       3.250   0.179  -5.048  0.00  0.00     0.066 A 
ATOM     51  C   LIG d   1       4.038  -0.758  -5.725  0.00  0.00    -0.017 A 
ATOM     52  H   LIG d   1       4.604  -1.558  -5.271  0.00  0.00     0.065 H 
BRANCH  48  53
ATOM     53  C   LIG d   1       2.800   1.218  -8.476  0.00  0.00     0.030 C 
ATOM     54  H   LIG d   1       3.706   1.434  -9.041  0.00  0.00     0.047 H 
ATOM     55  H   LIG d   1       2.164   0.544  -9.050  0.00  0.00     0.047 H 
ATOM     56  H   LIG d   1       2.263   2.146  -8.281  0.00  0.00     0.047 H 
ENDBRANCH  48  53
BRANCH  50  57
ATOM     57  C   LIG d   1       3.042   0.248  -3.557  0.00  0.00     0.003 C 
ATOM     58  C   LIG d   1       3.179  -1.155  -2.940  0.00  0.00    -0.045 C 
ATOM     59  C   LIG d   1       4.353  -1.085  -1.942  0.00  0.00    -0.052 C 
ATOM     60  H   LIG d   1       2.261  -1.424  -2.418  0.00  0.00     0.027 H 
ATOM     61  H   LIG d   1       3.393  -1.886  -3.720  0.00  0.00     0.027 H 
ATOM     62  C   LIG d   1       4.445   0.414  -1.568  0.00  0.00    -0.052 C 
ATOM     63  H   LIG d   1       4.138  -1.686  -1.058  0.00  0.00     0.026 H 
ATOM     64  H   LIG d   1       5.276  -1.419  -2.415  0.00  0.00     0.026 H 
ATOM     65  C   LIG d   1       4.138   1.122  -2.912  0.00  0.00    -0.045 C 
ATOM     66  H   LIG d   1       3.699   0.672  -0.817  0.00  0.00     0.026 H 
ATOM     67  H   LIG d   1       5.447   0.664  -1.217  0.00  0.00     0.026 H 
ATOM     68  H   LIG d   1       5.028   1.146  -3.542  0.00  0.00     0.027 H 
ATOM     69  H   LIG d   1       3.767   2.132  -2.736  0.00  0.00     0.027 H 
ATOM     70  H   LIG d   1       2.058   0.659  -3.335  0.00  0.00     0.036 H 
ENDBRANCH  50  57
ENDBRANCH   1  47
TORSDOF 10
ENDMDL
MODEL 7
REMARK VINA RESULT:      -6.3      7.468     11.615
REMARK  10 active torsions:
REMARK  status: ('A' for Active; 'I' for Inactive)
REMARK    1  A    between atoms: C_1  and  N_2 
REMARK    2  A    between atoms: C_3  and  C_12 
REMARK    3  A    between atoms: C_5  and  C_7 
REMARK    4  A    between atoms: C_20  and  C_22 
REMARK    5  A    between atoms: C_22  and  N_23 
REMARK    6  A    between atoms: N_23  and  C_24 
REMARK    7  A    between atoms: N_26  and  C_27 
REMARK    8  A    between atoms: C_31  and  C_33 
REMARK    9  A    between atoms: C_33  and  O_35 
REMARK   10  A    between atoms: O_35  and  C_36 
ROOT
ATOM      1  C   LIG d   1      10.079   7.458  -0.964  0.00  0.00     0.044 C 
ATOM      2  H   LIG d   1       9.165   7.789  -0.468  0.00  0.00     0.042 H 
ATOM      3  C   LIG d   1      10.030   5.941  -1.169  0.00  0.00    -0.023 C 
ATOM      4  C   LIG d   1      11.074   5.561   0.983  0.00  0.00    -0.031 C 
ATOM      5  C   LIG d   1      11.152   7.068   1.250  0.00  0.00    -0.009 C 
ATOM      6  C   LIG d   1      11.291   7.801  -0.089  0.00  0.00    -0.018 C 
ATOM      7  H   LIG d   1      11.355   8.877   0.077  0.00  0.00     0.031 H 
ATOM      8  C   LIG d   1      12.559   7.300  -0.793  0.00  0.00    -0.004 C 
ATOM      9  C   LIG d   1      12.442   5.788  -1.003  0.00  0.00    -0.005 C 
ATOM     10  H   LIG d   1      13.260   5.284  -0.487  0.00  0.00     0.087 H 
ATOM     11  H   LIG d   1      10.097   5.716  -2.233  0.00  0.00     0.082 H 
ATOM     12  H   LIG d   1       9.093   5.551  -0.772  0.00  0.00     0.082 H 
ATOM     13  H   LIG d   1      11.901   5.060   1.485  0.00  0.00     0.081 H 
ATOM     14  H   LIG d   1      10.129   5.174   1.362  0.00  0.00     0.081 H 
ATOM     15  H   LIG d   1      12.018   7.282   1.876  0.00  0.00     0.032 H 
ATOM     16  H   LIG d   1      10.245   7.398   1.756  0.00  0.00     0.032 H 
ATOM     17  H   LIG d   1      13.430   7.516  -0.175  0.00  0.00     0.032 H 
ATOM     18  H   LIG d   1      12.662   7.796  -1.758  0.00  0.00     0.032 H 
ATOM     19  N   LIG d   1      11.156   5.290  -0.468  0.00  0.00     0.239 N 
ATOM     20  H   LIG d   1      11.102   4.276  -0.621  0.00  0.00     0.204 HD
ENDROOT
BRANCH   9  21
ATOM     21  C   LIG d   1      12.512   5.474  -2.499  0.00  0.00     0.054 C 
ATOM     22  H   LIG d   1      13.319   6.050  -2.954  0.00  0.00     0.052 H 
ATOM     23  H   LIG d   1      11.566   5.738  -2.971  0.00  0.00     0.052 H 
BRANCH  21  24
ATOM     24  N   LIG d   1      12.769   4.043  -2.687  0.00  0.00    -0.321 N 
ATOM     25  H   LIG d   1      13.555   3.636  -2.290  0.00  0.00     0.148 HD
BRANCH  24  26
ATOM     26  C   LIG d   1      11.913   3.294  -3.408  0.00  0.00     0.135 C 
ATOM     27  S   LIG d   1      12.289   1.659  -3.755  0.00  0.00    -0.019 SA
ATOM     28  N   LIG d   1      10.760   3.829  -3.857  0.00  0.00    -0.297 N 
ATOM     29  H   LIG d   1      10.584   4.775  -3.731  0.00  0.00     0.154 HD
BRANCH  28  30
ATOM     30  C   LIG d   1       9.818   3.022  -4.502  0.00  0.00     0.033 A 
ATOM     31  C   LIG d   1       8.833   2.382  -3.765  0.00  0.00    -0.026 A 
ATOM     32  C   LIG d   1       7.894   1.578  -4.414  0.00  0.00     0.061 A 
ATOM     33  H   LIG d   1       8.792   2.505  -2.693  0.00  0.00     0.064 H 
ATOM     34  C   LIG d   1       7.958   1.419  -5.800  0.00  0.00    -0.048 A 
ATOM     35  C   LIG d   1       8.939   2.065  -6.524  0.00  0.00    -0.059 A 
ATOM     36  H   LIG d   1       7.236   0.795  -6.305  0.00  0.00     0.063 H 
ATOM     37  C   LIG d   1       9.867   2.861  -5.882  0.00  0.00    -0.041 A 
ATOM     38  H   LIG d   1       8.984   1.944  -7.597  0.00  0.00     0.062 H 
ATOM     39  H   LIG d   1      10.635   3.361  -6.454  0.00  0.00     0.064 H 
BRANCH  32  40
ATOM     40  C   LIG d   1       6.842   0.892  -3.637  0.00  0.00     0.339 C 
ATOM     41  O   LIG d   1       6.622  -0.288  -3.823  0.00  0.00    -0.245 OA
BRANCH  40  42
ATOM     42  O   LIG d   1       6.126   1.574  -2.722  0.00  0.00    -0.464 OA
BRANCH  42  43
ATOM     43  C   LIG d   1       4.734   1.197  -2.558  0.00  0.00     0.082 C 
ATOM     44  H   LIG d   1       4.583   0.793  -1.556  0.00  0.00     0.066 H 
ATOM     45  H   LIG d   1       4.101   2.073  -2.696  0.00  0.00     0.066 H 
ATOM     46  H   LIG d   1       4.473   0.439  -3.297  0.00  0.00     0.066 H 
ENDBRANCH  42  43
ENDBRANCH  40  42
ENDBRANCH  32  40
ENDBRANCH  28  30
ENDBRANCH  24  26
ENDBRANCH  21  24
ENDBRANCH   9  21
BRANCH   1  47
ATOM     47  C   LIG d   1      10.208   8.144  -2.298  0.00  0.00     0.048 A 
ATOM     48  N   LIG d   1      10.175   9.476  -2.515  0.00  0.00    -0.271 N 
ATOM     49  N   LIG d   1      10.331   9.693  -3.891  0.00  0.00    -0.176 NA
ATOM     50  C   LIG d   1      10.453   8.529  -4.477  0.00  0.00     0.066 A 
ATOM     51  C   LIG d   1      10.384   7.536  -3.494  0.00  0.00    -0.017 A 
ATOM     52  H   LIG d   1      10.456   6.471  -3.662  0.00  0.00     0.065 H 
BRANCH  48  53
ATOM     53  C   LIG d   1      10.006  10.512  -1.494  0.00  0.00     0.030 C 
ATOM     54  H   LIG d   1      10.285  10.110  -0.520  0.00  0.00     0.047 H 
ATOM     55  H   LIG d   1      10.643  11.364  -1.732  0.00  0.00     0.047 H 
ATOM     56  H   LIG d   1       8.964  10.832  -1.470  0.00  0.00     0.047 H 
ENDBRANCH  48  53
BRANCH  50  57
ATOM     57  C   LIG d   1      10.641   8.300  -5.955  0.00  0.00     0.003 C 
ATOM     58  C   LIG d   1      10.965   6.820  -6.222  0.00  0.00    -0.045 C 
ATOM     59  C   LIG d   1       9.839   6.279  -7.127  0.00  0.00    -0.052 C 
ATOM     60  H   LIG d   1      11.926   6.733  -6.729  0.00  0.00     0.027 H 
ATOM     61  H   LIG d   1      10.988   6.267  -5.282  0.00  0.00     0.027 H 
ATOM     62  C   LIG d   1       9.277   7.540  -7.828  0.00  0.00    -0.052 C 
ATOM     63  H   LIG d   1      10.243   5.582  -7.861  0.00  0.00     0.026 H 
ATOM     64  H   LIG d   1       9.066   5.798  -6.528  0.00  0.00     0.026 H 
ATOM     65  C   LIG d   1       9.330   8.608  -6.707  0.00  0.00    -0.045 C 
ATOM     66  H   LIG d   1       9.909   7.829  -8.668  0.00  0.00     0.026 H 
ATOM     67  H   LIG d   1       8.251   7.373  -8.158  0.00  0.00     0.026 H 
ATOM     68  H   LIG d   1       8.474   8.504  -6.041  0.00  0.00     0.027 H 
ATOM     69  H   LIG d   1       9.361   9.610  -7.135  0.00  0.00     0.027 H 
ATOM     70  H   LIG d   1      11.445   8.932  -6.331  0.00  0.00     0.036 H 
ENDBRANCH  50  57
ENDBRANCH   1  47
TORSDOF 10
ENDMDL
MODEL 8
REMARK VINA RESULT:      -6.3      2.963      5.665
REMARK  10 active torsions:
REMARK  status: ('A' for Active; 'I' for Inactive)
REMARK    1  A    between atoms: C_1  and  N_2 
REMARK    2  A    between atoms: C_3  and  C_12 
REMARK    3  A    between atoms: C_5  and  C_7 
REMARK    4  A    between atoms: C_20  and  C_22 
REMARK    5  A    between atoms: C_22  and  N_23 
REMARK    6  A    between atoms: N_23  and  C_24 
REMARK    7  A    between atoms: N_26  and  C_27 
REMARK    8  A    between atoms: C_31  and  C_33 
REMARK    9  A    between atoms: C_33  and  O_35 
REMARK   10  A    between atoms: O_35  and  C_36 
ROOT
ATOM      1  C   LIG d   1      10.008  -6.307  -4.875  0.00  0.00     0.044 C 
ATOM      2  H   LIG d   1      10.651  -6.950  -5.477  0.00  0.00     0.042 H 
ATOM      3  C   LIG d   1      10.084  -4.871  -5.401  0.00  0.00    -0.023 C 
ATOM      4  C   LIG d   1      11.943  -4.371  -3.933  0.00  0.00    -0.031 C 
ATOM      5  C   LIG d   1      11.922  -5.793  -3.364  0.00  0.00    -0.009 C 
ATOM      6  C   LIG d   1      10.485  -6.325  -3.417  0.00  0.00    -0.018 C 
ATOM      7  H   LIG d   1      10.444  -7.336  -3.011  0.00  0.00     0.031 H 
ATOM      8  C   LIG d   1       9.586  -5.391  -2.597  0.00  0.00    -0.004 C 
ATOM      9  C   LIG d   1       9.671  -3.981  -3.187  0.00  0.00    -0.005 C 
ATOM     10  H   LIG d   1      10.048  -3.292  -2.430  0.00  0.00     0.087 H 
ATOM     11  H   LIG d   1       9.091  -4.544  -5.709  0.00  0.00     0.082 H 
ATOM     12  H   LIG d   1      10.761  -4.831  -6.255  0.00  0.00     0.082 H 
ATOM     13  H   LIG d   1      12.303  -3.679  -3.171  0.00  0.00     0.081 H 
ATOM     14  H   LIG d   1      12.604  -4.335  -4.799  0.00  0.00     0.081 H 
ATOM     15  H   LIG d   1      12.268  -5.777  -2.331  0.00  0.00     0.032 H 
ATOM     16  H   LIG d   1      12.572  -6.434  -3.958  0.00  0.00     0.032 H 
ATOM     17  H   LIG d   1       9.923  -5.374  -1.561  0.00  0.00     0.032 H 
ATOM     18  H   LIG d   1       8.555  -5.743  -2.642  0.00  0.00     0.032 H 
ATOM     19  N   LIG d   1      10.585  -3.962  -4.350  0.00  0.00     0.239 N 
ATOM     20  H   LIG d   1      10.626  -3.007  -4.727  0.00  0.00     0.204 HD
ENDROOT
BRANCH   9  21
ATOM     21  C   LIG d   1       8.281  -3.531  -3.640  0.00  0.00     0.054 C 
ATOM     22  H   LIG d   1       7.542  -3.828  -2.895  0.00  0.00     0.052 H 
ATOM     23  H   LIG d   1       8.042  -3.998  -4.595  0.00  0.00     0.052 H 
BRANCH  21  24
ATOM     24  N   LIG d   1       8.263  -2.073  -3.790  0.00  0.00    -0.321 N 
ATOM     25  H   LIG d   1       9.098  -1.581  -3.846  0.00  0.00     0.148 HD
BRANCH  24  26
ATOM     26  C   LIG d   1       7.089  -1.417  -3.854  0.00  0.00     0.135 C 
ATOM     27  S   LIG d   1       7.056   0.292  -3.740  0.00  0.00    -0.019 SA
ATOM     28  N   LIG d   1       5.939  -2.103  -4.006  0.00  0.00    -0.297 N 
ATOM     29  H   LIG d   1       5.948  -3.074  -3.989  0.00  0.00     0.154 HD
BRANCH  28  30
ATOM     30  C   LIG d   1       4.734  -1.419  -4.191  0.00  0.00     0.033 A 
ATOM     31  C   LIG d   1       4.417  -0.899  -5.437  0.00  0.00    -0.026 A 
ATOM     32  C   LIG d   1       3.212  -0.217  -5.617  0.00  0.00     0.061 A 
ATOM     33  H   LIG d   1       5.099  -1.020  -6.265  0.00  0.00     0.064 H 
ATOM     34  C   LIG d   1       2.338  -0.058  -4.539  0.00  0.00    -0.048 A 
ATOM     35  C   LIG d   1       2.661  -0.584  -3.305  0.00  0.00    -0.059 A 
ATOM     36  H   LIG d   1       1.407   0.473  -4.673  0.00  0.00     0.063 H 
ATOM     37  C   LIG d   1       3.853  -1.260  -3.128  0.00  0.00    -0.041 A 
ATOM     38  H   LIG d   1       1.982  -0.464  -2.474  0.00  0.00     0.062 H 
ATOM     39  H   LIG d   1       4.103  -1.666  -2.159  0.00  0.00     0.064 H 
BRANCH  32  40
ATOM     40  C   LIG d   1       2.866   0.341  -6.940  0.00  0.00     0.339 C 
ATOM     41  O   LIG d   1       2.388  -0.377  -7.795  0.00  0.00    -0.245 OA
BRANCH  40  42
ATOM     42  O   LIG d   1       3.081   1.646  -7.199  0.00  0.00    -0.464 OA
BRANCH  42  43
ATOM     43  C   LIG d   1       2.890   2.087  -8.569  0.00  0.00     0.082 C 
ATOM     44  H   LIG d   1       3.750   1.788  -9.169  0.00  0.00     0.066 H 
ATOM     45  H   LIG d   1       1.988   1.631  -8.975  0.00  0.00     0.066 H 
ATOM     46  H   LIG d   1       2.792   3.172  -8.591  0.00  0.00     0.066 H 
ENDBRANCH  42  43
ENDBRANCH  40  42
ENDBRANCH  32  40
ENDBRANCH  28  30
ENDBRANCH  24  26
ENDBRANCH  21  24
ENDBRANCH   9  21
BRANCH   1  47
ATOM     47  C   LIG d   1       8.587  -6.798  -4.949  0.00  0.00     0.048 A 
ATOM     48  N   LIG d   1       8.135  -7.994  -4.517  0.00  0.00    -0.271 N 
ATOM     49  N   LIG d   1       6.757  -8.051  -4.770  0.00  0.00    -0.176 NA
ATOM     50  C   LIG d   1       6.398  -6.926  -5.334  0.00  0.00     0.066 A 
ATOM     51  C   LIG d   1       7.533  -6.116  -5.454  0.00  0.00    -0.017 A 
ATOM     52  H   LIG d   1       7.561  -5.123  -5.876  0.00  0.00     0.065 H 
BRANCH  48  53
ATOM     53  C   LIG d   1       8.941  -9.047  -3.894  0.00  0.00     0.030 C 
ATOM     54  H   LIG d   1       8.857  -8.975  -2.810  0.00  0.00     0.047 H 
ATOM     55  H   LIG d   1       8.582 -10.022  -4.223  0.00  0.00     0.047 H 
ATOM     56  H   LIG d   1       9.984  -8.927  -4.187  0.00  0.00     0.047 H 
ENDBRANCH  48  53
BRANCH  50  57
ATOM     57  C   LIG d   1       5.003  -6.565  -5.774  0.00  0.00     0.003 C 
ATOM     58  C   LIG d   1       4.677  -5.120  -5.361  0.00  0.00    -0.045 C 
ATOM     59  C   LIG d   1       4.393  -4.343  -6.662  0.00  0.00    -0.052 C 
ATOM     60  H   LIG d   1       3.799  -5.104  -4.717  0.00  0.00     0.027 H 
ATOM     61  H   LIG d   1       5.529  -4.680  -4.841  0.00  0.00     0.027 H 
ATOM     62  C   LIG d   1       3.968  -5.436  -7.672  0.00  0.00    -0.052 C 
ATOM     63  H   LIG d   1       3.584  -3.628  -6.510  0.00  0.00     0.026 H 
ATOM     64  H   LIG d   1       5.293  -3.833  -7.007  0.00  0.00     0.026 H 
ATOM     65  C   LIG d   1       4.905  -6.617  -7.312  0.00  0.00    -0.045 C 
ATOM     66  H   LIG d   1       2.924  -5.713  -7.526  0.00  0.00     0.026 H 
ATOM     67  H   LIG d   1       4.138  -5.104  -8.697  0.00  0.00     0.026 H 
ATOM     68  H   LIG d   1       5.887  -6.476  -7.763  0.00  0.00     0.027 H 
ATOM     69  H   LIG d   1       4.469  -7.563  -7.636  0.00  0.00     0.027 H 
ATOM     70  H   LIG d   1       4.282  -7.252  -5.330  0.00  0.00     0.036 H 
ENDBRANCH  50  57
ENDBRANCH   1  47
TORSDOF 10
ENDMDL
MODEL 9
REMARK VINA RESULT:      -6.3      5.088      7.467
REMARK  10 active torsions:
REMARK  status: ('A' for Active; 'I' for Inactive)
REMARK    1  A    between atoms: C_1  and  N_2 
REMARK    2  A    between atoms: C_3  and  C_12 
REMARK    3  A    between atoms: C_5  and  C_7 
REMARK    4  A    between atoms: C_20  and  C_22 
REMARK    5  A    between atoms: C_22  and  N_23 
REMARK    6  A    between atoms: N_23  and  C_24 
REMARK    7  A    between atoms: N_26  and  C_27 
REMARK    8  A    between atoms: C_31  and  C_33 
REMARK    9  A    between atoms: C_33  and  O_35 
REMARK   10  A    between atoms: O_35  and  C_36 
ROOT
ATOM      1  C   LIG d   1       4.794  -0.043  -8.907  0.00  0.00     0.044 C 
ATOM      2  H   LIG d   1       5.638   0.647  -8.932  0.00  0.00     0.042 H 
ATOM      3  C   LIG d   1       5.047  -1.196  -9.884  0.00  0.00    -0.023 C 
ATOM      4  C   LIG d   1       3.983   0.023 -11.686  0.00  0.00    -0.031 C 
ATOM      5  C   LIG d   1       3.700   1.211 -10.762  0.00  0.00    -0.009 C 
ATOM      6  C   LIG d   1       3.516   0.692  -9.331  0.00  0.00    -0.018 C 
ATOM      7  H   LIG d   1       3.307   1.522  -8.654  0.00  0.00     0.031 H 
ATOM      8  C   LIG d   1       2.351  -0.305  -9.317  0.00  0.00    -0.004 C 
ATOM      9  C   LIG d   1       2.671  -1.452 -10.280  0.00  0.00    -0.005 C 
ATOM     10  H   LIG d   1       1.907  -1.498 -11.057  0.00  0.00     0.087 H 
ATOM     11  H   LIG d   1       5.049  -2.139  -9.338  0.00  0.00     0.082 H 
ATOM     12  H   LIG d   1       6.011  -1.055 -10.371  0.00  0.00     0.082 H 
ATOM     13  H   LIG d   1       3.210  -0.035 -12.452  0.00  0.00     0.081 H 
ATOM     14  H   LIG d   1       4.956   0.153 -12.158  0.00  0.00     0.081 H 
ATOM     15  H   LIG d   1       2.791   1.717 -11.086  0.00  0.00     0.032 H 
ATOM     16  H   LIG d   1       4.537   1.908 -10.794  0.00  0.00     0.032 H 
ATOM     17  H   LIG d   1       1.437   0.195  -9.636  0.00  0.00     0.032 H 
ATOM     18  H   LIG d   1       2.220  -0.701  -8.310  0.00  0.00     0.032 H 
ATOM     19  N   LIG d   1       3.990  -1.239 -10.915  0.00  0.00     0.239 N 
ATOM     20  H   LIG d   1       4.181  -2.019 -11.556  0.00  0.00     0.204 HD
ENDROOT
BRANCH   9  21
ATOM     21  C   LIG d   1       2.698  -2.773  -9.510  0.00  0.00     0.054 C 
ATOM     22  H   LIG d   1       1.837  -2.822  -8.842  0.00  0.00     0.052 H 
ATOM     23  H   LIG d   1       3.615  -2.836  -8.927  0.00  0.00     0.052 H 
BRANCH  21  24
ATOM     24  N   LIG d   1       2.643  -3.891 -10.456  0.00  0.00    -0.321 N 
ATOM     25  H   LIG d   1       3.457  -4.211 -10.876  0.00  0.00     0.148 HD
BRANCH  24  26
ATOM     26  C   LIG d   1       1.463  -4.476 -10.741  0.00  0.00     0.135 C 
ATOM     27  S   LIG d   1       0.818  -4.377 -12.324  0.00  0.00    -0.019 SA
ATOM     28  N   LIG d   1       0.790  -5.140  -9.780  0.00  0.00    -0.297 N 
ATOM     29  H   LIG d   1       1.113  -5.128  -8.865  0.00  0.00     0.154 HD
BRANCH  28  30
ATOM     30  C   LIG d   1      -0.373  -5.847 -10.101  0.00  0.00     0.033 A 
ATOM     31  C   LIG d   1      -1.605  -5.212 -10.055  0.00  0.00    -0.026 A 
ATOM     32  C   LIG d   1      -2.763  -5.921 -10.377  0.00  0.00     0.061 A 
ATOM     33  H   LIG d   1      -1.668  -4.172  -9.771  0.00  0.00     0.064 H 
ATOM     34  C   LIG d   1      -2.673  -7.267 -10.736  0.00  0.00    -0.048 A 
ATOM     35  C   LIG d   1      -1.442  -7.888 -10.785  0.00  0.00    -0.059 A 
ATOM     36  H   LIG d   1      -3.567  -7.821 -10.982  0.00  0.00     0.063 H 
ATOM     37  C   LIG d   1      -0.296  -7.186 -10.467  0.00  0.00    -0.041 A 
ATOM     38  H   LIG d   1      -1.375  -8.929 -11.068  0.00  0.00     0.062 H 
ATOM     39  H   LIG d   1       0.665  -7.678 -10.502  0.00  0.00     0.064 H 
BRANCH  32  40
ATOM     40  C   LIG d   1      -4.079  -5.253 -10.329  0.00  0.00     0.339 C 
ATOM     41  O   LIG d   1      -4.965  -5.602 -11.086  0.00  0.00    -0.245 OA
BRANCH  40  42
ATOM     42  O   LIG d   1      -4.299  -4.257  -9.449  0.00  0.00    -0.464 OA
BRANCH  42  43
ATOM     43  C   LIG d   1      -5.540  -3.516  -9.588  0.00  0.00     0.082 C 
ATOM     44  H   LIG d   1      -6.384  -4.191  -9.442  0.00  0.00     0.066 H 
ATOM     45  H   LIG d   1      -5.575  -2.724  -8.840  0.00  0.00     0.066 H 
ATOM     46  H   LIG d   1      -5.593  -3.079 -10.584  0.00  0.00     0.066 H 
ENDBRANCH  42  43
ENDBRANCH  40  42
ENDBRANCH  32  40
ENDBRANCH  28  30
ENDBRANCH  24  26
ENDBRANCH  21  24
ENDBRANCH   9  21
BRANCH   1  47
ATOM     47  C   LIG d   1       4.626  -0.588  -7.514  0.00  0.00     0.048 A 
ATOM     48  N   LIG d   1       5.166  -1.729  -7.035  0.00  0.00    -0.271 N 
ATOM     49  N   LIG d   1       4.765  -1.868  -5.699  0.00  0.00    -0.176 NA
ATOM     50  C   LIG d   1       4.010  -0.844  -5.390  0.00  0.00     0.066 A 
ATOM     51  C   LIG d   1       3.911  -0.019  -6.516  0.00  0.00    -0.017 A 
ATOM     52  H   LIG d   1       3.359   0.907  -6.577  0.00  0.00     0.065 H 
BRANCH  48  53
ATOM     53  C   LIG d   1       6.020  -2.657  -7.779  0.00  0.00     0.030 C 
ATOM     54  H   LIG d   1       6.302  -3.488  -7.133  0.00  0.00     0.047 H 
ATOM     55  H   LIG d   1       5.476  -3.037  -8.645  0.00  0.00     0.047 H 
ATOM     56  H   LIG d   1       6.917  -2.137  -8.114  0.00  0.00     0.047 H 
ENDBRANCH  48  53
BRANCH  50  57
ATOM     57  C   LIG d   1       3.365  -0.596  -4.051  0.00  0.00     0.003 C 
ATOM     58  C   LIG d   1       3.650  -1.773  -3.102  0.00  0.00    -0.045 C 
ATOM     59  C   LIG d   1       4.428  -1.193  -1.902  0.00  0.00    -0.052 C 
ATOM     60  H   LIG d   1       2.714  -2.214  -2.762  0.00  0.00     0.027 H 
ATOM     61  H   LIG d   1       4.255  -2.524  -3.611  0.00  0.00     0.027 H 
ATOM     62  C   LIG d   1       4.040   0.306  -1.888  0.00  0.00    -0.052 C 
ATOM     63  H   LIG d   1       4.116  -1.677  -0.977  0.00  0.00     0.026 H 
ATOM     64  H   LIG d   1       5.501  -1.309  -2.051  0.00  0.00     0.026 H 
ATOM     65  C   LIG d   1       3.978   0.659  -3.395  0.00  0.00    -0.045 C 
ATOM     66  H   LIG d   1       3.067   0.449  -1.417  0.00  0.00     0.026 H 
ATOM     67  H   LIG d   1       4.803   0.898  -1.381  0.00  0.00     0.026 H 
ATOM     68  H   LIG d   1       4.979   0.844  -3.785  0.00  0.00     0.027 H 
ATOM     69  H   LIG d   1       3.338   1.526  -3.559  0.00  0.00     0.027 H 
ATOM     70  H   LIG d   1       2.290  -0.467  -4.173  0.00  0.00     0.036 H 
ENDBRANCH  50  57
ENDBRANCH   1  47
TORSDOF 10
ENDMDL
MODEL 10
REMARK VINA RESULT:      -6.2      3.777      5.879
REMARK  10 active torsions:
REMARK  status: ('A' for Active; 'I' for Inactive)
REMARK    1  A    between atoms: C_1  and  N_2 
REMARK    2  A    between atoms: C_3  and  C_12 
REMARK    3  A    between atoms: C_5  and  C_7 
REMARK    4  A    between atoms: C_20  and  C_22 
REMARK    5  A    between atoms: C_22  and  N_23 
REMARK    6  A    between atoms: N_23  and  C_24 
REMARK    7  A    between atoms: N_26  and  C_27 
REMARK    8  A    between atoms: C_31  and  C_33 
REMARK    9  A    between atoms: C_33  and  O_35 
REMARK   10  A    between atoms: O_35  and  C_36 
ROOT
ATOM      1  C   LIG d   1       6.720  -3.703  -5.998  0.00  0.00     0.044 C 
ATOM      2  H   LIG d   1       6.264  -4.535  -6.536  0.00  0.00     0.042 H 
ATOM      3  C   LIG d   1       7.779  -3.040  -6.884  0.00  0.00    -0.023 C 
ATOM      4  C   LIG d   1       9.497  -4.518  -6.031  0.00  0.00    -0.031 C 
ATOM      5  C   LIG d   1       8.488  -5.224  -5.121  0.00  0.00    -0.009 C 
ATOM      6  C   LIG d   1       7.396  -4.223  -4.723  0.00  0.00    -0.018 C 
ATOM      7  H   LIG d   1       6.668  -4.703  -4.069  0.00  0.00     0.031 H 
ATOM      8  C   LIG d   1       8.054  -3.041  -4.002  0.00  0.00    -0.004 C 
ATOM      9  C   LIG d   1       9.075  -2.395  -4.942  0.00  0.00    -0.005 C 
ATOM     10  H   LIG d   1      10.067  -2.440  -4.490  0.00  0.00     0.087 H 
ATOM     11  H   LIG d   1       7.515  -1.995  -7.045  0.00  0.00     0.082 H 
ATOM     12  H   LIG d   1       7.826  -3.556  -7.843  0.00  0.00     0.082 H 
ATOM     13  H   LIG d   1      10.485  -4.547  -5.571  0.00  0.00     0.081 H 
ATOM     14  H   LIG d   1       9.530  -5.021  -6.997  0.00  0.00     0.081 H 
ATOM     15  H   LIG d   1       8.994  -5.586  -4.227  0.00  0.00     0.032 H 
ATOM     16  H   LIG d   1       8.040  -6.063  -5.653  0.00  0.00     0.032 H 
ATOM     17  H   LIG d   1       8.559  -3.395  -3.103  0.00  0.00     0.032 H 
ATOM     18  H   LIG d   1       7.294  -2.308  -3.731  0.00  0.00     0.032 H 
ATOM     19  N   LIG d   1       9.106  -3.107  -6.238  0.00  0.00     0.239 N 
ATOM     20  H   LIG d   1       9.798  -2.656  -6.850  0.00  0.00     0.204 HD
ENDROOT
BRANCH   9  21
ATOM     21  C   LIG d   1       8.692  -0.934  -5.187  0.00  0.00     0.054 C 
ATOM     22  H   LIG d   1       7.738  -0.722  -4.702  0.00  0.00     0.052 H 
ATOM     23  H   LIG d   1       8.603  -0.757  -6.258  0.00  0.00     0.052 H 
BRANCH  21  24
ATOM     24  N   LIG d   1       9.726  -0.058  -4.630  0.00  0.00    -0.321 N 
ATOM     25  H   LIG d   1      10.599  -0.418  -4.407  0.00  0.00     0.148 HD
BRANCH  24  26
ATOM     26  C   LIG d   1       9.467   1.249  -4.431  0.00  0.00     0.135 C 
ATOM     27  S   LIG d   1       7.877   1.757  -4.047  0.00  0.00    -0.019 SA
ATOM     28  N   LIG d   1      10.457   2.157  -4.535  0.00  0.00    -0.297 N 
ATOM     29  H   LIG d   1      11.338   1.882  -4.832  0.00  0.00     0.154 HD
BRANCH  28  30
ATOM     30  C   LIG d   1      10.215   3.497  -4.213  0.00  0.00     0.033 A 
ATOM     31  C   LIG d   1      10.018   4.427  -5.222  0.00  0.00    -0.026 A 
ATOM     32  C   LIG d   1       9.777   5.762  -4.896  0.00  0.00     0.061 A 
ATOM     33  H   LIG d   1      10.051   4.119  -6.257  0.00  0.00     0.064 H 
ATOM     34  C   LIG d   1       9.742   6.153  -3.556  0.00  0.00    -0.048 A 
ATOM     35  C   LIG d   1       9.934   5.218  -2.559  0.00  0.00    -0.059 A 
ATOM     36  H   LIG d   1       9.560   7.186  -3.299  0.00  0.00     0.063 H 
ATOM     37  C   LIG d   1      10.172   3.896  -2.882  0.00  0.00    -0.041 A 
ATOM     38  H   LIG d   1       9.903   5.522  -1.523  0.00  0.00     0.062 H 
ATOM     39  H   LIG d   1      10.326   3.169  -2.098  0.00  0.00     0.064 H 
BRANCH  32  40
ATOM     40  C   LIG d   1       9.566   6.761  -5.964  0.00  0.00     0.339 C 
ATOM     41  O   LIG d   1       9.977   6.543  -7.087  0.00  0.00    -0.245 OA
BRANCH  40  42
ATOM     42  O   LIG d   1       8.919   7.910  -5.695  0.00  0.00    -0.464 OA
BRANCH  42  43
ATOM     43  C   LIG d   1       9.653   9.145  -5.904  0.00  0.00     0.082 C 
ATOM     44  H   LIG d   1       9.416   9.849  -5.106  0.00  0.00     0.066 H 
ATOM     45  H   LIG d   1      10.723   8.938  -5.900  0.00  0.00     0.066 H 
ATOM     46  H   LIG d   1       9.371   9.578  -6.864  0.00  0.00     0.066 H 
ENDBRANCH  42  43
ENDBRANCH  40  42
ENDBRANCH  32  40
ENDBRANCH  28  30
ENDBRANCH  24  26
ENDBRANCH  21  24
ENDBRANCH   9  21
BRANCH   1  47
ATOM     47  C   LIG d   1       5.662  -2.695  -5.634  0.00  0.00     0.048 A 
ATOM     48  N   LIG d   1       4.935  -1.956  -6.499  0.00  0.00    -0.271 N 
ATOM     49  N   LIG d   1       4.068  -1.148  -5.751  0.00  0.00    -0.176 NA
ATOM     50  C   LIG d   1       4.269  -1.395  -4.482  0.00  0.00     0.066 A 
ATOM     51  C   LIG d   1       5.267  -2.371  -4.381  0.00  0.00    -0.017 A 
ATOM     52  H   LIG d   1       5.654  -2.790  -3.464  0.00  0.00     0.065 H 
BRANCH  48  53
ATOM     53  C   LIG d   1       5.035  -1.992  -7.960  0.00  0.00     0.030 C 
ATOM     54  H   LIG d   1       4.299  -1.315  -8.391  0.00  0.00     0.047 H 
ATOM     55  H   LIG d   1       6.036  -1.683  -8.263  0.00  0.00     0.047 H 
ATOM     56  H   LIG d   1       4.847  -3.007  -8.312  0.00  0.00     0.047 H 
ENDBRANCH  48  53
BRANCH  50  57
ATOM     57  C   LIG d   1       3.547  -0.745  -3.331  0.00  0.00     0.003 C 
ATOM     58  C   LIG d   1       4.428  -0.779  -2.070  0.00  0.00    -0.045 C 
ATOM     59  C   LIG d   1       4.671   0.689  -1.662  0.00  0.00    -0.052 C 
ATOM     60  H   LIG d   1       3.913  -1.309  -1.269  0.00  0.00     0.027 H 
ATOM     61  H   LIG d   1       5.377  -1.267  -2.291  0.00  0.00     0.027 H 
ATOM     62  C   LIG d   1       3.480   1.458  -2.285  0.00  0.00    -0.052 C 
ATOM     63  H   LIG d   1       4.663   0.789  -0.576  0.00  0.00     0.026 H 
ATOM     64  H   LIG d   1       5.615   1.048  -2.072  0.00  0.00     0.026 H 
ATOM     65  C   LIG d   1       3.285   0.742  -3.646  0.00  0.00    -0.045 C 
ATOM     66  H   LIG d   1       2.589   1.359  -1.665  0.00  0.00     0.026 H 
ATOM     67  H   LIG d   1       3.733   2.509  -2.431  0.00  0.00     0.026 H 
ATOM     68  H   LIG d   1       4.004   1.111  -4.377  0.00  0.00     0.027 H 
ATOM     69  H   LIG d   1       2.266   0.882  -4.008  0.00  0.00     0.027 H 
ATOM     70  H   LIG d   1       2.605  -1.259  -3.142  0.00  0.00     0.036 H 
ENDBRANCH  50  57
ENDBRANCH   1  47
TORSDOF 10
ENDMDL
