MODEL 1
REMARK VINA RESULT:      -8.0      0.000      0.000
REMARK  0 active torsions:
REMARK  status: ('A' for Active; 'I' for Inactive)
ROOT
ATOM      1  C   LIG d   1       4.636  -0.939  -1.598  0.00  0.00    -0.061 A 
ATOM      2  C   LIG d   1       4.192   0.373  -1.714  0.00  0.00    -0.060 A 
ATOM      3  C   LIG d   1       3.845   0.892  -2.925  0.00  0.00    -0.036 A 
ATOM      4  C   LIG d   1       3.934   0.096  -4.083  0.00  0.00     0.072 A 
ATOM      5  C   LIG d   1       4.381  -1.245  -3.954  0.00  0.00     0.008 A 
ATOM      6  C   LIG d   1       4.736  -1.741  -2.700  0.00  0.00    -0.052 A 
ATOM      7  C   LIG d   1       4.478  -2.066  -5.160  0.00  0.00    -0.003 A 
ATOM      8  C   LIG d   1       4.915  -3.392  -5.170  0.00  0.00    -0.035 A 
ATOM      9  C   LIG d   1       4.962  -4.061  -6.377  0.00  0.00     0.029 A 
ATOM     10  N   LIG d   1       4.608  -3.483  -7.511  0.00  0.00    -0.253 NA
ATOM     11  C   LIG d   1       4.186  -2.228  -7.569  0.00  0.00     0.100 A 
ATOM     12  C   LIG d   1       4.106  -1.472  -6.387  0.00  0.00     0.039 A 
ATOM     13  C   LIG d   1       3.654  -0.082  -6.391  0.00  0.00     0.121 A 
ATOM     14  N   LIG d   1       3.594   0.602  -5.272  0.00  0.00    -0.243 NA
ATOM     15  C   LIG d   1       3.262   0.527  -7.685  0.00  0.00     0.214 A 
ATOM     16  O   LIG d   1       2.876   1.678  -7.734  0.00  0.00    -0.285 OA
ATOM     17  C   LIG d   1       3.355  -0.287  -8.911  0.00  0.00     0.051 A 
ATOM     18  C   LIG d   1       3.801  -1.619  -8.861  0.00  0.00     0.101 A 
ATOM     19  N   LIG d   1       3.878  -2.336  -9.976  0.00  0.00    -0.253 NA
ATOM     20  C   LIG d   1       3.545  -1.836 -11.147  0.00  0.00     0.028 A 
ATOM     21  C   LIG d   1       3.097  -0.530 -11.274  0.00  0.00    -0.043 A 
ATOM     22  C   LIG d   1       2.996   0.265 -10.146  0.00  0.00    -0.047 A 
ATOM     23  H   LIG d   1       4.907  -1.329  -0.627  0.00  0.00     0.062 H 
ATOM     24  H   LIG d   1       4.120   0.991  -0.831  0.00  0.00     0.062 H 
ATOM     25  H   LIG d   1       3.502   1.914  -2.996  0.00  0.00     0.064 H 
ATOM     26  H   LIG d   1       5.082  -2.759  -2.599  0.00  0.00     0.062 H 
ATOM     27  H   LIG d   1       5.209  -3.883  -4.253  0.00  0.00     0.064 H 
ATOM     28  H   LIG d   1       5.297  -5.087  -6.395  0.00  0.00     0.083 H 
ATOM     29  H   LIG d   1       3.624  -2.455 -12.028  0.00  0.00     0.083 H 
ATOM     30  H   LIG d   1       2.830  -0.138 -12.243  0.00  0.00     0.063 H 
ATOM     31  H   LIG d   1       2.650   1.286 -10.218  0.00  0.00     0.063 H 
ENDROOT
TORSDOF 0
ENDMDL
MODEL 2
REMARK VINA RESULT:      -7.0      4.277      5.133
REMARK  0 active torsions:
REMARK  status: ('A' for Active; 'I' for Inactive)
ROOT
ATOM      1  C   LIG d   1       4.760   0.656  -2.362  0.00  0.00    -0.061 A 
ATOM      2  C   LIG d   1       3.522   0.026  -2.307  0.00  0.00    -0.060 A 
ATOM      3  C   LIG d   1       3.332  -1.199  -2.873  0.00  0.00    -0.036 A 
ATOM      4  C   LIG d   1       4.400  -1.845  -3.524  0.00  0.00     0.072 A 
ATOM      5  C   LIG d   1       5.662  -1.199  -3.568  0.00  0.00     0.008 A 
ATOM      6  C   LIG d   1       5.820   0.058  -2.986  0.00  0.00    -0.052 A 
ATOM      7  C   LIG d   1       6.767  -1.871  -4.251  0.00  0.00    -0.003 A 
ATOM      8  C   LIG d   1       8.050  -1.337  -4.375  0.00  0.00    -0.035 A 
ATOM      9  C   LIG d   1       9.008  -2.072  -5.046  0.00  0.00     0.029 A 
ATOM     10  N   LIG d   1       8.742  -3.256  -5.568  0.00  0.00    -0.253 NA
ATOM     11  C   LIG d   1       7.544  -3.817  -5.486  0.00  0.00     0.100 A 
ATOM     12  C   LIG d   1       6.509  -3.139  -4.820  0.00  0.00     0.039 A 
ATOM     13  C   LIG d   1       5.167  -3.706  -4.703  0.00  0.00     0.121 A 
ATOM     14  N   LIG d   1       4.217  -3.047  -4.081  0.00  0.00    -0.243 NA
ATOM     15  C   LIG d   1       4.911  -5.038  -5.301  0.00  0.00     0.214 A 
ATOM     16  O   LIG d   1       3.811  -5.549  -5.224  0.00  0.00    -0.285 OA
ATOM     17  C   LIG d   1       6.013  -5.731  -5.994  0.00  0.00     0.051 A 
ATOM     18  C   LIG d   1       7.288  -5.144  -6.087  0.00  0.00     0.101 A 
ATOM     19  N   LIG d   1       8.268  -5.783  -6.716  0.00  0.00    -0.253 NA
ATOM     20  C   LIG d   1       8.086  -6.965  -7.265  0.00  0.00     0.028 A 
ATOM     21  C   LIG d   1       6.857  -7.604  -7.213  0.00  0.00    -0.043 A 
ATOM     22  C   LIG d   1       5.798  -6.987  -6.571  0.00  0.00    -0.047 A 
ATOM     23  H   LIG d   1       4.887   1.627  -1.906  0.00  0.00     0.062 H 
ATOM     24  H   LIG d   1       2.697   0.515  -1.810  0.00  0.00     0.062 H 
ATOM     25  H   LIG d   1       2.363  -1.673  -2.821  0.00  0.00     0.064 H 
ATOM     26  H   LIG d   1       6.777   0.556  -3.022  0.00  0.00     0.062 H 
ATOM     27  H   LIG d   1       8.289  -0.371  -3.955  0.00  0.00     0.064 H 
ATOM     28  H   LIG d   1      10.004  -1.669  -5.145  0.00  0.00     0.083 H 
ATOM     29  H   LIG d   1       8.912  -7.448  -7.766  0.00  0.00     0.083 H 
ATOM     30  H   LIG d   1       6.728  -8.573  -7.671  0.00  0.00     0.063 H 
ATOM     31  H   LIG d   1       4.830  -7.463  -6.517  0.00  0.00     0.063 H 
ENDROOT
TORSDOF 0
ENDMDL
MODEL 3
REMARK VINA RESULT:      -6.9      1.394      5.748
REMARK  0 active torsions:
REMARK  status: ('A' for Active; 'I' for Inactive)
ROOT
ATOM      1  C   LIG d   1       2.848  -1.994 -11.115  0.00  0.00    -0.061 A 
ATOM      2  C   LIG d   1       2.122  -0.809 -11.086  0.00  0.00    -0.060 A 
ATOM      3  C   LIG d   1       2.026  -0.072  -9.944  0.00  0.00    -0.036 A 
ATOM      4  C   LIG d   1       2.667  -0.509  -8.770  0.00  0.00     0.072 A 
ATOM      5  C   LIG d   1       3.413  -1.716  -8.810  0.00  0.00     0.008 A 
ATOM      6  C   LIG d   1       3.484  -2.450  -9.994  0.00  0.00    -0.052 A 
ATOM      7  C   LIG d   1       4.072  -2.170  -7.586  0.00  0.00    -0.003 A 
ATOM      8  C   LIG d   1       4.822  -3.343  -7.491  0.00  0.00    -0.035 A 
ATOM      9  C   LIG d   1       5.395  -3.662  -6.275  0.00  0.00     0.029 A 
ATOM     10  N   LIG d   1       5.252  -2.892  -5.212  0.00  0.00    -0.253 NA
ATOM     11  C   LIG d   1       4.552  -1.767  -5.236  0.00  0.00     0.100 A 
ATOM     12  C   LIG d   1       3.934  -1.365  -6.432  0.00  0.00     0.039 A 
ATOM     13  C   LIG d   1       3.146  -0.137  -6.518  0.00  0.00     0.121 A 
ATOM     14  N   LIG d   1       2.574   0.211  -7.647  0.00  0.00    -0.243 NA
ATOM     15  C   LIG d   1       3.014   0.700  -5.301  0.00  0.00     0.214 A 
ATOM     16  O   LIG d   1       2.370   1.731  -5.328  0.00  0.00    -0.285 OA
ATOM     17  C   LIG d   1       3.672   0.257  -4.058  0.00  0.00     0.051 A 
ATOM     18  C   LIG d   1       4.416  -0.934  -4.021  0.00  0.00     0.101 A 
ATOM     19  N   LIG d   1       5.001  -1.316  -2.891  0.00  0.00    -0.253 NA
ATOM     20  C   LIG d   1       4.908  -0.608  -1.787  0.00  0.00     0.028 A 
ATOM     21  C   LIG d   1       4.190   0.577  -1.748  0.00  0.00    -0.043 A 
ATOM     22  C   LIG d   1       3.559   1.026  -2.894  0.00  0.00    -0.047 A 
ATOM     23  H   LIG d   1       2.910  -2.562 -12.032  0.00  0.00     0.062 H 
ATOM     24  H   LIG d   1       1.627  -0.466 -11.983  0.00  0.00     0.062 H 
ATOM     25  H   LIG d   1       1.457   0.846  -9.941  0.00  0.00     0.064 H 
ATOM     26  H   LIG d   1       4.045  -3.371 -10.027  0.00  0.00     0.062 H 
ATOM     27  H   LIG d   1       4.951  -3.987  -8.349  0.00  0.00     0.064 H 
ATOM     28  H   LIG d   1       5.979  -4.566  -6.192  0.00  0.00     0.083 H 
ATOM     29  H   LIG d   1       5.400  -0.957  -0.891  0.00  0.00     0.083 H 
ATOM     30  H   LIG d   1       4.124   1.144  -0.831  0.00  0.00     0.063 H 
ATOM     31  H   LIG d   1       2.993   1.947  -2.890  0.00  0.00     0.063 H 
ENDROOT
TORSDOF 0
ENDMDL
MODEL 4
REMARK VINA RESULT:      -6.8      2.264      3.680
REMARK  0 active torsions:
REMARK  status: ('A' for Active; 'I' for Inactive)
ROOT
ATOM      1  C   LIG d   1       3.579   1.308  -2.405  0.00  0.00    -0.061 A 
ATOM      2  C   LIG d   1       4.457   0.526  -1.663  0.00  0.00    -0.060 A 
ATOM      3  C   LIG d   1       5.087  -0.545  -2.223  0.00  0.00    -0.036 A 
ATOM      4  C   LIG d   1       4.851  -0.873  -3.571  0.00  0.00     0.072 A 
ATOM      5  C   LIG d   1       3.960  -0.065  -4.323  0.00  0.00     0.008 A 
ATOM      6  C   LIG d   1       3.326   1.019  -3.717  0.00  0.00    -0.052 A 
ATOM      7  C   LIG d   1       3.713  -0.413  -5.722  0.00  0.00    -0.003 A 
ATOM      8  C   LIG d   1       2.851   0.292  -6.562  0.00  0.00    -0.035 A 
ATOM      9  C   LIG d   1       2.703  -0.138  -7.866  0.00  0.00     0.029 A 
ATOM     10  N   LIG d   1       3.351  -1.191  -8.332  0.00  0.00    -0.253 NA
ATOM     11  C   LIG d   1       4.183  -1.903  -7.585  0.00  0.00     0.100 A 
ATOM     12  C   LIG d   1       4.393  -1.536  -6.246  0.00  0.00     0.039 A 
ATOM     13  C   LIG d   1       5.294  -2.286  -5.373  0.00  0.00     0.121 A 
ATOM     14  N   LIG d   1       5.467  -1.924  -4.123  0.00  0.00    -0.243 NA
ATOM     15  C   LIG d   1       6.004  -3.459  -5.937  0.00  0.00     0.214 A 
ATOM     16  O   LIG d   1       6.766  -4.110  -5.249  0.00  0.00    -0.285 OA
ATOM     17  C   LIG d   1       5.767  -3.825  -7.346  0.00  0.00     0.051 A 
ATOM     18  C   LIG d   1       4.887  -3.076  -8.147  0.00  0.00     0.101 A 
ATOM     19  N   LIG d   1       4.686  -3.422  -9.413  0.00  0.00    -0.253 NA
ATOM     20  C   LIG d   1       5.291  -4.457  -9.955  0.00  0.00     0.028 A 
ATOM     21  C   LIG d   1       6.171  -5.242  -9.227  0.00  0.00    -0.043 A 
ATOM     22  C   LIG d   1       6.421  -4.930  -7.902  0.00  0.00    -0.047 A 
ATOM     23  H   LIG d   1       3.091   2.152  -1.939  0.00  0.00     0.062 H 
ATOM     24  H   LIG d   1       4.644   0.770  -0.628  0.00  0.00     0.062 H 
ATOM     25  H   LIG d   1       5.766  -1.142  -1.631  0.00  0.00     0.064 H 
ATOM     26  H   LIG d   1       2.642   1.634  -4.283  0.00  0.00     0.062 H 
ATOM     27  H   LIG d   1       2.311   1.156  -6.201  0.00  0.00     0.064 H 
ATOM     28  H   LIG d   1       2.040   0.401  -8.525  0.00  0.00     0.083 H 
ATOM     29  H   LIG d   1       5.097  -4.702 -10.989  0.00  0.00     0.083 H 
ATOM     30  H   LIG d   1       6.657  -6.088  -9.689  0.00  0.00     0.063 H 
ATOM     31  H   LIG d   1       7.102  -5.526  -7.312  0.00  0.00     0.063 H 
ENDROOT
TORSDOF 0
ENDMDL
MODEL 5
REMARK VINA RESULT:      -6.8      1.865      6.423
REMARK  0 active torsions:
REMARK  status: ('A' for Active; 'I' for Inactive)
ROOT
ATOM      1  C   LIG d   1       3.920  -3.534 -10.993  0.00  0.00    -0.061 A 
ATOM      2  C   LIG d   1       4.447  -4.647 -10.349  0.00  0.00    -0.060 A 
ATOM      3  C   LIG d   1       4.690  -4.632  -9.009  0.00  0.00    -0.036 A 
ATOM      4  C   LIG d   1       4.409  -3.477  -8.255  0.00  0.00     0.072 A 
ATOM      5  C   LIG d   1       3.863  -2.348  -8.920  0.00  0.00     0.008 A 
ATOM      6  C   LIG d   1       3.634  -2.394 -10.295  0.00  0.00    -0.052 A 
ATOM      7  C   LIG d   1       3.578  -1.147  -8.135  0.00  0.00    -0.003 A 
ATOM      8  C   LIG d   1       3.054   0.030  -8.670  0.00  0.00    -0.035 A 
ATOM      9  C   LIG d   1       2.829   1.097  -7.822  0.00  0.00     0.029 A 
ATOM     10  N   LIG d   1       3.095   1.030  -6.530  0.00  0.00    -0.253 NA
ATOM     11  C   LIG d   1       3.594  -0.058  -5.960  0.00  0.00     0.100 A 
ATOM     12  C   LIG d   1       3.854  -1.191  -6.750  0.00  0.00     0.039 A 
ATOM     13  C   LIG d   1       4.408  -2.417  -6.178  0.00  0.00     0.121 A 
ATOM     14  N   LIG d   1       4.647  -3.459  -6.940  0.00  0.00    -0.243 NA
ATOM     15  C   LIG d   1       4.689  -2.450  -4.723  0.00  0.00     0.214 A 
ATOM     16  O   LIG d   1       5.147  -3.450  -4.205  0.00  0.00    -0.285 OA
ATOM     17  C   LIG d   1       4.407  -1.249  -3.916  0.00  0.00     0.051 A 
ATOM     18  C   LIG d   1       3.878  -0.090  -4.509  0.00  0.00     0.101 A 
ATOM     19  N   LIG d   1       3.632   0.983  -3.766  0.00  0.00    -0.253 NA
ATOM     20  C   LIG d   1       3.869   1.000  -2.472  0.00  0.00     0.028 A 
ATOM     21  C   LIG d   1       4.390  -0.105  -1.818  0.00  0.00    -0.043 A 
ATOM     22  C   LIG d   1       4.667  -1.252  -2.541  0.00  0.00    -0.047 A 
ATOM     23  H   LIG d   1       3.735  -3.568 -12.057  0.00  0.00     0.062 H 
ATOM     24  H   LIG d   1       4.666  -5.538 -10.919  0.00  0.00     0.062 H 
ATOM     25  H   LIG d   1       5.100  -5.507  -8.525  0.00  0.00     0.064 H 
ATOM     26  H   LIG d   1       3.224  -1.535 -10.805  0.00  0.00     0.062 H 
ATOM     27  H   LIG d   1       2.830   0.106  -9.724  0.00  0.00     0.064 H 
ATOM     28  H   LIG d   1       2.423   2.012  -8.226  0.00  0.00     0.083 H 
ATOM     29  H   LIG d   1       3.653   1.895  -1.906  0.00  0.00     0.083 H 
ATOM     30  H   LIG d   1       4.579  -0.071  -0.756  0.00  0.00     0.063 H 
ATOM     31  H   LIG d   1       5.074  -2.128  -2.056  0.00  0.00     0.063 H 
ENDROOT
TORSDOF 0
ENDMDL
MODEL 6
REMARK VINA RESULT:      -6.6      9.508     12.169
REMARK  0 active torsions:
REMARK  status: ('A' for Active; 'I' for Inactive)
ROOT
ATOM      1  C   LIG d   1       9.509   2.854  -5.440  0.00  0.00    -0.061 A 
ATOM      2  C   LIG d   1       9.665   2.225  -4.210  0.00  0.00    -0.060 A 
ATOM      3  C   LIG d   1       9.853   2.948  -3.071  0.00  0.00    -0.036 A 
ATOM      4  C   LIG d   1       9.892   4.354  -3.130  0.00  0.00     0.072 A 
ATOM      5  C   LIG d   1       9.724   4.988  -4.388  0.00  0.00     0.008 A 
ATOM      6  C   LIG d   1       9.542   4.217  -5.535  0.00  0.00    -0.052 A 
ATOM      7  C   LIG d   1       9.771   6.449  -4.446  0.00  0.00    -0.003 A 
ATOM      8  C   LIG d   1       9.633   7.189  -5.620  0.00  0.00    -0.035 A 
ATOM      9  C   LIG d   1       9.697   8.567  -5.542  0.00  0.00     0.029 A 
ATOM     10  N   LIG d   1       9.884   9.193  -4.394  0.00  0.00    -0.253 NA
ATOM     11  C   LIG d   1      10.023   8.549  -3.245  0.00  0.00     0.100 A 
ATOM     12  C   LIG d   1       9.971   7.144  -3.232  0.00  0.00     0.039 A 
ATOM     13  C   LIG d   1      10.124   6.379  -1.996  0.00  0.00     0.121 A 
ATOM     14  N   LIG d   1      10.077   5.067  -2.014  0.00  0.00    -0.243 NA
ATOM     15  C   LIG d   1      10.329   7.122  -0.729  0.00  0.00     0.214 A 
ATOM     16  O   LIG d   1      10.456   6.526   0.323  0.00  0.00    -0.285 OA
ATOM     17  C   LIG d   1      10.380   8.595  -0.768  0.00  0.00     0.051 A 
ATOM     18  C   LIG d   1      10.233   9.289  -1.982  0.00  0.00     0.101 A 
ATOM     19  N   LIG d   1      10.282  10.617  -1.997  0.00  0.00    -0.253 NA
ATOM     20  C   LIG d   1      10.466  11.317  -0.899  0.00  0.00     0.028 A 
ATOM     21  C   LIG d   1      10.619  10.702   0.333  0.00  0.00    -0.043 A 
ATOM     22  C   LIG d   1      10.576   9.321   0.412  0.00  0.00    -0.047 A 
ATOM     23  H   LIG d   1       9.362   2.259  -6.330  0.00  0.00     0.062 H 
ATOM     24  H   LIG d   1       9.637   1.146  -4.156  0.00  0.00     0.062 H 
ATOM     25  H   LIG d   1       9.973   2.443  -2.124  0.00  0.00     0.064 H 
ATOM     26  H   LIG d   1       9.419   4.694  -6.496  0.00  0.00     0.062 H 
ATOM     27  H   LIG d   1       9.479   6.696  -6.569  0.00  0.00     0.064 H 
ATOM     28  H   LIG d   1       9.590   9.149  -6.444  0.00  0.00     0.083 H 
ATOM     29  H   LIG d   1      10.500  12.395  -0.958  0.00  0.00     0.083 H 
ATOM     30  H   LIG d   1      10.770  11.294   1.223  0.00  0.00     0.063 H 
ATOM     31  H   LIG d   1      10.693   8.816   1.360  0.00  0.00     0.063 H 
ENDROOT
TORSDOF 0
ENDMDL
MODEL 7
REMARK VINA RESULT:      -6.5      9.869     12.583
REMARK  0 active torsions:
REMARK  status: ('A' for Active; 'I' for Inactive)
ROOT
ATOM      1  C   LIG d   1       9.276   8.327  -7.654  0.00  0.00    -0.061 A 
ATOM      2  C   LIG d   1       9.530   9.653  -7.324  0.00  0.00    -0.060 A 
ATOM      3  C   LIG d   1       9.863  10.007  -6.051  0.00  0.00    -0.036 A 
ATOM      4  C   LIG d   1       9.954   9.024  -5.048  0.00  0.00     0.072 A 
ATOM      5  C   LIG d   1       9.702   7.672  -5.397  0.00  0.00     0.008 A 
ATOM      6  C   LIG d   1       9.355   7.345  -6.708  0.00  0.00    -0.052 A 
ATOM      7  C   LIG d   1       9.791   6.653  -4.351  0.00  0.00    -0.003 A 
ATOM      8  C   LIG d   1       9.554   5.294  -4.561  0.00  0.00    -0.035 A 
ATOM      9  C   LIG d   1       9.671   4.431  -3.489  0.00  0.00     0.029 A 
ATOM     10  N   LIG d   1       9.997   4.857  -2.282  0.00  0.00    -0.253 NA
ATOM     11  C   LIG d   1      10.234   6.134  -2.017  0.00  0.00     0.100 A 
ATOM     12  C   LIG d   1      10.138   7.081  -3.050  0.00  0.00     0.039 A 
ATOM     13  C   LIG d   1      10.382   8.503  -2.816  0.00  0.00     0.121 A 
ATOM     14  N   LIG d   1      10.280   9.368  -3.798  0.00  0.00    -0.243 NA
ATOM     15  C   LIG d   1      10.750   8.938  -1.446  0.00  0.00     0.214 A 
ATOM     16  O   LIG d   1      10.966  10.110  -1.208  0.00  0.00    -0.285 OA
ATOM     17  C   LIG d   1      10.844   7.925  -0.379  0.00  0.00     0.051 A 
ATOM     18  C   LIG d   1      10.596   6.568  -0.650  0.00  0.00     0.101 A 
ATOM     19  N   LIG d   1      10.685   5.670   0.325  0.00  0.00    -0.253 NA
ATOM     20  C   LIG d   1      11.004   6.010   1.555  0.00  0.00     0.028 A 
ATOM     21  C   LIG d   1      11.263   7.328   1.896  0.00  0.00    -0.043 A 
ATOM     22  C   LIG d   1      11.185   8.308   0.922  0.00  0.00    -0.047 A 
ATOM     23  H   LIG d   1       9.014   8.070  -8.671  0.00  0.00     0.062 H 
ATOM     24  H   LIG d   1       9.462  10.415  -8.086  0.00  0.00     0.062 H 
ATOM     25  H   LIG d   1      10.056  11.043  -5.812  0.00  0.00     0.064 H 
ATOM     26  H   LIG d   1       9.157   6.318  -6.976  0.00  0.00     0.062 H 
ATOM     27  H   LIG d   1       9.286   4.925  -5.541  0.00  0.00     0.064 H 
ATOM     28  H   LIG d   1       9.491   3.378  -3.641  0.00  0.00     0.083 H 
ATOM     29  H   LIG d   1      11.065   5.246   2.316  0.00  0.00     0.083 H 
ATOM     30  H   LIG d   1      11.522   7.588   2.911  0.00  0.00     0.063 H 
ATOM     31  H   LIG d   1      11.381   9.344   1.162  0.00  0.00     0.063 H 
ENDROOT
TORSDOF 0
ENDMDL
MODEL 8
REMARK VINA RESULT:      -6.4      4.754      6.265
REMARK  0 active torsions:
REMARK  status: ('A' for Active; 'I' for Inactive)
ROOT
ATOM      1  C   LIG d   1      11.263   3.228  -5.687  0.00  0.00    -0.061 A 
ATOM      2  C   LIG d   1      10.656   4.150  -4.842  0.00  0.00    -0.060 A 
ATOM      3  C   LIG d   1       9.522   3.833  -4.157  0.00  0.00    -0.036 A 
ATOM      4  C   LIG d   1       8.948   2.555  -4.299  0.00  0.00     0.072 A 
ATOM      5  C   LIG d   1       9.580   1.618  -5.157  0.00  0.00     0.008 A 
ATOM      6  C   LIG d   1      10.735   1.978  -5.850  0.00  0.00    -0.052 A 
ATOM      7  C   LIG d   1       8.977   0.293  -5.307  0.00  0.00    -0.003 A 
ATOM      8  C   LIG d   1       9.492  -0.711  -6.128  0.00  0.00    -0.035 A 
ATOM      9  C   LIG d   1       8.828  -1.921  -6.184  0.00  0.00     0.029 A 
ATOM     10  N   LIG d   1       7.730  -2.148  -5.486  0.00  0.00    -0.253 NA
ATOM     11  C   LIG d   1       7.190  -1.237  -4.690  0.00  0.00     0.100 A 
ATOM     12  C   LIG d   1       7.800   0.024  -4.573  0.00  0.00     0.039 A 
ATOM     13  C   LIG d   1       7.248   1.070  -3.714  0.00  0.00     0.121 A 
ATOM     14  N   LIG d   1       7.836   2.241  -3.628  0.00  0.00    -0.243 NA
ATOM     15  C   LIG d   1       6.016   0.772  -2.946  0.00  0.00     0.214 A 
ATOM     16  O   LIG d   1       5.524   1.611  -2.216  0.00  0.00    -0.285 OA
ATOM     17  C   LIG d   1       5.394  -0.558  -3.085  0.00  0.00     0.051 A 
ATOM     18  C   LIG d   1       5.958  -1.533  -3.927  0.00  0.00     0.101 A 
ATOM     19  N   LIG d   1       5.383  -2.725  -4.040  0.00  0.00    -0.253 NA
ATOM     20  C   LIG d   1       4.287  -3.032  -3.381  0.00  0.00     0.028 A 
ATOM     21  C   LIG d   1       3.675  -2.123  -2.533  0.00  0.00    -0.043 A 
ATOM     22  C   LIG d   1       4.228  -0.865  -2.375  0.00  0.00    -0.047 A 
ATOM     23  H   LIG d   1      12.162   3.502  -6.221  0.00  0.00     0.062 H 
ATOM     24  H   LIG d   1      11.089   5.133  -4.727  0.00  0.00     0.062 H 
ATOM     25  H   LIG d   1       9.064   4.562  -3.505  0.00  0.00     0.064 H 
ATOM     26  H   LIG d   1      11.215   1.270  -6.509  0.00  0.00     0.062 H 
ATOM     27  H   LIG d   1      10.389  -0.546  -6.707  0.00  0.00     0.064 H 
ATOM     28  H   LIG d   1       9.219  -2.705  -6.815  0.00  0.00     0.083 H 
ATOM     29  H   LIG d   1       3.854  -4.014  -3.503  0.00  0.00     0.083 H 
ATOM     30  H   LIG d   1       2.775  -2.394  -2.002  0.00  0.00     0.063 H 
ATOM     31  H   LIG d   1       3.771  -0.137  -1.720  0.00  0.00     0.063 H 
ENDROOT
TORSDOF 0
ENDMDL
MODEL 9
REMARK VINA RESULT:      -6.3      2.126      2.227
REMARK  0 active torsions:
REMARK  status: ('A' for Active; 'I' for Inactive)
ROOT
ATOM      1  C   LIG d   1       4.917   0.034  -2.089  0.00  0.00    -0.061 A 
ATOM      2  C   LIG d   1       3.554   0.232  -2.275  0.00  0.00    -0.060 A 
ATOM      3  C   LIG d   1       3.010   0.240  -3.524  0.00  0.00    -0.036 A 
ATOM      4  C   LIG d   1       3.832   0.046  -4.650  0.00  0.00     0.072 A 
ATOM      5  C   LIG d   1       5.221  -0.164  -4.450  0.00  0.00     0.008 A 
ATOM      6  C   LIG d   1       5.746  -0.158  -3.158  0.00  0.00    -0.052 A 
ATOM      7  C   LIG d   1       6.073  -0.360  -5.623  0.00  0.00    -0.003 A 
ATOM      8  C   LIG d   1       7.452  -0.562  -5.562  0.00  0.00    -0.035 A 
ATOM      9  C   LIG d   1       8.146  -0.734  -6.744  0.00  0.00     0.029 A 
ATOM     10  N   LIG d   1       7.542  -0.711  -7.918  0.00  0.00    -0.253 NA
ATOM     11  C   LIG d   1       6.236  -0.522  -8.044  0.00  0.00     0.100 A 
ATOM     12  C   LIG d   1       5.453  -0.339  -6.892  0.00  0.00     0.039 A 
ATOM     13  C   LIG d   1       4.009  -0.121  -6.969  0.00  0.00     0.121 A 
ATOM     14  N   LIG d   1       3.302   0.054  -5.877  0.00  0.00    -0.243 NA
ATOM     15  C   LIG d   1       3.370  -0.106  -8.307  0.00  0.00     0.214 A 
ATOM     16  O   LIG d   1       2.172   0.068  -8.418  0.00  0.00    -0.285 OA
ATOM     17  C   LIG d   1       4.214  -0.301  -9.501  0.00  0.00     0.051 A 
ATOM     18  C   LIG d   1       5.600  -0.502  -9.379  0.00  0.00     0.101 A 
ATOM     19  N   LIG d   1       6.343  -0.675 -10.466  0.00  0.00    -0.253 NA
ATOM     20  C   LIG d   1       5.820  -0.666 -11.673  0.00  0.00     0.028 A 
ATOM     21  C   LIG d   1       4.462  -0.473 -11.871  0.00  0.00    -0.043 A 
ATOM     22  C   LIG d   1       3.638  -0.287 -10.776  0.00  0.00    -0.047 A 
ATOM     23  H   LIG d   1       5.326   0.032  -1.088  0.00  0.00     0.062 H 
ATOM     24  H   LIG d   1       2.916   0.383  -1.416  0.00  0.00     0.062 H 
ATOM     25  H   LIG d   1       1.949   0.397  -3.650  0.00  0.00     0.064 H 
ATOM     26  H   LIG d   1       6.804  -0.312  -3.002  0.00  0.00     0.062 H 
ATOM     27  H   LIG d   1       7.966  -0.585  -4.612  0.00  0.00     0.064 H 
ATOM     28  H   LIG d   1       9.213  -0.893  -6.707  0.00  0.00     0.083 H 
ATOM     29  H   LIG d   1       6.463  -0.810 -12.529  0.00  0.00     0.083 H 
ATOM     30  H   LIG d   1       4.053  -0.467 -12.869  0.00  0.00     0.063 H 
ATOM     31  H   LIG d   1       2.575  -0.134 -10.902  0.00  0.00     0.063 H 
ENDROOT
TORSDOF 0
ENDMDL
MODEL 10
REMARK VINA RESULT:      -6.2      9.490     12.403
REMARK  0 active torsions:
REMARK  status: ('A' for Active; 'I' for Inactive)
ROOT
ATOM      1  C   LIG d   1       9.153   7.529  -8.929  0.00  0.00    -0.061 A 
ATOM      2  C   LIG d   1       9.330   6.151  -8.899  0.00  0.00    -0.060 A 
ATOM      3  C   LIG d   1       9.621   5.505  -7.735  0.00  0.00    -0.036 A 
ATOM      4  C   LIG d   1       9.746   6.236  -6.539  0.00  0.00     0.072 A 
ATOM      5  C   LIG d   1       9.555   7.641  -6.577  0.00  0.00     0.008 A 
ATOM      6  C   LIG d   1       9.267   8.271  -7.787  0.00  0.00    -0.052 A 
ATOM      7  C   LIG d   1       9.692   8.398  -5.332  0.00  0.00    -0.003 A 
ATOM      8  C   LIG d   1       9.542   9.782  -5.238  0.00  0.00    -0.035 A 
ATOM      9  C   LIG d   1       9.697  10.380  -4.002  0.00  0.00     0.029 A 
ATOM     10  N   LIG d   1       9.980   9.680  -2.919  0.00  0.00    -0.253 NA
ATOM     11  C   LIG d   1      10.136   8.364  -2.941  0.00  0.00     0.100 A 
ATOM     12  C   LIG d   1       9.996   7.674  -4.157  0.00  0.00     0.039 A 
ATOM     13  C   LIG d   1      10.161   6.224  -4.244  0.00  0.00     0.121 A 
ATOM     14  N   LIG d   1      10.030   5.606  -5.395  0.00  0.00    -0.243 NA
ATOM     15  C   LIG d   1      10.476   5.476  -3.002  0.00  0.00     0.214 A 
ATOM     16  O   LIG d   1      10.618   4.269  -3.028  0.00  0.00    -0.285 OA
ATOM     17  C   LIG d   1      10.618   6.223  -1.739  0.00  0.00     0.051 A 
ATOM     18  C   LIG d   1      10.455   7.618  -1.704  0.00  0.00     0.101 A 
ATOM     19  N   LIG d   1      10.587   8.273  -0.556  0.00  0.00    -0.253 NA
ATOM     20  C   LIG d   1      10.870   7.652   0.569  0.00  0.00     0.028 A 
ATOM     21  C   LIG d   1      11.044   6.278   0.611  0.00  0.00    -0.043 A 
ATOM     22  C   LIG d   1      10.919   5.542  -0.554  0.00  0.00    -0.047 A 
ATOM     23  H   LIG d   1       8.924   8.019  -9.864  0.00  0.00     0.062 H 
ATOM     24  H   LIG d   1       9.237   5.582  -9.813  0.00  0.00     0.062 H 
ATOM     25  H   LIG d   1       9.755   4.433  -7.731  0.00  0.00     0.064 H 
ATOM     26  H   LIG d   1       9.127   9.341  -7.821  0.00  0.00     0.062 H 
ATOM     27  H   LIG d   1       9.310  10.373  -6.113  0.00  0.00     0.064 H 
ATOM     28  H   LIG d   1       9.582  11.449  -3.919  0.00  0.00     0.083 H 
ATOM     29  H   LIG d   1      10.968   8.225   1.479  0.00  0.00     0.083 H 
ATOM     30  H   LIG d   1      11.277   5.787   1.544  0.00  0.00     0.063 H 
ATOM     31  H   LIG d   1      11.051   4.470  -0.548  0.00  0.00     0.063 H 
ENDROOT
TORSDOF 0
ENDMDL
