MODEL 1
REMARK VINA RESULT:      -6.5      0.000      0.000
REMARK  8 active torsions:
REMARK  status: ('A' for Active; 'I' for Inactive)
REMARK    1  A    between atoms: C_1  and  C_2 
REMARK    2  A    between atoms: C_2  and  C_3 
REMARK    3  A    between atoms: C_2  and  C_4 
REMARK    4  A    between atoms: C_4  and  N_5 
REMARK    5  A    between atoms: C_13  and  C_19 
REMARK    6  A    between atoms: C_19  and  O_21 
REMARK    7  A    between atoms: O_21  and  C_22 
REMARK    8  A    between atoms: C_22  and  C_23 
ROOT
ATOM      1  N   LIG d   1       6.505  -1.410  -7.289  0.00  0.00    -0.298 N 
ATOM      2  C   LIG d   1       6.206  -2.526  -8.219  0.00  0.00     0.048 C 
ATOM      3  C   LIG d   1       4.884  -2.159  -8.818  0.00  0.00     0.116 C 
ATOM      4  C   LIG d   1       4.411  -2.596 -10.158  0.00  0.00    -0.052 C 
ATOM      5  C   LIG d   1       3.104  -2.267 -10.161  0.00  0.00    -0.056 C 
ATOM      6  C   LIG d   1       2.800  -1.640  -8.796  0.00  0.00     0.092 C 
ATOM      7  H   LIG d   1       1.755  -1.671  -8.489  0.00  0.00     0.065 H 
ATOM      8  O   LIG d   1       3.744  -2.387  -7.946  0.00  0.00    -0.359 OA
ATOM      9  C   LIG d   1       3.478  -0.206  -8.768  0.00  0.00     0.100 C 
ATOM     10  H   LIG d   1       3.185   0.388  -9.634  0.00  0.00     0.045 H 
ATOM     11  C   LIG d   1       4.968  -0.583  -8.840  0.00  0.00     0.085 C 
ATOM     12  H   LIG d   1       5.461  -0.190  -9.729  0.00  0.00     0.043 H 
ATOM     13  C   LIG d   1       5.748  -0.322  -7.581  0.00  0.00     0.223 C 
ATOM     14  O   LIG d   1       5.707   0.700  -6.931  0.00  0.00    -0.275 OA
ATOM     15  H   LIG d   1       6.970  -2.592  -8.993  0.00  0.00     0.050 H 
ATOM     16  H   LIG d   1       6.131  -3.467  -7.676  0.00  0.00     0.050 H 
ATOM     17  H   LIG d   1       4.979  -3.077 -10.941  0.00  0.00     0.060 H 
ATOM     18  H   LIG d   1       2.406  -2.401 -10.975  0.00  0.00     0.060 H 
ENDROOT
BRANCH   9  19
ATOM     19  C   LIG d   1       3.167   0.526  -7.487  0.00  0.00     0.314 C 
ATOM     20  O   LIG d   1       3.073   1.731  -7.488  0.00  0.00    -0.250 OA
BRANCH  19  21
ATOM     21  O   LIG d   1       2.996  -0.160  -6.347  0.00  0.00    -0.460 OA
BRANCH  21  22
ATOM     22  C   LIG d   1       2.463   0.572  -5.211  0.00  0.00     0.117 C 
ATOM     23  H   LIG d   1       2.633   1.638  -5.355  0.00  0.00     0.075 H 
ATOM     24  H   LIG d   1       1.393   0.381  -5.127  0.00  0.00     0.075 H 
BRANCH  22  25
ATOM     25  C   LIG d   1       3.155   0.118  -3.951  0.00  0.00    -0.010 A 
ATOM     26  C   LIG d   1       3.725   1.050  -3.103  0.00  0.00    -0.055 A 
ATOM     27  C   LIG d   1       4.361   0.633  -1.948  0.00  0.00    -0.061 A 
ATOM     28  H   LIG d   1       3.675   2.101  -3.343  0.00  0.00     0.062 H 
ATOM     29  C   LIG d   1       4.425  -0.713  -1.640  0.00  0.00    -0.062 A 
ATOM     30  H   LIG d   1       4.806   1.360  -1.285  0.00  0.00     0.062 H 
ATOM     31  C   LIG d   1       3.854  -1.643  -2.488  0.00  0.00    -0.061 A 
ATOM     32  H   LIG d   1       4.921  -1.038  -0.738  0.00  0.00     0.062 H 
ATOM     33  C   LIG d   1       3.215  -1.227  -3.642  0.00  0.00    -0.055 A 
ATOM     34  H   LIG d   1       3.904  -2.695  -2.248  0.00  0.00     0.062 H 
ATOM     35  H   LIG d   1       2.766  -1.954  -4.302  0.00  0.00     0.062 H 
ENDBRANCH  22  25
ENDBRANCH  21  22
ENDBRANCH  19  21
ENDBRANCH   9  19
BRANCH   1  36
ATOM     36  C   LIG d   1       7.484  -1.474  -6.201  0.00  0.00     0.017 C 
ATOM     37  H   LIG d   1       8.115  -2.353  -6.332  0.00  0.00     0.047 H 
ATOM     38  H   LIG d   1       8.103  -0.577  -6.217  0.00  0.00     0.047 H 
BRANCH  36  39
ATOM     39  C   LIG d   1       6.752  -1.566  -4.861  0.00  0.00    -0.031 C 
ATOM     40  H   LIG d   1       5.685  -1.414  -5.018  0.00  0.00     0.031 H 
BRANCH  39  41
ATOM     41  C   LIG d   1       6.986  -2.948  -4.246  0.00  0.00    -0.061 C 
ATOM     42  H   LIG d   1       6.402  -3.042  -3.331  0.00  0.00     0.023 H 
ATOM     43  H   LIG d   1       6.679  -3.717  -4.955  0.00  0.00     0.023 H 
ATOM     44  H   LIG d   1       8.045  -3.067  -4.016  0.00  0.00     0.023 H 
ENDBRANCH  39  41
BRANCH  39  45
ATOM     45  C   LIG d   1       7.288  -0.490  -3.913  0.00  0.00    -0.061 C 
ATOM     46  H   LIG d   1       6.471   0.165  -3.609  0.00  0.00     0.023 H 
ATOM     47  H   LIG d   1       7.720  -0.964  -3.033  0.00  0.00     0.023 H 
ATOM     48  H   LIG d   1       8.052   0.096  -4.424  0.00  0.00     0.023 H 
ENDBRANCH  39  45
ENDBRANCH  36  39
ENDBRANCH   1  36
TORSDOF 8
ENDMDL
MODEL 2
REMARK VINA RESULT:      -6.4      2.495      6.260
REMARK  8 active torsions:
REMARK  status: ('A' for Active; 'I' for Inactive)
REMARK    1  A    between atoms: C_1  and  C_2 
REMARK    2  A    between atoms: C_2  and  C_3 
REMARK    3  A    between atoms: C_2  and  C_4 
REMARK    4  A    between atoms: C_4  and  N_5 
REMARK    5  A    between atoms: C_13  and  C_19 
REMARK    6  A    between atoms: C_19  and  O_21 
REMARK    7  A    between atoms: O_21  and  C_22 
REMARK    8  A    between atoms: C_22  and  C_23 
ROOT
ATOM      1  N   LIG d   1       3.285  -0.025  -6.046  0.00  0.00    -0.298 N 
ATOM      2  C   LIG d   1       2.829   0.749  -4.866  0.00  0.00     0.048 C 
ATOM      3  C   LIG d   1       3.580   0.146  -3.721  0.00  0.00     0.116 C 
ATOM      4  C   LIG d   1       3.929   0.864  -2.467  0.00  0.00    -0.052 C 
ATOM      5  C   LIG d   1       4.345  -0.116  -1.640  0.00  0.00    -0.056 C 
ATOM      6  C   LIG d   1       4.224  -1.433  -2.414  0.00  0.00     0.092 C 
ATOM      7  H   LIG d   1       4.148  -2.332  -1.803  0.00  0.00     0.065 H 
ATOM      8  O   LIG d   1       3.059  -1.132  -3.266  0.00  0.00    -0.359 OA
ATOM      9  C   LIG d   1       5.371  -1.448  -3.511  0.00  0.00     0.100 C 
ATOM     10  H   LIG d   1       6.346  -1.253  -3.067  0.00  0.00     0.045 H 
ATOM     11  C   LIG d   1       4.932  -0.279  -4.412  0.00  0.00     0.085 C 
ATOM     12  H   LIG d   1       5.669   0.523  -4.449  0.00  0.00     0.043 H 
ATOM     13  C   LIG d   1       4.442  -0.681  -5.775  0.00  0.00     0.223 C 
ATOM     14  O   LIG d   1       4.994  -1.466  -6.516  0.00  0.00    -0.275 OA
ATOM     15  H   LIG d   1       3.086   1.802  -4.979  0.00  0.00     0.050 H 
ATOM     16  H   LIG d   1       1.755   0.632  -4.724  0.00  0.00     0.050 H 
ATOM     17  H   LIG d   1       3.855   1.922  -2.261  0.00  0.00     0.060 H 
ATOM     18  H   LIG d   1       4.711   0.002  -0.630  0.00  0.00     0.060 H 
ENDROOT
BRANCH   9  19
ATOM     19  C   LIG d   1       5.382  -2.746  -4.279  0.00  0.00     0.314 C 
ATOM     20  O   LIG d   1       4.385  -3.427  -4.327  0.00  0.00    -0.250 OA
BRANCH  19  21
ATOM     21  O   LIG d   1       6.498  -3.144  -4.908  0.00  0.00    -0.460 OA
BRANCH  21  22
ATOM     22  C   LIG d   1       7.764  -2.727  -4.332  0.00  0.00     0.117 C 
ATOM     23  H   LIG d   1       8.364  -2.231  -5.094  0.00  0.00     0.075 H 
ATOM     24  H   LIG d   1       7.579  -2.038  -3.508  0.00  0.00     0.075 H 
BRANCH  22  25
ATOM     25  C   LIG d   1       8.504  -3.936  -3.818  0.00  0.00    -0.010 A 
ATOM     26  C   LIG d   1       8.468  -5.122  -4.530  0.00  0.00    -0.055 A 
ATOM     27  C   LIG d   1       9.146  -6.230  -4.059  0.00  0.00    -0.061 A 
ATOM     28  H   LIG d   1       7.910  -5.182  -5.452  0.00  0.00     0.062 H 
ATOM     29  C   LIG d   1       9.861  -6.154  -2.878  0.00  0.00    -0.062 A 
ATOM     30  H   LIG d   1       9.118  -7.156  -4.614  0.00  0.00     0.062 H 
ATOM     31  C   LIG d   1       9.898  -4.968  -2.168  0.00  0.00    -0.061 A 
ATOM     32  H   LIG d   1      10.391  -7.020  -2.510  0.00  0.00     0.062 H 
ATOM     33  C   LIG d   1       9.222  -3.858  -2.641  0.00  0.00    -0.055 A 
ATOM     34  H   LIG d   1      10.457  -4.908  -1.246  0.00  0.00     0.062 H 
ATOM     35  H   LIG d   1       9.254  -2.931  -2.088  0.00  0.00     0.062 H 
ENDBRANCH  22  25
ENDBRANCH  21  22
ENDBRANCH  19  21
ENDBRANCH   9  19
BRANCH   1  36
ATOM     36  C   LIG d   1       2.582  -0.076  -7.330  0.00  0.00     0.017 C 
ATOM     37  H   LIG d   1       2.512  -1.110  -7.665  0.00  0.00     0.047 H 
ATOM     38  H   LIG d   1       1.579   0.337  -7.211  0.00  0.00     0.047 H 
BRANCH  36  39
ATOM     39  C   LIG d   1       3.352   0.745  -8.367  0.00  0.00    -0.031 C 
ATOM     40  H   LIG d   1       4.417   0.715  -8.135  0.00  0.00     0.031 H 
BRANCH  39  41
ATOM     41  C   LIG d   1       3.116   0.158  -9.759  0.00  0.00    -0.061 C 
ATOM     42  H   LIG d   1       4.018   0.272 -10.360  0.00  0.00     0.023 H 
ATOM     43  H   LIG d   1       2.870  -0.901  -9.671  0.00  0.00     0.023 H 
ATOM     44  H   LIG d   1       2.291   0.683 -10.239  0.00  0.00     0.023 H 
ENDBRANCH  39  41
BRANCH  39  45
ATOM     45  C   LIG d   1       2.862   2.194  -8.335  0.00  0.00    -0.061 C 
ATOM     46  H   LIG d   1       3.586   2.834  -8.841  0.00  0.00     0.023 H 
ATOM     47  H   LIG d   1       1.900   2.264  -8.841  0.00  0.00     0.023 H 
ATOM     48  H   LIG d   1       2.753   2.518  -7.299  0.00  0.00     0.023 H 
ENDBRANCH  39  45
ENDBRANCH  36  39
ENDBRANCH   1  36
TORSDOF 8
ENDMDL
MODEL 3
REMARK VINA RESULT:      -6.4      1.982      2.677
REMARK  8 active torsions:
REMARK  status: ('A' for Active; 'I' for Inactive)
REMARK    1  A    between atoms: C_1  and  C_2 
REMARK    2  A    between atoms: C_2  and  C_3 
REMARK    3  A    between atoms: C_2  and  C_4 
REMARK    4  A    between atoms: C_4  and  N_5 
REMARK    5  A    between atoms: C_13  and  C_19 
REMARK    6  A    between atoms: C_19  and  O_21 
REMARK    7  A    between atoms: O_21  and  C_22 
REMARK    8  A    between atoms: C_22  and  C_23 
ROOT
ATOM      1  N   LIG d   1       5.776   0.503  -9.954  0.00  0.00    -0.298 N 
ATOM      2  C   LIG d   1       4.997  -0.064 -11.082  0.00  0.00     0.048 C 
ATOM      3  C   LIG d   1       3.658  -0.366 -10.486  0.00  0.00     0.116 C 
ATOM      4  C   LIG d   1       2.382  -0.406 -11.249  0.00  0.00    -0.052 C 
ATOM      5  C   LIG d   1       1.510  -0.969 -10.388  0.00  0.00    -0.056 C 
ATOM      6  C   LIG d   1       2.289  -1.279  -9.105  0.00  0.00     0.092 C 
ATOM      7  H   LIG d   1       1.860  -2.056  -8.473  0.00  0.00     0.065 H 
ATOM      8  O   LIG d   1       3.620  -1.566  -9.668  0.00  0.00    -0.359 OA
ATOM      9  C   LIG d   1       2.586   0.102  -8.382  0.00  0.00     0.100 C 
ATOM     10  H   LIG d   1       1.675   0.685  -8.250  0.00  0.00     0.045 H 
ATOM     11  C   LIG d   1       3.523   0.773  -9.403  0.00  0.00     0.085 C 
ATOM     12  H   LIG d   1       3.116   1.702  -9.802  0.00  0.00     0.043 H 
ATOM     13  C   LIG d   1       4.952   0.910  -8.955  0.00  0.00     0.223 C 
ATOM     14  O   LIG d   1       5.310   1.322  -7.873  0.00  0.00    -0.275 OA
ATOM     15  H   LIG d   1       4.901   0.668 -11.884  0.00  0.00     0.050 H 
ATOM     16  H   LIG d   1       5.466  -0.975 -11.451  0.00  0.00     0.050 H 
ATOM     17  H   LIG d   1       2.199  -0.074 -12.260  0.00  0.00     0.060 H 
ATOM     18  H   LIG d   1       0.459  -1.152 -10.560  0.00  0.00     0.060 H 
ENDROOT
BRANCH   9  19
ATOM     19  C   LIG d   1       3.286  -0.105  -7.063  0.00  0.00     0.314 C 
ATOM     20  O   LIG d   1       3.959  -1.093  -6.887  0.00  0.00    -0.250 OA
BRANCH  19  21
ATOM     21  O   LIG d   1       3.161   0.806  -6.087  0.00  0.00    -0.460 OA
BRANCH  21  22
ATOM     22  C   LIG d   1       2.259   0.483  -4.995  0.00  0.00     0.117 C 
ATOM     23  H   LIG d   1       1.643   1.352  -4.765  0.00  0.00     0.075 H 
ATOM     24  H   LIG d   1       1.620  -0.349  -5.287  0.00  0.00     0.075 H 
BRANCH  22  25
ATOM     25  C   LIG d   1       3.060   0.099  -3.778  0.00  0.00    -0.010 A 
ATOM     26  C   LIG d   1       3.661   1.079  -3.009  0.00  0.00    -0.055 A 
ATOM     27  C   LIG d   1       4.396   0.726  -1.893  0.00  0.00    -0.061 A 
ATOM     28  H   LIG d   1       3.557   2.119  -3.280  0.00  0.00     0.062 H 
ATOM     29  C   LIG d   1       4.530  -0.605  -1.544  0.00  0.00    -0.062 A 
ATOM     30  H   LIG d   1       4.866   1.491  -1.292  0.00  0.00     0.062 H 
ATOM     31  C   LIG d   1       3.928  -1.583  -2.313  0.00  0.00    -0.061 A 
ATOM     32  H   LIG d   1       5.104  -0.880  -0.672  0.00  0.00     0.062 H 
ATOM     33  C   LIG d   1       3.190  -1.231  -3.427  0.00  0.00    -0.055 A 
ATOM     34  H   LIG d   1       4.032  -2.624  -2.041  0.00  0.00     0.062 H 
ATOM     35  H   LIG d   1       2.717  -1.996  -4.025  0.00  0.00     0.062 H 
ENDBRANCH  22  25
ENDBRANCH  21  22
ENDBRANCH  19  21
ENDBRANCH   9  19
BRANCH   1  36
ATOM     36  C   LIG d   1       7.236   0.607  -9.921  0.00  0.00     0.017 C 
ATOM     37  H   LIG d   1       7.606   0.842 -10.920  0.00  0.00     0.047 H 
ATOM     38  H   LIG d   1       7.528   1.399  -9.231  0.00  0.00     0.047 H 
BRANCH  36  39
ATOM     39  C   LIG d   1       7.833  -0.722  -9.457  0.00  0.00    -0.031 C 
ATOM     40  H   LIG d   1       7.064  -1.494  -9.479  0.00  0.00     0.031 H 
BRANCH  39  41
ATOM     41  C   LIG d   1       8.981  -1.119 -10.387  0.00  0.00    -0.061 C 
ATOM     42  H   LIG d   1       9.697  -1.733  -9.841  0.00  0.00     0.023 H 
ATOM     43  H   LIG d   1       8.586  -1.685 -11.231  0.00  0.00     0.023 H 
ATOM     44  H   LIG d   1       9.478  -0.220 -10.753  0.00  0.00     0.023 H 
ENDBRANCH  39  41
BRANCH  39  45
ATOM     45  C   LIG d   1       8.363  -0.571  -8.029  0.00  0.00    -0.061 C 
ATOM     46  H   LIG d   1       9.160   0.173  -8.014  0.00  0.00     0.023 H 
ATOM     47  H   LIG d   1       7.554  -0.250  -7.373  0.00  0.00     0.023 H 
ATOM     48  H   LIG d   1       8.754  -1.528  -7.683  0.00  0.00     0.023 H 
ENDBRANCH  39  45
ENDBRANCH  36  39
ENDBRANCH   1  36
TORSDOF 8
ENDMDL
MODEL 4
REMARK VINA RESULT:      -6.2      2.278      5.572
REMARK  8 active torsions:
REMARK  status: ('A' for Active; 'I' for Inactive)
REMARK    1  A    between atoms: C_1  and  C_2 
REMARK    2  A    between atoms: C_2  and  C_3 
REMARK    3  A    between atoms: C_2  and  C_4 
REMARK    4  A    between atoms: C_4  and  N_5 
REMARK    5  A    between atoms: C_13  and  C_19 
REMARK    6  A    between atoms: C_19  and  O_21 
REMARK    7  A    between atoms: O_21  and  C_22 
REMARK    8  A    between atoms: C_22  and  C_23 
ROOT
ATOM      1  N   LIG d   1       7.282   0.238  -4.027  0.00  0.00    -0.298 N 
ATOM      2  C   LIG d   1       6.390   1.019  -3.135  0.00  0.00     0.048 C 
ATOM      3  C   LIG d   1       5.071   0.319  -3.232  0.00  0.00     0.116 C 
ATOM      4  C   LIG d   1       4.031   0.321  -2.170  0.00  0.00    -0.052 C 
ATOM      5  C   LIG d   1       2.943  -0.186  -2.783  0.00  0.00    -0.056 C 
ATOM      6  C   LIG d   1       3.345  -0.478  -4.233  0.00  0.00     0.092 C 
ATOM      7  H   LIG d   1       2.523  -0.523  -4.947  0.00  0.00     0.065 H 
ATOM      8  O   LIG d   1       4.333   0.594  -4.453  0.00  0.00    -0.359 OA
ATOM      9  C   LIG d   1       4.306  -1.740  -4.217  0.00  0.00     0.100 C 
ATOM     10  H   LIG d   1       3.857  -2.574  -3.677  0.00  0.00     0.045 H 
ATOM     11  C   LIG d   1       5.517  -1.178  -3.451  0.00  0.00     0.085 C 
ATOM     12  H   LIG d   1       5.711  -1.711  -2.520  0.00  0.00     0.043 H 
ATOM     13  C   LIG d   1       6.757  -0.989  -4.279  0.00  0.00     0.223 C 
ATOM     14  O   LIG d   1       7.216  -1.803  -5.051  0.00  0.00    -0.275 OA
ATOM     15  H   LIG d   1       6.760   0.995  -2.110  0.00  0.00     0.050 H 
ATOM     16  H   LIG d   1       6.305   2.047  -3.486  0.00  0.00     0.050 H 
ATOM     17  H   LIG d   1       4.122   0.662  -1.149  0.00  0.00     0.060 H 
ATOM     18  H   LIG d   1       1.977  -0.371  -2.336  0.00  0.00     0.060 H 
ENDROOT
BRANCH   9  19
ATOM     19  C   LIG d   1       4.696  -2.154  -5.613  0.00  0.00     0.314 C 
ATOM     20  O   LIG d   1       4.922  -3.316  -5.857  0.00  0.00    -0.250 OA
BRANCH  19  21
ATOM     21  O   LIG d   1       4.791  -1.234  -6.584  0.00  0.00    -0.460 OA
BRANCH  21  22
ATOM     22  C   LIG d   1       3.941  -1.413  -7.748  0.00  0.00     0.117 C 
ATOM     23  H   LIG d   1       4.391  -2.146  -8.417  0.00  0.00     0.075 H 
ATOM     24  H   LIG d   1       2.960  -1.765  -7.430  0.00  0.00     0.075 H 
BRANCH  22  25
ATOM     25  C   LIG d   1       3.794  -0.098  -8.470  0.00  0.00    -0.010 A 
ATOM     26  C   LIG d   1       4.427   0.098  -9.684  0.00  0.00    -0.055 A 
ATOM     27  C   LIG d   1       4.293   1.304 -10.345  0.00  0.00    -0.061 A 
ATOM     28  H   LIG d   1       5.027  -0.690 -10.114  0.00  0.00     0.062 H 
ATOM     29  C   LIG d   1       3.525   2.314  -9.795  0.00  0.00    -0.062 A 
ATOM     30  H   LIG d   1       4.787   1.458 -11.293  0.00  0.00     0.062 H 
ATOM     31  C   LIG d   1       2.892   2.116  -8.582  0.00  0.00    -0.061 A 
ATOM     32  H   LIG d   1       3.420   3.256 -10.312  0.00  0.00     0.062 H 
ATOM     33  C   LIG d   1       3.023   0.909  -7.922  0.00  0.00    -0.055 A 
ATOM     34  H   LIG d   1       2.291   2.905  -8.152  0.00  0.00     0.062 H 
ATOM     35  H   LIG d   1       2.525   0.754  -6.976  0.00  0.00     0.062 H 
ENDBRANCH  22  25
ENDBRANCH  21  22
ENDBRANCH  19  21
ENDBRANCH   9  19
BRANCH   1  36
ATOM     36  C   LIG d   1       8.556   0.723  -4.562  0.00  0.00     0.017 C 
ATOM     37  H   LIG d   1       9.378   0.284  -3.997  0.00  0.00     0.047 H 
ATOM     38  H   LIG d   1       8.642   0.437  -5.611  0.00  0.00     0.047 H 
BRANCH  36  39
ATOM     39  C   LIG d   1       8.612   2.247  -4.442  0.00  0.00    -0.031 C 
ATOM     40  H   LIG d   1       7.638   2.623  -4.129  0.00  0.00     0.031 H 
BRANCH  39  41
ATOM     41  C   LIG d   1       9.668   2.639  -3.408  0.00  0.00    -0.061 C 
ATOM     42  H   LIG d   1      10.070   3.623  -3.652  0.00  0.00     0.023 H 
ATOM     43  H   LIG d   1       9.213   2.668  -2.417  0.00  0.00     0.023 H 
ATOM     44  H   LIG d   1      10.474   1.905  -3.416  0.00  0.00     0.023 H 
ENDBRANCH  39  41
BRANCH  39  45
ATOM     45  C   LIG d   1       8.979   2.852  -5.800  0.00  0.00    -0.061 C 
ATOM     46  H   LIG d   1       8.097   2.870  -6.440  0.00  0.00     0.023 H 
ATOM     47  H   LIG d   1       9.346   3.868  -5.658  0.00  0.00     0.023 H 
ATOM     48  H   LIG d   1       9.756   2.247  -6.268  0.00  0.00     0.023 H 
ENDBRANCH  39  45
ENDBRANCH  36  39
ENDBRANCH   1  36
TORSDOF 8
ENDMDL
MODEL 5
REMARK VINA RESULT:      -5.8      2.103      6.013
REMARK  8 active torsions:
REMARK  status: ('A' for Active; 'I' for Inactive)
REMARK    1  A    between atoms: C_1  and  C_2 
REMARK    2  A    between atoms: C_2  and  C_3 
REMARK    3  A    between atoms: C_2  and  C_4 
REMARK    4  A    between atoms: C_4  and  N_5 
REMARK    5  A    between atoms: C_13  and  C_19 
REMARK    6  A    between atoms: C_19  and  O_21 
REMARK    7  A    between atoms: O_21  and  C_22 
REMARK    8  A    between atoms: C_22  and  C_23 
ROOT
ATOM      1  N   LIG d   1       3.266  -0.004  -6.021  0.00  0.00    -0.298 N 
ATOM      2  C   LIG d   1       2.831   0.882  -4.914  0.00  0.00     0.048 C 
ATOM      3  C   LIG d   1       3.552   0.351  -3.715  0.00  0.00     0.116 C 
ATOM      4  C   LIG d   1       3.919   1.158  -2.522  0.00  0.00    -0.052 C 
ATOM      5  C   LIG d   1       4.294   0.237  -1.612  0.00  0.00    -0.056 C 
ATOM      6  C   LIG d   1       4.131  -1.135  -2.275  0.00  0.00     0.092 C 
ATOM      7  H   LIG d   1       4.019  -1.976  -1.592  0.00  0.00     0.065 H 
ATOM      8  O   LIG d   1       2.983  -0.865  -3.160  0.00  0.00    -0.359 OA
ATOM      9  C   LIG d   1       5.283  -1.282  -3.356  0.00  0.00     0.100 C 
ATOM     10  H   LIG d   1       6.263  -1.084  -2.921  0.00  0.00     0.045 H 
ATOM     11  C   LIG d   1       4.893  -0.178  -4.355  0.00  0.00     0.085 C 
ATOM     12  H   LIG d   1       5.658   0.592  -4.453  0.00  0.00     0.043 H 
ATOM     13  C   LIG d   1       4.398  -0.675  -5.685  0.00  0.00     0.223 C 
ATOM     14  O   LIG d   1       4.926  -1.538  -6.352  0.00  0.00    -0.275 OA
ATOM     15  H   LIG d   1       3.126   1.913  -5.111  0.00  0.00     0.050 H 
ATOM     16  H   LIG d   1       1.752   0.815  -4.773  0.00  0.00     0.050 H 
ATOM     17  H   LIG d   1       3.882   2.232  -2.406  0.00  0.00     0.060 H 
ATOM     18  H   LIG d   1       4.657   0.426  -0.613  0.00  0.00     0.060 H 
ENDROOT
BRANCH   9  19
ATOM     19  C   LIG d   1       5.253  -2.639  -4.013  0.00  0.00     0.314 C 
ATOM     20  O   LIG d   1       4.226  -3.275  -4.035  0.00  0.00    -0.250 OA
BRANCH  19  21
ATOM     21  O   LIG d   1       6.365  -3.139  -4.571  0.00  0.00    -0.460 OA
BRANCH  21  22
ATOM     22  C   LIG d   1       7.633  -2.590  -4.123  0.00  0.00     0.117 C 
ATOM     23  H   LIG d   1       7.462  -1.930  -3.273  0.00  0.00     0.075 H 
ATOM     24  H   LIG d   1       8.295  -3.403  -3.824  0.00  0.00     0.075 H 
BRANCH  22  25
ATOM     25  C   LIG d   1       8.269  -1.811  -5.245  0.00  0.00    -0.010 A 
ATOM     26  C   LIG d   1       8.592  -0.479  -5.065  0.00  0.00    -0.055 A 
ATOM     27  C   LIG d   1       9.174   0.236  -6.095  0.00  0.00    -0.061 A 
ATOM     28  H   LIG d   1       8.389   0.003  -4.120  0.00  0.00     0.062 H 
ATOM     29  C   LIG d   1       9.435  -0.381  -7.304  0.00  0.00    -0.062 A 
ATOM     30  H   LIG d   1       9.427   1.276  -5.954  0.00  0.00     0.062 H 
ATOM     31  C   LIG d   1       9.112  -1.713  -7.484  0.00  0.00    -0.061 A 
ATOM     32  H   LIG d   1       9.890   0.178  -8.109  0.00  0.00     0.062 H 
ATOM     33  C   LIG d   1       8.533  -2.429  -6.453  0.00  0.00    -0.055 A 
ATOM     34  H   LIG d   1       9.315  -2.195  -8.429  0.00  0.00     0.062 H 
ATOM     35  H   LIG d   1       8.284  -3.471  -6.592  0.00  0.00     0.062 H 
ENDBRANCH  22  25
ENDBRANCH  21  22
ENDBRANCH  19  21
ENDBRANCH   9  19
BRANCH   1  36
ATOM     36  C   LIG d   1       2.570  -0.137  -7.303  0.00  0.00     0.017 C 
ATOM     37  H   LIG d   1       2.527  -1.189  -7.585  0.00  0.00     0.047 H 
ATOM     38  H   LIG d   1       1.558   0.256  -7.208  0.00  0.00     0.047 H 
BRANCH  36  39
ATOM     39  C   LIG d   1       3.325   0.648  -8.377  0.00  0.00    -0.031 C 
ATOM     40  H   LIG d   1       4.392   0.639  -8.152  0.00  0.00     0.031 H 
BRANCH  39  41
ATOM     41  C   LIG d   1       3.086   0.002  -9.743  0.00  0.00    -0.061 C 
ATOM     42  H   LIG d   1       3.420  -1.035  -9.719  0.00  0.00     0.023 H 
ATOM     43  H   LIG d   1       2.022   0.037  -9.980  0.00  0.00     0.023 H 
ATOM     44  H   LIG d   1       3.645   0.547 -10.504  0.00  0.00     0.023 H 
ENDBRANCH  39  41
BRANCH  39  45
ATOM     45  C   LIG d   1       2.821   2.093  -8.401  0.00  0.00    -0.061 C 
ATOM     46  H   LIG d   1       2.387   2.310  -9.377  0.00  0.00     0.023 H 
ATOM     47  H   LIG d   1       2.063   2.226  -7.629  0.00  0.00     0.023 H 
ATOM     48  H   LIG d   1       3.653   2.772  -8.214  0.00  0.00     0.023 H 
ENDBRANCH  39  45
ENDBRANCH  36  39
ENDBRANCH   1  36
TORSDOF 8
ENDMDL
MODEL 6
REMARK VINA RESULT:      -5.8      2.354      4.551
REMARK  8 active torsions:
REMARK  status: ('A' for Active; 'I' for Inactive)
REMARK    1  A    between atoms: C_1  and  C_2 
REMARK    2  A    between atoms: C_2  and  C_3 
REMARK    3  A    between atoms: C_2  and  C_4 
REMARK    4  A    between atoms: C_4  and  N_5 
REMARK    5  A    between atoms: C_13  and  C_19 
REMARK    6  A    between atoms: C_19  and  O_21 
REMARK    7  A    between atoms: O_21  and  C_22 
REMARK    8  A    between atoms: C_22  and  C_23 
ROOT
ATOM      1  N   LIG d   1       4.096  -2.546  -8.080  0.00  0.00    -0.298 N 
ATOM      2  C   LIG d   1       3.708  -3.977  -8.052  0.00  0.00     0.048 C 
ATOM      3  C   LIG d   1       4.588  -4.574  -7.000  0.00  0.00     0.116 C 
ATOM      4  C   LIG d   1       4.249  -5.777  -6.195  0.00  0.00    -0.052 C 
ATOM      5  C   LIG d   1       5.411  -6.100  -5.592  0.00  0.00    -0.056 C 
ATOM      6  C   LIG d   1       6.453  -5.079  -6.060  0.00  0.00     0.092 C 
ATOM      7  H   LIG d   1       7.492  -5.401  -5.986  0.00  0.00     0.065 H 
ATOM      8  O   LIG d   1       5.960  -4.804  -7.422  0.00  0.00    -0.359 OA
ATOM      9  C   LIG d   1       6.116  -3.696  -5.360  0.00  0.00     0.100 C 
ATOM     10  H   LIG d   1       6.023  -3.811  -4.280  0.00  0.00     0.045 H 
ATOM     11  C   LIG d   1       4.753  -3.368  -5.996  0.00  0.00     0.085 C 
ATOM     12  H   LIG d   1       3.950  -3.304  -5.263  0.00  0.00     0.043 H 
ATOM     13  C   LIG d   1       4.763  -2.204  -6.948  0.00  0.00     0.223 C 
ATOM     14  O   LIG d   1       5.285  -1.131  -6.737  0.00  0.00    -0.275 OA
ATOM     15  H   LIG d   1       2.659  -4.082  -7.776  0.00  0.00     0.050 H 
ATOM     16  H   LIG d   1       3.897  -4.443  -9.019  0.00  0.00     0.050 H 
ATOM     17  H   LIG d   1       3.297  -6.283  -6.121  0.00  0.00     0.060 H 
ATOM     18  H   LIG d   1       5.575  -6.910  -4.896  0.00  0.00     0.060 H 
ENDROOT
BRANCH   9  19
ATOM     19  C   LIG d   1       7.138  -2.641  -5.700  0.00  0.00     0.314 C 
ATOM     20  O   LIG d   1       7.770  -2.723  -6.727  0.00  0.00    -0.250 OA
BRANCH  19  21
ATOM     21  O   LIG d   1       7.345  -1.612  -4.865  0.00  0.00    -0.460 OA
BRANCH  21  22
ATOM     22  C   LIG d   1       7.041  -1.831  -3.462  0.00  0.00     0.117 C 
ATOM     23  H   LIG d   1       6.775  -2.876  -3.306  0.00  0.00     0.075 H 
ATOM     24  H   LIG d   1       7.915  -1.584  -2.859  0.00  0.00     0.075 H 
BRANCH  22  25
ATOM     25  C   LIG d   1       5.886  -0.952  -3.055  0.00  0.00    -0.010 A 
ATOM     26  C   LIG d   1       6.026   0.424  -3.069  0.00  0.00    -0.055 A 
ATOM     27  C   LIG d   1       4.966   1.229  -2.696  0.00  0.00    -0.061 A 
ATOM     28  H   LIG d   1       6.962   0.868  -3.371  0.00  0.00     0.062 H 
ATOM     29  C   LIG d   1       3.767   0.660  -2.310  0.00  0.00    -0.062 A 
ATOM     30  H   LIG d   1       5.075   2.303  -2.707  0.00  0.00     0.062 H 
ATOM     31  C   LIG d   1       3.627  -0.715  -2.297  0.00  0.00    -0.061 A 
ATOM     32  H   LIG d   1       2.939   1.290  -2.019  0.00  0.00     0.062 H 
ATOM     33  C   LIG d   1       4.686  -1.521  -2.674  0.00  0.00    -0.055 A 
ATOM     34  H   LIG d   1       2.690  -1.160  -1.996  0.00  0.00     0.062 H 
ATOM     35  H   LIG d   1       4.575  -2.595  -2.667  0.00  0.00     0.062 H 
ENDBRANCH  22  25
ENDBRANCH  21  22
ENDBRANCH  19  21
ENDBRANCH   9  19
BRANCH   1  36
ATOM     36  C   LIG d   1       3.800  -1.625  -9.180  0.00  0.00     0.017 C 
ATOM     37  H   LIG d   1       4.597  -0.886  -9.259  0.00  0.00     0.047 H 
ATOM     38  H   LIG d   1       3.729  -2.185 -10.113  0.00  0.00     0.047 H 
BRANCH  36  39
ATOM     39  C   LIG d   1       2.472  -0.915  -8.908  0.00  0.00    -0.031 C 
ATOM     40  H   LIG d   1       1.996  -1.357  -8.033  0.00  0.00     0.031 H 
BRANCH  39  41
ATOM     41  C   LIG d   1       2.731   0.571  -8.654  0.00  0.00    -0.061 C 
ATOM     42  H   LIG d   1       2.460   1.144  -9.540  0.00  0.00     0.023 H 
ATOM     43  H   LIG d   1       2.129   0.904  -7.807  0.00  0.00     0.023 H 
ATOM     44  H   LIG d   1       3.787   0.722  -8.431  0.00  0.00     0.023 H 
ENDBRANCH  39  41
BRANCH  39  45
ATOM     45  C   LIG d   1       1.553  -1.072 -10.122  0.00  0.00    -0.061 C 
ATOM     46  H   LIG d   1       0.861  -1.897  -9.950  0.00  0.00     0.023 H 
ATOM     47  H   LIG d   1       0.990  -0.151 -10.273  0.00  0.00     0.023 H 
ATOM     48  H   LIG d   1       2.153  -1.281 -11.008  0.00  0.00     0.023 H 
ENDBRANCH  39  45
ENDBRANCH  36  39
ENDBRANCH   1  36
TORSDOF 8
ENDMDL
MODEL 7
REMARK VINA RESULT:      -5.8      1.967      4.212
REMARK  8 active torsions:
REMARK  status: ('A' for Active; 'I' for Inactive)
REMARK    1  A    between atoms: C_1  and  C_2 
REMARK    2  A    between atoms: C_2  and  C_3 
REMARK    3  A    between atoms: C_2  and  C_4 
REMARK    4  A    between atoms: C_4  and  N_5 
REMARK    5  A    between atoms: C_13  and  C_19 
REMARK    6  A    between atoms: C_19  and  O_21 
REMARK    7  A    between atoms: O_21  and  C_22 
REMARK    8  A    between atoms: C_22  and  C_23 
ROOT
ATOM      1  N   LIG d   1       3.186  -2.206  -9.793  0.00  0.00    -0.298 N 
ATOM      2  C   LIG d   1       2.849  -1.128 -10.755  0.00  0.00     0.048 C 
ATOM      3  C   LIG d   1       3.277   0.127 -10.061  0.00  0.00     0.116 C 
ATOM      4  C   LIG d   1       3.684   1.379 -10.752  0.00  0.00    -0.052 C 
ATOM      5  C   LIG d   1       3.718   2.296  -9.764  0.00  0.00    -0.056 C 
ATOM      6  C   LIG d   1       3.310   1.575  -8.475  0.00  0.00     0.092 C 
ATOM      7  H   LIG d   1       2.920   2.215  -7.683  0.00  0.00     0.065 H 
ATOM      8  O   LIG d   1       2.371   0.576  -9.017  0.00  0.00    -0.359 OA
ATOM      9  C   LIG d   1       4.512   0.627  -8.056  0.00  0.00     0.100 C 
ATOM     10  H   LIG d   1       5.452   1.176  -8.010  0.00  0.00     0.045 H 
ATOM     11  C   LIG d   1       4.517  -0.374  -9.225  0.00  0.00     0.085 C 
ATOM     12  H   LIG d   1       5.450  -0.360  -9.788  0.00  0.00     0.043 H 
ATOM     13  C   LIG d   1       4.076  -1.766  -8.867  0.00  0.00     0.223 C 
ATOM     14  O   LIG d   1       4.456  -2.396  -7.904  0.00  0.00    -0.275 OA
ATOM     15  H   LIG d   1       3.404  -1.258 -11.684  0.00  0.00     0.050 H 
ATOM     16  H   LIG d   1       1.777  -1.111 -10.949  0.00  0.00     0.050 H 
ATOM     17  H   LIG d   1       3.892   1.524 -11.802  0.00  0.00     0.060 H 
ATOM     18  H   LIG d   1       3.997   3.335  -9.856  0.00  0.00     0.060 H 
ENDROOT
BRANCH   9  19
ATOM     19  C   LIG d   1       4.234  -0.071  -6.749  0.00  0.00     0.314 C 
ATOM     20  O   LIG d   1       5.150  -0.515  -6.097  0.00  0.00    -0.250 OA
BRANCH  19  21
ATOM     21  O   LIG d   1       2.973  -0.199  -6.311  0.00  0.00    -0.460 OA
BRANCH  21  22
ATOM     22  C   LIG d   1       2.582   0.625  -5.180  0.00  0.00     0.117 C 
ATOM     23  H   LIG d   1       2.906   1.651  -5.349  0.00  0.00     0.075 H 
ATOM     24  H   LIG d   1       1.498   0.599  -5.071  0.00  0.00     0.075 H 
BRANCH  22  25
ATOM     25  C   LIG d   1       3.226   0.094  -3.925  0.00  0.00    -0.010 A 
ATOM     26  C   LIG d   1       3.937   0.947  -3.100  0.00  0.00    -0.055 A 
ATOM     27  C   LIG d   1       4.528   0.460  -1.949  0.00  0.00    -0.061 A 
ATOM     28  H   LIG d   1       4.031   1.991  -3.355  0.00  0.00     0.062 H 
ATOM     29  C   LIG d   1       4.408  -0.878  -1.622  0.00  0.00    -0.062 A 
ATOM     30  H   LIG d   1       5.083   1.125  -1.305  0.00  0.00     0.062 H 
ATOM     31  C   LIG d   1       3.696  -1.729  -2.447  0.00  0.00    -0.061 A 
ATOM     32  H   LIG d   1       4.869  -1.258  -0.723  0.00  0.00     0.062 H 
ATOM     33  C   LIG d   1       3.102  -1.242  -3.596  0.00  0.00    -0.055 A 
ATOM     34  H   LIG d   1       3.602  -2.775  -2.191  0.00  0.00     0.062 H 
ATOM     35  H   LIG d   1       2.543  -1.906  -4.238  0.00  0.00     0.062 H 
ENDBRANCH  22  25
ENDBRANCH  21  22
ENDBRANCH  19  21
ENDBRANCH   9  19
BRANCH   1  36
ATOM     36  C   LIG d   1       2.633  -3.562  -9.837  0.00  0.00     0.017 C 
ATOM     37  H   LIG d   1       3.448  -4.285  -9.887  0.00  0.00     0.047 H 
ATOM     38  H   LIG d   1       2.043  -3.742  -8.938  0.00  0.00     0.047 H 
BRANCH  36  39
ATOM     39  C   LIG d   1       1.743  -3.711 -11.072  0.00  0.00    -0.031 C 
ATOM     40  H   LIG d   1       1.709  -2.765 -11.612  0.00  0.00     0.031 H 
BRANCH  39  41
ATOM     41  C   LIG d   1       2.314  -4.799 -11.984  0.00  0.00    -0.061 C 
ATOM     42  H   LIG d   1       3.204  -4.422 -12.488  0.00  0.00     0.023 H 
ATOM     43  H   LIG d   1       2.577  -5.672 -11.386  0.00  0.00     0.023 H 
ATOM     44  H   LIG d   1       1.567  -5.078 -12.726  0.00  0.00     0.023 H 
ENDBRANCH  39  41
BRANCH  39  45
ATOM     45  C   LIG d   1       0.329  -4.101 -10.636  0.00  0.00    -0.061 C 
ATOM     46  H   LIG d   1      -0.155  -3.246 -10.165  0.00  0.00     0.023 H 
ATOM     47  H   LIG d   1      -0.247  -4.410 -11.508  0.00  0.00     0.023 H 
ATOM     48  H   LIG d   1       0.383  -4.926  -9.925  0.00  0.00     0.023 H 
ENDBRANCH  39  45
ENDBRANCH  36  39
ENDBRANCH   1  36
TORSDOF 8
ENDMDL
MODEL 8
REMARK VINA RESULT:      -5.8      3.171      6.319
REMARK  8 active torsions:
REMARK  status: ('A' for Active; 'I' for Inactive)
REMARK    1  A    between atoms: C_1  and  C_2 
REMARK    2  A    between atoms: C_2  and  C_3 
REMARK    3  A    between atoms: C_2  and  C_4 
REMARK    4  A    between atoms: C_4  and  N_5 
REMARK    5  A    between atoms: C_13  and  C_19 
REMARK    6  A    between atoms: C_19  and  O_21 
REMARK    7  A    between atoms: O_21  and  C_22 
REMARK    8  A    between atoms: C_22  and  C_23 
ROOT
ATOM      1  N   LIG d   1       3.469  -0.204  -6.193  0.00  0.00    -0.298 N 
ATOM      2  C   LIG d   1       2.934   0.319  -4.912  0.00  0.00     0.048 C 
ATOM      3  C   LIG d   1       3.648  -0.476  -3.865  0.00  0.00     0.116 C 
ATOM      4  C   LIG d   1       3.916  -0.006  -2.481  0.00  0.00    -0.052 C 
ATOM      5  C   LIG d   1       4.323  -1.118  -1.835  0.00  0.00    -0.056 C 
ATOM      6  C   LIG d   1       4.280  -2.263  -2.853  0.00  0.00     0.092 C 
ATOM      7  H   LIG d   1       4.204  -3.264  -2.429  0.00  0.00     0.065 H 
ATOM      8  O   LIG d   1       3.147  -1.829  -3.691  0.00  0.00    -0.359 OA
ATOM      9  C   LIG d   1       5.477  -2.042  -3.871  0.00  0.00     0.100 C 
ATOM     10  H   LIG d   1       6.424  -1.914  -3.347  0.00  0.00     0.045 H 
ATOM     11  C   LIG d   1       5.045  -0.731  -4.553  0.00  0.00     0.085 C 
ATOM     12  H   LIG d   1       5.757   0.079  -4.398  0.00  0.00     0.043 H 
ATOM     13  C   LIG d   1       4.632  -0.874  -5.992  0.00  0.00     0.223 C 
ATOM     14  O   LIG d   1       5.243  -1.490  -6.839  0.00  0.00    -0.275 OA
ATOM     15  H   LIG d   1       3.162   1.379  -4.808  0.00  0.00     0.050 H 
ATOM     16  H   LIG d   1       1.858   0.153  -4.851  0.00  0.00     0.050 H 
ATOM     17  H   LIG d   1       3.799   0.991  -2.081  0.00  0.00     0.060 H 
ATOM     18  H   LIG d   1       4.637  -1.188  -0.804  0.00  0.00     0.060 H 
ENDROOT
BRANCH   9  19
ATOM     19  C   LIG d   1       5.566  -3.167  -4.871  0.00  0.00     0.314 C 
ATOM     20  O   LIG d   1       6.578  -3.325  -5.512  0.00  0.00    -0.250 OA
BRANCH  19  21
ATOM     21  O   LIG d   1       4.523  -3.991  -5.048  0.00  0.00    -0.460 OA
BRANCH  21  22
ATOM     22  C   LIG d   1       4.262  -4.443  -6.403  0.00  0.00     0.117 C 
ATOM     23  H   LIG d   1       3.242  -4.181  -6.683  0.00  0.00     0.075 H 
ATOM     24  H   LIG d   1       4.961  -3.962  -7.087  0.00  0.00     0.075 H 
BRANCH  22  25
ATOM     25  C   LIG d   1       4.435  -5.938  -6.477  0.00  0.00    -0.010 A 
ATOM     26  C   LIG d   1       4.179  -6.606  -7.661  0.00  0.00    -0.055 A 
ATOM     27  C   LIG d   1       4.338  -7.977  -7.728  0.00  0.00    -0.061 A 
ATOM     28  H   LIG d   1       3.856  -6.056  -8.532  0.00  0.00     0.062 H 
ATOM     29  C   LIG d   1       4.753  -8.682  -6.613  0.00  0.00    -0.062 A 
ATOM     30  H   LIG d   1       4.138  -8.499  -8.652  0.00  0.00     0.062 H 
ATOM     31  C   LIG d   1       5.009  -8.013  -5.430  0.00  0.00    -0.061 A 
ATOM     32  H   LIG d   1       4.877  -9.753  -6.666  0.00  0.00     0.062 H 
ATOM     33  C   LIG d   1       4.854  -6.641  -5.363  0.00  0.00    -0.055 A 
ATOM     34  H   LIG d   1       5.333  -8.563  -4.559  0.00  0.00     0.062 H 
ATOM     35  H   LIG d   1       5.058  -6.119  -4.441  0.00  0.00     0.062 H 
ENDBRANCH  22  25
ENDBRANCH  21  22
ENDBRANCH  19  21
ENDBRANCH   9  19
BRANCH   1  36
ATOM     36  C   LIG d   1       2.829  -0.021  -7.498  0.00  0.00     0.017 C 
ATOM     37  H   LIG d   1       2.779  -0.980  -8.014  0.00  0.00     0.047 H 
ATOM     38  H   LIG d   1       1.820   0.367  -7.356  0.00  0.00     0.047 H 
BRANCH  36  39
ATOM     39  C   LIG d   1       3.645   0.967  -8.333  0.00  0.00    -0.031 C 
ATOM     40  H   LIG d   1       4.587   1.178  -7.828  0.00  0.00     0.031 H 
BRANCH  39  41
ATOM     41  C   LIG d   1       3.928   0.360  -9.709  0.00  0.00    -0.061 C 
ATOM     42  H   LIG d   1       4.922  -0.087  -9.712  0.00  0.00     0.023 H 
ATOM     43  H   LIG d   1       3.183  -0.406  -9.928  0.00  0.00     0.023 H 
ATOM     44  H   LIG d   1       3.878   1.142 -10.467  0.00  0.00     0.023 H 
ENDBRANCH  39  41
BRANCH  39  45
ATOM     45  C   LIG d   1       2.854   2.266  -8.502  0.00  0.00    -0.061 C 
ATOM     46  H   LIG d   1       2.030   2.285  -7.789  0.00  0.00     0.023 H 
ATOM     47  H   LIG d   1       3.510   3.117  -8.321  0.00  0.00     0.023 H 
ATOM     48  H   LIG d   1       2.458   2.321  -9.516  0.00  0.00     0.023 H 
ENDBRANCH  39  45
ENDBRANCH  36  39
ENDBRANCH   1  36
TORSDOF 8
ENDMDL
MODEL 9
REMARK VINA RESULT:      -5.8      1.861      2.414
REMARK  8 active torsions:
REMARK  status: ('A' for Active; 'I' for Inactive)
REMARK    1  A    between atoms: C_1  and  C_2 
REMARK    2  A    between atoms: C_2  and  C_3 
REMARK    3  A    between atoms: C_2  and  C_4 
REMARK    4  A    between atoms: C_4  and  N_5 
REMARK    5  A    between atoms: C_13  and  C_19 
REMARK    6  A    between atoms: C_19  and  O_21 
REMARK    7  A    between atoms: O_21  and  C_22 
REMARK    8  A    between atoms: C_22  and  C_23 
ROOT
ATOM      1  N   LIG d   1       6.208   0.555  -9.678  0.00  0.00    -0.298 N 
ATOM      2  C   LIG d   1       5.930  -0.779 -10.265  0.00  0.00     0.048 C 
ATOM      3  C   LIG d   1       4.510  -1.057  -9.883  0.00  0.00     0.116 C 
ATOM      4  C   LIG d   1       3.585  -1.934 -10.647  0.00  0.00    -0.052 C 
ATOM      5  C   LIG d   1       2.538  -2.103  -9.813  0.00  0.00    -0.056 C 
ATOM      6  C   LIG d   1       2.860  -1.325  -8.533  0.00  0.00     0.092 C 
ATOM      7  H   LIG d   1       2.330  -1.652  -7.639  0.00  0.00     0.065 H 
ATOM      8  O   LIG d   1       4.327  -1.465  -8.501  0.00  0.00    -0.359 OA
ATOM      9  C   LIG d   1       2.739   0.221  -8.871  0.00  0.00     0.100 C 
ATOM     10  H   LIG d   1       1.778   0.451  -9.332  0.00  0.00     0.045 H 
ATOM     11  C   LIG d   1       3.888   0.393  -9.880  0.00  0.00     0.085 C 
ATOM     12  H   LIG d   1       3.542   0.716 -10.862  0.00  0.00     0.043 H 
ATOM     13  C   LIG d   1       5.053   1.202  -9.380  0.00  0.00     0.223 C 
ATOM     14  O   LIG d   1       4.972   2.265  -8.802  0.00  0.00    -0.275 OA
ATOM     15  H   LIG d   1       6.034  -0.747 -11.349  0.00  0.00     0.050 H 
ATOM     16  H   LIG d   1       6.595  -1.530  -9.839  0.00  0.00     0.050 H 
ATOM     17  H   LIG d   1       3.723  -2.351 -11.634  0.00  0.00     0.060 H 
ATOM     18  H   LIG d   1       1.637  -2.663 -10.013  0.00  0.00     0.060 H 
ENDROOT
BRANCH   9  19
ATOM     19  C   LIG d   1       2.963   1.072  -7.647  0.00  0.00     0.314 C 
ATOM     20  O   LIG d   1       2.805   2.269  -7.708  0.00  0.00    -0.250 OA
BRANCH  19  21
ATOM     21  O   LIG d   1       3.338   0.502  -6.492  0.00  0.00    -0.460 OA
BRANCH  21  22
ATOM     22  C   LIG d   1       2.422   0.619  -5.371  0.00  0.00     0.117 C 
ATOM     23  H   LIG d   1       2.063   1.645  -5.301  0.00  0.00     0.075 H 
ATOM     24  H   LIG d   1       1.577  -0.052  -5.522  0.00  0.00     0.075 H 
BRANCH  22  25
ATOM     25  C   LIG d   1       3.137   0.249  -4.097  0.00  0.00    -0.010 A 
ATOM     26  C   LIG d   1       3.340  -1.082  -3.781  0.00  0.00    -0.055 A 
ATOM     27  C   LIG d   1       3.995  -1.422  -2.613  0.00  0.00    -0.061 A 
ATOM     28  H   LIG d   1       2.987  -1.856  -4.447  0.00  0.00     0.062 H 
ATOM     29  C   LIG d   1       4.448  -0.432  -1.760  0.00  0.00    -0.062 A 
ATOM     30  H   LIG d   1       4.155  -2.461  -2.366  0.00  0.00     0.062 H 
ATOM     31  C   LIG d   1       4.245   0.898  -2.077  0.00  0.00    -0.061 A 
ATOM     32  H   LIG d   1       4.960  -0.697  -0.847  0.00  0.00     0.062 H 
ATOM     33  C   LIG d   1       3.593   1.238  -3.248  0.00  0.00    -0.055 A 
ATOM     34  H   LIG d   1       4.599   1.672  -1.412  0.00  0.00     0.062 H 
ATOM     35  H   LIG d   1       3.437   2.277  -3.497  0.00  0.00     0.062 H 
ENDBRANCH  22  25
ENDBRANCH  21  22
ENDBRANCH  19  21
ENDBRANCH   9  19
BRANCH   1  36
ATOM     36  C   LIG d   1       7.549   1.100  -9.451  0.00  0.00     0.017 C 
ATOM     37  H   LIG d   1       8.214   0.771 -10.249  0.00  0.00     0.047 H 
ATOM     38  H   LIG d   1       7.501   2.190  -9.445  0.00  0.00     0.047 H 
BRANCH  36  39
ATOM     39  C   LIG d   1       8.080   0.604  -8.106  0.00  0.00    -0.031 C 
ATOM     40  H   LIG d   1       7.379  -0.114  -7.680  0.00  0.00     0.031 H 
BRANCH  39  41
ATOM     41  C   LIG d   1       9.439  -0.069  -8.311  0.00  0.00    -0.061 C 
ATOM     42  H   LIG d   1       9.424  -1.063  -7.863  0.00  0.00     0.023 H 
ATOM     43  H   LIG d   1       9.645  -0.154  -9.378  0.00  0.00     0.023 H 
ATOM     44  H   LIG d   1      10.216   0.531  -7.838  0.00  0.00     0.023 H 
ENDBRANCH  39  41
BRANCH  39  45
ATOM     45  C   LIG d   1       8.238   1.791  -7.152  0.00  0.00    -0.061 C 
ATOM     46  H   LIG d   1       8.590   1.434  -6.183  0.00  0.00     0.023 H 
ATOM     47  H   LIG d   1       8.961   2.494  -7.564  0.00  0.00     0.023 H 
ATOM     48  H   LIG d   1       7.276   2.288  -7.028  0.00  0.00     0.023 H 
ENDBRANCH  39  45
ENDBRANCH  36  39
ENDBRANCH   1  36
TORSDOF 8
ENDMDL
MODEL 10
REMARK VINA RESULT:      -5.7      2.067      5.687
REMARK  8 active torsions:
REMARK  status: ('A' for Active; 'I' for Inactive)
REMARK    1  A    between atoms: C_1  and  C_2 
REMARK    2  A    between atoms: C_2  and  C_3 
REMARK    3  A    between atoms: C_2  and  C_4 
REMARK    4  A    between atoms: C_4  and  N_5 
REMARK    5  A    between atoms: C_13  and  C_19 
REMARK    6  A    between atoms: C_19  and  O_21 
REMARK    7  A    between atoms: O_21  and  C_22 
REMARK    8  A    between atoms: C_22  and  C_23 
ROOT
ATOM      1  N   LIG d   1       6.850   0.436  -4.741  0.00  0.00    -0.298 N 
ATOM      2  C   LIG d   1       6.712  -0.061  -3.351  0.00  0.00     0.048 C 
ATOM      3  C   LIG d   1       5.316  -0.596  -3.290  0.00  0.00     0.116 C 
ATOM      4  C   LIG d   1       4.861  -1.672  -2.370  0.00  0.00    -0.052 C 
ATOM      5  C   LIG d   1       3.517  -1.634  -2.470  0.00  0.00    -0.056 C 
ATOM      6  C   LIG d   1       3.176  -0.509  -3.452  0.00  0.00     0.092 C 
ATOM      7  H   LIG d   1       2.172  -0.094  -3.360  0.00  0.00     0.065 H 
ATOM      8  O   LIG d   1       4.286   0.423  -3.182  0.00  0.00    -0.359 OA
ATOM      9  C   LIG d   1       3.578  -1.005  -4.905  0.00  0.00     0.100 C 
ATOM     10  H   LIG d   1       3.136  -1.975  -5.130  0.00  0.00     0.045 H 
ATOM     11  C   LIG d   1       5.107  -1.117  -4.764  0.00  0.00     0.085 C 
ATOM     12  H   LIG d   1       5.471  -2.134  -4.918  0.00  0.00     0.043 H 
ATOM     13  C   LIG d   1       5.891  -0.097  -5.541  0.00  0.00     0.223 C 
ATOM     14  O   LIG d   1       5.698   0.202  -6.700  0.00  0.00    -0.275 OA
ATOM     15  H   LIG d   1       7.433  -0.855  -3.156  0.00  0.00     0.050 H 
ATOM     16  H   LIG d   1       6.841   0.754  -2.639  0.00  0.00     0.050 H 
ATOM     17  H   LIG d   1       5.465  -2.324  -1.755  0.00  0.00     0.060 H 
ATOM     18  H   LIG d   1       2.814  -2.283  -1.969  0.00  0.00     0.060 H 
ENDROOT
BRANCH   9  19
ATOM     19  C   LIG d   1       3.207   0.010  -5.956  0.00  0.00     0.314 C 
ATOM     20  O   LIG d   1       2.980   1.154  -5.637  0.00  0.00    -0.250 OA
BRANCH  19  21
ATOM     21  O   LIG d   1       3.130  -0.356  -7.244  0.00  0.00    -0.460 OA
BRANCH  21  22
ATOM     22  C   LIG d   1       2.769   0.675  -8.202  0.00  0.00     0.117 C 
ATOM     23  H   LIG d   1       1.833   1.143  -7.897  0.00  0.00     0.075 H 
ATOM     24  H   LIG d   1       3.556   1.428  -8.239  0.00  0.00     0.075 H 
BRANCH  22  25
ATOM     25  C   LIG d   1       2.600   0.057  -9.566  0.00  0.00    -0.010 A 
ATOM     26  C   LIG d   1       1.476  -0.698  -9.848  0.00  0.00    -0.055 A 
ATOM     27  C   LIG d   1       1.322  -1.266 -11.099  0.00  0.00    -0.061 A 
ATOM     28  H   LIG d   1       0.720  -0.845  -9.091  0.00  0.00     0.062 H 
ATOM     29  C   LIG d   1       2.289  -1.077 -12.069  0.00  0.00    -0.062 A 
ATOM     30  H   LIG d   1       0.444  -1.855 -11.319  0.00  0.00     0.062 H 
ATOM     31  C   LIG d   1       3.412  -0.322 -11.786  0.00  0.00    -0.061 A 
ATOM     32  H   LIG d   1       2.168  -1.521 -13.046  0.00  0.00     0.062 H 
ATOM     33  C   LIG d   1       3.565   0.249 -10.536  0.00  0.00    -0.055 A 
ATOM     34  H   LIG d   1       4.168  -0.175 -12.543  0.00  0.00     0.062 H 
ATOM     35  H   LIG d   1       4.440   0.842 -10.317  0.00  0.00     0.062 H 
ENDBRANCH  22  25
ENDBRANCH  21  22
ENDBRANCH  19  21
ENDBRANCH   9  19
BRANCH   1  36
ATOM     36  C   LIG d   1       7.880   1.375  -5.191  0.00  0.00     0.017 C 
ATOM     37  H   LIG d   1       8.297   1.031  -6.138  0.00  0.00     0.047 H 
ATOM     38  H   LIG d   1       7.437   2.362  -5.327  0.00  0.00     0.047 H 
BRANCH  36  39
ATOM     39  C   LIG d   1       8.992   1.453  -4.143  0.00  0.00    -0.031 C 
ATOM     40  H   LIG d   1       8.766   0.771  -3.323  0.00  0.00     0.031 H 
BRANCH  39  41
ATOM     41  C   LIG d   1      10.325   1.060  -4.783  0.00  0.00    -0.061 C 
ATOM     42  H   LIG d   1      11.145   1.495  -4.212  0.00  0.00     0.023 H 
ATOM     43  H   LIG d   1      10.419  -0.027  -4.786  0.00  0.00     0.023 H 
ATOM     44  H   LIG d   1      10.358   1.430  -5.808  0.00  0.00     0.023 H 
ENDBRANCH  39  41
BRANCH  39  45
ATOM     45  C   LIG d   1       9.086   2.883  -3.606  0.00  0.00    -0.061 C 
ATOM     46  H   LIG d   1       9.903   2.949  -2.888  0.00  0.00     0.023 H 
ATOM     47  H   LIG d   1       9.273   3.569  -4.432  0.00  0.00     0.023 H 
ATOM     48  H   LIG d   1       8.149   3.150  -3.117  0.00  0.00     0.023 H 
ENDBRANCH  39  45
ENDBRANCH  36  39
ENDBRANCH   1  36
TORSDOF 8
ENDMDL
