MODEL 1
REMARK VINA RESULT:      -6.7      0.000      0.000
REMARK  13 active torsions:
REMARK  status: ('A' for Active; 'I' for Inactive)
REMARK    1  A    between atoms: C_1  and  C_2 
REMARK    2  A    between atoms: C_2  and  C_4 
REMARK    3  A    between atoms: C_2  and  N_19 
REMARK    4  A    between atoms: C_4  and  N_5 
REMARK    5  A    between atoms: N_5  and  C_6 
REMARK    6  A    between atoms: C_6  and  C_7 
REMARK    7  A    between atoms: C_6  and  C_18 
REMARK    8  A    between atoms: C_12  and  C_13 
REMARK    9  A    between atoms: C_12  and  C_14 
REMARK   10  A    between atoms: N_19  and  C_20 
REMARK   11  A    between atoms: C_20  and  C_32 
REMARK   12  A    between atoms: C_26  and  C_27 
REMARK   13  A    between atoms: C_26  and  C_28 
ROOT
ATOM      1  C   LIG d   1       8.671  -0.434  -6.397  0.00  0.00     0.033 C 
ATOM      2  H   LIG d   1       8.207  -1.416  -6.565  0.00  0.00     0.051 H 
ENDROOT
BRANCH   1   3
ATOM      3  C   LIG d   1      10.173  -0.490  -6.686  0.00  0.00    -0.045 C 
ATOM      4  H   LIG d   1      10.429  -1.474  -7.106  0.00  0.00     0.025 H 
ATOM      5  H   LIG d   1      10.732  -0.334  -5.751  0.00  0.00     0.025 H 
ATOM      6  H   LIG d   1      10.437   0.297  -7.408  0.00  0.00     0.025 H 
ENDBRANCH   1   3
BRANCH   1   7
ATOM      7  C   LIG d   1       8.022   0.629  -7.286  0.00  0.00     0.027 C 
ATOM      8  H   LIG d   1       8.475   1.609  -7.078  0.00  0.00     0.048 H 
ATOM      9  H   LIG d   1       8.181   0.369  -8.343  0.00  0.00     0.048 H 
BRANCH   7  10
ATOM     10  N   LIG d   1       6.584   0.686  -7.008  0.00  0.00    -0.345 N 
ATOM     11  H   LIG d   1       6.219   1.207  -6.111  0.00  0.00     0.146 HD
BRANCH  10  12
ATOM     12  C   LIG d   1       5.702   0.094  -7.860  0.00  0.00     0.008 C 
BRANCH  12  13
ATOM     13  C   LIG d   1       4.740   0.836  -8.463  0.00  0.00     0.015 A 
ATOM     14  C   LIG d   1       4.966   2.048  -9.125  0.00  0.00     0.161 A 
ATOM     15  C   LIG d   1       3.671   2.587  -9.673  0.00  0.00     0.014 A 
ATOM     16  O   LIG d   1       6.046   2.593  -9.237  0.00  0.00    -0.292 OA
ATOM     17  C   LIG d   1       2.569   1.584  -9.303  0.00  0.00    -0.021 A 
ATOM     18  H   LIG d   1       3.724   2.684 -10.767  0.00  0.00     0.035 H 
ATOM     19  H   LIG d   1       3.440   3.566  -9.228  0.00  0.00     0.035 H 
ATOM     20  C   LIG d   1       3.282   0.467  -8.527  0.00  0.00    -0.002 A 
ATOM     21  H   LIG d   1       1.716   2.274  -9.222  0.00  0.00     0.032 H 
ATOM     22  C   LIG d   1       2.640   0.170  -9.884  0.00  0.00    -0.024 A 
ATOM     23  H   LIG d   1       3.234  -0.081  -7.575  0.00  0.00     0.036 H 
BRANCH  22  24
ATOM     24  C   LIG d   1       1.353  -0.657  -9.889  0.00  0.00    -0.059 C 
ATOM     25  H   LIG d   1       0.568  -0.116  -9.339  0.00  0.00     0.024 H 
ATOM     26  H   LIG d   1       1.537  -1.627  -9.406  0.00  0.00     0.024 H 
ATOM     27  H   LIG d   1       1.026  -0.820 -10.926  0.00  0.00     0.024 H 
ENDBRANCH  22  24
BRANCH  22  28
ATOM     28  C   LIG d   1       3.576  -0.058 -11.073  0.00  0.00    -0.059 C 
ATOM     29  H   LIG d   1       4.570   0.349 -10.840  0.00  0.00     0.024 H 
ATOM     30  H   LIG d   1       3.170   0.449 -11.960  0.00  0.00     0.024 H 
ATOM     31  H   LIG d   1       3.658  -1.137 -11.273  0.00  0.00     0.024 H 
ENDBRANCH  22  28
ENDBRANCH  12  13
BRANCH  12  32
ATOM     32  C   LIG d   1       5.793  -1.386  -8.133  0.00  0.00    -0.026 C 
ATOM     33  H   LIG d   1       6.778  -1.619  -8.562  0.00  0.00     0.029 H 
ATOM     34  H   LIG d   1       5.005  -1.676  -8.843  0.00  0.00     0.029 H 
ATOM     35  H   LIG d   1       5.662  -1.940  -7.191  0.00  0.00     0.029 H 
ENDBRANCH  12  32
ENDBRANCH  10  12
ENDBRANCH   7  10
ENDBRANCH   1   7
BRANCH   1  36
ATOM     36  N   LIG d   1       8.457  -0.088  -4.989  0.00  0.00    -0.343 N 
ATOM     37  H   LIG d   1       8.927   0.810  -4.566  0.00  0.00     0.146 HD
BRANCH  36  38
ATOM     38  C   LIG d   1       7.674  -0.882  -4.206  0.00  0.00     0.008 C 
ATOM     39  C   LIG d   1       6.669  -0.337  -3.477  0.00  0.00     0.015 A 
ATOM     40  C   LIG d   1       6.352   1.022  -3.451  0.00  0.00     0.161 A 
ATOM     41  C   LIG d   1       5.741  -1.109  -2.579  0.00  0.00    -0.002 A 
ATOM     42  C   LIG d   1       5.179   1.267  -2.538  0.00  0.00     0.014 A 
ATOM     43  O   LIG d   1       6.937   1.885  -4.076  0.00  0.00    -0.292 OA
ATOM     44  C   LIG d   1       4.765  -0.095  -1.963  0.00  0.00    -0.021 A 
ATOM     45  H   LIG d   1       4.336   1.700  -3.098  0.00  0.00     0.035 H 
ATOM     46  H   LIG d   1       5.460   1.942  -1.717  0.00  0.00     0.035 H 
ATOM     47  H   LIG d   1       4.372   0.239  -0.991  0.00  0.00     0.032 H 
ATOM     48  C   LIG d   1       4.254  -1.187  -2.932  0.00  0.00    -0.024 A 
ATOM     49  H   LIG d   1       6.450  -1.897  -2.285  0.00  0.00     0.036 H 
BRANCH  48  50
ATOM     50  C   LIG d   1       3.841  -0.755  -4.341  0.00  0.00    -0.059 C 
ATOM     51  H   LIG d   1       4.741  -0.617  -4.960  0.00  0.00     0.024 H 
ATOM     52  H   LIG d   1       3.286   0.193  -4.286  0.00  0.00     0.024 H 
ATOM     53  H   LIG d   1       3.203  -1.529  -4.791  0.00  0.00     0.024 H 
ENDBRANCH  48  50
BRANCH  48  54
ATOM     54  C   LIG d   1       3.445  -2.336  -2.331  0.00  0.00    -0.059 C 
ATOM     55  H   LIG d   1       2.676  -1.930  -1.656  0.00  0.00     0.024 H 
ATOM     56  H   LIG d   1       4.116  -3.000  -1.765  0.00  0.00     0.024 H 
ATOM     57  H   LIG d   1       2.960  -2.906  -3.136  0.00  0.00     0.024 H 
ENDBRANCH  48  54
BRANCH  38  58
ATOM     58  C   LIG d   1       7.926  -2.367  -4.148  0.00  0.00    -0.026 C 
ATOM     59  H   LIG d   1       7.294  -2.816  -3.367  0.00  0.00     0.029 H 
ATOM     60  H   LIG d   1       8.985  -2.550  -3.914  0.00  0.00     0.029 H 
ATOM     61  H   LIG d   1       7.682  -2.819  -5.121  0.00  0.00     0.029 H 
ENDBRANCH  38  58
ENDBRANCH  36  38
ENDBRANCH   1  36
TORSDOF 13
ENDMDL
MODEL 2
REMARK VINA RESULT:      -6.3      0.729      5.833
REMARK  13 active torsions:
REMARK  status: ('A' for Active; 'I' for Inactive)
REMARK    1  A    between atoms: C_1  and  C_2 
REMARK    2  A    between atoms: C_2  and  C_4 
REMARK    3  A    between atoms: C_2  and  N_19 
REMARK    4  A    between atoms: C_4  and  N_5 
REMARK    5  A    between atoms: N_5  and  C_6 
REMARK    6  A    between atoms: C_6  and  C_7 
REMARK    7  A    between atoms: C_6  and  C_18 
REMARK    8  A    between atoms: C_12  and  C_13 
REMARK    9  A    between atoms: C_12  and  C_14 
REMARK   10  A    between atoms: N_19  and  C_20 
REMARK   11  A    between atoms: C_20  and  C_32 
REMARK   12  A    between atoms: C_26  and  C_27 
REMARK   13  A    between atoms: C_26  and  C_28 
ROOT
ATOM      1  C   LIG d   1       7.670   0.665  -6.623  0.00  0.00     0.033 C 
ATOM      2  H   LIG d   1       6.870   1.003  -5.949  0.00  0.00     0.051 H 
ENDROOT
BRANCH   1   3
ATOM      3  C   LIG d   1       8.660   1.799  -6.896  0.00  0.00    -0.045 C 
ATOM      4  H   LIG d   1       8.181   2.559  -7.532  0.00  0.00     0.025 H 
ATOM      5  H   LIG d   1       9.546   1.397  -7.409  0.00  0.00     0.025 H 
ATOM      6  H   LIG d   1       8.964   2.258  -5.943  0.00  0.00     0.025 H 
ENDBRANCH   1   3
BRANCH   1   7
ATOM      7  C   LIG d   1       8.415  -0.527  -6.019  0.00  0.00     0.027 C 
ATOM      8  H   LIG d   1       7.998  -1.463  -6.422  0.00  0.00     0.048 H 
ATOM      9  H   LIG d   1       9.482  -0.461  -6.278  0.00  0.00     0.048 H 
BRANCH   7  10
ATOM     10  N   LIG d   1       8.263  -0.512  -4.562  0.00  0.00    -0.345 N 
ATOM     11  H   LIG d   1       9.020  -0.017  -3.936  0.00  0.00     0.146 HD
BRANCH  10  12
ATOM     12  C   LIG d   1       7.187  -1.113  -3.984  0.00  0.00     0.008 C 
BRANCH  12  13
ATOM     13  C   LIG d   1       6.287  -0.371  -3.292  0.00  0.00     0.015 A 
ATOM     14  C   LIG d   1       6.388   1.009  -3.077  0.00  0.00     0.161 A 
ATOM     15  C   LIG d   1       5.211   1.493  -2.272  0.00  0.00     0.014 A 
ATOM     16  O   LIG d   1       7.294   1.713  -3.475  0.00  0.00    -0.292 OA
ATOM     17  C   LIG d   1       4.321   0.275  -1.989  0.00  0.00    -0.021 A 
ATOM     18  H   LIG d   1       4.638   2.243  -2.837  0.00  0.00     0.035 H 
ATOM     19  H   LIG d   1       5.548   1.930  -1.319  0.00  0.00     0.035 H 
ATOM     20  C   LIG d   1       5.033  -0.910  -2.657  0.00  0.00    -0.002 A 
ATOM     21  H   LIG d   1       3.891   0.585  -1.025  0.00  0.00     0.032 H 
ATOM     22  C   LIG d   1       3.669  -0.445  -3.172  0.00  0.00    -0.024 A 
ATOM     23  H   LIG d   1       5.411  -1.919  -2.435  0.00  0.00     0.036 H 
BRANCH  22  24
ATOM     24  C   LIG d   1       2.462  -1.338  -2.876  0.00  0.00    -0.059 C 
ATOM     25  H   LIG d   1       1.647  -0.726  -2.462  0.00  0.00     0.024 H 
ATOM     26  H   LIG d   1       2.747  -2.111  -2.148  0.00  0.00     0.024 H 
ATOM     27  H   LIG d   1       2.124  -1.817  -3.806  0.00  0.00     0.024 H 
ENDBRANCH  22  24
BRANCH  22  28
ATOM     28  C   LIG d   1       3.634   0.289  -4.514  0.00  0.00    -0.059 C 
ATOM     29  H   LIG d   1       4.620   0.731  -4.715  0.00  0.00     0.024 H 
ATOM     30  H   LIG d   1       2.876   1.085  -4.476  0.00  0.00     0.024 H 
ATOM     31  H   LIG d   1       3.379  -0.422  -5.314  0.00  0.00     0.024 H 
ENDBRANCH  22  28
ENDBRANCH  12  13
BRANCH  12  32
ATOM     32  C   LIG d   1       6.993  -2.602  -4.113  0.00  0.00    -0.026 C 
ATOM     33  H   LIG d   1       7.651  -3.120  -3.400  0.00  0.00     0.029 H 
ATOM     34  H   LIG d   1       7.242  -2.917  -5.137  0.00  0.00     0.029 H 
ATOM     35  H   LIG d   1       5.944  -2.855  -3.896  0.00  0.00     0.029 H 
ENDBRANCH  12  32
ENDBRANCH  10  12
ENDBRANCH   7  10
ENDBRANCH   1   7
BRANCH   1  36
ATOM     36  N   LIG d   1       7.035   0.258  -7.879  0.00  0.00    -0.343 N 
ATOM     37  H   LIG d   1       7.614   0.258  -8.813  0.00  0.00     0.146 HD
BRANCH  36  38
ATOM     38  C   LIG d   1       5.726  -0.120  -7.889  0.00  0.00     0.008 C 
ATOM     39  C   LIG d   1       4.792   0.684  -8.451  0.00  0.00     0.015 A 
ATOM     40  C   LIG d   1       5.057   1.920  -9.042  0.00  0.00     0.161 A 
ATOM     41  C   LIG d   1       3.320   0.375  -8.523  0.00  0.00    -0.002 A 
ATOM     42  C   LIG d   1       3.784   2.534  -9.565  0.00  0.00     0.014 A 
ATOM     43  O   LIG d   1       6.157   2.429  -9.125  0.00  0.00    -0.292 OA
ATOM     44  C   LIG d   1       2.647   1.553  -9.242  0.00  0.00    -0.021 A 
ATOM     45  H   LIG d   1       3.843   2.681 -10.654  0.00  0.00     0.035 H 
ATOM     46  H   LIG d   1       3.588   3.498  -9.074  0.00  0.00     0.035 H 
ATOM     47  H   LIG d   1       1.824   2.274  -9.128  0.00  0.00     0.032 H 
ATOM     48  C   LIG d   1       2.671   0.149  -9.890  0.00  0.00    -0.024 A 
ATOM     49  H   LIG d   1       3.251  -0.208  -7.592  0.00  0.00     0.036 H 
BRANCH  48  50
ATOM     50  C   LIG d   1       3.602  -0.071 -11.085  0.00  0.00    -0.059 C 
ATOM     51  H   LIG d   1       4.432  -0.729 -10.785  0.00  0.00     0.024 H 
ATOM     52  H   LIG d   1       4.005   0.897 -11.419  0.00  0.00     0.024 H 
ATOM     53  H   LIG d   1       3.042  -0.539 -11.906  0.00  0.00     0.024 H 
ENDBRANCH  48  50
BRANCH  48  54
ATOM     54  C   LIG d   1       1.355  -0.628  -9.927  0.00  0.00    -0.059 C 
ATOM     55  H   LIG d   1       0.849  -0.448 -10.888  0.00  0.00     0.024 H 
ATOM     56  H   LIG d   1       0.708  -0.293  -9.103  0.00  0.00     0.024 H 
ATOM     57  H   LIG d   1       1.560  -1.703  -9.818  0.00  0.00     0.024 H 
ENDBRANCH  48  54
BRANCH  38  58
ATOM     58  C   LIG d   1       5.317  -1.434  -7.274  0.00  0.00    -0.026 C 
ATOM     59  H   LIG d   1       6.075  -1.748  -6.540  0.00  0.00     0.029 H 
ATOM     60  H   LIG d   1       5.233  -2.197  -8.062  0.00  0.00     0.029 H 
ATOM     61  H   LIG d   1       4.346  -1.318  -6.771  0.00  0.00     0.029 H 
ENDBRANCH  38  58
ENDBRANCH  36  38
ENDBRANCH   1  36
TORSDOF 13
ENDMDL
MODEL 3
REMARK VINA RESULT:      -5.9      1.576      6.241
REMARK  13 active torsions:
REMARK  status: ('A' for Active; 'I' for Inactive)
REMARK    1  A    between atoms: C_1  and  C_2 
REMARK    2  A    between atoms: C_2  and  C_4 
REMARK    3  A    between atoms: C_2  and  N_19 
REMARK    4  A    between atoms: C_4  and  N_5 
REMARK    5  A    between atoms: N_5  and  C_6 
REMARK    6  A    between atoms: C_6  and  C_7 
REMARK    7  A    between atoms: C_6  and  C_18 
REMARK    8  A    between atoms: C_12  and  C_13 
REMARK    9  A    between atoms: C_12  and  C_14 
REMARK   10  A    between atoms: N_19  and  C_20 
REMARK   11  A    between atoms: C_20  and  C_32 
REMARK   12  A    between atoms: C_26  and  C_27 
REMARK   13  A    between atoms: C_26  and  C_28 
ROOT
ATOM      1  C   LIG d   1       7.111  -1.141  -7.251  0.00  0.00     0.033 C 
ATOM      2  H   LIG d   1       7.337  -1.188  -8.326  0.00  0.00     0.051 H 
ENDROOT
BRANCH   1   3
ATOM      3  C   LIG d   1       7.782  -2.298  -6.507  0.00  0.00    -0.045 C 
ATOM      4  H   LIG d   1       8.763  -1.971  -6.130  0.00  0.00     0.025 H 
ATOM      5  H   LIG d   1       7.918  -3.146  -7.194  0.00  0.00     0.025 H 
ATOM      6  H   LIG d   1       7.148  -2.607  -5.662  0.00  0.00     0.025 H 
ENDBRANCH   1   3
BRANCH   1   7
ATOM      7  C   LIG d   1       7.582   0.188  -6.657  0.00  0.00     0.027 C 
ATOM      8  H   LIG d   1       8.550   0.042  -6.154  0.00  0.00     0.048 H 
ATOM      9  H   LIG d   1       7.696   0.929  -7.462  0.00  0.00     0.048 H 
BRANCH   7  10
ATOM     10  N   LIG d   1       6.595   0.668  -5.687  0.00  0.00    -0.345 N 
ATOM     11  H   LIG d   1       5.623   1.047  -6.035  0.00  0.00     0.146 HD
BRANCH  10  12
ATOM     12  C   LIG d   1       6.881   0.645  -4.356  0.00  0.00     0.008 C 
BRANCH  12  13
ATOM     13  C   LIG d   1       6.063  -0.014  -3.498  0.00  0.00     0.015 A 
ATOM     14  C   LIG d   1       5.271   0.599  -2.520  0.00  0.00     0.161 A 
ATOM     15  C   LIG d   1       4.495  -0.441  -1.757  0.00  0.00     0.014 A 
ATOM     16  O   LIG d   1       5.222   1.795  -2.310  0.00  0.00    -0.292 OA
ATOM     17  C   LIG d   1       4.860  -1.809  -2.352  0.00  0.00    -0.021 A 
ATOM     18  H   LIG d   1       3.413  -0.273  -1.865  0.00  0.00     0.035 H 
ATOM     19  H   LIG d   1       4.765  -0.421  -0.691  0.00  0.00     0.035 H 
ATOM     20  C   LIG d   1       5.868  -1.507  -3.470  0.00  0.00    -0.002 A 
ATOM     21  H   LIG d   1       4.735  -2.435  -1.457  0.00  0.00     0.032 H 
ATOM     22  C   LIG d   1       4.497  -2.093  -3.811  0.00  0.00    -0.024 A 
ATOM     23  H   LIG d   1       6.875  -1.786  -3.816  0.00  0.00     0.036 H 
BRANCH  22  24
ATOM     24  C   LIG d   1       4.446  -3.557  -4.253  0.00  0.00    -0.059 C 
ATOM     25  H   LIG d   1       4.943  -3.662  -5.229  0.00  0.00     0.024 H 
ATOM     26  H   LIG d   1       3.397  -3.877  -4.340  0.00  0.00     0.024 H 
ATOM     27  H   LIG d   1       4.960  -4.183  -3.511  0.00  0.00     0.024 H 
ENDBRANCH  22  24
BRANCH  22  28
ATOM     28  C   LIG d   1       3.479  -1.166  -4.479  0.00  0.00    -0.059 C 
ATOM     29  H   LIG d   1       2.717  -1.769  -4.993  0.00  0.00     0.024 H 
ATOM     30  H   LIG d   1       3.993  -0.524  -5.210  0.00  0.00     0.024 H 
ATOM     31  H   LIG d   1       2.998  -0.538  -3.714  0.00  0.00     0.024 H 
ENDBRANCH  22  28
ENDBRANCH  12  13
BRANCH  12  32
ATOM     32  C   LIG d   1       8.107   1.351  -3.835  0.00  0.00    -0.026 C 
ATOM     33  H   LIG d   1       8.761   1.619  -4.677  0.00  0.00     0.029 H 
ATOM     34  H   LIG d   1       8.649   0.684  -3.148  0.00  0.00     0.029 H 
ATOM     35  H   LIG d   1       7.804   2.263  -3.300  0.00  0.00     0.029 H 
ENDBRANCH  12  32
ENDBRANCH  10  12
ENDBRANCH   7  10
ENDBRANCH   1   7
BRANCH   1  36
ATOM     36  N   LIG d   1       5.656  -1.249  -7.110  0.00  0.00    -0.343 N 
ATOM     37  H   LIG d   1       5.172  -0.961  -6.166  0.00  0.00     0.146 HD
BRANCH  36  38
ATOM     38  C   LIG d   1       4.904  -1.706  -8.150  0.00  0.00     0.008 C 
ATOM     39  C   LIG d   1       3.915  -0.933  -8.664  0.00  0.00     0.015 A 
ATOM     40  C   LIG d   1       3.579   0.340  -8.202  0.00  0.00     0.161 A 
ATOM     41  C   LIG d   1       3.022  -1.328  -9.809  0.00  0.00    -0.002 A 
ATOM     42  C   LIG d   1       2.438   0.904  -9.007  0.00  0.00     0.014 A 
ATOM     43  O   LIG d   1       4.129   0.914  -7.282  0.00  0.00    -0.292 OA
ATOM     44  C   LIG d   1       2.060  -0.156 -10.053  0.00  0.00    -0.021 A 
ATOM     45  H   LIG d   1       2.743   1.830  -9.518  0.00  0.00     0.035 H 
ATOM     46  H   LIG d   1       1.571   1.109  -8.363  0.00  0.00     0.035 H 
ATOM     47  H   LIG d   1       0.988   0.072 -10.151  0.00  0.00     0.032 H 
ATOM     48  C   LIG d   1       3.105  -0.549 -11.123  0.00  0.00    -0.024 A 
ATOM     49  H   LIG d   1       3.014  -2.411  -9.617  0.00  0.00     0.036 H 
BRANCH  48  50
ATOM     50  C   LIG d   1       4.309   0.375 -11.319  0.00  0.00    -0.059 C 
ATOM     51  H   LIG d   1       4.154   1.304 -10.752  0.00  0.00     0.024 H 
ATOM     52  H   LIG d   1       4.419   0.612 -12.388  0.00  0.00     0.024 H 
ATOM     53  H   LIG d   1       5.219  -0.126 -10.959  0.00  0.00     0.024 H 
ENDBRANCH  48  50
BRANCH  48  54
ATOM     54  C   LIG d   1       2.590  -1.239 -12.386  0.00  0.00    -0.059 C 
ATOM     55  H   LIG d   1       1.526  -1.490 -12.259  0.00  0.00     0.024 H 
ATOM     56  H   LIG d   1       3.166  -2.160 -12.562  0.00  0.00     0.024 H 
ATOM     57  H   LIG d   1       2.706  -0.565 -13.248  0.00  0.00     0.024 H 
ENDBRANCH  48  54
BRANCH  38  58
ATOM     58  C   LIG d   1       5.170  -3.071  -8.730  0.00  0.00    -0.026 C 
ATOM     59  H   LIG d   1       4.273  -3.700  -8.617  0.00  0.00     0.029 H 
ATOM     60  H   LIG d   1       6.013  -3.537  -8.198  0.00  0.00     0.029 H 
ATOM     61  H   LIG d   1       5.418  -2.975  -9.797  0.00  0.00     0.029 H 
ENDBRANCH  38  58
ENDBRANCH  36  38
ENDBRANCH   1  36
TORSDOF 13
ENDMDL
MODEL 4
REMARK VINA RESULT:      -5.7      3.077      7.846
REMARK  13 active torsions:
REMARK  status: ('A' for Active; 'I' for Inactive)
REMARK    1  A    between atoms: C_1  and  C_2 
REMARK    2  A    between atoms: C_2  and  C_4 
REMARK    3  A    between atoms: C_2  and  N_19 
REMARK    4  A    between atoms: C_4  and  N_5 
REMARK    5  A    between atoms: N_5  and  C_6 
REMARK    6  A    between atoms: C_6  and  C_7 
REMARK    7  A    between atoms: C_6  and  C_18 
REMARK    8  A    between atoms: C_12  and  C_13 
REMARK    9  A    between atoms: C_12  and  C_14 
REMARK   10  A    between atoms: N_19  and  C_20 
REMARK   11  A    between atoms: C_20  and  C_32 
REMARK   12  A    between atoms: C_26  and  C_27 
REMARK   13  A    between atoms: C_26  and  C_28 
ROOT
ATOM      1  C   LIG d   1       4.331  -4.289  -8.359  0.00  0.00     0.033 C 
ATOM      2  H   LIG d   1       4.768  -4.544  -9.334  0.00  0.00     0.051 H 
ENDROOT
BRANCH   1   3
ATOM      3  C   LIG d   1       4.316  -5.511  -7.437  0.00  0.00    -0.045 C 
ATOM      4  H   LIG d   1       4.714  -5.231  -6.450  0.00  0.00     0.025 H 
ATOM      5  H   LIG d   1       4.940  -6.306  -7.872  0.00  0.00     0.025 H 
ATOM      6  H   LIG d   1       3.283  -5.873  -7.326  0.00  0.00     0.025 H 
ENDBRANCH   1   3
BRANCH   1   7
ATOM      7  C   LIG d   1       5.120  -3.160  -7.693  0.00  0.00     0.027 C 
ATOM      8  H   LIG d   1       5.834  -3.585  -6.972  0.00  0.00     0.048 H 
ATOM      9  H   LIG d   1       5.668  -2.594  -8.461  0.00  0.00     0.048 H 
BRANCH   7  10
ATOM     10  N   LIG d   1       4.195  -2.263  -6.994  0.00  0.00    -0.345 N 
ATOM     11  H   LIG d   1       3.118  -2.308  -7.211  0.00  0.00     0.146 HD
BRANCH  10  12
ATOM     12  C   LIG d   1       4.671  -1.376  -6.077  0.00  0.00     0.008 C 
BRANCH  12  13
ATOM     13  C   LIG d   1       4.279  -1.465  -4.782  0.00  0.00     0.015 A 
ATOM     14  C   LIG d   1       4.553  -2.547  -3.938  0.00  0.00     0.161 A 
ATOM     15  C   LIG d   1       3.966  -2.299  -2.573  0.00  0.00     0.014 A 
ATOM     16  O   LIG d   1       5.168  -3.544  -4.258  0.00  0.00    -0.292 OA
ATOM     17  C   LIG d   1       3.282  -0.925  -2.615  0.00  0.00    -0.021 A 
ATOM     18  H   LIG d   1       4.756  -2.292  -1.808  0.00  0.00     0.035 H 
ATOM     19  H   LIG d   1       3.222  -3.072  -2.326  0.00  0.00     0.035 H 
ATOM     20  C   LIG d   1       3.499  -0.408  -4.044  0.00  0.00    -0.002 A 
ATOM     21  H   LIG d   1       2.485  -1.098  -1.878  0.00  0.00     0.032 H 
ATOM     22  C   LIG d   1       4.144   0.315  -2.861  0.00  0.00    -0.024 A 
ATOM     23  H   LIG d   1       2.942  -0.017  -4.909  0.00  0.00     0.036 H 
BRANCH  22  24
ATOM     24  C   LIG d   1       3.561   1.671  -2.460  0.00  0.00    -0.059 C 
ATOM     25  H   LIG d   1       2.962   2.073  -3.291  0.00  0.00     0.024 H 
ATOM     26  H   LIG d   1       4.379   2.368  -2.227  0.00  0.00     0.024 H 
ATOM     27  H   LIG d   1       2.921   1.548  -1.575  0.00  0.00     0.024 H 
ENDBRANCH  22  24
BRANCH  22  28
ATOM     28  C   LIG d   1       5.657   0.169  -2.685  0.00  0.00    -0.059 C 
ATOM     29  H   LIG d   1       5.984  -0.794  -3.103  0.00  0.00     0.024 H 
ATOM     30  H   LIG d   1       5.906   0.208  -1.614  0.00  0.00     0.024 H 
ATOM     31  H   LIG d   1       6.168   0.990  -3.210  0.00  0.00     0.024 H 
ENDBRANCH  22  28
ENDBRANCH  12  13
BRANCH  12  32
ATOM     32  C   LIG d   1       5.632  -0.295  -6.500  0.00  0.00    -0.026 C 
ATOM     33  H   LIG d   1       6.372  -0.715  -7.197  0.00  0.00     0.029 H 
ATOM     34  H   LIG d   1       6.148   0.104  -5.615  0.00  0.00     0.029 H 
ATOM     35  H   LIG d   1       5.077   0.514  -6.998  0.00  0.00     0.029 H 
ENDBRANCH  12  32
ENDBRANCH  10  12
ENDBRANCH   7  10
ENDBRANCH   1   7
BRANCH   1  36
ATOM     36  N   LIG d   1       2.956  -3.845  -8.603  0.00  0.00    -0.343 N 
ATOM     37  H   LIG d   1       2.356  -3.434  -7.779  0.00  0.00     0.146 HD
BRANCH  36  38
ATOM     38  C   LIG d   1       2.422  -3.942  -9.853  0.00  0.00     0.008 C 
ATOM     39  C   LIG d   1       1.893  -2.847 -10.451  0.00  0.00     0.015 A 
ATOM     40  C   LIG d   1       1.839  -1.575  -9.880  0.00  0.00     0.161 A 
ATOM     41  C   LIG d   1       1.278  -2.830 -11.825  0.00  0.00    -0.002 A 
ATOM     42  C   LIG d   1       1.189  -0.603 -10.829  0.00  0.00     0.014 A 
ATOM     43  O   LIG d   1       2.257  -1.292  -8.774  0.00  0.00    -0.292 OA
ATOM     44  C   LIG d   1       0.818  -1.390 -12.094  0.00  0.00    -0.021 A 
ATOM     45  H   LIG d   1       1.886   0.207 -11.092  0.00  0.00     0.035 H 
ATOM     46  H   LIG d   1       0.280  -0.173 -10.384  0.00  0.00     0.035 H 
ATOM     47  H   LIG d   1      -0.066  -0.812 -12.405  0.00  0.00     0.032 H 
ATOM     48  C   LIG d   1       1.952  -2.021 -12.935  0.00  0.00    -0.024 A 
ATOM     49  H   LIG d   1       0.893  -3.861 -11.822  0.00  0.00     0.036 H 
BRANCH  48  50
ATOM     50  C   LIG d   1       3.382  -1.537 -12.685  0.00  0.00    -0.059 C 
ATOM     51  H   LIG d   1       4.057  -2.404 -12.630  0.00  0.00     0.024 H 
ATOM     52  H   LIG d   1       3.420  -0.982 -11.736  0.00  0.00     0.024 H 
ATOM     53  H   LIG d   1       3.697  -0.880 -13.508  0.00  0.00     0.024 H 
ENDBRANCH  48  50
BRANCH  48  54
ATOM     54  C   LIG d   1       1.626  -2.399 -14.380  0.00  0.00    -0.059 C 
ATOM     55  H   LIG d   1       0.967  -1.634 -14.820  0.00  0.00     0.024 H 
ATOM     56  H   LIG d   1       1.119  -3.375 -14.399  0.00  0.00     0.024 H 
ATOM     57  H   LIG d   1       2.556  -2.458 -14.964  0.00  0.00     0.024 H 
ENDBRANCH  48  54
BRANCH  38  58
ATOM     58  C   LIG d   1       2.418  -5.268 -10.570  0.00  0.00    -0.026 C 
ATOM     59  H   LIG d   1       3.006  -5.185 -11.497  0.00  0.00     0.029 H 
ATOM     60  H   LIG d   1       1.384  -5.549 -10.815  0.00  0.00     0.029 H 
ATOM     61  H   LIG d   1       2.864  -6.037  -9.922  0.00  0.00     0.029 H 
ENDBRANCH  38  58
ENDBRANCH  36  38
ENDBRANCH   1  36
TORSDOF 13
ENDMDL
MODEL 5
REMARK VINA RESULT:      -5.7      1.445      2.006
REMARK  13 active torsions:
REMARK  status: ('A' for Active; 'I' for Inactive)
REMARK    1  A    between atoms: C_1  and  C_2 
REMARK    2  A    between atoms: C_2  and  C_4 
REMARK    3  A    between atoms: C_2  and  N_19 
REMARK    4  A    between atoms: C_4  and  N_5 
REMARK    5  A    between atoms: N_5  and  C_6 
REMARK    6  A    between atoms: C_6  and  C_7 
REMARK    7  A    between atoms: C_6  and  C_18 
REMARK    8  A    between atoms: C_12  and  C_13 
REMARK    9  A    between atoms: C_12  and  C_14 
REMARK   10  A    between atoms: N_19  and  C_20 
REMARK   11  A    between atoms: C_20  and  C_32 
REMARK   12  A    between atoms: C_26  and  C_27 
REMARK   13  A    between atoms: C_26  and  C_28 
ROOT
ATOM      1  C   LIG d   1       7.948  -0.060  -6.809  0.00  0.00     0.033 C 
ATOM      2  H   LIG d   1       8.215  -1.086  -7.102  0.00  0.00     0.051 H 
ENDROOT
BRANCH   1   3
ATOM      3  C   LIG d   1       8.875   0.953  -7.483  0.00  0.00    -0.045 C 
ATOM      4  H   LIG d   1       8.467   1.224  -8.469  0.00  0.00     0.025 H 
ATOM      5  H   LIG d   1       9.873   0.509  -7.610  0.00  0.00     0.025 H 
ATOM      6  H   LIG d   1       8.950   1.854  -6.857  0.00  0.00     0.025 H 
ENDBRANCH   1   3
BRANCH   1   7
ATOM      7  C   LIG d   1       6.498   0.248  -7.185  0.00  0.00     0.027 C 
ATOM      8  H   LIG d   1       5.848   0.077  -6.314  0.00  0.00     0.048 H 
ATOM      9  H   LIG d   1       6.417   1.298  -7.502  0.00  0.00     0.048 H 
BRANCH   7  10
ATOM     10  N   LIG d   1       6.081  -0.628  -8.284  0.00  0.00    -0.345 N 
ATOM     11  H   LIG d   1       6.692  -0.691  -9.197  0.00  0.00     0.146 HD
BRANCH  10  12
ATOM     12  C   LIG d   1       4.939  -1.360  -8.175  0.00  0.00     0.008 C 
BRANCH  12  13
ATOM     13  C   LIG d   1       3.876  -1.080  -8.970  0.00  0.00     0.015 A 
ATOM     14  C   LIG d   1       2.695  -0.465  -8.536  0.00  0.00     0.161 A 
ATOM     15  C   LIG d   1       1.740  -0.312  -9.690  0.00  0.00     0.014 A 
ATOM     16  O   LIG d   1       2.469  -0.113  -7.396  0.00  0.00    -0.292 OA
ATOM     17  C   LIG d   1       2.431  -0.887 -10.933  0.00  0.00    -0.021 A 
ATOM     18  H   LIG d   1       1.505   0.750  -9.859  0.00  0.00     0.035 H 
ATOM     19  H   LIG d   1       0.809  -0.866  -9.497  0.00  0.00     0.035 H 
ATOM     20  C   LIG d   1       3.803  -1.373 -10.445  0.00  0.00    -0.002 A 
ATOM     21  H   LIG d   1       1.547  -1.233 -11.488  0.00  0.00     0.032 H 
ATOM     22  C   LIG d   1       3.709  -0.213 -11.438  0.00  0.00    -0.024 A 
ATOM     23  H   LIG d   1       4.446  -2.265 -10.442  0.00  0.00     0.036 H 
BRANCH  22  24
ATOM     24  C   LIG d   1       4.127  -0.487 -12.884  0.00  0.00    -0.059 C 
ATOM     25  H   LIG d   1       3.571   0.181 -13.559  0.00  0.00     0.024 H 
ATOM     26  H   LIG d   1       3.904  -1.534 -13.139  0.00  0.00     0.024 H 
ATOM     27  H   LIG d   1       5.206  -0.305 -12.996  0.00  0.00     0.024 H 
ENDBRANCH  22  24
BRANCH  22  28
ATOM     28  C   LIG d   1       4.020   1.191 -10.917  0.00  0.00    -0.059 C 
ATOM     29  H   LIG d   1       4.469   1.790 -11.722  0.00  0.00     0.024 H 
ATOM     30  H   LIG d   1       4.725   1.121 -10.075  0.00  0.00     0.024 H 
ATOM     31  H   LIG d   1       3.090   1.670 -10.577  0.00  0.00     0.024 H 
ENDBRANCH  22  28
ENDBRANCH  12  13
BRANCH  12  32
ATOM     32  C   LIG d   1       4.854  -2.484  -7.174  0.00  0.00    -0.026 C 
ATOM     33  H   LIG d   1       4.174  -3.260  -7.551  0.00  0.00     0.029 H 
ATOM     34  H   LIG d   1       4.473  -2.095  -6.218  0.00  0.00     0.029 H 
ATOM     35  H   LIG d   1       5.855  -2.914  -7.022  0.00  0.00     0.029 H 
ENDBRANCH  12  32
ENDBRANCH  10  12
ENDBRANCH   7  10
ENDBRANCH   1   7
BRANCH   1  36
ATOM     36  N   LIG d   1       8.103   0.028  -5.354  0.00  0.00    -0.343 N 
ATOM     37  H   LIG d   1       8.766   0.788  -4.917  0.00  0.00     0.146 HD
BRANCH  36  38
ATOM     38  C   LIG d   1       7.425  -0.832  -4.544  0.00  0.00     0.008 C 
ATOM     39  C   LIG d   1       6.534  -0.354  -3.641  0.00  0.00     0.015 A 
ATOM     40  C   LIG d   1       6.238   0.997  -3.452  0.00  0.00     0.161 A 
ATOM     41  C   LIG d   1       5.727  -1.203  -2.695  0.00  0.00    -0.002 A 
ATOM     42  C   LIG d   1       5.203   1.160  -2.371  0.00  0.00     0.014 A 
ATOM     43  O   LIG d   1       6.743   1.912  -4.073  0.00  0.00    -0.292 OA
ATOM     44  C   LIG d   1       4.856  -0.248  -1.866  0.00  0.00    -0.021 A 
ATOM     45  H   LIG d   1       4.297   1.640  -2.770  0.00  0.00     0.035 H 
ATOM     46  H   LIG d   1       5.600   1.760  -1.540  0.00  0.00     0.035 H 
ATOM     47  H   LIG d   1       4.601  -0.001  -0.825  0.00  0.00     0.032 H 
ATOM     48  C   LIG d   1       4.206  -1.250  -2.849  0.00  0.00    -0.024 A 
ATOM     49  H   LIG d   1       6.460  -2.014  -2.570  0.00  0.00     0.036 H 
BRANCH  48  50
ATOM     50  C   LIG d   1       3.611  -0.696  -4.145  0.00  0.00    -0.059 C 
ATOM     51  H   LIG d   1       4.420  -0.496  -4.863  0.00  0.00     0.024 H 
ATOM     52  H   LIG d   1       3.072   0.239  -3.931  0.00  0.00     0.024 H 
ATOM     53  H   LIG d   1       2.915  -1.431  -4.574  0.00  0.00     0.024 H 
ENDBRANCH  48  50
BRANCH  48  54
ATOM     54  C   LIG d   1       3.473  -2.449  -2.245  0.00  0.00    -0.059 C 
ATOM     55  H   LIG d   1       3.693  -3.349  -2.838  0.00  0.00     0.024 H 
ATOM     56  H   LIG d   1       2.389  -2.259  -2.255  0.00  0.00     0.024 H 
ATOM     57  H   LIG d   1       3.808  -2.601  -1.209  0.00  0.00     0.024 H 
ENDBRANCH  48  54
BRANCH  38  58
ATOM     58  C   LIG d   1       7.665  -2.316  -4.651  0.00  0.00    -0.026 C 
ATOM     59  H   LIG d   1       8.559  -2.499  -5.267  0.00  0.00     0.029 H 
ATOM     60  H   LIG d   1       6.793  -2.795  -5.120  0.00  0.00     0.029 H 
ATOM     61  H   LIG d   1       7.820  -2.737  -3.647  0.00  0.00     0.029 H 
ENDBRANCH  38  58
ENDBRANCH  36  38
ENDBRANCH   1  36
TORSDOF 13
ENDMDL
MODEL 6
REMARK VINA RESULT:      -5.7      5.109      7.753
REMARK  13 active torsions:
REMARK  status: ('A' for Active; 'I' for Inactive)
REMARK    1  A    between atoms: C_1  and  C_2 
REMARK    2  A    between atoms: C_2  and  C_4 
REMARK    3  A    between atoms: C_2  and  N_19 
REMARK    4  A    between atoms: C_4  and  N_5 
REMARK    5  A    between atoms: N_5  and  C_6 
REMARK    6  A    between atoms: C_6  and  C_7 
REMARK    7  A    between atoms: C_6  and  C_18 
REMARK    8  A    between atoms: C_12  and  C_13 
REMARK    9  A    between atoms: C_12  and  C_14 
REMARK   10  A    between atoms: N_19  and  C_20 
REMARK   11  A    between atoms: C_20  and  C_32 
REMARK   12  A    between atoms: C_26  and  C_27 
REMARK   13  A    between atoms: C_26  and  C_28 
ROOT
ATOM      1  C   LIG d   1       8.995   2.387  -4.400  0.00  0.00     0.033 C 
ATOM      2  H   LIG d   1       9.463   1.717  -5.136  0.00  0.00     0.051 H 
ENDROOT
BRANCH   1   3
ATOM      3  C   LIG d   1       9.848   2.479  -3.134  0.00  0.00    -0.045 C 
ATOM      4  H   LIG d   1      10.903   2.292  -3.388  0.00  0.00     0.025 H 
ATOM      5  H   LIG d   1       9.508   1.727  -2.407  0.00  0.00     0.025 H 
ATOM      6  H   LIG d   1       9.749   3.484  -2.697  0.00  0.00     0.025 H 
ENDBRANCH   1   3
BRANCH   1   7
ATOM      7  C   LIG d   1       8.805   3.786  -4.990  0.00  0.00     0.027 C 
ATOM      8  H   LIG d   1       8.664   3.710  -6.078  0.00  0.00     0.048 H 
ATOM      9  H   LIG d   1       7.920   4.257  -4.537  0.00  0.00     0.048 H 
BRANCH   7  10
ATOM     10  N   LIG d   1       9.990   4.600  -4.706  0.00  0.00    -0.345 N 
ATOM     11  H   LIG d   1      10.994   4.190  -4.888  0.00  0.00     0.146 HD
BRANCH  10  12
ATOM     12  C   LIG d   1       9.847   5.863  -4.217  0.00  0.00     0.008 C 
BRANCH  12  13
ATOM     13  C   LIG d   1      10.229   6.145  -2.947  0.00  0.00     0.015 A 
ATOM     14  C   LIG d   1      11.462   5.791  -2.387  0.00  0.00     0.161 A 
ATOM     15  C   LIG d   1      11.538   6.268  -0.961  0.00  0.00     0.014 A 
ATOM     16  O   LIG d   1      12.341   5.181  -2.963  0.00  0.00    -0.292 OA
ATOM     17  C   LIG d   1      10.217   6.985  -0.650  0.00  0.00    -0.021 A 
ATOM     18  H   LIG d   1      12.375   6.970  -0.832  0.00  0.00     0.035 H 
ATOM     19  H   LIG d   1      11.664   5.417  -0.274  0.00  0.00     0.035 H 
ATOM     20  C   LIG d   1       9.393   6.894  -1.943  0.00  0.00    -0.002 A 
ATOM     21  H   LIG d   1      10.146   6.776   0.427  0.00  0.00     0.032 H 
ATOM     22  C   LIG d   1       9.871   8.254  -1.432  0.00  0.00    -0.024 A 
ATOM     23  H   LIG d   1       8.408   6.571  -2.312  0.00  0.00     0.036 H 
BRANCH  22  24
ATOM     24  C   LIG d   1       8.821   9.190  -0.829  0.00  0.00    -0.059 C 
ATOM     25  H   LIG d   1       8.634  10.024  -1.521  0.00  0.00     0.024 H 
ATOM     26  H   LIG d   1       9.188   9.584   0.130  0.00  0.00     0.024 H 
ATOM     27  H   LIG d   1       7.886   8.635  -0.664  0.00  0.00     0.024 H 
ENDBRANCH  22  24
BRANCH  22  28
ATOM     28  C   LIG d   1      11.002   8.940  -2.200  0.00  0.00    -0.059 C 
ATOM     29  H   LIG d   1      10.583   9.725  -2.846  0.00  0.00     0.024 H 
ATOM     30  H   LIG d   1      11.527   8.197  -2.819  0.00  0.00     0.024 H 
ATOM     31  H   LIG d   1      11.710   9.389  -1.487  0.00  0.00     0.024 H 
ENDBRANCH  22  28
ENDBRANCH  12  13
BRANCH  12  32
ATOM     32  C   LIG d   1       9.265   6.949  -5.087  0.00  0.00    -0.026 C 
ATOM     33  H   LIG d   1       8.575   6.503  -5.816  0.00  0.00     0.029 H 
ATOM     34  H   LIG d   1      10.077   7.466  -5.618  0.00  0.00     0.029 H 
ATOM     35  H   LIG d   1       8.721   7.668  -4.457  0.00  0.00     0.029 H 
ENDBRANCH  12  32
ENDBRANCH  10  12
ENDBRANCH   7  10
ENDBRANCH   1   7
BRANCH   1  36
ATOM     36  N   LIG d   1       7.686   1.817  -4.067  0.00  0.00    -0.343 N 
ATOM     37  H   LIG d   1       6.859   2.477  -3.769  0.00  0.00     0.146 HD
BRANCH  36  38
ATOM     38  C   LIG d   1       7.496   0.470  -4.127  0.00  0.00     0.008 C 
ATOM     39  C   LIG d   1       6.469  -0.101  -3.451  0.00  0.00     0.015 A 
ATOM     40  C   LIG d   1       5.552   0.593  -2.661  0.00  0.00     0.161 A 
ATOM     41  C   LIG d   1       6.158  -1.574  -3.441  0.00  0.00    -0.002 A 
ATOM     42  C   LIG d   1       4.548  -0.358  -2.065  0.00  0.00     0.014 A 
ATOM     43  O   LIG d   1       5.561   1.795  -2.480  0.00  0.00    -0.292 OA
ATOM     44  C   LIG d   1       4.918  -1.766  -2.555  0.00  0.00    -0.021 A 
ATOM     45  H   LIG d   1       3.530  -0.109  -2.401  0.00  0.00     0.035 H 
ATOM     46  H   LIG d   1       4.589  -0.330  -0.967  0.00  0.00     0.035 H 
ATOM     47  H   LIG d   1       4.557  -2.349  -1.696  0.00  0.00     0.032 H 
ATOM     48  C   LIG d   1       4.853  -2.065  -4.071  0.00  0.00    -0.024 A 
ATOM     49  H   LIG d   1       7.190  -1.939  -3.554  0.00  0.00     0.036 H 
BRANCH  48  50
ATOM     50  C   LIG d   1       4.087  -1.084  -4.962  0.00  0.00    -0.059 C 
ATOM     51  H   LIG d   1       4.652  -0.916  -5.891  0.00  0.00     0.024 H 
ATOM     52  H   LIG d   1       3.963  -0.128  -4.431  0.00  0.00     0.024 H 
ATOM     53  H   LIG d   1       3.099  -1.501  -5.203  0.00  0.00     0.024 H 
ENDBRANCH  48  50
BRANCH  48  54
ATOM     54  C   LIG d   1       4.782  -3.533  -4.494  0.00  0.00    -0.059 C 
ATOM     55  H   LIG d   1       4.615  -4.162  -3.607  0.00  0.00     0.024 H 
ATOM     56  H   LIG d   1       5.728  -3.822  -4.976  0.00  0.00     0.024 H 
ATOM     57  H   LIG d   1       3.953  -3.672  -5.203  0.00  0.00     0.024 H 
ENDBRANCH  48  54
BRANCH  38  58
ATOM     58  C   LIG d   1       8.427  -0.388  -4.945  0.00  0.00    -0.026 C 
ATOM     59  H   LIG d   1       8.097  -1.437  -4.899  0.00  0.00     0.029 H 
ATOM     60  H   LIG d   1       9.448  -0.307  -4.543  0.00  0.00     0.029 H 
ATOM     61  H   LIG d   1       8.417  -0.046  -5.991  0.00  0.00     0.029 H 
ENDBRANCH  38  58
ENDBRANCH  36  38
ENDBRANCH   1  36
TORSDOF 13
ENDMDL
MODEL 7
REMARK VINA RESULT:      -5.6      3.602      6.037
REMARK  13 active torsions:
REMARK  status: ('A' for Active; 'I' for Inactive)
REMARK    1  A    between atoms: C_1  and  C_2 
REMARK    2  A    between atoms: C_2  and  C_4 
REMARK    3  A    between atoms: C_2  and  N_19 
REMARK    4  A    between atoms: C_4  and  N_5 
REMARK    5  A    between atoms: N_5  and  C_6 
REMARK    6  A    between atoms: C_6  and  C_7 
REMARK    7  A    between atoms: C_6  and  C_18 
REMARK    8  A    between atoms: C_12  and  C_13 
REMARK    9  A    between atoms: C_12  and  C_14 
REMARK   10  A    between atoms: N_19  and  C_20 
REMARK   11  A    between atoms: C_20  and  C_32 
REMARK   12  A    between atoms: C_26  and  C_27 
REMARK   13  A    between atoms: C_26  and  C_28 
ROOT
ATOM      1  C   LIG d   1       8.490  -0.535  -5.603  0.00  0.00     0.033 C 
ATOM      2  H   LIG d   1       7.629  -1.043  -6.061  0.00  0.00     0.051 H 
ENDROOT
BRANCH   1   3
ATOM      3  C   LIG d   1       9.762  -1.367  -5.778  0.00  0.00    -0.045 C 
ATOM      4  H   LIG d   1       9.599  -2.377  -5.372  0.00  0.00     0.025 H 
ATOM      5  H   LIG d   1      10.592  -0.885  -5.241  0.00  0.00     0.025 H 
ATOM      6  H   LIG d   1      10.009  -1.438  -6.848  0.00  0.00     0.025 H 
ENDBRANCH   1   3
BRANCH   1   7
ATOM      7  C   LIG d   1       8.695   0.847  -6.226  0.00  0.00     0.027 C 
ATOM      8  H   LIG d   1       9.319   0.755  -7.127  0.00  0.00     0.048 H 
ATOM      9  H   LIG d   1       7.718   1.274  -6.499  0.00  0.00     0.048 H 
BRANCH   7  10
ATOM     10  N   LIG d   1       9.359   1.725  -5.260  0.00  0.00    -0.345 N 
ATOM     11  H   LIG d   1       9.657   1.334  -4.276  0.00  0.00     0.146 HD
BRANCH  10  12
ATOM     12  C   LIG d   1       9.607   3.026  -5.579  0.00  0.00     0.008 C 
BRANCH  12  13
ATOM     13  C   LIG d   1       9.659   3.965  -4.603  0.00  0.00     0.015 A 
ATOM     14  C   LIG d   1      10.114   3.737  -3.299  0.00  0.00     0.161 A 
ATOM     15  C   LIG d   1      10.030   5.006  -2.493  0.00  0.00     0.014 A 
ATOM     16  O   LIG d   1      10.513   2.671  -2.875  0.00  0.00    -0.292 OA
ATOM     17  C   LIG d   1       9.475   6.097  -3.419  0.00  0.00    -0.021 A 
ATOM     18  H   LIG d   1      11.026   5.303  -2.133  0.00  0.00     0.035 H 
ATOM     19  H   LIG d   1       9.354   4.875  -1.634  0.00  0.00     0.035 H 
ATOM     20  C   LIG d   1       9.246   5.404  -4.770  0.00  0.00    -0.002 A 
ATOM     21  H   LIG d   1       8.955   6.719  -2.676  0.00  0.00     0.032 H 
ATOM     22  C   LIG d   1      10.298   6.507  -4.643  0.00  0.00    -0.024 A 
ATOM     23  H   LIG d   1       8.467   5.239  -5.528  0.00  0.00     0.036 H 
BRANCH  22  24
ATOM     24  C   LIG d   1       9.982   7.860  -5.285  0.00  0.00    -0.059 C 
ATOM     25  H   LIG d   1       8.931   7.876  -5.608  0.00  0.00     0.024 H 
ATOM     26  H   LIG d   1      10.636   8.014  -6.156  0.00  0.00     0.024 H 
ATOM     27  H   LIG d   1      10.152   8.662  -4.553  0.00  0.00     0.024 H 
ENDBRANCH  22  24
BRANCH  22  28
ATOM     28  C   LIG d   1      11.769   6.088  -4.677  0.00  0.00    -0.059 C 
ATOM     29  H   LIG d   1      11.988   5.448  -3.810  0.00  0.00     0.024 H 
ATOM     30  H   LIG d   1      12.406   6.984  -4.642  0.00  0.00     0.024 H 
ATOM     31  H   LIG d   1      11.970   5.532  -5.605  0.00  0.00     0.024 H 
ENDBRANCH  22  28
ENDBRANCH  12  13
BRANCH  12  32
ATOM     32  C   LIG d   1       9.825   3.421  -7.017  0.00  0.00    -0.026 C 
ATOM     33  H   LIG d   1       9.179   2.813  -7.666  0.00  0.00     0.029 H 
ATOM     34  H   LIG d   1      10.878   3.255  -7.287  0.00  0.00     0.029 H 
ATOM     35  H   LIG d   1       9.576   4.486  -7.145  0.00  0.00     0.029 H 
ENDBRANCH  12  32
ENDBRANCH  10  12
ENDBRANCH   7  10
ENDBRANCH   1   7
BRANCH   1  36
ATOM     36  N   LIG d   1       8.195  -0.387  -4.175  0.00  0.00    -0.343 N 
ATOM     37  H   LIG d   1       8.874   0.190  -3.531  0.00  0.00     0.146 HD
BRANCH  36  38
ATOM     38  C   LIG d   1       7.081  -0.966  -3.647  0.00  0.00     0.008 C 
ATOM     39  C   LIG d   1       6.094  -0.192  -3.131  0.00  0.00     0.015 A 
ATOM     40  C   LIG d   1       6.118   1.202  -3.085  0.00  0.00     0.161 A 
ATOM     41  C   LIG d   1       4.820  -0.714  -2.523  0.00  0.00    -0.002 A 
ATOM     42  C   LIG d   1       4.858   1.726  -2.449  0.00  0.00     0.014 A 
ATOM     43  O   LIG d   1       7.026   1.896  -3.500  0.00  0.00    -0.292 OA
ATOM     44  C   LIG d   1       4.002   0.506  -2.078  0.00  0.00    -0.021 A 
ATOM     45  H   LIG d   1       4.302   2.362  -3.155  0.00  0.00     0.035 H 
ATOM     46  H   LIG d   1       5.090   2.302  -1.542  0.00  0.00     0.035 H 
ATOM     47  H   LIG d   1       3.481   0.920  -1.201  0.00  0.00     0.032 H 
ATOM     48  C   LIG d   1       3.487  -0.412  -3.210  0.00  0.00    -0.024 A 
ATOM     49  H   LIG d   1       5.226  -1.658  -2.129  0.00  0.00     0.036 H 
BRANCH  48  50
ATOM     50  C   LIG d   1       3.538   0.122  -4.644  0.00  0.00    -0.059 C 
ATOM     51  H   LIG d   1       3.927   1.151  -4.636  0.00  0.00     0.024 H 
ATOM     52  H   LIG d   1       2.526   0.116  -5.074  0.00  0.00     0.024 H 
ATOM     53  H   LIG d   1       4.199  -0.514  -5.250  0.00  0.00     0.024 H 
ENDBRANCH  48  50
BRANCH  48  54
ATOM     54  C   LIG d   1       2.305  -1.327  -2.889  0.00  0.00    -0.059 C 
ATOM     55  H   LIG d   1       1.861  -1.697  -3.826  0.00  0.00     0.024 H 
ATOM     56  H   LIG d   1       1.548  -0.763  -2.323  0.00  0.00     0.024 H 
ATOM     57  H   LIG d   1       2.652  -2.179  -2.287  0.00  0.00     0.024 H 
ENDBRANCH  48  54
BRANCH  38  58
ATOM     58  C   LIG d   1       6.944  -2.467  -3.635  0.00  0.00    -0.026 C 
ATOM     59  H   LIG d   1       6.621  -2.814  -4.628  0.00  0.00     0.029 H 
ATOM     60  H   LIG d   1       6.197  -2.761  -2.883  0.00  0.00     0.029 H 
ATOM     61  H   LIG d   1       7.914  -2.922  -3.386  0.00  0.00     0.029 H 
ENDBRANCH  38  58
ENDBRANCH  36  38
ENDBRANCH   1  36
TORSDOF 13
ENDMDL
MODEL 8
REMARK VINA RESULT:      -5.5      2.641      6.761
REMARK  13 active torsions:
REMARK  status: ('A' for Active; 'I' for Inactive)
REMARK    1  A    between atoms: C_1  and  C_2 
REMARK    2  A    between atoms: C_2  and  C_4 
REMARK    3  A    between atoms: C_2  and  N_19 
REMARK    4  A    between atoms: C_4  and  N_5 
REMARK    5  A    between atoms: N_5  and  C_6 
REMARK    6  A    between atoms: C_6  and  C_7 
REMARK    7  A    between atoms: C_6  and  C_18 
REMARK    8  A    between atoms: C_12  and  C_13 
REMARK    9  A    between atoms: C_12  and  C_14 
REMARK   10  A    between atoms: N_19  and  C_20 
REMARK   11  A    between atoms: C_20  and  C_32 
REMARK   12  A    between atoms: C_26  and  C_27 
REMARK   13  A    between atoms: C_26  and  C_28 
ROOT
ATOM      1  C   LIG d   1       5.703  -3.966  -8.311  0.00  0.00     0.033 C 
ATOM      2  H   LIG d   1       6.753  -3.640  -8.284  0.00  0.00     0.051 H 
ENDROOT
BRANCH   1   3
ATOM      3  C   LIG d   1       5.612  -5.493  -8.289  0.00  0.00    -0.045 C 
ATOM      4  H   LIG d   1       6.565  -5.922  -8.633  0.00  0.00     0.025 H 
ATOM      5  H   LIG d   1       4.801  -5.822  -8.955  0.00  0.00     0.025 H 
ATOM      6  H   LIG d   1       5.406  -5.833  -7.263  0.00  0.00     0.025 H 
ENDBRANCH   1   3
BRANCH   1   7
ATOM      7  C   LIG d   1       4.930  -3.392  -7.123  0.00  0.00     0.027 C 
ATOM      8  H   LIG d   1       4.148  -2.709  -7.488  0.00  0.00     0.048 H 
ATOM      9  H   LIG d   1       4.463  -4.213  -6.559  0.00  0.00     0.048 H 
BRANCH   7  10
ATOM     10  N   LIG d   1       5.849  -2.659  -6.248  0.00  0.00    -0.345 N 
ATOM     11  H   LIG d   1       6.836  -3.083  -6.011  0.00  0.00     0.146 HD
BRANCH  10  12
ATOM     12  C   LIG d   1       5.481  -1.455  -5.730  0.00  0.00     0.008 C 
BRANCH  12  13
ATOM     13  C   LIG d   1       4.666  -1.405  -4.646  0.00  0.00     0.015 A 
ATOM     14  C   LIG d   1       4.591  -2.393  -3.658  0.00  0.00     0.161 A 
ATOM     15  C   LIG d   1       3.583  -2.000  -2.611  0.00  0.00     0.014 A 
ATOM     16  O   LIG d   1       5.237  -3.422  -3.648  0.00  0.00    -0.292 OA
ATOM     17  C   LIG d   1       3.011  -0.635  -3.019  0.00  0.00    -0.021 A 
ATOM     18  H   LIG d   1       4.063  -1.915  -1.624  0.00  0.00     0.035 H 
ATOM     19  H   LIG d   1       2.769  -2.739  -2.560  0.00  0.00     0.035 H 
ATOM     20  C   LIG d   1       3.725  -0.273  -4.330  0.00  0.00    -0.002 A 
ATOM     21  H   LIG d   1       2.003  -0.725  -2.589  0.00  0.00     0.032 H 
ATOM     22  C   LIG d   1       3.955   0.568  -3.074  0.00  0.00    -0.024 A 
ATOM     23  H   LIG d   1       3.513   0.027  -5.367  0.00  0.00     0.036 H 
BRANCH  22  24
ATOM     24  C   LIG d   1       3.325   1.962  -3.032  0.00  0.00    -0.059 C 
ATOM     25  H   LIG d   1       3.821   2.565  -2.257  0.00  0.00     0.024 H 
ATOM     26  H   LIG d   1       2.254   1.874  -2.799  0.00  0.00     0.024 H 
ATOM     27  H   LIG d   1       3.449   2.449  -4.010  0.00  0.00     0.024 H 
ENDBRANCH  22  24
BRANCH  22  28
ATOM     28  C   LIG d   1       5.309   0.435  -2.373  0.00  0.00    -0.059 C 
ATOM     29  H   LIG d   1       6.111   0.718  -3.070  0.00  0.00     0.024 H 
ATOM     30  H   LIG d   1       5.454  -0.606  -2.050  0.00  0.00     0.024 H 
ATOM     31  H   LIG d   1       5.334   1.098  -1.495  0.00  0.00     0.024 H 
ENDBRANCH  22  28
ENDBRANCH  12  13
BRANCH  12  32
ATOM     32  C   LIG d   1       5.979  -0.178  -6.357  0.00  0.00    -0.026 C 
ATOM     33  H   LIG d   1       6.190   0.559  -5.569  0.00  0.00     0.029 H 
ATOM     34  H   LIG d   1       5.211   0.220  -7.036  0.00  0.00     0.029 H 
ATOM     35  H   LIG d   1       6.899  -0.385  -6.924  0.00  0.00     0.029 H 
ENDBRANCH  12  32
ENDBRANCH  10  12
ENDBRANCH   7  10
ENDBRANCH   1   7
BRANCH   1  36
ATOM     36  N   LIG d   1       5.125  -3.460  -9.559  0.00  0.00    -0.343 N 
ATOM     37  H   LIG d   1       4.801  -4.163 -10.340  0.00  0.00     0.146 HD
BRANCH  36  38
ATOM     38  C   LIG d   1       4.989  -2.118  -9.751  0.00  0.00     0.008 C 
ATOM     39  C   LIG d   1       3.755  -1.574  -9.891  0.00  0.00     0.015 A 
ATOM     40  C   LIG d   1       2.560  -2.293  -9.860  0.00  0.00     0.161 A 
ATOM     41  C   LIG d   1       3.480  -0.110 -10.106  0.00  0.00    -0.002 A 
ATOM     42  C   LIG d   1       1.387  -1.366 -10.044  0.00  0.00     0.014 A 
ATOM     43  O   LIG d   1       2.477  -3.496  -9.706  0.00  0.00    -0.292 OA
ATOM     44  C   LIG d   1       1.956   0.051 -10.205  0.00  0.00    -0.021 A 
ATOM     45  H   LIG d   1       0.726  -1.398  -9.165  0.00  0.00     0.035 H 
ATOM     46  H   LIG d   1       0.815  -1.636 -10.944  0.00  0.00     0.035 H 
ATOM     47  H   LIG d   1       1.176   0.479 -10.852  0.00  0.00     0.032 H 
ATOM     48  C   LIG d   1       2.736   0.676  -9.025  0.00  0.00    -0.024 A 
ATOM     49  H   LIG d   1       4.400   0.129 -10.661  0.00  0.00     0.036 H 
BRANCH  48  50
ATOM     50  C   LIG d   1       2.596   0.022  -7.649  0.00  0.00    -0.059 C 
ATOM     51  H   LIG d   1       2.845   0.756  -6.867  0.00  0.00     0.024 H 
ATOM     52  H   LIG d   1       3.283  -0.835  -7.578  0.00  0.00     0.024 H 
ATOM     53  H   LIG d   1       1.562  -0.324  -7.510  0.00  0.00     0.024 H 
ENDBRANCH  48  50
BRANCH  48  54
ATOM     54  C   LIG d   1       2.899   2.196  -9.019  0.00  0.00    -0.059 C 
ATOM     55  H   LIG d   1       2.123   2.651  -9.653  0.00  0.00     0.024 H 
ATOM     56  H   LIG d   1       3.894   2.460  -9.411  0.00  0.00     0.024 H 
ATOM     57  H   LIG d   1       2.800   2.574  -7.991  0.00  0.00     0.024 H 
ENDBRANCH  48  54
BRANCH  38  58
ATOM     58  C   LIG d   1       6.211  -1.237  -9.809  0.00  0.00    -0.026 C 
ATOM     59  H   LIG d   1       7.025  -1.701  -9.230  0.00  0.00     0.029 H 
ATOM     60  H   LIG d   1       5.973  -0.252  -9.382  0.00  0.00     0.029 H 
ATOM     61  H   LIG d   1       6.529  -1.117 -10.855  0.00  0.00     0.029 H 
ENDBRANCH  38  58
ENDBRANCH  36  38
ENDBRANCH   1  36
TORSDOF 13
ENDMDL
MODEL 9
REMARK VINA RESULT:      -5.4      2.667      8.033
REMARK  13 active torsions:
REMARK  status: ('A' for Active; 'I' for Inactive)
REMARK    1  A    between atoms: C_1  and  C_2 
REMARK    2  A    between atoms: C_2  and  C_4 
REMARK    3  A    between atoms: C_2  and  N_19 
REMARK    4  A    between atoms: C_4  and  N_5 
REMARK    5  A    between atoms: N_5  and  C_6 
REMARK    6  A    between atoms: C_6  and  C_7 
REMARK    7  A    between atoms: C_6  and  C_18 
REMARK    8  A    between atoms: C_12  and  C_13 
REMARK    9  A    between atoms: C_12  and  C_14 
REMARK   10  A    between atoms: N_19  and  C_20 
REMARK   11  A    between atoms: C_20  and  C_32 
REMARK   12  A    between atoms: C_26  and  C_27 
REMARK   13  A    between atoms: C_26  and  C_28 
ROOT
ATOM      1  C   LIG d   1       2.596  -0.239  -8.397  0.00  0.00     0.033 C 
ATOM      2  H   LIG d   1       1.768  -0.784  -7.922  0.00  0.00     0.051 H 
ENDROOT
BRANCH   1   3
ATOM      3  C   LIG d   1       2.834   1.100  -7.695  0.00  0.00    -0.045 C 
ATOM      4  H   LIG d   1       2.430   1.054  -6.672  0.00  0.00     0.025 H 
ATOM      5  H   LIG d   1       2.329   1.902  -8.253  0.00  0.00     0.025 H 
ATOM      6  H   LIG d   1       3.914   1.304  -7.653  0.00  0.00     0.025 H 
ENDBRANCH   1   3
BRANCH   1   7
ATOM      7  C   LIG d   1       3.881  -1.069  -8.359  0.00  0.00     0.027 C 
ATOM      8  H   LIG d   1       3.888  -1.772  -9.205  0.00  0.00     0.048 H 
ATOM      9  H   LIG d   1       4.751  -0.400  -8.431  0.00  0.00     0.048 H 
BRANCH   7  10
ATOM     10  N   LIG d   1       3.942  -1.818  -7.101  0.00  0.00    -0.345 N 
ATOM     11  H   LIG d   1       3.347  -2.735  -6.979  0.00  0.00     0.146 HD
BRANCH  10  12
ATOM     12  C   LIG d   1       4.734  -1.377  -6.085  0.00  0.00     0.008 C 
BRANCH  12  13
ATOM     13  C   LIG d   1       4.309  -1.482  -4.801  0.00  0.00     0.015 A 
ATOM     14  C   LIG d   1       4.577  -2.566  -3.958  0.00  0.00     0.161 A 
ATOM     15  C   LIG d   1       3.950  -2.338  -2.608  0.00  0.00     0.014 A 
ATOM     16  O   LIG d   1       5.216  -3.552  -4.269  0.00  0.00    -0.292 OA
ATOM     17  C   LIG d   1       3.246  -0.975  -2.658  0.00  0.00    -0.021 A 
ATOM     18  H   LIG d   1       4.719  -2.324  -1.821  0.00  0.00     0.035 H 
ATOM     19  H   LIG d   1       3.212  -3.124  -2.386  0.00  0.00     0.035 H 
ATOM     20  C   LIG d   1       3.492  -0.444  -4.077  0.00  0.00    -0.002 A 
ATOM     21  H   LIG d   1       2.432  -1.166  -1.944  0.00  0.00     0.032 H 
ATOM     22  C   LIG d   1       4.095   0.280  -2.872  0.00  0.00    -0.024 A 
ATOM     23  H   LIG d   1       2.953  -0.055  -4.953  0.00  0.00     0.036 H 
BRANCH  22  24
ATOM     24  C   LIG d   1       3.479   1.624  -2.477  0.00  0.00    -0.059 C 
ATOM     25  H   LIG d   1       2.500   1.737  -2.966  0.00  0.00     0.024 H 
ATOM     26  H   LIG d   1       4.144   2.440  -2.795  0.00  0.00     0.024 H 
ATOM     27  H   LIG d   1       3.350   1.662  -1.386  0.00  0.00     0.024 H 
ENDBRANCH  22  24
BRANCH  22  28
ATOM     28  C   LIG d   1       5.604   0.157  -2.656  0.00  0.00    -0.059 C 
ATOM     29  H   LIG d   1       5.846   0.403  -1.612  0.00  0.00     0.024 H 
ATOM     30  H   LIG d   1       6.129   0.852  -3.328  0.00  0.00     0.024 H 
ATOM     31  H   LIG d   1       5.923  -0.874  -2.873  0.00  0.00     0.024 H 
ENDBRANCH  22  28
ENDBRANCH  12  13
BRANCH  12  32
ATOM     32  C   LIG d   1       6.082  -0.774  -6.385  0.00  0.00    -0.026 C 
ATOM     33  H   LIG d   1       6.149  -0.541  -7.457  0.00  0.00     0.029 H 
ATOM     34  H   LIG d   1       6.872  -1.490  -6.115  0.00  0.00     0.029 H 
ATOM     35  H   LIG d   1       6.208   0.149  -5.799  0.00  0.00     0.029 H 
ENDBRANCH  12  32
ENDBRANCH  10  12
ENDBRANCH   7  10
ENDBRANCH   1   7
BRANCH   1  36
ATOM     36  N   LIG d   1       2.213   0.002  -9.791  0.00  0.00    -0.343 N 
ATOM     37  H   LIG d   1       2.010   1.026 -10.136  0.00  0.00     0.146 HD
BRANCH  36  38
ATOM     38  C   LIG d   1       2.108  -1.043 -10.658  0.00  0.00     0.008 C 
ATOM     39  C   LIG d   1       2.883  -1.083 -11.769  0.00  0.00     0.015 A 
ATOM     40  C   LIG d   1       3.816  -0.109 -12.125  0.00  0.00     0.161 A 
ATOM     41  C   LIG d   1       2.858  -2.183 -12.797  0.00  0.00    -0.002 A 
ATOM     42  C   LIG d   1       4.496  -0.481 -13.416  0.00  0.00     0.014 A 
ATOM     43  O   LIG d   1       4.048   0.898 -11.484  0.00  0.00    -0.292 OA
ATOM     44  C   LIG d   1       3.894  -1.819 -13.870  0.00  0.00    -0.021 A 
ATOM     45  H   LIG d   1       5.579  -0.600 -13.264  0.00  0.00     0.035 H 
ATOM     46  H   LIG d   1       4.315   0.283 -14.186  0.00  0.00     0.035 H 
ATOM     47  H   LIG d   1       3.999  -1.696 -14.958  0.00  0.00     0.032 H 
ATOM     48  C   LIG d   1       4.094  -3.065 -12.977  0.00  0.00    -0.024 A 
ATOM     49  H   LIG d   1       1.795  -2.450 -12.694  0.00  0.00     0.036 H 
BRANCH  48  50
ATOM     50  C   LIG d   1       5.170  -3.000 -11.890  0.00  0.00    -0.059 C 
ATOM     51  H   LIG d   1       5.993  -2.353 -12.229  0.00  0.00     0.024 H 
ATOM     52  H   LIG d   1       5.555  -4.012 -11.694  0.00  0.00     0.024 H 
ATOM     53  H   LIG d   1       4.736  -2.588 -10.968  0.00  0.00     0.024 H 
ENDBRANCH  48  50
BRANCH  48  54
ATOM     54  C   LIG d   1       3.896  -4.434 -13.628  0.00  0.00    -0.059 C 
ATOM     55  H   LIG d   1       2.837  -4.562 -13.897  0.00  0.00     0.024 H 
ATOM     56  H   LIG d   1       4.193  -5.223 -12.921  0.00  0.00     0.024 H 
ATOM     57  H   LIG d   1       4.515  -4.504 -14.534  0.00  0.00     0.024 H 
ENDBRANCH  48  54
BRANCH  38  58
ATOM     58  C   LIG d   1       1.128  -2.155 -10.383  0.00  0.00    -0.026 C 
ATOM     59  H   LIG d   1       0.935  -2.214  -9.300  0.00  0.00     0.029 H 
ATOM     60  H   LIG d   1       1.550  -3.109 -10.731  0.00  0.00     0.029 H 
ATOM     61  H   LIG d   1       0.186  -1.955 -10.913  0.00  0.00     0.029 H 
ENDBRANCH  38  58
ENDBRANCH  36  38
ENDBRANCH   1  36
TORSDOF 13
ENDMDL
MODEL 10
REMARK VINA RESULT:      -5.3      2.823      5.842
REMARK  13 active torsions:
REMARK  status: ('A' for Active; 'I' for Inactive)
REMARK    1  A    between atoms: C_1  and  C_2 
REMARK    2  A    between atoms: C_2  and  C_4 
REMARK    3  A    between atoms: C_2  and  N_19 
REMARK    4  A    between atoms: C_4  and  N_5 
REMARK    5  A    between atoms: N_5  and  C_6 
REMARK    6  A    between atoms: C_6  and  C_7 
REMARK    7  A    between atoms: C_6  and  C_18 
REMARK    8  A    between atoms: C_12  and  C_13 
REMARK    9  A    between atoms: C_12  and  C_14 
REMARK   10  A    between atoms: N_19  and  C_20 
REMARK   11  A    between atoms: C_20  and  C_32 
REMARK   12  A    between atoms: C_26  and  C_27 
REMARK   13  A    between atoms: C_26  and  C_28 
ROOT
ATOM      1  C   LIG d   1       5.390   0.658  -8.364  0.00  0.00     0.033 C 
ATOM      2  H   LIG d   1       4.822   1.480  -7.907  0.00  0.00     0.051 H 
ENDROOT
BRANCH   1   3
ATOM      3  C   LIG d   1       4.904   0.395  -9.792  0.00  0.00    -0.045 C 
ATOM      4  H   LIG d   1       3.901   0.829  -9.923  0.00  0.00     0.025 H 
ATOM      5  H   LIG d   1       4.860  -0.689  -9.970  0.00  0.00     0.025 H 
ATOM      6  H   LIG d   1       5.601   0.858 -10.507  0.00  0.00     0.025 H 
ENDBRANCH   1   3
BRANCH   1   7
ATOM      7  C   LIG d   1       6.885   0.983  -8.387  0.00  0.00     0.027 C 
ATOM      8  H   LIG d   1       7.450   0.089  -8.691  0.00  0.00     0.048 H 
ATOM      9  H   LIG d   1       7.072   1.796  -9.104  0.00  0.00     0.048 H 
BRANCH   7  10
ATOM     10  N   LIG d   1       7.315   1.401  -7.051  0.00  0.00    -0.345 N 
ATOM     11  H   LIG d   1       6.728   1.108  -6.168  0.00  0.00     0.146 HD
BRANCH  10  12
ATOM     12  C   LIG d   1       8.440   2.155  -6.902  0.00  0.00     0.008 C 
BRANCH  12  13
ATOM     13  C   LIG d   1       8.915   2.425  -5.661  0.00  0.00     0.015 A 
ATOM     14  C   LIG d   1       9.539   1.492  -4.825  0.00  0.00     0.161 A 
ATOM     15  C   LIG d   1       9.936   2.146  -3.528  0.00  0.00     0.014 A 
ATOM     16  O   LIG d   1       9.726   0.324  -5.100  0.00  0.00    -0.292 OA
ATOM     17  C   LIG d   1       9.511   3.618  -3.611  0.00  0.00    -0.021 A 
ATOM     18  H   LIG d   1      11.025   2.087  -3.383  0.00  0.00     0.035 H 
ATOM     19  H   LIG d   1       9.427   1.664  -2.679  0.00  0.00     0.035 H 
ATOM     20  C   LIG d   1       8.858   3.773  -4.993  0.00  0.00    -0.002 A 
ATOM     21  H   LIG d   1       9.318   3.812  -2.546  0.00  0.00     0.032 H 
ATOM     22  C   LIG d   1      10.161   4.509  -4.673  0.00  0.00    -0.024 A 
ATOM     23  H   LIG d   1       7.932   4.127  -5.469  0.00  0.00     0.036 H 
BRANCH  22  24
ATOM     24  C   LIG d   1      10.083   6.023  -4.467  0.00  0.00    -0.059 C 
ATOM     25  H   LIG d   1       9.844   6.238  -3.414  0.00  0.00     0.024 H 
ATOM     26  H   LIG d   1       9.298   6.442  -5.114  0.00  0.00     0.024 H 
ATOM     27  H   LIG d   1      11.050   6.479  -4.723  0.00  0.00     0.024 H 
ENDBRANCH  22  24
BRANCH  22  28
ATOM     28  C   LIG d   1      11.442   3.999  -5.335  0.00  0.00    -0.059 C 
ATOM     29  H   LIG d   1      11.700   3.013  -4.922  0.00  0.00     0.024 H 
ATOM     30  H   LIG d   1      12.262   4.705  -5.140  0.00  0.00     0.024 H 
ATOM     31  H   LIG d   1      11.284   3.912  -6.420  0.00  0.00     0.024 H 
ENDBRANCH  22  28
ENDBRANCH  12  13
BRANCH  12  32
ATOM     32  C   LIG d   1       9.157   2.688  -8.116  0.00  0.00    -0.026 C 
ATOM     33  H   LIG d   1       9.698   1.869  -8.611  0.00  0.00     0.029 H 
ATOM     34  H   LIG d   1       9.870   3.466  -7.807  0.00  0.00     0.029 H 
ATOM     35  H   LIG d   1       8.423   3.119  -8.814  0.00  0.00     0.029 H 
ENDBRANCH  12  32
ENDBRANCH  10  12
ENDBRANCH   7  10
ENDBRANCH   1   7
BRANCH   1  36
ATOM     36  N   LIG d   1       5.163  -0.535  -7.544  0.00  0.00    -0.343 N 
ATOM     37  H   LIG d   1       5.492  -1.520  -7.903  0.00  0.00     0.146 HD
BRANCH  36  38
ATOM     38  C   LIG d   1       4.545  -0.421  -6.335  0.00  0.00     0.008 C 
ATOM     39  C   LIG d   1       5.173  -0.838  -5.209  0.00  0.00     0.015 A 
ATOM     40  C   LIG d   1       6.449  -1.402  -5.172  0.00  0.00     0.161 A 
ATOM     41  C   LIG d   1       4.594  -0.763  -3.822  0.00  0.00    -0.002 A 
ATOM     42  C   LIG d   1       6.829  -1.743  -3.755  0.00  0.00     0.014 A 
ATOM     43  O   LIG d   1       7.154  -1.591  -6.144  0.00  0.00    -0.292 OA
ATOM     44  C   LIG d   1       5.646  -1.339  -2.863  0.00  0.00    -0.021 A 
ATOM     45  H   LIG d   1       7.727  -1.185  -3.449  0.00  0.00     0.035 H 
ATOM     46  H   LIG d   1       7.016  -2.822  -3.651  0.00  0.00     0.035 H 
ATOM     47  H   LIG d   1       5.767  -2.088  -2.066  0.00  0.00     0.032 H 
ATOM     48  C   LIG d   1       5.250   0.154  -2.788  0.00  0.00    -0.024 A 
ATOM     49  H   LIG d   1       3.537  -0.888  -4.102  0.00  0.00     0.036 H 
BRANCH  48  50
ATOM     50  C   LIG d   1       6.255   1.188  -3.300  0.00  0.00    -0.059 C 
ATOM     51  H   LIG d   1       6.813   1.608  -2.450  0.00  0.00     0.024 H 
ATOM     52  H   LIG d   1       5.718   1.995  -3.820  0.00  0.00     0.024 H 
ATOM     53  H   LIG d   1       6.956   0.705  -3.996  0.00  0.00     0.024 H 
ENDBRANCH  48  50
BRANCH  48  54
ATOM     54  C   LIG d   1       4.400   0.594  -1.595  0.00  0.00    -0.059 C 
ATOM     55  H   LIG d   1       4.822   1.514  -1.163  0.00  0.00     0.024 H 
ATOM     56  H   LIG d   1       4.396  -0.201  -0.834  0.00  0.00     0.024 H 
ATOM     57  H   LIG d   1       3.369   0.786  -1.929  0.00  0.00     0.024 H 
ENDBRANCH  48  54
BRANCH  38  58
ATOM     58  C   LIG d   1       3.160   0.168  -6.250  0.00  0.00    -0.026 C 
ATOM     59  H   LIG d   1       3.117   1.093  -6.847  0.00  0.00     0.029 H 
ATOM     60  H   LIG d   1       2.924   0.399  -5.201  0.00  0.00     0.029 H 
ATOM     61  H   LIG d   1       2.428  -0.554  -6.641  0.00  0.00     0.029 H 
ENDBRANCH  38  58
ENDBRANCH  36  38
ENDBRANCH   1  36
TORSDOF 13
ENDMDL
