MODEL 1
REMARK VINA RESULT:      -5.4      0.000      0.000
REMARK  5 active torsions:
REMARK  status: ('A' for Active; 'I' for Inactive)
REMARK    1  A    between atoms: C_8  and  S_9 
REMARK    2  A    between atoms: C_12  and  N_14 
REMARK    3  A    between atoms: N_14  and  C_15 
REMARK    4  A    between atoms: C_15  and  C_16 
REMARK    5  A    between atoms: C_16  and  N_31 
ROOT
ATOM      1  C   LIG d   1       2.827   0.199  -6.717  0.00  0.00    -0.059 A 
ATOM      2  C   LIG d   1       3.278   0.349  -5.441  0.00  0.00    -0.052 A 
ATOM      3  C   LIG d   1       4.293  -0.491  -4.953  0.00  0.00     0.008 A 
ATOM      4  C   LIG d   1       4.840  -1.488  -5.796  0.00  0.00     0.005 A 
ATOM      5  C   LIG d   1       5.856  -2.324  -5.307  0.00  0.00    -0.052 A 
ATOM      6  C   LIG d   1       6.302  -2.168  -4.031  0.00  0.00    -0.059 A 
ATOM      7  C   LIG d   1       5.764  -1.187  -3.199  0.00  0.00    -0.037 A 
ATOM      8  C   LIG d   1       4.779  -0.358  -3.640  0.00  0.00     0.084 A 
ATOM      9  C   LIG d   1       4.354  -1.621  -7.115  0.00  0.00     0.035 A 
ATOM     10  C   LIG d   1       3.359  -0.774  -7.557  0.00  0.00    -0.040 A 
ATOM     11  H   LIG d   1       2.046   0.848  -7.085  0.00  0.00     0.062 H 
ATOM     12  H   LIG d   1       2.855   1.112  -4.805  0.00  0.00     0.062 H 
ATOM     13  H   LIG d   1       6.281  -3.089  -5.941  0.00  0.00     0.062 H 
ATOM     14  H   LIG d   1       7.083  -2.812  -3.657  0.00  0.00     0.062 H 
ATOM     15  H   LIG d   1       6.135  -1.083  -2.191  0.00  0.00     0.064 H 
ATOM     16  H   LIG d   1       2.987  -0.870  -8.567  0.00  0.00     0.064 H 
ENDROOT
BRANCH   9  17
ATOM     17  N   LIG d   1       4.877  -2.595  -7.962  0.00  0.00    -0.338 N 
ATOM     18  H   LIG d   1       5.800  -2.539  -8.254  0.00  0.00     0.146 HD
BRANCH  17  19
ATOM     19  C   LIG d   1       4.031  -3.704  -8.413  0.00  0.00     0.049 C 
ATOM     20  H   LIG d   1       4.262  -3.937  -9.452  0.00  0.00     0.051 H 
ATOM     21  H   LIG d   1       2.983  -3.419  -8.329  0.00  0.00     0.051 H 
BRANCH  19  22
ATOM     22  C   LIG d   1       4.298  -4.934  -7.543  0.00  0.00    -0.020 C 
ATOM     23  H   LIG d   1       4.113  -5.837  -8.124  0.00  0.00     0.083 H 
ATOM     24  H   LIG d   1       5.335  -4.924  -7.209  0.00  0.00     0.083 H 
BRANCH  22  25
ATOM     25  N   LIG d   1       3.415  -4.890  -6.365  0.00  0.00     0.220 N 
ATOM     26  H   LIG d   1       3.912  -5.228  -5.542  0.00  0.00     0.200 HD
ATOM     27  H   LIG d   1       3.100  -3.935  -6.200  0.00  0.00     0.200 HD
ATOM     28  H   LIG d   1       2.597  -5.487  -6.532  0.00  0.00     0.200 HD
ENDBRANCH  22  25
ENDBRANCH  19  22
ENDBRANCH  17  19
ENDBRANCH   9  17
BRANCH   8  29
ATOM     29  S   LIG d   1       4.114   0.875  -2.570  0.00  0.00    -0.051 S 
ATOM     30  O   LIG d   1       2.779   0.484  -2.281  0.00  0.00    -0.180 OA
ATOM     31  O   LIG d   1       5.082   1.094  -1.552  0.00  0.00    -0.180 OA
ATOM     32  O   LIG d   1       4.026   2.166  -3.372  0.00  0.00    -0.720 OA
ENDBRANCH   8  29
TORSDOF 5
ENDMDL
MODEL 2
REMARK VINA RESULT:      -5.3      8.949     10.729
REMARK  5 active torsions:
REMARK  status: ('A' for Active; 'I' for Inactive)
REMARK    1  A    between atoms: C_8  and  S_9 
REMARK    2  A    between atoms: C_12  and  N_14 
REMARK    3  A    between atoms: N_14  and  C_15 
REMARK    4  A    between atoms: C_15  and  C_16 
REMARK    5  A    between atoms: C_16  and  N_31 
ROOT
ATOM      1  C   LIG d   1       6.601 -11.249  -0.926  0.00  0.00    -0.059 A 
ATOM      2  C   LIG d   1       6.005 -10.856  -2.086  0.00  0.00    -0.052 A 
ATOM      3  C   LIG d   1       6.611  -9.873  -2.887  0.00  0.00     0.008 A 
ATOM      4  C   LIG d   1       7.838  -9.299  -2.478  0.00  0.00     0.005 A 
ATOM      5  C   LIG d   1       8.443  -8.318  -3.280  0.00  0.00    -0.052 A 
ATOM      6  C   LIG d   1       7.842  -7.931  -4.439  0.00  0.00    -0.059 A 
ATOM      7  C   LIG d   1       6.633  -8.495  -4.842  0.00  0.00    -0.037 A 
ATOM      8  C   LIG d   1       6.019  -9.448  -4.090  0.00  0.00     0.084 A 
ATOM      9  C   LIG d   1       8.433  -9.726  -1.271  0.00  0.00     0.035 A 
ATOM     10  C   LIG d   1       7.809 -10.696  -0.516  0.00  0.00    -0.040 A 
ATOM     11  H   LIG d   1       6.128 -12.006  -0.316  0.00  0.00     0.062 H 
ATOM     12  H   LIG d   1       5.068 -11.299  -2.390  0.00  0.00     0.062 H 
ATOM     13  H   LIG d   1       9.379  -7.873  -2.979  0.00  0.00     0.062 H 
ATOM     14  H   LIG d   1       8.309  -7.177  -5.054  0.00  0.00     0.062 H 
ATOM     15  H   LIG d   1       6.177  -8.171  -5.766  0.00  0.00     0.064 H 
ATOM     16  H   LIG d   1       8.263 -11.028   0.406  0.00  0.00     0.064 H 
ENDROOT
BRANCH   9  17
ATOM     17  N   LIG d   1       9.641  -9.175  -0.850  0.00  0.00    -0.338 N 
ATOM     18  H   LIG d   1       9.972  -8.360  -1.259  0.00  0.00     0.146 HD
BRANCH  17  19
ATOM     19  C   LIG d   1      10.412  -9.827   0.212  0.00  0.00     0.049 C 
ATOM     20  H   LIG d   1      11.206 -10.428  -0.232  0.00  0.00     0.051 H 
ATOM     21  H   LIG d   1       9.755 -10.470   0.797  0.00  0.00     0.051 H 
BRANCH  19  22
ATOM     22  C   LIG d   1      11.028  -8.763   1.123  0.00  0.00    -0.020 C 
ATOM     23  H   LIG d   1      10.483  -8.730   2.065  0.00  0.00     0.083 H 
ATOM     24  H   LIG d   1      12.072  -9.012   1.317  0.00  0.00     0.083 H 
BRANCH  22  25
ATOM     25  N   LIG d   1      10.966  -7.457   0.445  0.00  0.00     0.220 N 
ATOM     26  H   LIG d   1      10.887  -6.709   1.133  0.00  0.00     0.200 HD
ATOM     27  H   LIG d   1      11.804  -7.313  -0.115  0.00  0.00     0.200 HD
ATOM     28  H   LIG d   1      10.144  -7.434  -0.169  0.00  0.00     0.200 HD
ENDBRANCH  22  25
ENDBRANCH  19  22
ENDBRANCH  17  19
ENDBRANCH   9  17
BRANCH   8  29
ATOM     29  S   LIG d   1       4.490 -10.147  -4.620  0.00  0.00    -0.051 S 
ATOM     30  O   LIG d   1       4.713 -11.542  -4.774  0.00  0.00    -0.180 OA
ATOM     31  O   LIG d   1       3.486  -9.626  -3.761  0.00  0.00    -0.180 OA
ATOM     32  O   LIG d   1       4.202  -9.596  -6.011  0.00  0.00    -0.720 OA
ENDBRANCH   8  29
TORSDOF 5
ENDMDL
MODEL 3
REMARK VINA RESULT:      -5.2      9.319     10.580
REMARK  5 active torsions:
REMARK  status: ('A' for Active; 'I' for Inactive)
REMARK    1  A    between atoms: C_8  and  S_9 
REMARK    2  A    between atoms: C_12  and  N_14 
REMARK    3  A    between atoms: N_14  and  C_15 
REMARK    4  A    between atoms: C_15  and  C_16 
REMARK    5  A    between atoms: C_16  and  N_31 
ROOT
ATOM      1  C   LIG d   1       9.432   6.318  -3.621  0.00  0.00    -0.059 A 
ATOM      2  C   LIG d   1       9.593   7.267  -2.658  0.00  0.00    -0.052 A 
ATOM      3  C   LIG d   1      10.219   6.934  -1.444  0.00  0.00     0.008 A 
ATOM      4  C   LIG d   1      10.677   5.611  -1.235  0.00  0.00     0.005 A 
ATOM      5  C   LIG d   1      11.303   5.281  -0.023  0.00  0.00    -0.052 A 
ATOM      6  C   LIG d   1      11.462   6.235   0.936  0.00  0.00    -0.059 A 
ATOM      7  C   LIG d   1      11.011   7.538   0.731  0.00  0.00    -0.037 A 
ATOM      8  C   LIG d   1      10.400   7.893  -0.431  0.00  0.00     0.084 A 
ATOM      9  C   LIG d   1      10.496   4.648  -2.252  0.00  0.00     0.035 A 
ATOM     10  C   LIG d   1       9.881   5.016  -3.430  0.00  0.00    -0.040 A 
ATOM     11  H   LIG d   1       8.950   6.583  -4.551  0.00  0.00     0.062 H 
ATOM     12  H   LIG d   1       9.241   8.274  -2.826  0.00  0.00     0.062 H 
ATOM     13  H   LIG d   1      11.657   4.275   0.149  0.00  0.00     0.062 H 
ATOM     14  H   LIG d   1      11.944   5.978   1.867  0.00  0.00     0.062 H 
ATOM     15  H   LIG d   1      11.149   8.276   1.507  0.00  0.00     0.064 H 
ATOM     16  H   LIG d   1       9.745   4.283  -4.211  0.00  0.00     0.064 H 
ENDROOT
BRANCH   9  17
ATOM     17  N   LIG d   1      10.939   3.341  -2.067  0.00  0.00    -0.338 N 
ATOM     18  H   LIG d   1      11.246   3.050  -1.194  0.00  0.00     0.146 HD
BRANCH  17  19
ATOM     19  C   LIG d   1      10.942   2.403  -3.194  0.00  0.00     0.049 C 
ATOM     20  H   LIG d   1      10.212   2.725  -3.936  0.00  0.00     0.051 H 
ATOM     21  H   LIG d   1      10.683   1.407  -2.838  0.00  0.00     0.051 H 
BRANCH  19  22
ATOM     22  C   LIG d   1      12.334   2.372  -3.828  0.00  0.00    -0.020 C 
ATOM     23  H   LIG d   1      12.240   2.247  -4.907  0.00  0.00     0.083 H 
ATOM     24  H   LIG d   1      12.850   3.309  -3.616  0.00  0.00     0.083 H 
BRANCH  22  25
ATOM     25  N   LIG d   1      13.103   1.260  -3.245  0.00  0.00     0.220 N 
ATOM     26  H   LIG d   1      13.265   0.540  -3.948  0.00  0.00     0.200 HD
ATOM     27  H   LIG d   1      13.998   1.599  -2.896  0.00  0.00     0.200 HD
ATOM     28  H   LIG d   1      12.572   0.854  -2.466  0.00  0.00     0.200 HD
ENDBRANCH  22  25
ENDBRANCH  19  22
ENDBRANCH  17  19
ENDBRANCH   9  17
BRANCH   8  29
ATOM     29  S   LIG d   1       9.838   9.547  -0.667  0.00  0.00    -0.051 S 
ATOM     30  O   LIG d   1      10.602  10.086  -1.737  0.00  0.00    -0.180 OA
ATOM     31  O   LIG d   1       8.419   9.494  -0.695  0.00  0.00    -0.180 OA
ATOM     32  O   LIG d   1      10.220  10.334   0.580  0.00  0.00    -0.720 OA
ENDBRANCH   8  29
TORSDOF 5
ENDMDL
MODEL 4
REMARK VINA RESULT:      -5.2     10.053     11.414
REMARK  5 active torsions:
REMARK  status: ('A' for Active; 'I' for Inactive)
REMARK    1  A    between atoms: C_8  and  S_9 
REMARK    2  A    between atoms: C_12  and  N_14 
REMARK    3  A    between atoms: N_14  and  C_15 
REMARK    4  A    between atoms: C_15  and  C_16 
REMARK    5  A    between atoms: C_16  and  N_31 
ROOT
ATOM      1  C   LIG d   1       9.903   5.163  -3.229  0.00  0.00    -0.059 A 
ATOM      2  C   LIG d   1      10.401   5.727  -2.095  0.00  0.00    -0.052 A 
ATOM      3  C   LIG d   1      10.488   7.126  -1.987  0.00  0.00     0.008 A 
ATOM      4  C   LIG d   1      10.056   7.936  -3.065  0.00  0.00     0.005 A 
ATOM      5  C   LIG d   1      10.142   9.333  -2.956  0.00  0.00    -0.052 A 
ATOM      6  C   LIG d   1      10.640   9.891  -1.818  0.00  0.00    -0.059 A 
ATOM      7  C   LIG d   1      11.066   9.094  -0.757  0.00  0.00    -0.037 A 
ATOM      8  C   LIG d   1      10.997   7.737  -0.828  0.00  0.00     0.084 A 
ATOM      9  C   LIG d   1       9.544   7.323  -4.230  0.00  0.00     0.035 A 
ATOM     10  C   LIG d   1       9.471   5.948  -4.293  0.00  0.00    -0.040 A 
ATOM     11  H   LIG d   1       9.840   4.087  -3.303  0.00  0.00     0.062 H 
ATOM     12  H   LIG d   1      10.729   5.101  -1.278  0.00  0.00     0.062 H 
ATOM     13  H   LIG d   1       9.816   9.962  -3.771  0.00  0.00     0.062 H 
ATOM     14  H   LIG d   1      10.705  10.965  -1.736  0.00  0.00     0.062 H 
ATOM     15  H   LIG d   1      11.457   9.561   0.135  0.00  0.00     0.064 H 
ATOM     16  H   LIG d   1       9.077   5.475  -5.180  0.00  0.00     0.064 H 
ENDROOT
BRANCH   9  17
ATOM     17  N   LIG d   1       9.113   8.101  -5.301  0.00  0.00    -0.338 N 
ATOM     18  H   LIG d   1       8.548   8.874  -5.145  0.00  0.00     0.146 HD
BRANCH  17  19
ATOM     19  C   LIG d   1       9.513   7.751  -6.667  0.00  0.00     0.049 C 
ATOM     20  H   LIG d   1       8.803   7.035  -7.081  0.00  0.00     0.051 H 
ATOM     21  H   LIG d   1      10.509   7.309  -6.652  0.00  0.00     0.051 H 
BRANCH  19  22
ATOM     22  C   LIG d   1       9.528   9.013  -7.533  0.00  0.00    -0.020 C 
ATOM     23  H   LIG d   1       9.353   9.887  -6.907  0.00  0.00     0.083 H 
ATOM     24  H   LIG d   1      10.498   9.105  -8.022  0.00  0.00     0.083 H 
BRANCH  22  25
ATOM     25  N   LIG d   1       8.482   8.900  -8.564  0.00  0.00     0.220 N 
ATOM     26  H   LIG d   1       8.545   9.683  -9.213  0.00  0.00     0.200 HD
ATOM     27  H   LIG d   1       8.591   8.026  -9.077  0.00  0.00     0.200 HD
ATOM     28  H   LIG d   1       7.560   8.911  -8.114  0.00  0.00     0.200 HD
ENDBRANCH  22  25
ENDBRANCH  19  22
ENDBRANCH  17  19
ENDBRANCH   9  17
BRANCH   8  29
ATOM     29  S   LIG d   1      11.542   6.750   0.527  0.00  0.00    -0.051 S 
ATOM     30  O   LIG d   1      10.448   5.918   0.889  0.00  0.00    -0.180 OA
ATOM     31  O   LIG d   1      12.811   6.226   0.162  0.00  0.00    -0.180 OA
ATOM     32  O   LIG d   1      11.781   7.690   1.701  0.00  0.00    -0.720 OA
ENDBRANCH   8  29
TORSDOF 5
ENDMDL
MODEL 5
REMARK VINA RESULT:      -5.2      8.757     10.420
REMARK  5 active torsions:
REMARK  status: ('A' for Active; 'I' for Inactive)
REMARK    1  A    between atoms: C_8  and  S_9 
REMARK    2  A    between atoms: C_12  and  N_14 
REMARK    3  A    between atoms: N_14  and  C_15 
REMARK    4  A    between atoms: C_15  and  C_16 
REMARK    5  A    between atoms: C_16  and  N_31 
ROOT
ATOM      1  C   LIG d   1       8.458  -7.734  -4.185  0.00  0.00    -0.059 A 
ATOM      2  C   LIG d   1       7.313  -8.451  -4.355  0.00  0.00    -0.052 A 
ATOM      3  C   LIG d   1       6.876  -9.324  -3.344  0.00  0.00     0.008 A 
ATOM      4  C   LIG d   1       7.635  -9.450  -2.155  0.00  0.00     0.005 A 
ATOM      5  C   LIG d   1       7.196 -10.322  -1.146  0.00  0.00    -0.052 A 
ATOM      6  C   LIG d   1       6.050 -11.035  -1.323  0.00  0.00    -0.059 A 
ATOM      7  C   LIG d   1       5.303 -10.913  -2.493  0.00  0.00    -0.037 A 
ATOM      8  C   LIG d   1       5.698 -10.077  -3.492  0.00  0.00     0.084 A 
ATOM      9  C   LIG d   1       8.818  -8.694  -2.006  0.00  0.00     0.035 A 
ATOM     10  C   LIG d   1       9.209  -7.845  -3.020  0.00  0.00    -0.040 A 
ATOM     11  H   LIG d   1       8.786  -7.065  -4.967  0.00  0.00     0.062 H 
ATOM     12  H   LIG d   1       6.741  -8.349  -5.266  0.00  0.00     0.062 H 
ATOM     13  H   LIG d   1       7.765 -10.427  -0.235  0.00  0.00     0.062 H 
ATOM     14  H   LIG d   1       5.715 -11.705  -0.545  0.00  0.00     0.062 H 
ATOM     15  H   LIG d   1       4.397 -11.490  -2.609  0.00  0.00     0.064 H 
ATOM     16  H   LIG d   1      10.111  -7.262  -2.908  0.00  0.00     0.064 H 
ENDROOT
BRANCH   9  17
ATOM     17  N   LIG d   1       9.578  -8.801  -0.845  0.00  0.00    -0.338 N 
ATOM     18  H   LIG d   1       9.159  -8.690   0.023  0.00  0.00     0.146 HD
BRANCH  17  19
ATOM     19  C   LIG d   1      11.014  -9.082  -0.934  0.00  0.00     0.049 C 
ATOM     20  H   LIG d   1      11.335  -9.007  -1.973  0.00  0.00     0.051 H 
ATOM     21  H   LIG d   1      11.211 -10.088  -0.564  0.00  0.00     0.051 H 
BRANCH  19  22
ATOM     22  C   LIG d   1      11.786  -8.067  -0.088  0.00  0.00    -0.020 C 
ATOM     23  H   LIG d   1      12.701  -8.525   0.287  0.00  0.00     0.083 H 
ATOM     24  H   LIG d   1      12.039  -7.202  -0.701  0.00  0.00     0.083 H 
BRANCH  22  25
ATOM     25  N   LIG d   1      10.934  -7.628   1.030  0.00  0.00     0.220 N 
ATOM     26  H   LIG d   1      10.627  -8.433   1.573  0.00  0.00     0.200 HD
ATOM     27  H   LIG d   1      11.451  -6.990   1.634  0.00  0.00     0.200 HD
ATOM     28  H   LIG d   1      10.110  -7.142   0.657  0.00  0.00     0.200 HD
ENDBRANCH  22  25
ENDBRANCH  19  22
ENDBRANCH  17  19
ENDBRANCH   9  17
BRANCH   8  29
ATOM     29  S   LIG d   1       4.737  -9.940  -4.963  0.00  0.00    -0.051 S 
ATOM     30  O   LIG d   1       4.276  -8.596  -5.022  0.00  0.00    -0.180 OA
ATOM     31  O   LIG d   1       5.502 -10.530  -6.005  0.00  0.00    -0.180 OA
ATOM     32  O   LIG d   1       3.504 -10.815  -4.779  0.00  0.00    -0.720 OA
ENDBRANCH   8  29
TORSDOF 5
ENDMDL
MODEL 6
REMARK VINA RESULT:      -5.2     11.338     12.901
REMARK  5 active torsions:
REMARK  status: ('A' for Active; 'I' for Inactive)
REMARK    1  A    between atoms: C_8  and  S_9 
REMARK    2  A    between atoms: C_12  and  N_14 
REMARK    3  A    between atoms: N_14  and  C_15 
REMARK    4  A    between atoms: C_15  and  C_16 
REMARK    5  A    between atoms: C_16  and  N_31 
ROOT
ATOM      1  C   LIG d   1      11.296   5.918   0.218  0.00  0.00    -0.059 A 
ATOM      2  C   LIG d   1      11.576   7.080   0.870  0.00  0.00    -0.052 A 
ATOM      3  C   LIG d   1      10.992   8.284   0.441  0.00  0.00     0.008 A 
ATOM      4  C   LIG d   1      10.116   8.276  -0.672  0.00  0.00     0.005 A 
ATOM      5  C   LIG d   1       9.533   9.479  -1.099  0.00  0.00    -0.052 A 
ATOM      6  C   LIG d   1       9.816  10.637  -0.441  0.00  0.00    -0.059 A 
ATOM      7  C   LIG d   1      10.679  10.646   0.654  0.00  0.00    -0.037 A 
ATOM      8  C   LIG d   1      11.262   9.498   1.096  0.00  0.00     0.084 A 
ATOM      9  C   LIG d   1       9.844   7.057  -1.329  0.00  0.00     0.035 A 
ATOM     10  C   LIG d   1      10.434   5.897  -0.873  0.00  0.00    -0.040 A 
ATOM     11  H   LIG d   1      11.749   4.997   0.555  0.00  0.00     0.062 H 
ATOM     12  H   LIG d   1      12.246   7.076   1.718  0.00  0.00     0.062 H 
ATOM     13  H   LIG d   1       8.863   9.487  -1.946  0.00  0.00     0.062 H 
ATOM     14  H   LIG d   1       9.366  11.561  -0.771  0.00  0.00     0.062 H 
ATOM     15  H   LIG d   1      10.888  11.577   1.159  0.00  0.00     0.064 H 
ATOM     16  H   LIG d   1      10.225   4.961  -1.371  0.00  0.00     0.064 H 
ENDROOT
BRANCH   9  17
ATOM     17  N   LIG d   1       8.985   7.026  -2.425  0.00  0.00    -0.338 N 
ATOM     18  H   LIG d   1       8.062   7.307  -2.327  0.00  0.00     0.146 HD
BRANCH  17  19
ATOM     19  C   LIG d   1       9.476   6.568  -3.728  0.00  0.00     0.049 C 
ATOM     20  H   LIG d   1       8.633   6.257  -4.345  0.00  0.00     0.051 H 
ATOM     21  H   LIG d   1      10.152   5.726  -3.585  0.00  0.00     0.051 H 
BRANCH  19  22
ATOM     22  C   LIG d   1      10.222   7.710  -4.422  0.00  0.00    -0.020 C 
ATOM     23  H   LIG d   1      10.825   8.248  -3.691  0.00  0.00     0.083 H 
ATOM     24  H   LIG d   1      10.871   7.301  -5.196  0.00  0.00     0.083 H 
BRANCH  22  25
ATOM     25  N   LIG d   1       9.242   8.614  -5.047  0.00  0.00     0.220 N 
ATOM     26  H   LIG d   1       8.308   8.209  -4.992  0.00  0.00     0.200 HD
ATOM     27  H   LIG d   1       9.247   9.516  -4.574  0.00  0.00     0.200 HD
ATOM     28  H   LIG d   1       9.489   8.751  -6.034  0.00  0.00     0.200 HD
ENDBRANCH  22  25
ENDBRANCH  19  22
ENDBRANCH  17  19
ENDBRANCH   9  17
BRANCH   8  29
ATOM     29  S   LIG d   1      12.350   9.534   2.482  0.00  0.00    -0.051 S 
ATOM     30  O   LIG d   1      11.846   8.592   3.418  0.00  0.00    -0.180 OA
ATOM     31  O   LIG d   1      13.671   9.462   1.963  0.00  0.00    -0.180 OA
ATOM     32  O   LIG d   1      12.211  10.906   3.128  0.00  0.00    -0.720 OA
ENDBRANCH   8  29
TORSDOF 5
ENDMDL
MODEL 7
REMARK VINA RESULT:      -5.0     13.215     14.540
REMARK  5 active torsions:
REMARK  status: ('A' for Active; 'I' for Inactive)
REMARK    1  A    between atoms: C_8  and  S_9 
REMARK    2  A    between atoms: C_12  and  N_14 
REMARK    3  A    between atoms: N_14  and  C_15 
REMARK    4  A    between atoms: C_15  and  C_16 
REMARK    5  A    between atoms: C_16  and  N_31 
ROOT
ATOM      1  C   LIG d   1       9.139  13.947  -3.830  0.00  0.00    -0.059 A 
ATOM      2  C   LIG d   1       9.540  13.566  -5.074  0.00  0.00    -0.052 A 
ATOM      3  C   LIG d   1       9.590  12.202  -5.407  0.00  0.00     0.008 A 
ATOM      4  C   LIG d   1       9.223  11.234  -4.441  0.00  0.00     0.005 A 
ATOM      5  C   LIG d   1       9.273   9.872  -4.776  0.00  0.00    -0.052 A 
ATOM      6  C   LIG d   1       9.673   9.498  -6.023  0.00  0.00    -0.059 A 
ATOM      7  C   LIG d   1      10.036  10.450  -6.974  0.00  0.00    -0.037 A 
ATOM      8  C   LIG d   1      10.000  11.779  -6.684  0.00  0.00     0.084 A 
ATOM      9  C   LIG d   1       8.811  11.658  -3.159  0.00  0.00     0.035 A 
ATOM     10  C   LIG d   1       8.771  13.006  -2.873  0.00  0.00    -0.040 A 
ATOM     11  H   LIG d   1       9.103  14.998  -3.582  0.00  0.00     0.062 H 
ATOM     12  H   LIG d   1       9.819  14.312  -5.804  0.00  0.00     0.062 H 
ATOM     13  H   LIG d   1       8.995   9.124  -4.049  0.00  0.00     0.062 H 
ATOM     14  H   LIG d   1       9.711   8.450  -6.278  0.00  0.00     0.062 H 
ATOM     15  H   LIG d   1      10.350  10.128  -7.956  0.00  0.00     0.064 H 
ATOM     16  H   LIG d   1       8.453  13.335  -1.895  0.00  0.00     0.064 H 
ENDROOT
BRANCH   9  17
ATOM     17  N   LIG d   1       8.445  10.723  -2.194  0.00  0.00    -0.338 N 
ATOM     18  H   LIG d   1       7.568  10.310  -2.226  0.00  0.00     0.146 HD
BRANCH  17  19
ATOM     19  C   LIG d   1       9.386  10.363  -1.129  0.00  0.00     0.049 C 
ATOM     20  H   LIG d   1       8.938  10.581  -0.160  0.00  0.00     0.051 H 
ATOM     21  H   LIG d   1      10.303  10.941  -1.244  0.00  0.00     0.051 H 
BRANCH  19  22
ATOM     22  C   LIG d   1       9.709   8.870  -1.217  0.00  0.00    -0.020 C 
ATOM     23  H   LIG d   1      10.332   8.683  -2.092  0.00  0.00     0.083 H 
ATOM     24  H   LIG d   1      10.244   8.561  -0.319  0.00  0.00     0.083 H 
BRANCH  22  25
ATOM     25  N   LIG d   1       8.450   8.111  -1.309  0.00  0.00     0.220 N 
ATOM     26  H   LIG d   1       8.238   7.901  -2.283  0.00  0.00     0.200 HD
ATOM     27  H   LIG d   1       8.528   7.240  -0.785  0.00  0.00     0.200 HD
ATOM     28  H   LIG d   1       7.687   8.673  -0.913  0.00  0.00     0.200 HD
ENDBRANCH  22  25
ENDBRANCH  19  22
ENDBRANCH  17  19
ENDBRANCH   9  17
BRANCH   8  29
ATOM     29  S   LIG d   1      10.463  12.965  -7.904  0.00  0.00    -0.051 S 
ATOM     30  O   LIG d   1       9.259  13.557  -8.372  0.00  0.00    -0.180 OA
ATOM     31  O   LIG d   1      11.521  13.730  -7.344  0.00  0.00    -0.180 OA
ATOM     32  O   LIG d   1      11.055  12.196  -9.077  0.00  0.00    -0.720 OA
ENDBRANCH   8  29
TORSDOF 5
ENDMDL
MODEL 8
REMARK VINA RESULT:      -4.9     10.292     11.627
REMARK  5 active torsions:
REMARK  status: ('A' for Active; 'I' for Inactive)
REMARK    1  A    between atoms: C_8  and  S_9 
REMARK    2  A    between atoms: C_12  and  N_14 
REMARK    3  A    between atoms: N_14  and  C_15 
REMARK    4  A    between atoms: C_15  and  C_16 
REMARK    5  A    between atoms: C_16  and  N_31 
ROOT
ATOM      1  C   LIG d   1      10.892  10.133  -2.662  0.00  0.00    -0.059 A 
ATOM      2  C   LIG d   1      11.127   9.163  -1.735  0.00  0.00    -0.052 A 
ATOM      3  C   LIG d   1      10.730   7.840  -1.989  0.00  0.00     0.008 A 
ATOM      4  C   LIG d   1      10.085   7.527  -3.210  0.00  0.00     0.005 A 
ATOM      5  C   LIG d   1       9.690   6.204  -3.463  0.00  0.00    -0.052 A 
ATOM      6  C   LIG d   1       9.930   5.240  -2.533  0.00  0.00    -0.059 A 
ATOM      7  C   LIG d   1      10.564   5.546  -1.330  0.00  0.00    -0.037 A 
ATOM      8  C   LIG d   1      10.961   6.817  -1.052  0.00  0.00     0.084 A 
ATOM      9  C   LIG d   1       9.854   8.553  -4.153  0.00  0.00     0.035 A 
ATOM     10  C   LIG d   1      10.263   9.838  -3.867  0.00  0.00    -0.040 A 
ATOM     11  H   LIG d   1      11.201  11.148  -2.458  0.00  0.00     0.062 H 
ATOM     12  H   LIG d   1      11.620   9.411  -0.806  0.00  0.00     0.062 H 
ATOM     13  H   LIG d   1       9.197   5.953  -4.391  0.00  0.00     0.062 H 
ATOM     14  H   LIG d   1       9.625   4.223  -2.730  0.00  0.00     0.062 H 
ATOM     15  H   LIG d   1      10.743   4.763  -0.609  0.00  0.00     0.064 H 
ATOM     16  H   LIG d   1      10.092  10.625  -4.586  0.00  0.00     0.064 H 
ENDROOT
BRANCH   9  17
ATOM     17  N   LIG d   1       9.222   8.268  -5.360  0.00  0.00    -0.338 N 
ATOM     18  H   LIG d   1       8.592   7.533  -5.417  0.00  0.00     0.146 HD
BRANCH  17  19
ATOM     19  C   LIG d   1       9.509   9.079  -6.547  0.00  0.00     0.049 C 
ATOM     20  H   LIG d   1      10.560   9.369  -6.542  0.00  0.00     0.051 H 
ATOM     21  H   LIG d   1       8.886   9.973  -6.536  0.00  0.00     0.051 H 
BRANCH  19  22
ATOM     22  C   LIG d   1       9.211   8.264  -7.807  0.00  0.00    -0.020 C 
ATOM     23  H   LIG d   1      10.147   7.971  -8.281  0.00  0.00     0.083 H 
ATOM     24  H   LIG d   1       8.647   7.371  -7.536  0.00  0.00     0.083 H 
BRANCH  22  25
ATOM     25  N   LIG d   1       8.401   9.081  -8.726  0.00  0.00     0.220 N 
ATOM     26  H   LIG d   1       8.998   9.503  -9.437  0.00  0.00     0.200 HD
ATOM     27  H   LIG d   1       7.695   8.502  -9.179  0.00  0.00     0.200 HD
ATOM     28  H   LIG d   1       7.934   9.825  -8.196  0.00  0.00     0.200 HD
ENDBRANCH  22  25
ENDBRANCH  19  22
ENDBRANCH  17  19
ENDBRANCH   9  17
BRANCH   8  29
ATOM     29  S   LIG d   1      11.761   7.181   0.476  0.00  0.00    -0.051 S 
ATOM     30  O   LIG d   1      13.153   7.247   0.200  0.00  0.00    -0.180 OA
ATOM     31  O   LIG d   1      11.048   8.262   1.060  0.00  0.00    -0.180 OA
ATOM     32  O   LIG d   1      11.554   5.980   1.389  0.00  0.00    -0.720 OA
ENDBRANCH   8  29
TORSDOF 5
ENDMDL
MODEL 9
REMARK VINA RESULT:      -4.8      9.591     10.691
REMARK  5 active torsions:
REMARK  status: ('A' for Active; 'I' for Inactive)
REMARK    1  A    between atoms: C_8  and  S_9 
REMARK    2  A    between atoms: C_12  and  N_14 
REMARK    3  A    between atoms: N_14  and  C_15 
REMARK    4  A    between atoms: C_15  and  C_16 
REMARK    5  A    between atoms: C_16  and  N_31 
ROOT
ATOM      1  C   LIG d   1       9.892   9.678  -4.737  0.00  0.00    -0.059 A 
ATOM      2  C   LIG d   1       9.955   8.864  -3.648  0.00  0.00    -0.052 A 
ATOM      3  C   LIG d   1       9.861   7.471  -3.808  0.00  0.00     0.008 A 
ATOM      4  C   LIG d   1       9.700   6.927  -5.106  0.00  0.00     0.005 A 
ATOM      5  C   LIG d   1       9.608   5.535  -5.264  0.00  0.00    -0.052 A 
ATOM      6  C   LIG d   1       9.673   4.727  -4.171  0.00  0.00    -0.059 A 
ATOM      7  C   LIG d   1       9.830   5.261  -2.893  0.00  0.00    -0.037 A 
ATOM      8  C   LIG d   1       9.924   6.605  -2.702  0.00  0.00     0.084 A 
ATOM      9  C   LIG d   1       9.638   7.796  -6.217  0.00  0.00     0.035 A 
ATOM     10  C   LIG d   1       9.739   9.157  -6.017  0.00  0.00    -0.040 A 
ATOM     11  H   LIG d   1       9.965  10.748  -4.605  0.00  0.00     0.062 H 
ATOM     12  H   LIG d   1      10.077   9.288  -2.662  0.00  0.00     0.062 H 
ATOM     13  H   LIG d   1       9.485   5.108  -6.248  0.00  0.00     0.062 H 
ATOM     14  H   LIG d   1       9.602   3.657  -4.295  0.00  0.00     0.062 H 
ATOM     15  H   LIG d   1       9.879   4.598  -2.042  0.00  0.00     0.064 H 
ATOM     16  H   LIG d   1       9.695   9.824  -6.865  0.00  0.00     0.064 H 
ENDROOT
BRANCH   9  17
ATOM     17  N   LIG d   1       9.481   7.282  -7.502  0.00  0.00    -0.338 N 
ATOM     18  H   LIG d   1       9.604   6.334  -7.665  0.00  0.00     0.146 HD
BRANCH  17  19
ATOM     19  C   LIG d   1       9.129   8.176  -8.609  0.00  0.00     0.049 C 
ATOM     20  H   LIG d   1       9.003   9.191  -8.231  0.00  0.00     0.051 H 
ATOM     21  H   LIG d   1       8.199   7.840  -9.066  0.00  0.00     0.051 H 
BRANCH  19  22
ATOM     22  C   LIG d   1      10.247   8.158  -9.654  0.00  0.00    -0.020 C 
ATOM     23  H   LIG d   1      11.040   8.841  -9.351  0.00  0.00     0.083 H 
ATOM     24  H   LIG d   1      10.650   7.148  -9.736  0.00  0.00     0.083 H 
BRANCH  22  25
ATOM     25  N   LIG d   1       9.692   8.559 -10.958  0.00  0.00     0.220 N 
ATOM     26  H   LIG d   1      10.271   9.286 -11.376  0.00  0.00     0.200 HD
ATOM     27  H   LIG d   1       9.655   7.756 -11.584  0.00  0.00     0.200 HD
ATOM     28  H   LIG d   1       8.742   8.923 -10.823  0.00  0.00     0.200 HD
ENDBRANCH  22  25
ENDBRANCH  19  22
ENDBRANCH  17  19
ENDBRANCH   9  17
BRANCH   8  29
ATOM     29  S   LIG d   1      10.122   7.257  -1.077  0.00  0.00    -0.051 S 
ATOM     30  O   LIG d   1      11.367   7.942  -1.064  0.00  0.00    -0.180 OA
ATOM     31  O   LIG d   1       8.897   7.896  -0.743  0.00  0.00    -0.180 OA
ATOM     32  O   LIG d   1      10.267   6.073  -0.131  0.00  0.00    -0.720 OA
ENDBRANCH   8  29
TORSDOF 5
ENDMDL
