MODEL 1
REMARK VINA RESULT:      -6.3      0.000      0.000
REMARK  4 active torsions:
REMARK  status: ('A' for Active; 'I' for Inactive)
REMARK    1  A    between atoms: C_1  and  N_2 
REMARK    2  A    between atoms: C_16  and  O_22 
REMARK    3  A    between atoms: C_17  and  O_20 
REMARK    4  A    between atoms: O_20  and  C_21 
ROOT
ATOM      1  N   LIG d   1       9.313   9.742  -4.924  0.00  0.00     0.239 N 
ATOM      2  C   LIG d   1       9.812   9.433  -6.265  0.00  0.00    -0.028 C 
ATOM      3  C   LIG d   1       9.462   8.007  -6.657  0.00  0.00     0.013 C 
ATOM      4  C   LIG d   1       9.603   7.052  -5.505  0.00  0.00    -0.030 A 
ATOM      5  C   LIG d   1       9.462   5.693  -5.759  0.00  0.00    -0.012 A 
ATOM      6  C   LIG d   1       9.609   4.763  -4.745  0.00  0.00     0.167 A 
ATOM      7  C   LIG d   1       9.895   5.192  -3.453  0.00  0.00     0.174 A 
ATOM      8  C   LIG d   1      10.016   6.554  -3.193  0.00  0.00     0.040 A 
ATOM      9  C   LIG d   1       9.877   7.486  -4.226  0.00  0.00     0.015 A 
ATOM     10  C   LIG d   1      10.051   8.952  -3.928  0.00  0.00     0.010 C 
ATOM     11  H   LIG d   1      11.110   9.208  -3.977  0.00  0.00     0.091 H 
ATOM     12  C   LIG d   1       9.518   9.295  -2.538  0.00  0.00     0.021 C 
ATOM     13  C   LIG d   1      10.093   8.368  -1.503  0.00  0.00    -0.030 A 
ATOM     14  C   LIG d   1      10.318   7.031  -1.823  0.00  0.00     0.035 A 
ATOM     15  C   LIG d   1      10.823   6.157  -0.861  0.00  0.00     0.167 A 
ATOM     16  C   LIG d   1      11.115   6.634   0.413  0.00  0.00     0.162 A 
ATOM     17  C   LIG d   1      10.902   7.970   0.717  0.00  0.00    -0.016 A 
ATOM     18  C   LIG d   1      10.393   8.832  -0.239  0.00  0.00    -0.054 A 
ATOM     19  O   LIG d   1      10.003   4.097  -2.645  0.00  0.00    -0.452 OA
ATOM     20  C   LIG d   1       9.370   3.023  -3.364  0.00  0.00     0.233 C 
ATOM     21  O   LIG d   1       9.525   3.399  -4.745  0.00  0.00    -0.453 OA
ATOM     22  H   LIG d   1       9.365  10.123  -6.981  0.00  0.00     0.082 H 
ATOM     23  H   LIG d   1      10.895   9.554  -6.281  0.00  0.00     0.082 H 
ATOM     24  H   LIG d   1       8.433   7.980  -7.014  0.00  0.00     0.036 H 
ATOM     25  H   LIG d   1      10.123   7.690  -7.463  0.00  0.00     0.036 H 
ATOM     26  H   LIG d   1       9.234   5.359  -6.761  0.00  0.00     0.066 H 
ATOM     27  H   LIG d   1       9.792  10.321  -2.293  0.00  0.00     0.037 H 
ATOM     28  H   LIG d   1       8.432   9.205  -2.539  0.00  0.00     0.037 H 
ATOM     29  H   LIG d   1      11.135   8.340   1.705  0.00  0.00     0.066 H 
ATOM     30  H   LIG d   1      10.231   9.871   0.006  0.00  0.00     0.062 H 
ATOM     31  H   LIG d   1       9.874   2.079  -3.166  0.00  0.00     0.117 H 
ATOM     32  H   LIG d   1       8.314   2.957  -3.102  0.00  0.00     0.117 H 
ATOM     33  H   LIG d   1       8.331   9.516  -4.872  0.00  0.00     0.204 HD
ENDROOT
BRANCH   1  34
ATOM     34  C   LIG d   1       9.501  11.173  -4.650  0.00  0.00    -0.043 C 
ATOM     35  H   LIG d   1      10.459  11.498  -5.059  0.00  0.00     0.078 H 
ATOM     36  H   LIG d   1       8.696  11.741  -5.116  0.00  0.00     0.078 H 
ATOM     37  H   LIG d   1       9.489  11.341  -3.573  0.00  0.00     0.078 H 
ENDBRANCH   1  34
BRANCH  15  38
ATOM     38  O   LIG d   1      11.030   4.849  -1.166  0.00  0.00    -0.503 OA
ATOM     39  H   LIG d   1      11.655   4.402  -0.579  0.00  0.00     0.292 HD
ENDBRANCH  15  38
BRANCH  16  40
ATOM     40  O   LIG d   1      11.608   5.791   1.359  0.00  0.00    -0.491 OA
BRANCH  40  41
ATOM     41  C   LIG d   1      10.841   5.640   2.556  0.00  0.00     0.079 C 
ATOM     42  H   LIG d   1       9.814   5.956   2.372  0.00  0.00     0.066 H 
ATOM     43  H   LIG d   1      10.851   4.595   2.864  0.00  0.00     0.066 H 
ATOM     44  H   LIG d   1      11.274   6.255   3.345  0.00  0.00     0.066 H 
ENDBRANCH  40  41
ENDBRANCH  16  40
TORSDOF 4
ENDMDL
MODEL 2
REMARK VINA RESULT:      -6.3      7.029     10.744
REMARK  4 active torsions:
REMARK  status: ('A' for Active; 'I' for Inactive)
REMARK    1  A    between atoms: C_1  and  N_2 
REMARK    2  A    between atoms: C_16  and  O_22 
REMARK    3  A    between atoms: C_17  and  O_20 
REMARK    4  A    between atoms: O_20  and  C_21 
ROOT
ATOM      1  N   LIG d   1       9.720  -0.180  -4.534  0.00  0.00     0.239 N 
ATOM      2  C   LIG d   1       9.546   1.240  -4.843  0.00  0.00    -0.028 C 
ATOM      3  C   LIG d   1       8.413   1.837  -4.023  0.00  0.00     0.013 C 
ATOM      4  C   LIG d   1       7.251   0.893  -3.891  0.00  0.00    -0.030 A 
ATOM      5  C   LIG d   1       6.087   1.365  -3.297  0.00  0.00    -0.012 A 
ATOM      6  C   LIG d   1       4.974   0.553  -3.172  0.00  0.00     0.167 A 
ATOM      7  C   LIG d   1       5.021  -0.756  -3.641  0.00  0.00     0.174 A 
ATOM      8  C   LIG d   1       6.194  -1.238  -4.217  0.00  0.00     0.040 A 
ATOM      9  C   LIG d   1       7.309  -0.405  -4.349  0.00  0.00     0.015 A 
ATOM     10  C   LIG d   1       8.554  -0.936  -5.012  0.00  0.00     0.010 C 
ATOM     11  H   LIG d   1       8.466  -0.820  -6.092  0.00  0.00     0.091 H 
ATOM     12  C   LIG d   1       8.760  -2.414  -4.684  0.00  0.00     0.021 C 
ATOM     13  C   LIG d   1       7.511  -3.202  -4.964  0.00  0.00    -0.030 A 
ATOM     14  C   LIG d   1       6.265  -2.629  -4.719  0.00  0.00     0.035 A 
ATOM     15  C   LIG d   1       5.101  -3.363  -4.950  0.00  0.00     0.167 A 
ATOM     16  C   LIG d   1       5.195  -4.662  -5.438  0.00  0.00     0.162 A 
ATOM     17  C   LIG d   1       6.439  -5.217  -5.693  0.00  0.00    -0.016 A 
ATOM     18  C   LIG d   1       7.592  -4.489  -5.456  0.00  0.00    -0.054 A 
ATOM     19  O   LIG d   1       3.810  -1.343  -3.417  0.00  0.00    -0.452 OA
ATOM     20  C   LIG d   1       3.159  -0.518  -2.433  0.00  0.00     0.233 C 
ATOM     21  O   LIG d   1       3.737   0.784  -2.643  0.00  0.00    -0.453 OA
ATOM     22  H   LIG d   1      10.471   1.772  -4.618  0.00  0.00     0.082 H 
ATOM     23  H   LIG d   1       9.319   1.351  -5.903  0.00  0.00     0.082 H 
ATOM     24  H   LIG d   1       8.786   2.081  -3.029  0.00  0.00     0.036 H 
ATOM     25  H   LIG d   1       8.073   2.753  -4.506  0.00  0.00     0.036 H 
ATOM     26  H   LIG d   1       6.052   2.380  -2.928  0.00  0.00     0.066 H 
ATOM     27  H   LIG d   1       9.576  -2.805  -5.292  0.00  0.00     0.037 H 
ATOM     28  H   LIG d   1       9.020  -2.514  -3.630  0.00  0.00     0.037 H 
ATOM     29  H   LIG d   1       6.510  -6.224  -6.078  0.00  0.00     0.066 H 
ATOM     30  H   LIG d   1       8.557  -4.928  -5.658  0.00  0.00     0.062 H 
ATOM     31  H   LIG d   1       2.084  -0.492  -2.604  0.00  0.00     0.117 H 
ATOM     32  H   LIG d   1       3.379  -0.877  -1.427  0.00  0.00     0.117 H 
ATOM     33  H   LIG d   1       9.811  -0.297  -3.535  0.00  0.00     0.204 HD
ENDROOT
BRANCH   1  34
ATOM     34  C   LIG d   1      10.933  -0.679  -5.196  0.00  0.00    -0.043 C 
ATOM     35  H   LIG d   1      11.651   0.134  -5.301  0.00  0.00     0.078 H 
ATOM     36  H   LIG d   1      11.372  -1.476  -4.597  0.00  0.00     0.078 H 
ATOM     37  H   LIG d   1      10.674  -1.066  -6.182  0.00  0.00     0.078 H 
ENDBRANCH   1  34
BRANCH  15  38
ATOM     38  O   LIG d   1       3.884  -2.812  -4.698  0.00  0.00    -0.503 OA
ATOM     39  H   LIG d   1       3.468  -3.132  -3.887  0.00  0.00     0.292 HD
ENDBRANCH  15  38
BRANCH  16  40
ATOM     40  O   LIG d   1       4.067  -5.386  -5.665  0.00  0.00    -0.491 OA
BRANCH  40  41
ATOM     41  C   LIG d   1       3.635  -5.506  -7.022  0.00  0.00     0.079 C 
ATOM     42  H   LIG d   1       4.480  -5.339  -7.690  0.00  0.00     0.066 H 
ATOM     43  H   LIG d   1       3.232  -6.505  -7.189  0.00  0.00     0.066 H 
ATOM     44  H   LIG d   1       2.861  -4.765  -7.224  0.00  0.00     0.066 H 
ENDBRANCH  40  41
ENDBRANCH  16  40
TORSDOF 4
ENDMDL
MODEL 3
REMARK VINA RESULT:      -6.1      9.127     11.758
REMARK  4 active torsions:
REMARK  status: ('A' for Active; 'I' for Inactive)
REMARK    1  A    between atoms: C_1  and  N_2 
REMARK    2  A    between atoms: C_16  and  O_22 
REMARK    3  A    between atoms: C_17  and  O_20 
REMARK    4  A    between atoms: O_20  and  C_21 
ROOT
ATOM      1  N   LIG d   1       5.036  -4.426  -8.361  0.00  0.00     0.239 N 
ATOM      2  C   LIG d   1       4.036  -4.741  -9.383  0.00  0.00    -0.028 C 
ATOM      3  C   LIG d   1       3.664  -3.498 -10.176  0.00  0.00     0.013 C 
ATOM      4  C   LIG d   1       3.568  -2.277  -9.304  0.00  0.00    -0.030 A 
ATOM      5  C   LIG d   1       3.088  -1.103  -9.870  0.00  0.00    -0.012 A 
ATOM      6  C   LIG d   1       2.951   0.046  -9.113  0.00  0.00     0.167 A 
ATOM      7  C   LIG d   1       3.304   0.030  -7.767  0.00  0.00     0.174 A 
ATOM      8  C   LIG d   1       3.805  -1.140  -7.203  0.00  0.00     0.040 A 
ATOM      9  C   LIG d   1       3.929  -2.299  -7.974  0.00  0.00     0.015 A 
ATOM     10  C   LIG d   1       4.437  -3.564  -7.332  0.00  0.00     0.010 C 
ATOM     11  H   LIG d   1       3.606  -4.089  -6.861  0.00  0.00     0.091 H 
ATOM     12  C   LIG d   1       5.495  -3.254  -6.275  0.00  0.00     0.021 C 
ATOM     13  C   LIG d   1       4.998  -2.213  -5.311  0.00  0.00    -0.030 A 
ATOM     14  C   LIG d   1       4.188  -1.177  -5.772  0.00  0.00     0.035 A 
ATOM     15  C   LIG d   1       3.746  -0.191  -4.891  0.00  0.00     0.167 A 
ATOM     16  C   LIG d   1       4.106  -0.258  -3.549  0.00  0.00     0.162 A 
ATOM     17  C   LIG d   1       4.899  -1.302  -3.098  0.00  0.00    -0.016 A 
ATOM     18  C   LIG d   1       5.343  -2.274  -3.977  0.00  0.00    -0.054 A 
ATOM     19  O   LIG d   1       3.067   1.266  -7.239  0.00  0.00    -0.452 OA
ATOM     20  C   LIG d   1       2.962   2.152  -8.369  0.00  0.00     0.233 C 
ATOM     21  O   LIG d   1       2.504   1.297  -9.433  0.00  0.00    -0.453 OA
ATOM     22  H   LIG d   1       4.442  -5.491 -10.062  0.00  0.00     0.082 H 
ATOM     23  H   LIG d   1       3.144  -5.139  -8.900  0.00  0.00     0.082 H 
ATOM     24  H   LIG d   1       4.419  -3.327 -10.942  0.00  0.00     0.036 H 
ATOM     25  H   LIG d   1       2.702  -3.664 -10.660  0.00  0.00     0.036 H 
ATOM     26  H   LIG d   1       2.819  -1.088 -10.917  0.00  0.00     0.066 H 
ATOM     27  H   LIG d   1       5.732  -4.166  -5.728  0.00  0.00     0.037 H 
ATOM     28  H   LIG d   1       6.396  -2.888  -6.767  0.00  0.00     0.037 H 
ATOM     29  H   LIG d   1       5.173  -1.356  -2.054  0.00  0.00     0.066 H 
ATOM     30  H   LIG d   1       5.960  -3.084  -3.617  0.00  0.00     0.062 H 
ATOM     31  H   LIG d   1       2.235   2.940  -8.172  0.00  0.00     0.117 H 
ATOM     32  H   LIG d   1       3.935   2.580  -8.612  0.00  0.00     0.117 H 
ATOM     33  H   LIG d   1       5.814  -3.946  -8.790  0.00  0.00     0.204 HD
ENDROOT
BRANCH   1  34
ATOM     34  C   LIG d   1       5.510  -5.671  -7.742  0.00  0.00    -0.043 C 
ATOM     35  H   LIG d   1       5.168  -5.715  -6.707  0.00  0.00     0.078 H 
ATOM     36  H   LIG d   1       5.115  -6.524  -8.292  0.00  0.00     0.078 H 
ATOM     37  H   LIG d   1       6.600  -5.696  -7.765  0.00  0.00     0.078 H 
ENDBRANCH   1  34
BRANCH  15  38
ATOM     38  O   LIG d   1       2.968   0.830  -5.341  0.00  0.00    -0.503 OA
ATOM     39  H   LIG d   1       2.727   1.470  -4.659  0.00  0.00     0.292 HD
ENDBRANCH  15  38
BRANCH  16  40
ATOM     40  O   LIG d   1       3.681   0.698  -2.682  0.00  0.00    -0.491 OA
BRANCH  40  41
ATOM     41  C   LIG d   1       4.543   1.009  -1.585  0.00  0.00     0.079 C 
ATOM     42  H   LIG d   1       5.479   1.422  -1.963  0.00  0.00     0.066 H 
ATOM     43  H   LIG d   1       4.059   1.739  -0.938  0.00  0.00     0.066 H 
ATOM     44  H   LIG d   1       4.750   0.102  -1.017  0.00  0.00     0.066 H 
ENDBRANCH  40  41
ENDBRANCH  16  40
TORSDOF 4
ENDMDL
MODEL 4
REMARK VINA RESULT:      -6.0      2.793      4.628
REMARK  4 active torsions:
REMARK  status: ('A' for Active; 'I' for Inactive)
REMARK    1  A    between atoms: C_1  and  N_2 
REMARK    2  A    between atoms: C_16  and  O_22 
REMARK    3  A    between atoms: C_17  and  O_20 
REMARK    4  A    between atoms: O_20  and  C_21 
ROOT
ATOM      1  N   LIG d   1      10.179   4.871  -7.880  0.00  0.00     0.239 N 
ATOM      2  C   LIG d   1       9.221   5.389  -8.856  0.00  0.00    -0.028 C 
ATOM      3  C   LIG d   1       9.292   6.906  -8.931  0.00  0.00     0.013 C 
ATOM      4  C   LIG d   1       9.481   7.532  -7.577  0.00  0.00    -0.030 A 
ATOM      5  C   LIG d   1       9.411   8.916  -7.479  0.00  0.00    -0.012 A 
ATOM      6  C   LIG d   1       9.549   9.548  -6.257  0.00  0.00     0.167 A 
ATOM      7  C   LIG d   1       9.768   8.791  -5.110  0.00  0.00     0.174 A 
ATOM      8  C   LIG d   1       9.859   7.406  -5.210  0.00  0.00     0.040 A 
ATOM      9  C   LIG d   1       9.707   6.775  -6.448  0.00  0.00     0.015 A 
ATOM     10  C   LIG d   1       9.771   5.271  -6.526  0.00  0.00     0.010 C 
ATOM     11  H   LIG d   1       8.787   4.856  -6.308  0.00  0.00     0.091 H 
ATOM     12  C   LIG d   1      10.781   4.715  -5.524  0.00  0.00     0.021 C 
ATOM     13  C   LIG d   1      10.527   5.265  -4.148  0.00  0.00    -0.030 A 
ATOM     14  C   LIG d   1      10.094   6.582  -4.001  0.00  0.00     0.035 A 
ATOM     15  C   LIG d   1       9.883   7.110  -2.728  0.00  0.00     0.167 A 
ATOM     16  C   LIG d   1      10.094   6.310  -1.610  0.00  0.00     0.162 A 
ATOM     17  C   LIG d   1      10.510   4.997  -1.767  0.00  0.00    -0.016 A 
ATOM     18  C   LIG d   1      10.725   4.479  -3.032  0.00  0.00    -0.054 A 
ATOM     19  O   LIG d   1       9.856   9.635  -4.041  0.00  0.00    -0.452 OA
ATOM     20  C   LIG d   1      10.107  10.938  -4.599  0.00  0.00     0.233 C 
ATOM     21  O   LIG d   1       9.513  10.869  -5.908  0.00  0.00    -0.453 OA
ATOM     22  H   LIG d   1       9.447   4.971  -9.837  0.00  0.00     0.082 H 
ATOM     23  H   LIG d   1       8.214   5.092  -8.564  0.00  0.00     0.082 H 
ATOM     24  H   LIG d   1      10.127   7.190  -9.572  0.00  0.00     0.036 H 
ATOM     25  H   LIG d   1       8.368   7.282  -9.369  0.00  0.00     0.036 H 
ATOM     26  H   LIG d   1       9.247   9.505  -8.370  0.00  0.00     0.066 H 
ATOM     27  H   LIG d   1      10.696   3.628  -5.497  0.00  0.00     0.037 H 
ATOM     28  H   LIG d   1      11.787   4.988  -5.841  0.00  0.00     0.037 H 
ATOM     29  H   LIG d   1      10.668   4.375  -0.898  0.00  0.00     0.066 H 
ATOM     30  H   LIG d   1      11.048   3.454  -3.146  0.00  0.00     0.062 H 
ATOM     31  H   LIG d   1       9.626  11.710  -4.001  0.00  0.00     0.117 H 
ATOM     32  H   LIG d   1      11.179  11.122  -4.674  0.00  0.00     0.117 H 
ATOM     33  H   LIG d   1      11.096   5.243  -8.078  0.00  0.00     0.204 HD
ENDROOT
BRANCH   1  34
ATOM     34  C   LIG d   1      10.219   3.404  -7.965  0.00  0.00    -0.043 C 
ATOM     35  H   LIG d   1      11.115   3.096  -8.504  0.00  0.00     0.078 H 
ATOM     36  H   LIG d   1      10.237   2.983  -6.960  0.00  0.00     0.078 H 
ATOM     37  H   LIG d   1       9.335   3.048  -8.493  0.00  0.00     0.078 H 
ENDBRANCH   1  34
BRANCH  15  38
ATOM     38  O   LIG d   1       9.474   8.398  -2.581  0.00  0.00    -0.503 OA
ATOM     39  H   LIG d   1       9.307   8.656  -1.664  0.00  0.00     0.292 HD
ENDBRANCH  15  38
BRANCH  16  40
ATOM     40  O   LIG d   1       9.893   6.815  -0.364  0.00  0.00    -0.491 OA
BRANCH  40  41
ATOM     41  C   LIG d   1      11.003   6.788   0.535  0.00  0.00     0.079 C 
ATOM     42  H   LIG d   1      11.932   6.753  -0.035  0.00  0.00     0.066 H 
ATOM     43  H   LIG d   1      10.991   7.684   1.155  0.00  0.00     0.066 H 
ATOM     44  H   LIG d   1      10.935   5.905   1.170  0.00  0.00     0.066 H 
ENDBRANCH  40  41
ENDBRANCH  16  40
TORSDOF 4
ENDMDL
MODEL 5
REMARK VINA RESULT:      -5.9      2.437      4.293
REMARK  4 active torsions:
REMARK  status: ('A' for Active; 'I' for Inactive)
REMARK    1  A    between atoms: C_1  and  N_2 
REMARK    2  A    between atoms: C_16  and  O_22 
REMARK    3  A    between atoms: C_17  and  O_20 
REMARK    4  A    between atoms: O_20  and  C_21 
ROOT
ATOM      1  N   LIG d   1       9.483   9.137  -3.769  0.00  0.00     0.239 N 
ATOM      2  C   LIG d   1      10.048   8.020  -4.526  0.00  0.00    -0.028 C 
ATOM      3  C   LIG d   1      10.013   6.739  -3.707  0.00  0.00     0.013 C 
ATOM      4  C   LIG d   1      10.344   6.982  -2.261  0.00  0.00    -0.030 A 
ATOM      5  C   LIG d   1      10.496   5.880  -1.429  0.00  0.00    -0.012 A 
ATOM      6  C   LIG d   1      10.829   6.038  -0.095  0.00  0.00     0.167 A 
ATOM      7  C   LIG d   1      11.006   7.316   0.423  0.00  0.00     0.174 A 
ATOM      8  C   LIG d   1      10.833   8.423  -0.404  0.00  0.00     0.040 A 
ATOM      9  C   LIG d   1      10.508   8.252  -1.753  0.00  0.00     0.015 A 
ATOM     10  C   LIG d   1      10.364   9.463  -2.638  0.00  0.00     0.010 C 
ATOM     11  H   LIG d   1      11.344   9.754  -3.015  0.00  0.00     0.091 H 
ATOM     12  C   LIG d   1       9.758  10.635  -1.867  0.00  0.00     0.021 C 
ATOM     13  C   LIG d   1      10.508  10.876  -0.586  0.00  0.00    -0.030 A 
ATOM     14  C   LIG d   1      11.014   9.793   0.130  0.00  0.00     0.035 A 
ATOM     15  C   LIG d   1      11.686  10.004   1.334  0.00  0.00     0.167 A 
ATOM     16  C   LIG d   1      11.858  11.301   1.805  0.00  0.00     0.162 A 
ATOM     17  C   LIG d   1      11.364  12.372   1.077  0.00  0.00    -0.016 A 
ATOM     18  C   LIG d   1      10.691  12.159  -0.114  0.00  0.00    -0.054 A 
ATOM     19  O   LIG d   1      11.338   7.209   1.743  0.00  0.00    -0.452 OA
ATOM     20  C   LIG d   1      10.953   5.877   2.129  0.00  0.00     0.233 C 
ATOM     21  O   LIG d   1      11.037   5.128   0.902  0.00  0.00    -0.453 OA
ATOM     22  H   LIG d   1       9.471   7.877  -5.439  0.00  0.00     0.082 H 
ATOM     23  H   LIG d   1      11.081   8.249  -4.787  0.00  0.00     0.082 H 
ATOM     24  H   LIG d   1       9.016   6.304  -3.773  0.00  0.00     0.036 H 
ATOM     25  H   LIG d   1      10.733   6.034  -4.122  0.00  0.00     0.036 H 
ATOM     26  H   LIG d   1      10.354   4.887  -1.830  0.00  0.00     0.066 H 
ATOM     27  H   LIG d   1       9.806  11.532  -2.484  0.00  0.00     0.037 H 
ATOM     28  H   LIG d   1       8.716  10.413  -1.638  0.00  0.00     0.037 H 
ATOM     29  H   LIG d   1      11.504  13.381   1.441  0.00  0.00     0.066 H 
ATOM     30  H   LIG d   1      10.310  12.999  -0.675  0.00  0.00     0.062 H 
ATOM     31  H   LIG d   1      11.645   5.477   2.869  0.00  0.00     0.117 H 
ATOM     32  H   LIG d   1       9.933   5.869   2.514  0.00  0.00     0.117 H 
ATOM     33  H   LIG d   1       8.571   8.881  -3.422  0.00  0.00     0.204 HD
ENDROOT
BRANCH   1  34
ATOM     34  C   LIG d   1       9.361  10.309  -4.647  0.00  0.00    -0.043 C 
ATOM     35  H   LIG d   1       8.934  11.141  -4.085  0.00  0.00     0.078 H 
ATOM     36  H   LIG d   1      10.346  10.590  -5.018  0.00  0.00     0.078 H 
ATOM     37  H   LIG d   1       8.711  10.067  -5.487  0.00  0.00     0.078 H 
ENDBRANCH   1  34
BRANCH  15  38
ATOM     38  O   LIG d   1      12.169   8.949   2.043  0.00  0.00    -0.503 OA
ATOM     39  H   LIG d   1      12.998   9.131   2.503  0.00  0.00     0.292 HD
ENDBRANCH  15  38
BRANCH  16  40
ATOM     40  O   LIG d   1      12.511  11.519   2.977  0.00  0.00    -0.491 OA
BRANCH  40  41
ATOM     41  C   LIG d   1      13.310  12.700   3.066  0.00  0.00     0.079 C 
ATOM     42  H   LIG d   1      12.728  13.559   2.733  0.00  0.00     0.066 H 
ATOM     43  H   LIG d   1      13.622  12.851   4.099  0.00  0.00     0.066 H 
ATOM     44  H   LIG d   1      14.191  12.591   2.433  0.00  0.00     0.066 H 
ENDBRANCH  40  41
ENDBRANCH  16  40
TORSDOF 4
ENDMDL
MODEL 6
REMARK VINA RESULT:      -5.9      1.827      2.950
REMARK  4 active torsions:
REMARK  status: ('A' for Active; 'I' for Inactive)
REMARK    1  A    between atoms: C_1  and  N_2 
REMARK    2  A    between atoms: C_16  and  O_22 
REMARK    3  A    between atoms: C_17  and  O_20 
REMARK    4  A    between atoms: O_20  and  C_21 
ROOT
ATOM      1  N   LIG d   1       9.807   6.903  -7.912  0.00  0.00     0.239 N 
ATOM      2  C   LIG d   1      10.414   5.961  -8.853  0.00  0.00    -0.028 C 
ATOM      3  C   LIG d   1       9.829   4.568  -8.677  0.00  0.00     0.013 C 
ATOM      4  C   LIG d   1       9.601   4.229  -7.230  0.00  0.00    -0.030 A 
ATOM      5  C   LIG d   1       9.214   2.933  -6.914  0.00  0.00    -0.012 A 
ATOM      6  C   LIG d   1       9.016   2.551  -5.599  0.00  0.00     0.167 A 
ATOM      7  C   LIG d   1       9.201   3.478  -4.579  0.00  0.00     0.174 A 
ATOM      8  C   LIG d   1       9.569   4.783  -4.895  0.00  0.00     0.040 A 
ATOM      9  C   LIG d   1       9.777   5.156  -6.226  0.00  0.00     0.015 A 
ATOM     10  C   LIG d   1      10.213   6.563  -6.541  0.00  0.00     0.010 C 
ATOM     11  H   LIG d   1      11.298   6.633  -6.458  0.00  0.00     0.091 H 
ATOM     12  C   LIG d   1       9.574   7.562  -5.579  0.00  0.00     0.021 C 
ATOM     13  C   LIG d   1       9.787   7.140  -4.151  0.00  0.00    -0.030 A 
ATOM     14  C   LIG d   1       9.768   5.786  -3.822  0.00  0.00     0.035 A 
ATOM     15  C   LIG d   1       9.937   5.387  -2.497  0.00  0.00     0.167 A 
ATOM     16  C   LIG d   1      10.139   6.347  -1.512  0.00  0.00     0.162 A 
ATOM     17  C   LIG d   1      10.173   7.690  -1.852  0.00  0.00    -0.016 A 
ATOM     18  C   LIG d   1       9.997   8.084  -3.167  0.00  0.00    -0.054 A 
ATOM     19  O   LIG d   1       8.961   2.864  -3.383  0.00  0.00    -0.452 OA
ATOM     20  C   LIG d   1       8.223   1.671  -3.706  0.00  0.00     0.233 C 
ATOM     21  O   LIG d   1       8.648   1.359  -5.045  0.00  0.00    -0.453 OA
ATOM     22  H   LIG d   1      10.228   6.302  -9.872  0.00  0.00     0.082 H 
ATOM     23  H   LIG d   1      11.489   5.923  -8.679  0.00  0.00     0.082 H 
ATOM     24  H   LIG d   1       8.879   4.514  -9.207  0.00  0.00     0.036 H 
ATOM     25  H   LIG d   1      10.516   3.840  -9.108  0.00  0.00     0.036 H 
ATOM     26  H   LIG d   1       9.065   2.213  -7.707  0.00  0.00     0.066 H 
ATOM     27  H   LIG d   1      10.020   8.545  -5.733  0.00  0.00     0.037 H 
ATOM     28  H   LIG d   1       8.504   7.620  -5.780  0.00  0.00     0.037 H 
ATOM     29  H   LIG d   1      10.336   8.435  -1.086  0.00  0.00     0.066 H 
ATOM     30  H   LIG d   1      10.025   9.132  -3.423  0.00  0.00     0.062 H 
ATOM     31  H   LIG d   1       8.483   0.863  -3.024  0.00  0.00     0.117 H 
ATOM     32  H   LIG d   1       7.151   1.865  -3.679  0.00  0.00     0.117 H 
ATOM     33  H   LIG d   1       8.802   6.852  -7.988  0.00  0.00     0.204 HD
ENDROOT
BRANCH   1  34
ATOM     34  C   LIG d   1      10.252   8.267  -8.230  0.00  0.00    -0.043 C 
ATOM     35  H   LIG d   1      10.867   8.247  -9.130  0.00  0.00     0.078 H 
ATOM     36  H   LIG d   1       9.383   8.903  -8.398  0.00  0.00     0.078 H 
ATOM     37  H   LIG d   1      10.836   8.661  -7.399  0.00  0.00     0.078 H 
ENDBRANCH   1  34
BRANCH  15  38
ATOM     38  O   LIG d   1       9.903   4.067  -2.171  0.00  0.00    -0.503 OA
ATOM     39  H   LIG d   1       9.542   3.888  -1.292  0.00  0.00     0.292 HD
ENDBRANCH  15  38
BRANCH  16  40
ATOM     40  O   LIG d   1      10.304   5.969  -0.216  0.00  0.00    -0.491 OA
BRANCH  40  41
ATOM     41  C   LIG d   1      11.051   6.848   0.626  0.00  0.00     0.079 C 
ATOM     42  H   LIG d   1      12.095   6.855   0.311  0.00  0.00     0.066 H 
ATOM     43  H   LIG d   1      10.643   7.856   0.553  0.00  0.00     0.066 H 
ATOM     44  H   LIG d   1      10.987   6.505   1.659  0.00  0.00     0.066 H 
ENDBRANCH  40  41
ENDBRANCH  16  40
TORSDOF 4
ENDMDL
MODEL 7
REMARK VINA RESULT:      -5.8      9.187     12.024
REMARK  4 active torsions:
REMARK  status: ('A' for Active; 'I' for Inactive)
REMARK    1  A    between atoms: C_1  and  N_2 
REMARK    2  A    between atoms: C_16  and  O_22 
REMARK    3  A    between atoms: C_17  and  O_20 
REMARK    4  A    between atoms: O_20  and  C_21 
ROOT
ATOM      1  N   LIG d   1       7.143  -4.561  -5.600  0.00  0.00     0.239 N 
ATOM      2  C   LIG d   1       8.378  -4.148  -4.933  0.00  0.00    -0.028 C 
ATOM      3  C   LIG d   1       8.076  -3.261  -3.735  0.00  0.00     0.013 C 
ATOM      4  C   LIG d   1       6.949  -2.305  -4.008  0.00  0.00    -0.030 A 
ATOM      5  C   LIG d   1       6.667  -1.334  -3.056  0.00  0.00    -0.012 A 
ATOM      6  C   LIG d   1       5.661  -0.408  -3.262  0.00  0.00     0.167 A 
ATOM      7  C   LIG d   1       4.915  -0.451  -4.435  0.00  0.00     0.174 A 
ATOM      8  C   LIG d   1       5.182  -1.436  -5.382  0.00  0.00     0.040 A 
ATOM      9  C   LIG d   1       6.209  -2.361  -5.170  0.00  0.00     0.015 A 
ATOM     10  C   LIG d   1       6.505  -3.394  -6.226  0.00  0.00     0.010 C 
ATOM     11  H   LIG d   1       7.180  -2.968  -6.968  0.00  0.00     0.091 H 
ATOM     12  C   LIG d   1       5.223  -3.850  -6.920  0.00  0.00     0.021 C 
ATOM     13  C   LIG d   1       4.426  -2.668  -7.399  0.00  0.00    -0.030 A 
ATOM     14  C   LIG d   1       4.397  -1.501  -6.637  0.00  0.00     0.035 A 
ATOM     15  C   LIG d   1       3.638  -0.410  -7.059  0.00  0.00     0.167 A 
ATOM     16  C   LIG d   1       2.925  -0.490  -8.250  0.00  0.00     0.162 A 
ATOM     17  C   LIG d   1       2.972  -1.650  -9.008  0.00  0.00    -0.016 A 
ATOM     18  C   LIG d   1       3.721  -2.734  -8.583  0.00  0.00    -0.054 A 
ATOM     19  O   LIG d   1       4.002   0.563  -4.410  0.00  0.00    -0.452 OA
ATOM     20  C   LIG d   1       3.916   0.967  -3.031  0.00  0.00     0.233 C 
ATOM     21  O   LIG d   1       5.207   0.626  -2.494  0.00  0.00    -0.453 OA
ATOM     22  H   LIG d   1       8.918  -5.033  -4.597  0.00  0.00     0.082 H 
ATOM     23  H   LIG d   1       9.000  -3.597  -5.639  0.00  0.00     0.082 H 
ATOM     24  H   LIG d   1       7.807  -3.891  -2.887  0.00  0.00     0.036 H 
ATOM     25  H   LIG d   1       8.970  -2.692  -3.482  0.00  0.00     0.036 H 
ATOM     26  H   LIG d   1       7.242  -1.303  -2.141  0.00  0.00     0.066 H 
ATOM     27  H   LIG d   1       5.481  -4.478  -7.772  0.00  0.00     0.037 H 
ATOM     28  H   LIG d   1       4.622  -4.428  -6.218  0.00  0.00     0.037 H 
ATOM     29  H   LIG d   1       2.422  -1.709  -9.937  0.00  0.00     0.066 H 
ATOM     30  H   LIG d   1       3.753  -3.633  -9.179  0.00  0.00     0.062 H 
ATOM     31  H   LIG d   1       3.741   2.040  -2.956  0.00  0.00     0.117 H 
ATOM     32  H   LIG d   1       3.129   0.413  -2.518  0.00  0.00     0.117 H 
ATOM     33  H   LIG d   1       6.514  -4.964  -4.921  0.00  0.00     0.204 HD
ENDROOT
BRANCH   1  34
ATOM     34  C   LIG d   1       7.455  -5.559  -6.631  0.00  0.00    -0.043 C 
ATOM     35  H   LIG d   1       8.065  -5.099  -7.409  0.00  0.00     0.078 H 
ATOM     36  H   LIG d   1       8.003  -6.387  -6.182  0.00  0.00     0.078 H 
ATOM     37  H   LIG d   1       6.528  -5.932  -7.068  0.00  0.00     0.078 H 
ENDBRANCH   1  34
BRANCH  15  38
ATOM     38  O   LIG d   1       3.596   0.724  -6.311  0.00  0.00    -0.503 OA
ATOM     39  H   LIG d   1       4.276   1.372  -6.540  0.00  0.00     0.292 HD
ENDBRANCH  15  38
BRANCH  16  40
ATOM     40  O   LIG d   1       2.180   0.567  -8.671  0.00  0.00    -0.491 OA
BRANCH  40  41
ATOM     41  C   LIG d   1       2.863   1.595  -9.391  0.00  0.00     0.079 C 
ATOM     42  H   LIG d   1       2.453   1.666 -10.399  0.00  0.00     0.066 H 
ATOM     43  H   LIG d   1       2.732   2.547  -8.878  0.00  0.00     0.066 H 
ATOM     44  H   LIG d   1       3.925   1.356  -9.448  0.00  0.00     0.066 H 
ENDBRANCH  40  41
ENDBRANCH  16  40
TORSDOF 4
ENDMDL
MODEL 8
REMARK VINA RESULT:      -5.7      2.820      4.495
REMARK  4 active torsions:
REMARK  status: ('A' for Active; 'I' for Inactive)
REMARK    1  A    between atoms: C_1  and  N_2 
REMARK    2  A    between atoms: C_16  and  O_22 
REMARK    3  A    between atoms: C_17  and  O_20 
REMARK    4  A    between atoms: O_20  and  C_21 
ROOT
ATOM      1  N   LIG d   1      10.592   3.640  -4.018  0.00  0.00     0.239 N 
ATOM      2  C   LIG d   1       9.678   3.244  -5.090  0.00  0.00    -0.028 C 
ATOM      3  C   LIG d   1       9.672   4.279  -6.205  0.00  0.00     0.013 C 
ATOM      4  C   LIG d   1       9.730   5.684  -5.674  0.00  0.00    -0.030 A 
ATOM      5  C   LIG d   1       9.578   6.731  -6.573  0.00  0.00    -0.012 A 
ATOM      6  C   LIG d   1       9.594   8.046  -6.142  0.00  0.00     0.167 A 
ATOM      7  C   LIG d   1       9.771   8.324  -4.790  0.00  0.00     0.174 A 
ATOM      8  C   LIG d   1       9.945   7.276  -3.890  0.00  0.00     0.040 A 
ATOM      9  C   LIG d   1       9.916   5.951  -4.335  0.00  0.00     0.015 A 
ATOM     10  C   LIG d   1      10.067   4.832  -3.337  0.00  0.00     0.010 C 
ATOM     11  H   LIG d   1       9.094   4.602  -2.903  0.00  0.00     0.091 H 
ATOM     12  C   LIG d   1      11.032   5.223  -2.219  0.00  0.00     0.021 C 
ATOM     13  C   LIG d   1      10.651   6.551  -1.625  0.00  0.00    -0.030 A 
ATOM     14  C   LIG d   1      10.138   7.552  -2.448  0.00  0.00     0.035 A 
ATOM     15  C   LIG d   1       9.809   8.797  -1.911  0.00  0.00     0.167 A 
ATOM     16  C   LIG d   1       9.983   9.025  -0.550  0.00  0.00     0.162 A 
ATOM     17  C   LIG d   1      10.480   8.017   0.262  0.00  0.00    -0.016 A 
ATOM     18  C   LIG d   1      10.813   6.786  -0.276  0.00  0.00    -0.054 A 
ATOM     19  O   LIG d   1       9.737   9.678  -4.616  0.00  0.00    -0.452 OA
ATOM     20  C   LIG d   1       9.956  10.239  -5.924  0.00  0.00     0.233 C 
ATOM     21  O   LIG d   1       9.461   9.225  -6.818  0.00  0.00    -0.453 OA
ATOM     22  H   LIG d   1       9.996   2.283  -5.495  0.00  0.00     0.082 H 
ATOM     23  H   LIG d   1       8.671   3.147  -4.686  0.00  0.00     0.082 H 
ATOM     24  H   LIG d   1      10.533   4.109  -6.851  0.00  0.00     0.036 H 
ATOM     25  H   LIG d   1       8.762   4.159  -6.792  0.00  0.00     0.036 H 
ATOM     26  H   LIG d   1       9.445   6.516  -7.624  0.00  0.00     0.066 H 
ATOM     27  H   LIG d   1      11.005   4.461  -1.440  0.00  0.00     0.037 H 
ATOM     28  H   LIG d   1      12.042   5.286  -2.624  0.00  0.00     0.037 H 
ATOM     29  H   LIG d   1      10.609   8.194   1.320  0.00  0.00     0.066 H 
ATOM     30  H   LIG d   1      11.198   6.006   0.364  0.00  0.00     0.062 H 
ATOM     31  H   LIG d   1       9.392  11.163  -6.044  0.00  0.00     0.117 H 
ATOM     32  H   LIG d   1      11.019  10.413  -6.092  0.00  0.00     0.117 H 
ATOM     33  H   LIG d   1      11.498   3.848  -4.409  0.00  0.00     0.204 HD
ENDROOT
BRANCH   1  34
ATOM     34  C   LIG d   1      10.717   2.541  -3.052  0.00  0.00    -0.043 C 
ATOM     35  H   LIG d   1      10.108   1.698  -3.380  0.00  0.00     0.078 H 
ATOM     36  H   LIG d   1      11.760   2.232  -2.986  0.00  0.00     0.078 H 
ATOM     37  H   LIG d   1      10.375   2.877  -2.073  0.00  0.00     0.078 H 
ENDBRANCH   1  34
BRANCH  15  38
ATOM     38  O   LIG d   1       9.321   9.781  -2.713  0.00  0.00    -0.503 OA
ATOM     39  H   LIG d   1       9.505  10.674  -2.395  0.00  0.00     0.292 HD
ENDBRANCH  15  38
BRANCH  16  40
ATOM     40  O   LIG d   1       9.667  10.234  -0.017  0.00  0.00    -0.491 OA
BRANCH  40  41
ATOM     41  C   LIG d   1      10.712  10.942   0.653  0.00  0.00     0.079 C 
ATOM     42  H   LIG d   1      11.392  11.370  -0.084  0.00  0.00     0.066 H 
ATOM     43  H   LIG d   1      10.282  11.740   1.257  0.00  0.00     0.066 H 
ATOM     44  H   LIG d   1      11.261  10.255   1.297  0.00  0.00     0.066 H 
ENDBRANCH  40  41
ENDBRANCH  16  40
TORSDOF 4
ENDMDL
MODEL 9
REMARK VINA RESULT:      -5.7      3.122      6.504
REMARK  4 active torsions:
REMARK  status: ('A' for Active; 'I' for Inactive)
REMARK    1  A    between atoms: C_1  and  N_2 
REMARK    2  A    between atoms: C_16  and  O_22 
REMARK    3  A    between atoms: C_17  and  O_20 
REMARK    4  A    between atoms: O_20  and  C_21 
ROOT
ATOM      1  N   LIG d   1      10.755   7.267   0.595  0.00  0.00     0.239 N 
ATOM      2  C   LIG d   1      11.657   8.223   1.237  0.00  0.00    -0.028 C 
ATOM      3  C   LIG d   1      11.205   9.652   0.980  0.00  0.00     0.013 C 
ATOM      4  C   LIG d   1      10.696   9.841  -0.422  0.00  0.00    -0.030 A 
ATOM      5  C   LIG d   1      10.392  11.131  -0.840  0.00  0.00    -0.012 A 
ATOM      6  C   LIG d   1       9.947  11.373  -2.128  0.00  0.00     0.167 A 
ATOM      7  C   LIG d   1       9.795  10.311  -3.014  0.00  0.00     0.174 A 
ATOM      8  C   LIG d   1      10.079   9.016  -2.590  0.00  0.00     0.040 A 
ATOM      9  C   LIG d   1      10.539   8.783  -1.290  0.00  0.00     0.015 A 
ATOM     10  C   LIG d   1      10.878   7.378  -0.866  0.00  0.00     0.010 C 
ATOM     11  H   LIG d   1      11.901   7.148  -1.161  0.00  0.00     0.091 H 
ATOM     12  C   LIG d   1       9.932   6.368  -1.515  0.00  0.00     0.021 C 
ATOM     13  C   LIG d   1       9.865   6.579  -3.002  0.00  0.00    -0.030 A 
ATOM     14  C   LIG d   1       9.921   7.873  -3.518  0.00  0.00     0.035 A 
ATOM     15  C   LIG d   1       9.830   8.080  -4.894  0.00  0.00     0.167 A 
ATOM     16  C   LIG d   1       9.700   6.988  -5.746  0.00  0.00     0.162 A 
ATOM     17  C   LIG d   1       9.661   5.705  -5.223  0.00  0.00    -0.016 A 
ATOM     18  C   LIG d   1       9.743   5.503  -3.857  0.00  0.00    -0.054 A 
ATOM     19  O   LIG d   1       9.361  10.803  -4.211  0.00  0.00    -0.452 OA
ATOM     20  C   LIG d   1       8.850  12.118  -3.925  0.00  0.00     0.233 C 
ATOM     21  O   LIG d   1       9.597  12.529  -2.765  0.00  0.00    -0.453 OA
ATOM     22  H   LIG d   1      11.669   8.039   2.312  0.00  0.00     0.082 H 
ATOM     23  H   LIG d   1      12.664   8.090   0.841  0.00  0.00     0.082 H 
ATOM     24  H   LIG d   1      10.409   9.903   1.682  0.00  0.00     0.036 H 
ATOM     25  H   LIG d   1      12.046  10.324   1.146  0.00  0.00     0.036 H 
ATOM     26  H   LIG d   1      10.505  11.955  -0.150  0.00  0.00     0.066 H 
ATOM     27  H   LIG d   1      10.292   5.359  -1.312  0.00  0.00     0.037 H 
ATOM     28  H   LIG d   1       8.936   6.485  -1.090  0.00  0.00     0.037 H 
ATOM     29  H   LIG d   1       9.566   4.857  -5.887  0.00  0.00     0.066 H 
ATOM     30  H   LIG d   1       9.713   4.500  -3.458  0.00  0.00     0.062 H 
ATOM     31  H   LIG d   1       9.038  12.792  -4.759  0.00  0.00     0.117 H 
ATOM     32  H   LIG d   1       7.785  12.073  -3.699  0.00  0.00     0.117 H 
ATOM     33  H   LIG d   1       9.804   7.467   0.868  0.00  0.00     0.204 HD
ENDROOT
BRANCH   1  34
ATOM     34  C   LIG d   1      11.108   5.904   1.013  0.00  0.00    -0.043 C 
ATOM     35  H   LIG d   1      11.876   5.508   0.348  0.00  0.00     0.078 H 
ATOM     36  H   LIG d   1      11.488   5.925   2.035  0.00  0.00     0.078 H 
ATOM     37  H   LIG d   1      10.223   5.270   0.967  0.00  0.00     0.078 H 
ENDBRANCH   1  34
BRANCH  15  38
ATOM     38  O   LIG d   1       9.869   9.342  -5.400  0.00  0.00    -0.503 OA
ATOM     39  H   LIG d   1      10.691   9.555  -5.861  0.00  0.00     0.292 HD
ENDBRANCH  15  38
BRANCH  16  40
ATOM     40  O   LIG d   1       9.610   7.179  -7.089  0.00  0.00    -0.491 OA
BRANCH  40  41
ATOM     41  C   LIG d   1       9.810   6.035  -7.921  0.00  0.00     0.079 C 
ATOM     42  H   LIG d   1      10.018   6.359  -8.941  0.00  0.00     0.066 H 
ATOM     43  H   LIG d   1      10.654   5.456  -7.546  0.00  0.00     0.066 H 
ATOM     44  H   LIG d   1       8.913   5.417  -7.912  0.00  0.00     0.066 H 
ENDBRANCH  40  41
ENDBRANCH  16  40
TORSDOF 4
ENDMDL
MODEL 10
REMARK VINA RESULT:      -5.7      9.159     11.923
REMARK  4 active torsions:
REMARK  status: ('A' for Active; 'I' for Inactive)
REMARK    1  A    between atoms: C_1  and  N_2 
REMARK    2  A    between atoms: C_16  and  O_22 
REMARK    3  A    between atoms: C_17  and  O_20 
REMARK    4  A    between atoms: O_20  and  C_21 
ROOT
ATOM      1  N   LIG d   1      10.092  -4.353  -4.391  0.00  0.00     0.239 N 
ATOM      2  C   LIG d   1      10.164  -5.783  -4.086  0.00  0.00    -0.028 C 
ATOM      3  C   LIG d   1       9.203  -6.572  -4.962  0.00  0.00     0.013 C 
ATOM      4  C   LIG d   1       7.896  -5.854  -5.158  0.00  0.00    -0.030 A 
ATOM      5  C   LIG d   1       6.871  -6.527  -5.811  0.00  0.00    -0.012 A 
ATOM      6  C   LIG d   1       5.637  -5.930  -5.997  0.00  0.00     0.167 A 
ATOM      7  C   LIG d   1       5.420  -4.638  -5.531  0.00  0.00     0.174 A 
ATOM      8  C   LIG d   1       6.453  -3.954  -4.895  0.00  0.00     0.040 A 
ATOM      9  C   LIG d   1       7.693  -4.570  -4.702  0.00  0.00     0.015 A 
ATOM     10  C   LIG d   1       8.784  -3.825  -3.977  0.00  0.00     0.010 C 
ATOM     11  H   LIG d   1       8.662  -3.963  -2.903  0.00  0.00     0.091 H 
ATOM     12  C   LIG d   1       8.734  -2.333  -4.299  0.00  0.00     0.021 C 
ATOM     13  C   LIG d   1       7.349  -1.787  -4.086  0.00  0.00    -0.030 A 
ATOM     14  C   LIG d   1       6.242  -2.576  -4.394  0.00  0.00     0.035 A 
ATOM     15  C   LIG d   1       4.954  -2.068  -4.228  0.00  0.00     0.167 A 
ATOM     16  C   LIG d   1       4.783  -0.777  -3.739  0.00  0.00     0.162 A 
ATOM     17  C   LIG d   1       5.891  -0.006  -3.422  0.00  0.00    -0.016 A 
ATOM     18  C   LIG d   1       7.168  -0.511  -3.595  0.00  0.00    -0.054 A 
ATOM     19  O   LIG d   1       4.134  -4.280  -5.820  0.00  0.00    -0.452 OA
ATOM     20  C   LIG d   1       3.698  -5.204  -6.834  0.00  0.00     0.233 C 
ATOM     21  O   LIG d   1       4.491  -6.379  -6.590  0.00  0.00    -0.453 OA
ATOM     22  H   LIG d   1      11.180  -6.136  -4.261  0.00  0.00     0.082 H 
ATOM     23  H   LIG d   1       9.905  -5.940  -3.039  0.00  0.00     0.082 H 
ATOM     24  H   LIG d   1       9.665  -6.737  -5.935  0.00  0.00     0.036 H 
ATOM     25  H   LIG d   1       9.011  -7.537  -4.495  0.00  0.00     0.036 H 
ATOM     26  H   LIG d   1       7.040  -7.529  -6.178  0.00  0.00     0.066 H 
ATOM     27  H   LIG d   1       9.431  -1.803  -3.649  0.00  0.00     0.037 H 
ATOM     28  H   LIG d   1       9.025  -2.180  -5.337  0.00  0.00     0.037 H 
ATOM     29  H   LIG d   1       5.756   0.995  -3.036  0.00  0.00     0.066 H 
ATOM     30  H   LIG d   1       8.025   0.096  -3.344  0.00  0.00     0.062 H 
ATOM     31  H   LIG d   1       2.638  -5.427  -6.719  0.00  0.00     0.117 H 
ATOM     32  H   LIG d   1       3.900  -4.804  -7.828  0.00  0.00     0.117 H 
ATOM     33  H   LIG d   1      10.211  -4.215  -5.383  0.00  0.00     0.204 HD
ENDROOT
BRANCH   1  34
ATOM     34  C   LIG d   1      11.156  -3.645  -3.667  0.00  0.00    -0.043 C 
ATOM     35  H   LIG d   1      10.804  -3.382  -2.669  0.00  0.00     0.078 H 
ATOM     36  H   LIG d   1      12.031  -4.290  -3.585  0.00  0.00     0.078 H 
ATOM     37  H   LIG d   1      11.422  -2.738  -4.209  0.00  0.00     0.078 H 
ENDBRANCH   1  34
BRANCH  15  38
ATOM     38  O   LIG d   1       3.872  -2.830  -4.541  0.00  0.00    -0.503 OA
ATOM     39  H   LIG d   1       3.998  -3.775  -4.381  0.00  0.00     0.292 HD
ENDBRANCH  15  38
BRANCH  16  40
ATOM     40  O   LIG d   1       3.532  -0.272  -3.574  0.00  0.00    -0.491 OA
BRANCH  40  41
ATOM     41  C   LIG d   1       3.364   0.728  -2.567  0.00  0.00     0.079 C 
ATOM     42  H   LIG d   1       3.768   0.365  -1.622  0.00  0.00     0.066 H 
ATOM     43  H   LIG d   1       3.892   1.634  -2.864  0.00  0.00     0.066 H 
ATOM     44  H   LIG d   1       2.303   0.949  -2.448  0.00  0.00     0.066 H 
ENDBRANCH  40  41
ENDBRANCH  16  40
TORSDOF 4
ENDMDL
