MODEL 1
REMARK VINA RESULT:      -6.3      0.000      0.000
REMARK  13 active torsions:
REMARK  status: ('A' for Active; 'I' for Inactive)
REMARK    1  A    between atoms: C_1  and  C_2 
REMARK    2  A    between atoms: C_4  and  O_24 
REMARK    3  A    between atoms: C_5  and  C_23 
REMARK    4  A    between atoms: C_10  and  C_13 
REMARK    5  A    between atoms: C_13  and  C_15 
REMARK    6  A    between atoms: C_13  and  C_16 
REMARK       I    between atoms: C_16  and  N_18 
REMARK    7  A    between atoms: N_18  and  C_19 
REMARK    8  A    between atoms: C_19  and  C_20 
REMARK    9  A    between atoms: C_19  and  C_21 
REMARK   10  A    between atoms: C_19  and  C_22 
REMARK   11  A    between atoms: O_24  and  C_25 
REMARK   12  A    between atoms: C_25  and  C_26 
REMARK   13  A    between atoms: C_26  and  N_27 
ROOT
ATOM      1  C   LIG d   1       9.867   4.207  -6.859  0.00  0.00    -0.043 A 
ATOM      2  C   LIG d   1      10.533   5.275  -6.297  0.00  0.00    -0.017 A 
ATOM      3  C   LIG d   1      10.602   5.395  -4.917  0.00  0.00     0.124 A 
ATOM      4  C   LIG d   1      10.003   4.438  -4.116  0.00  0.00    -0.005 A 
ATOM      5  C   LIG d   1       9.335   3.361  -4.683  0.00  0.00    -0.037 A 
ATOM      6  C   LIG d   1       9.263   3.247  -6.055  0.00  0.00    -0.041 A 
ATOM      7  C   LIG d   1       8.548   2.111  -6.737  0.00  0.00    -0.027 C 
ATOM      8  C   LIG d   1       8.333   0.952  -5.767  0.00  0.00    -0.045 C 
ATOM      9  C   LIG d   1       7.685   1.501  -4.491  0.00  0.00    -0.026 C 
ATOM     10  H   LIG d   1       6.806   2.114  -4.744  0.00  0.00     0.031 H 
ATOM     11  C   LIG d   1       8.717   2.351  -3.752  0.00  0.00    -0.024 C 
ATOM     12  H   LIG d   1      10.998   6.017  -6.930  0.00  0.00     0.066 H 
ATOM     13  H   LIG d   1       7.570   2.458  -7.099  0.00  0.00     0.031 H 
ATOM     14  H   LIG d   1       9.150   1.757  -7.587  0.00  0.00     0.031 H 
ATOM     15  H   LIG d   1       7.675   0.203  -6.231  0.00  0.00     0.027 H 
ATOM     16  H   LIG d   1       9.302   0.490  -5.526  0.00  0.00     0.027 H 
ATOM     17  H   LIG d   1       9.502   1.691  -3.354  0.00  0.00     0.032 H 
ATOM     18  H   LIG d   1       8.221   2.873  -2.922  0.00  0.00     0.032 H 
ENDROOT
BRANCH   9  19
ATOM     19  C   LIG d   1       7.237   0.342  -3.599  0.00  0.00     0.036 C 
ATOM     20  H   LIG d   1       7.842   0.322  -2.680  0.00  0.00     0.039 H 
BRANCH  19  21
ATOM     21  C   LIG d   1       7.399  -0.977  -4.357  0.00  0.00    -0.054 C 
ATOM     22  H   LIG d   1       6.807  -0.942  -5.284  0.00  0.00     0.024 H 
ATOM     23  H   LIG d   1       7.047  -1.807  -3.728  0.00  0.00     0.024 H 
ATOM     24  H   LIG d   1       8.459  -1.129  -4.606  0.00  0.00     0.024 H 
ENDBRANCH  19  21
BRANCH  19  25
ATOM     25  C   LIG d   1       5.791   0.530  -3.219  0.00  0.00     0.216 C 
ATOM     26  O   LIG d   1       5.502   0.948  -2.118  0.00  0.00    -0.276 OA
ATOM     27  N   LIG d   1       4.818   0.240  -4.106  0.00  0.00    -0.310 N 
ATOM     28  H   LIG d   1       5.079  -0.139  -5.105  0.00  0.00     0.149 HD
BRANCH  27  29
ATOM     29  C   LIG d   1       3.412   0.429  -3.739  0.00  0.00     0.026 C 
BRANCH  29  30
ATOM     30  C   LIG d   1       2.561   0.522  -5.008  0.00  0.00    -0.044 C 
ATOM     31  H   LIG d   1       2.135   1.533  -5.089  0.00  0.00     0.025 H 
ATOM     32  H   LIG d   1       1.749  -0.217  -4.959  0.00  0.00     0.025 H 
ATOM     33  H   LIG d   1       3.191   0.317  -5.887  0.00  0.00     0.025 H 
ENDBRANCH  29  30
BRANCH  29  34
ATOM     34  C   LIG d   1       2.942  -0.759  -2.896  0.00  0.00    -0.044 C 
ATOM     35  H   LIG d   1       3.814  -1.341  -2.564  0.00  0.00     0.025 H 
ATOM     36  H   LIG d   1       2.282  -1.399  -3.501  0.00  0.00     0.025 H 
ATOM     37  H   LIG d   1       2.391  -0.390  -2.018  0.00  0.00     0.025 H 
ENDBRANCH  29  34
BRANCH  29  38
ATOM     38  C   LIG d   1       3.264   1.718  -2.930  0.00  0.00    -0.044 C 
ATOM     39  H   LIG d   1       4.147   2.354  -3.089  0.00  0.00     0.025 H 
ATOM     40  H   LIG d   1       3.175   1.473  -1.861  0.00  0.00     0.025 H 
ATOM     41  H   LIG d   1       2.362   2.255  -3.258  0.00  0.00     0.025 H 
ENDBRANCH  29  38
ENDBRANCH  27  29
ENDBRANCH  19  25
ENDBRANCH   9  19
BRANCH   4  42
ATOM     42  C   LIG d   1      10.077   4.565  -2.616  0.00  0.00    -0.036 C 
ATOM     43  H   LIG d   1      11.126   4.499  -2.293  0.00  0.00     0.028 H 
ATOM     44  H   LIG d   1       9.499   3.754  -2.151  0.00  0.00     0.028 H 
ATOM     45  H   LIG d   1       9.658   5.535  -2.309  0.00  0.00     0.028 H 
ENDBRANCH   4  42
BRANCH   1  46
ATOM     46  C   LIG d   1       9.792   4.078  -8.359  0.00  0.00    -0.039 C 
ATOM     47  H   LIG d   1      10.384   3.209  -8.681  0.00  0.00     0.028 H 
ATOM     48  H   LIG d   1      10.195   4.989  -8.825  0.00  0.00     0.028 H 
ATOM     49  H   LIG d   1       8.744   3.943  -8.663  0.00  0.00     0.028 H 
ENDBRANCH   1  46
BRANCH   3  50
ATOM     50  O   LIG d   1      11.253   6.446  -4.354  0.00  0.00    -0.490 OA
BRANCH  50  51
ATOM     51  C   LIG d   1      10.853   7.754  -4.767  0.00  0.00     0.102 C 
ATOM     52  H   LIG d   1      11.100   7.895  -5.830  0.00  0.00     0.071 H 
ATOM     53  H   LIG d   1       9.769   7.868  -4.625  0.00  0.00     0.071 H 
BRANCH  51  54
ATOM     54  C   LIG d   1      11.591   8.801  -3.930  0.00  0.00     0.033 C 
ATOM     55  H   LIG d   1      11.751   8.411  -2.913  0.00  0.00     0.046 H 
ATOM     56  H   LIG d   1      12.561   9.025  -4.394  0.00  0.00     0.046 H 
BRANCH  54  57
ATOM     57  N   LIG d   1      10.785  10.028  -3.860  0.00  0.00    -0.295 N 
ATOM     58  C   LIG d   1      10.054  10.250  -5.116  0.00  0.00     0.022 C 
ATOM     59  C   LIG d   1       9.276  11.565  -5.022  0.00  0.00     0.060 C 
ATOM     60  H   LIG d   1      10.766  10.303  -5.952  0.00  0.00     0.045 H 
ATOM     61  H   LIG d   1       9.352   9.419  -5.284  0.00  0.00     0.045 H 
ATOM     62  O   LIG d   1       8.405  11.518  -3.889  0.00  0.00    -0.377 OA
ATOM     63  H   LIG d   1       8.681  11.708  -5.936  0.00  0.00     0.057 H 
ATOM     64  H   LIG d   1       9.980  12.403  -4.908  0.00  0.00     0.057 H 
ATOM     65  C   LIG d   1       9.083  11.304  -2.648  0.00  0.00     0.060 C 
ATOM     66  C   LIG d   1       9.859   9.986  -2.719  0.00  0.00     0.022 C 
ATOM     67  H   LIG d   1       8.350  11.254  -1.831  0.00  0.00     0.057 H 
ATOM     68  H   LIG d   1       9.783  12.132  -2.464  0.00  0.00     0.057 H 
ATOM     69  H   LIG d   1       9.155   9.150  -2.848  0.00  0.00     0.045 H 
ATOM     70  H   LIG d   1      10.430   9.844  -1.789  0.00  0.00     0.045 H 
ENDBRANCH  54  57
ENDBRANCH  51  54
ENDBRANCH  50  51
ENDBRANCH   3  50
TORSDOF 13
ENDMDL
MODEL 2
REMARK VINA RESULT:      -6.3      2.019      2.702
REMARK  13 active torsions:
REMARK  status: ('A' for Active; 'I' for Inactive)
REMARK    1  A    between atoms: C_1  and  C_2 
REMARK    2  A    between atoms: C_4  and  O_24 
REMARK    3  A    between atoms: C_5  and  C_23 
REMARK    4  A    between atoms: C_10  and  C_13 
REMARK    5  A    between atoms: C_13  and  C_15 
REMARK    6  A    between atoms: C_13  and  C_16 
REMARK       I    between atoms: C_16  and  N_18 
REMARK    7  A    between atoms: N_18  and  C_19 
REMARK    8  A    between atoms: C_19  and  C_20 
REMARK    9  A    between atoms: C_19  and  C_21 
REMARK   10  A    between atoms: C_19  and  C_22 
REMARK   11  A    between atoms: O_24  and  C_25 
REMARK   12  A    between atoms: C_25  and  C_26 
REMARK   13  A    between atoms: C_26  and  N_27 
ROOT
ATOM      1  C   LIG d   1      10.055   5.118  -6.582  0.00  0.00    -0.043 A 
ATOM      2  C   LIG d   1      10.612   6.146  -5.852  0.00  0.00    -0.017 A 
ATOM      3  C   LIG d   1      10.676   6.051  -4.469  0.00  0.00     0.124 A 
ATOM      4  C   LIG d   1      10.183   4.923  -3.837  0.00  0.00    -0.005 A 
ATOM      5  C   LIG d   1       9.625   3.888  -4.575  0.00  0.00    -0.037 A 
ATOM      6  C   LIG d   1       9.557   3.987  -5.947  0.00  0.00    -0.041 A 
ATOM      7  C   LIG d   1       8.958   2.907  -6.809  0.00  0.00    -0.027 C 
ATOM      8  C   LIG d   1       8.868   1.592  -6.038  0.00  0.00    -0.045 C 
ATOM      9  C   LIG d   1       8.174   1.863  -4.698  0.00  0.00    -0.026 C 
ATOM     10  H   LIG d   1       7.237   2.416  -4.859  0.00  0.00     0.031 H 
ATOM     11  C   LIG d   1       9.119   2.685  -3.822  0.00  0.00    -0.024 C 
ATOM     12  H   LIG d   1      10.996   7.022  -6.354  0.00  0.00     0.066 H 
ATOM     13  H   LIG d   1       7.947   3.206  -7.122  0.00  0.00     0.031 H 
ATOM     14  H   LIG d   1       9.588   2.755  -7.698  0.00  0.00     0.031 H 
ATOM     15  H   LIG d   1       8.287   0.863  -6.621  0.00  0.00     0.027 H 
ATOM     16  H   LIG d   1       9.881   1.199  -5.863  0.00  0.00     0.027 H 
ATOM     17  H   LIG d   1       9.969   2.053  -3.525  0.00  0.00     0.032 H 
ATOM     18  H   LIG d   1       8.576   3.015  -2.925  0.00  0.00     0.032 H 
ENDROOT
BRANCH   9  19
ATOM     19  C   LIG d   1       7.852   0.537  -4.006  0.00  0.00     0.036 C 
ATOM     20  H   LIG d   1       8.543   0.377  -3.164  0.00  0.00     0.039 H 
BRANCH  19  21
ATOM     21  C   LIG d   1       7.983  -0.608  -5.011  0.00  0.00    -0.054 C 
ATOM     22  H   LIG d   1       8.413  -1.488  -4.510  0.00  0.00     0.024 H 
ATOM     23  H   LIG d   1       8.640  -0.298  -5.836  0.00  0.00     0.024 H 
ATOM     24  H   LIG d   1       6.989  -0.861  -5.409  0.00  0.00     0.024 H 
ENDBRANCH  19  21
BRANCH  19  25
ATOM     25  C   LIG d   1       6.444   0.579  -3.470  0.00  0.00     0.216 C 
ATOM     26  O   LIG d   1       5.935   1.642  -3.185  0.00  0.00    -0.276 OA
ATOM     27  N   LIG d   1       5.747  -0.565  -3.316  0.00  0.00    -0.310 N 
ATOM     28  H   LIG d   1       6.209  -1.529  -3.576  0.00  0.00     0.149 HD
BRANCH  27  29
ATOM     29  C   LIG d   1       4.376  -0.524  -2.802  0.00  0.00     0.026 C 
BRANCH  29  30
ATOM     30  C   LIG d   1       3.963  -1.923  -2.340  0.00  0.00    -0.044 C 
ATOM     31  H   LIG d   1       3.906  -2.594  -3.210  0.00  0.00     0.025 H 
ATOM     32  H   LIG d   1       2.979  -1.871  -1.850  0.00  0.00     0.025 H 
ATOM     33  H   LIG d   1       4.707  -2.309  -1.627  0.00  0.00     0.025 H 
ENDBRANCH  29  30
BRANCH  29  34
ATOM     34  C   LIG d   1       4.304   0.445  -1.619  0.00  0.00    -0.044 C 
ATOM     35  H   LIG d   1       4.416   1.477  -1.984  0.00  0.00     0.025 H 
ATOM     36  H   LIG d   1       5.113   0.217  -0.909  0.00  0.00     0.025 H 
ATOM     37  H   LIG d   1       3.332   0.338  -1.116  0.00  0.00     0.025 H 
ENDBRANCH  29  34
BRANCH  29  38
ATOM     38  C   LIG d   1       3.430  -0.051  -3.907  0.00  0.00    -0.044 C 
ATOM     39  H   LIG d   1       3.780  -0.432  -4.877  0.00  0.00     0.025 H 
ATOM     40  H   LIG d   1       3.412   1.049  -3.929  0.00  0.00     0.025 H 
ATOM     41  H   LIG d   1       2.417  -0.430  -3.708  0.00  0.00     0.025 H 
ENDBRANCH  29  38
ENDBRANCH  27  29
ENDBRANCH  19  25
ENDBRANCH   9  19
BRANCH   4  42
ATOM     42  C   LIG d   1      10.252   4.817  -2.335  0.00  0.00    -0.036 C 
ATOM     43  H   LIG d   1      11.054   5.467  -1.957  0.00  0.00     0.028 H 
ATOM     44  H   LIG d   1      10.459   3.775  -2.050  0.00  0.00     0.028 H 
ATOM     45  H   LIG d   1       9.290   5.130  -1.900  0.00  0.00     0.028 H 
ENDBRANCH   4  42
BRANCH   1  46
ATOM     46  C   LIG d   1       9.985   5.222  -8.085  0.00  0.00    -0.039 C 
ATOM     47  H   LIG d   1       9.479   6.158  -8.364  0.00  0.00     0.028 H 
ATOM     48  H   LIG d   1       9.421   4.367  -8.485  0.00  0.00     0.028 H 
ATOM     49  H   LIG d   1      11.003   5.217  -8.500  0.00  0.00     0.028 H 
ENDBRANCH   1  46
BRANCH   3  50
ATOM     50  O   LIG d   1      11.220   7.060  -3.740  0.00  0.00    -0.490 OA
BRANCH  50  51
ATOM     51  C   LIG d   1      10.654   8.361  -3.908  0.00  0.00     0.102 C 
ATOM     52  H   LIG d   1      11.389   9.020  -4.396  0.00  0.00     0.071 H 
ATOM     53  H   LIG d   1       9.753   8.291  -4.534  0.00  0.00     0.071 H 
BRANCH  51  54
ATOM     54  C   LIG d   1      10.283   8.936  -2.540  0.00  0.00     0.033 C 
ATOM     55  H   LIG d   1      10.465  10.021  -2.536  0.00  0.00     0.046 H 
ATOM     56  H   LIG d   1       9.220   8.742  -2.337  0.00  0.00     0.046 H 
BRANCH  54  57
ATOM     57  N   LIG d   1      11.105   8.299  -1.502  0.00  0.00    -0.295 N 
ATOM     58  C   LIG d   1      12.212   9.176  -1.095  0.00  0.00     0.022 C 
ATOM     59  C   LIG d   1      13.075   8.452  -0.058  0.00  0.00     0.060 C 
ATOM     60  H   LIG d   1      12.825   9.426  -1.973  0.00  0.00     0.045 H 
ATOM     61  H   LIG d   1      11.807  10.100  -0.655  0.00  0.00     0.045 H 
ATOM     62  O   LIG d   1      12.256   8.064   1.049  0.00  0.00    -0.377 OA
ATOM     63  H   LIG d   1      13.872   9.123   0.294  0.00  0.00     0.057 H 
ATOM     64  H   LIG d   1      13.524   7.556  -0.513  0.00  0.00     0.057 H 
ATOM     65  C   LIG d   1      11.168   7.209   0.689  0.00  0.00     0.060 C 
ATOM     66  C   LIG d   1      10.286   7.921  -0.341  0.00  0.00     0.022 C 
ATOM     67  H   LIG d   1      10.572   6.975   1.582  0.00  0.00     0.057 H 
ATOM     68  H   LIG d   1      11.560   6.277   0.254  0.00  0.00     0.057 H 
ATOM     69  H   LIG d   1       9.849   8.824   0.110  0.00  0.00     0.045 H 
ATOM     70  H   LIG d   1       9.479   7.246  -0.665  0.00  0.00     0.045 H 
ENDBRANCH  54  57
ENDBRANCH  51  54
ENDBRANCH  50  51
ENDBRANCH   3  50
TORSDOF 13
ENDMDL
MODEL 3
REMARK VINA RESULT:      -6.1      6.985     10.756
REMARK  13 active torsions:
REMARK  status: ('A' for Active; 'I' for Inactive)
REMARK    1  A    between atoms: C_1  and  C_2 
REMARK    2  A    between atoms: C_4  and  O_24 
REMARK    3  A    between atoms: C_5  and  C_23 
REMARK    4  A    between atoms: C_10  and  C_13 
REMARK    5  A    between atoms: C_13  and  C_15 
REMARK    6  A    between atoms: C_13  and  C_16 
REMARK       I    between atoms: C_16  and  N_18 
REMARK    7  A    between atoms: N_18  and  C_19 
REMARK    8  A    between atoms: C_19  and  C_20 
REMARK    9  A    between atoms: C_19  and  C_21 
REMARK   10  A    between atoms: C_19  and  C_22 
REMARK   11  A    between atoms: O_24  and  C_25 
REMARK   12  A    between atoms: C_25  and  C_26 
REMARK   13  A    between atoms: C_26  and  N_27 
ROOT
ATOM      1  C   LIG d   1       3.144  -0.134  -8.300  0.00  0.00    -0.043 A 
ATOM      2  C   LIG d   1       4.064  -0.597  -7.385  0.00  0.00    -0.017 A 
ATOM      3  C   LIG d   1       4.384  -1.947  -7.353  0.00  0.00     0.124 A 
ATOM      4  C   LIG d   1       3.777  -2.815  -8.245  0.00  0.00    -0.005 A 
ATOM      5  C   LIG d   1       2.853  -2.346  -9.168  0.00  0.00    -0.037 A 
ATOM      6  C   LIG d   1       2.533  -1.005  -9.193  0.00  0.00    -0.041 A 
ATOM      7  C   LIG d   1       1.533  -0.430 -10.161  0.00  0.00    -0.027 C 
ATOM      8  C   LIG d   1       1.294  -1.391 -11.323  0.00  0.00    -0.045 C 
ATOM      9  C   LIG d   1       0.971  -2.775 -10.747  0.00  0.00    -0.026 C 
ATOM     10  H   LIG d   1       0.178  -2.696  -9.988  0.00  0.00     0.031 H 
ATOM     11  C   LIG d   1       2.241  -3.344 -10.115  0.00  0.00    -0.024 C 
ATOM     12  H   LIG d   1       4.534   0.088  -6.694  0.00  0.00     0.066 H 
ATOM     13  H   LIG d   1       0.580  -0.254  -9.642  0.00  0.00     0.031 H 
ATOM     14  H   LIG d   1       1.916   0.522 -10.560  0.00  0.00     0.031 H 
ATOM     15  H   LIG d   1       0.451  -1.031 -11.930  0.00  0.00     0.027 H 
ATOM     16  H   LIG d   1       2.199  -1.446 -11.946  0.00  0.00     0.027 H 
ATOM     17  H   LIG d   1       2.960  -3.581 -10.913  0.00  0.00     0.032 H 
ATOM     18  H   LIG d   1       1.986  -4.262  -9.567  0.00  0.00     0.032 H 
ENDROOT
BRANCH   9  19
ATOM     19  C   LIG d   1       0.493  -3.701 -11.867  0.00  0.00     0.036 C 
ATOM     20  H   LIG d   1       1.355  -4.200 -12.333  0.00  0.00     0.039 H 
BRANCH  19  21
ATOM     21  C   LIG d   1      -0.266  -2.885 -12.914  0.00  0.00    -0.054 C 
ATOM     22  H   LIG d   1       0.221  -3.002 -13.894  0.00  0.00     0.024 H 
ATOM     23  H   LIG d   1      -0.261  -1.824 -12.626  0.00  0.00     0.024 H 
ATOM     24  H   LIG d   1      -1.304  -3.243 -12.976  0.00  0.00     0.024 H 
ENDBRANCH  19  21
BRANCH  19  25
ATOM     25  C   LIG d   1      -0.419  -4.755 -11.292  0.00  0.00     0.216 C 
ATOM     26  O   LIG d   1      -0.037  -5.902 -11.197  0.00  0.00    -0.276 OA
ATOM     27  N   LIG d   1      -1.657  -4.421 -10.877  0.00  0.00    -0.310 N 
ATOM     28  H   LIG d   1      -2.004  -3.380 -10.962  0.00  0.00     0.149 HD
BRANCH  27  29
ATOM     29  C   LIG d   1      -2.541  -5.444 -10.313  0.00  0.00     0.026 C 
BRANCH  29  30
ATOM     30  C   LIG d   1      -3.826  -4.784  -9.804  0.00  0.00    -0.044 C 
ATOM     31  H   LIG d   1      -3.616  -3.740  -9.528  0.00  0.00     0.025 H 
ATOM     32  H   LIG d   1      -4.195  -5.331  -8.925  0.00  0.00     0.025 H 
ATOM     33  H   LIG d   1      -4.588  -4.807 -10.598  0.00  0.00     0.025 H 
ENDBRANCH  29  30
BRANCH  29  34
ATOM     34  C   LIG d   1      -2.889  -6.470 -11.393  0.00  0.00    -0.044 C 
ATOM     35  H   LIG d   1      -1.962  -6.907 -11.794  0.00  0.00     0.025 H 
ATOM     36  H   LIG d   1      -3.442  -5.974 -12.205  0.00  0.00     0.025 H 
ATOM     37  H   LIG d   1      -3.511  -7.265 -10.957  0.00  0.00     0.025 H 
ENDBRANCH  29  34
BRANCH  29  38
ATOM     38  C   LIG d   1      -1.835  -6.145  -9.151  0.00  0.00    -0.044 C 
ATOM     39  H   LIG d   1      -2.538  -6.831  -8.655  0.00  0.00     0.025 H 
ATOM     40  H   LIG d   1      -1.483  -5.394  -8.428  0.00  0.00     0.025 H 
ATOM     41  H   LIG d   1      -0.976  -6.715  -9.535  0.00  0.00     0.025 H 
ENDBRANCH  29  38
ENDBRANCH  27  29
ENDBRANCH  19  25
ENDBRANCH   9  19
BRANCH   4  42
ATOM     42  C   LIG d   1       4.123  -4.282  -8.214  0.00  0.00    -0.036 C 
ATOM     43  H   LIG d   1       4.146  -4.675  -9.240  0.00  0.00     0.028 H 
ATOM     44  H   LIG d   1       3.367  -4.824  -7.629  0.00  0.00     0.028 H 
ATOM     45  H   LIG d   1       5.111  -4.416  -7.748  0.00  0.00     0.028 H 
ENDBRANCH   4  42
BRANCH   1  46
ATOM     46  C   LIG d   1       2.797   1.333  -8.333  0.00  0.00    -0.039 C 
ATOM     47  H   LIG d   1       1.724   1.451  -8.544  0.00  0.00     0.028 H 
ATOM     48  H   LIG d   1       3.382   1.829  -9.122  0.00  0.00     0.028 H 
ATOM     49  H   LIG d   1       3.033   1.788  -7.361  0.00  0.00     0.028 H 
ENDBRANCH   1  46
BRANCH   3  50
ATOM     50  O   LIG d   1       5.288  -2.414  -6.453  0.00  0.00    -0.490 OA
BRANCH  50  51
ATOM     51  C   LIG d   1       6.223  -1.472  -5.923  0.00  0.00     0.102 C 
ATOM     52  H   LIG d   1       7.240  -1.746  -6.242  0.00  0.00     0.071 H 
ATOM     53  H   LIG d   1       5.981  -0.466  -6.295  0.00  0.00     0.071 H 
BRANCH  51  54
ATOM     54  C   LIG d   1       6.147  -1.482  -4.395  0.00  0.00     0.033 C 
ATOM     55  H   LIG d   1       5.916  -2.500  -4.046  0.00  0.00     0.046 H 
ATOM     56  H   LIG d   1       7.113  -1.162  -3.978  0.00  0.00     0.046 H 
BRANCH  54  57
ATOM     57  N   LIG d   1       5.091  -0.561  -3.951  0.00  0.00    -0.295 N 
ATOM     58  C   LIG d   1       3.947  -1.299  -3.398  0.00  0.00     0.022 C 
ATOM     59  C   LIG d   1       2.849  -0.307  -3.004  0.00  0.00     0.060 C 
ATOM     60  H   LIG d   1       3.558  -1.996  -4.154  0.00  0.00     0.045 H 
ATOM     61  H   LIG d   1       4.269  -1.864  -2.510  0.00  0.00     0.045 H 
ATOM     62  O   LIG d   1       3.382   0.642  -2.076  0.00  0.00    -0.377 OA
ATOM     63  H   LIG d   1       2.014  -0.848  -2.535  0.00  0.00     0.057 H 
ATOM     64  H   LIG d   1       2.489   0.220  -3.900  0.00  0.00     0.057 H 
ATOM     65  C   LIG d   1       4.498   1.379  -2.582  0.00  0.00     0.060 C 
ATOM     66  C   LIG d   1       5.612   0.404  -2.972  0.00  0.00     0.022 C 
ATOM     67  H   LIG d   1       4.868   2.067  -1.808  0.00  0.00     0.057 H 
ATOM     68  H   LIG d   1       4.188   1.955  -3.467  0.00  0.00     0.057 H 
ATOM     69  H   LIG d   1       5.961  -0.133  -2.078  0.00  0.00     0.045 H 
ATOM     70  H   LIG d   1       6.451   0.960  -3.416  0.00  0.00     0.045 H 
ENDBRANCH  54  57
ENDBRANCH  51  54
ENDBRANCH  50  51
ENDBRANCH   3  50
TORSDOF 13
ENDMDL
MODEL 4
REMARK VINA RESULT:      -6.1      7.211     13.117
REMARK  13 active torsions:
REMARK  status: ('A' for Active; 'I' for Inactive)
REMARK    1  A    between atoms: C_1  and  C_2 
REMARK    2  A    between atoms: C_4  and  O_24 
REMARK    3  A    between atoms: C_5  and  C_23 
REMARK    4  A    between atoms: C_10  and  C_13 
REMARK    5  A    between atoms: C_13  and  C_15 
REMARK    6  A    between atoms: C_13  and  C_16 
REMARK       I    between atoms: C_16  and  N_18 
REMARK    7  A    between atoms: N_18  and  C_19 
REMARK    8  A    between atoms: C_19  and  C_20 
REMARK    9  A    between atoms: C_19  and  C_21 
REMARK   10  A    between atoms: C_19  and  C_22 
REMARK   11  A    between atoms: O_24  and  C_25 
REMARK   12  A    between atoms: C_25  and  C_26 
REMARK   13  A    between atoms: C_26  and  N_27 
ROOT
ATOM      1  C   LIG d   1       2.850  -4.803  -9.728  0.00  0.00    -0.043 A 
ATOM      2  C   LIG d   1       1.870  -4.630 -10.681  0.00  0.00    -0.017 A 
ATOM      3  C   LIG d   1       1.352  -3.364 -10.915  0.00  0.00     0.124 A 
ATOM      4  C   LIG d   1       1.830  -2.285 -10.190  0.00  0.00    -0.005 A 
ATOM      5  C   LIG d   1       2.820  -2.461  -9.233  0.00  0.00    -0.037 A 
ATOM      6  C   LIG d   1       3.328  -3.721  -8.999  0.00  0.00    -0.041 A 
ATOM      7  C   LIG d   1       4.396  -3.985  -7.971  0.00  0.00    -0.027 C 
ATOM      8  C   LIG d   1       5.105  -2.689  -7.586  0.00  0.00    -0.045 C 
ATOM      9  C   LIG d   1       4.042  -1.647  -7.218  0.00  0.00    -0.026 C 
ATOM     10  H   LIG d   1       3.334  -2.067  -6.488  0.00  0.00     0.031 H 
ATOM     11  C   LIG d   1       3.301  -1.242  -8.491  0.00  0.00    -0.024 C 
ATOM     12  H   LIG d   1       1.504  -5.477 -11.243  0.00  0.00     0.066 H 
ATOM     13  H   LIG d   1       3.939  -4.421  -7.071  0.00  0.00     0.031 H 
ATOM     14  H   LIG d   1       5.137  -4.687  -8.384  0.00  0.00     0.031 H 
ATOM     15  H   LIG d   1       5.765  -2.872  -6.727  0.00  0.00     0.027 H 
ATOM     16  H   LIG d   1       5.702  -2.330  -8.438  0.00  0.00     0.027 H 
ATOM     17  H   LIG d   1       3.984  -0.667  -9.133  0.00  0.00     0.032 H 
ATOM     18  H   LIG d   1       2.440  -0.615  -8.217  0.00  0.00     0.032 H 
ENDROOT
BRANCH   9  19
ATOM     19  C   LIG d   1       4.715  -0.419  -6.600  0.00  0.00     0.036 C 
ATOM     20  H   LIG d   1       4.578   0.452  -7.258  0.00  0.00     0.039 H 
BRANCH  19  21
ATOM     21  C   LIG d   1       6.207  -0.698  -6.409  0.00  0.00    -0.054 C 
ATOM     22  H   LIG d   1       6.446  -1.700  -6.795  0.00  0.00     0.024 H 
ATOM     23  H   LIG d   1       6.455  -0.649  -5.339  0.00  0.00     0.024 H 
ATOM     24  H   LIG d   1       6.794   0.055  -6.955  0.00  0.00     0.024 H 
ENDBRANCH  19  21
BRANCH  19  25
ATOM     25  C   LIG d   1       4.084  -0.119  -5.265  0.00  0.00     0.216 C 
ATOM     26  O   LIG d   1       3.164   0.669  -5.192  0.00  0.00    -0.276 OA
ATOM     27  N   LIG d   1       4.537  -0.730  -4.152  0.00  0.00    -0.310 N 
ATOM     28  H   LIG d   1       5.371  -1.444  -4.218  0.00  0.00     0.149 HD
BRANCH  27  29
ATOM     29  C   LIG d   1       3.919  -0.442  -2.856  0.00  0.00     0.026 C 
BRANCH  29  30
ATOM     30  C   LIG d   1       2.406  -0.654  -2.953  0.00  0.00    -0.044 C 
ATOM     31  H   LIG d   1       2.128  -1.561  -2.397  0.00  0.00     0.025 H 
ATOM     32  H   LIG d   1       2.120  -0.767  -4.009  0.00  0.00     0.025 H 
ATOM     33  H   LIG d   1       1.886   0.215  -2.523  0.00  0.00     0.025 H 
ENDBRANCH  29  30
BRANCH  29  34
ATOM     34  C   LIG d   1       4.498  -1.381  -1.795  0.00  0.00    -0.044 C 
ATOM     35  H   LIG d   1       4.699  -0.814  -0.874  0.00  0.00     0.025 H 
ATOM     36  H   LIG d   1       5.435  -1.821  -2.168  0.00  0.00     0.025 H 
ATOM     37  H   LIG d   1       3.776  -2.183  -1.582  0.00  0.00     0.025 H 
ENDBRANCH  29  34
BRANCH  29  38
ATOM     38  C   LIG d   1       4.206   1.008  -2.464  0.00  0.00    -0.044 C 
ATOM     39  H   LIG d   1       5.224   1.083  -2.054  0.00  0.00     0.025 H 
ATOM     40  H   LIG d   1       3.479   1.334  -1.704  0.00  0.00     0.025 H 
ATOM     41  H   LIG d   1       4.120   1.652  -3.352  0.00  0.00     0.025 H 
ENDBRANCH  29  38
ENDBRANCH  27  29
ENDBRANCH  19  25
ENDBRANCH   9  19
BRANCH   4  42
ATOM     42  C   LIG d   1       1.271  -0.909 -10.442  0.00  0.00    -0.036 C 
ATOM     43  H   LIG d   1       0.286  -0.819  -9.960  0.00  0.00     0.028 H 
ATOM     44  H   LIG d   1       1.165  -0.748 -11.524  0.00  0.00     0.028 H 
ATOM     45  H   LIG d   1       1.954  -0.153 -10.025  0.00  0.00     0.028 H 
ENDBRANCH   4  42
BRANCH   1  46
ATOM     46  C   LIG d   1       3.412  -6.179  -9.475  0.00  0.00    -0.039 C 
ATOM     47  H   LIG d   1       2.796  -6.693  -8.722  0.00  0.00     0.028 H 
ATOM     48  H   LIG d   1       4.444  -6.091  -9.105  0.00  0.00     0.028 H 
ATOM     49  H   LIG d   1       3.405  -6.755 -10.411  0.00  0.00     0.028 H 
ENDBRANCH   1  46
BRANCH   3  50
ATOM     50  O   LIG d   1       0.383  -3.184 -11.849  0.00  0.00    -0.490 OA
BRANCH  50  51
ATOM     51  C   LIG d   1      -0.127  -4.355 -12.490  0.00  0.00     0.102 C 
ATOM     52  H   LIG d   1       0.181  -4.359 -13.546  0.00  0.00     0.071 H 
ATOM     53  H   LIG d   1       0.271  -5.250 -11.989  0.00  0.00     0.071 H 
BRANCH  51  54
ATOM     54  C   LIG d   1      -1.655  -4.359 -12.403  0.00  0.00     0.033 C 
ATOM     55  H   LIG d   1      -2.041  -3.371 -12.694  0.00  0.00     0.046 H 
ATOM     56  H   LIG d   1      -2.058  -5.125 -13.082  0.00  0.00     0.046 H 
BRANCH  54  57
ATOM     57  N   LIG d   1      -2.066  -4.659 -11.025  0.00  0.00    -0.295 N 
ATOM     58  C   LIG d   1      -3.529  -4.617 -10.891  0.00  0.00     0.022 C 
ATOM     59  C   LIG d   1      -3.910  -4.876  -9.430  0.00  0.00     0.060 C 
ATOM     60  H   LIG d   1      -3.898  -3.627 -11.197  0.00  0.00     0.045 H 
ATOM     61  H   LIG d   1      -3.978  -5.391 -11.531  0.00  0.00     0.045 H 
ATOM     62  O   LIG d   1      -3.363  -6.130  -9.016  0.00  0.00    -0.377 OA
ATOM     63  H   LIG d   1      -5.005  -4.903  -9.334  0.00  0.00     0.057 H 
ATOM     64  H   LIG d   1      -3.506  -4.072  -8.796  0.00  0.00     0.057 H 
ATOM     65  C   LIG d   1      -1.939  -6.206  -9.133  0.00  0.00     0.060 C 
ATOM     66  C   LIG d   1      -1.539  -5.961 -10.590  0.00  0.00     0.022 C 
ATOM     67  H   LIG d   1      -1.596  -7.203  -8.821  0.00  0.00     0.057 H 
ATOM     68  H   LIG d   1      -1.476  -5.441  -8.491  0.00  0.00     0.057 H 
ATOM     69  H   LIG d   1      -1.957  -6.756 -11.226  0.00  0.00     0.045 H 
ATOM     70  H   LIG d   1      -0.442  -5.960 -10.676  0.00  0.00     0.045 H 
ENDBRANCH  54  57
ENDBRANCH  51  54
ENDBRANCH  50  51
ENDBRANCH   3  50
TORSDOF 13
ENDMDL
MODEL 5
REMARK VINA RESULT:      -5.7      7.268     12.724
REMARK  13 active torsions:
REMARK  status: ('A' for Active; 'I' for Inactive)
REMARK    1  A    between atoms: C_1  and  C_2 
REMARK    2  A    between atoms: C_4  and  O_24 
REMARK    3  A    between atoms: C_5  and  C_23 
REMARK    4  A    between atoms: C_10  and  C_13 
REMARK    5  A    between atoms: C_13  and  C_15 
REMARK    6  A    between atoms: C_13  and  C_16 
REMARK       I    between atoms: C_16  and  N_18 
REMARK    7  A    between atoms: N_18  and  C_19 
REMARK    8  A    between atoms: C_19  and  C_20 
REMARK    9  A    between atoms: C_19  and  C_21 
REMARK   10  A    between atoms: C_19  and  C_22 
REMARK   11  A    between atoms: O_24  and  C_25 
REMARK   12  A    between atoms: C_25  and  C_26 
REMARK   13  A    between atoms: C_26  and  N_27 
ROOT
ATOM      1  C   LIG d   1       2.037  -1.780  -9.718  0.00  0.00    -0.043 A 
ATOM      2  C   LIG d   1       1.875  -3.054 -10.215  0.00  0.00    -0.017 A 
ATOM      3  C   LIG d   1       2.683  -4.083  -9.752  0.00  0.00     0.124 A 
ATOM      4  C   LIG d   1       3.643  -3.817  -8.791  0.00  0.00    -0.005 A 
ATOM      5  C   LIG d   1       3.803  -2.534  -8.289  0.00  0.00    -0.037 A 
ATOM      6  C   LIG d   1       3.003  -1.513  -8.755  0.00  0.00    -0.041 A 
ATOM      7  C   LIG d   1       3.128  -0.096  -8.261  0.00  0.00    -0.027 C 
ATOM      8  C   LIG d   1       3.892  -0.052  -6.940  0.00  0.00    -0.045 C 
ATOM      9  C   LIG d   1       5.199  -0.836  -7.111  0.00  0.00    -0.026 C 
ATOM     10  H   LIG d   1       5.732  -0.495  -8.011  0.00  0.00     0.031 H 
ATOM     11  C   LIG d   1       4.860  -2.320  -7.236  0.00  0.00    -0.024 C 
ATOM     12  H   LIG d   1       1.122  -3.252 -10.964  0.00  0.00     0.066 H 
ATOM     13  H   LIG d   1       3.669   0.505  -9.006  0.00  0.00     0.031 H 
ATOM     14  H   LIG d   1       2.125   0.328  -8.106  0.00  0.00     0.031 H 
ATOM     15  H   LIG d   1       4.112   0.993  -6.678  0.00  0.00     0.027 H 
ATOM     16  H   LIG d   1       3.282  -0.509  -6.147  0.00  0.00     0.027 H 
ATOM     17  H   LIG d   1       4.490  -2.684  -6.266  0.00  0.00     0.032 H 
ATOM     18  H   LIG d   1       5.770  -2.871  -7.512  0.00  0.00     0.032 H 
ENDROOT
BRANCH   9  19
ATOM     19  C   LIG d   1       6.097  -0.613  -5.892  0.00  0.00     0.036 C 
ATOM     20  H   LIG d   1       6.733   0.271  -6.053  0.00  0.00     0.039 H 
BRANCH  19  21
ATOM     21  C   LIG d   1       6.969  -1.849  -5.668  0.00  0.00    -0.054 C 
ATOM     22  H   LIG d   1       6.591  -2.681  -6.281  0.00  0.00     0.024 H 
ATOM     23  H   LIG d   1       6.938  -2.132  -4.606  0.00  0.00     0.024 H 
ATOM     24  H   LIG d   1       8.006  -1.623  -5.957  0.00  0.00     0.024 H 
ENDBRANCH  19  21
BRANCH  19  25
ATOM     25  C   LIG d   1       5.241  -0.374  -4.675  0.00  0.00     0.216 C 
ATOM     26  O   LIG d   1       5.024   0.759  -4.298  0.00  0.00    -0.276 OA
ATOM     27  N   LIG d   1       4.710  -1.418  -4.008  0.00  0.00    -0.310 N 
ATOM     28  H   LIG d   1       4.907  -2.445  -4.349  0.00  0.00     0.149 HD
BRANCH  27  29
ATOM     29  C   LIG d   1       3.874  -1.185  -2.828  0.00  0.00     0.026 C 
BRANCH  29  30
ATOM     30  C   LIG d   1       3.663  -2.506  -2.083  0.00  0.00    -0.044 C 
ATOM     31  H   LIG d   1       2.999  -3.156  -2.671  0.00  0.00     0.025 H 
ATOM     32  H   LIG d   1       3.207  -2.305  -1.103  0.00  0.00     0.025 H 
ATOM     33  H   LIG d   1       4.634  -3.005  -1.941  0.00  0.00     0.025 H 
ENDBRANCH  29  30
BRANCH  29  34
ATOM     34  C   LIG d   1       4.565  -0.183  -1.902  0.00  0.00    -0.044 C 
ATOM     35  H   LIG d   1       4.468   0.830  -2.321  0.00  0.00     0.025 H 
ATOM     36  H   LIG d   1       5.631  -0.442  -1.812  0.00  0.00     0.025 H 
ATOM     37  H   LIG d   1       4.094  -0.215  -0.909  0.00  0.00     0.025 H 
ENDBRANCH  29  34
BRANCH  29  38
ATOM     38  C   LIG d   1       2.519  -0.626  -3.265  0.00  0.00    -0.044 C 
ATOM     39  H   LIG d   1       2.034  -0.130  -2.412  0.00  0.00     0.025 H 
ATOM     40  H   LIG d   1       1.880  -1.448  -3.623  0.00  0.00     0.025 H 
ATOM     41  H   LIG d   1       2.668   0.102  -4.077  0.00  0.00     0.025 H 
ENDBRANCH  29  38
ENDBRANCH  27  29
ENDBRANCH  19  25
ENDBRANCH   9  19
BRANCH   4  42
ATOM     42  C   LIG d   1       4.523  -4.932  -8.284  0.00  0.00    -0.036 C 
ATOM     43  H   LIG d   1       4.132  -5.301  -7.325  0.00  0.00     0.028 H 
ATOM     44  H   LIG d   1       5.546  -4.557  -8.144  0.00  0.00     0.028 H 
ATOM     45  H   LIG d   1       4.531  -5.754  -9.017  0.00  0.00     0.028 H 
ENDBRANCH   4  42
BRANCH   1  46
ATOM     46  C   LIG d   1       1.159  -0.663 -10.223  0.00  0.00    -0.039 C 
ATOM     47  H   LIG d   1       1.676  -0.129 -11.034  0.00  0.00     0.028 H 
ATOM     48  H   LIG d   1       0.948   0.036  -9.400  0.00  0.00     0.028 H 
ATOM     49  H   LIG d   1       0.215  -1.081 -10.600  0.00  0.00     0.028 H 
ENDBRANCH   1  46
BRANCH   3  50
ATOM     50  O   LIG d   1       2.532  -5.342 -10.239  0.00  0.00    -0.490 OA
BRANCH  50  51
ATOM     51  C   LIG d   1       1.345  -5.612 -10.985  0.00  0.00     0.102 C 
ATOM     52  H   LIG d   1       0.785  -4.676 -11.135  0.00  0.00     0.071 H 
ATOM     53  H   LIG d   1       1.615  -6.038 -11.963  0.00  0.00     0.071 H 
BRANCH  51  54
ATOM     54  C   LIG d   1       0.474  -6.609 -10.217  0.00  0.00     0.033 C 
ATOM     55  H   LIG d   1       0.362  -7.529 -10.810  0.00  0.00     0.046 H 
ATOM     56  H   LIG d   1       0.951  -6.847  -9.256  0.00  0.00     0.046 H 
BRANCH  54  57
ATOM     57  N   LIG d   1      -0.849  -6.018  -9.976  0.00  0.00    -0.295 N 
ATOM     58  C   LIG d   1      -1.404  -5.445 -11.211  0.00  0.00     0.022 C 
ATOM     59  C   LIG d   1      -2.753  -4.790 -10.902  0.00  0.00     0.060 C 
ATOM     60  H   LIG d   1      -0.711  -4.690 -11.610  0.00  0.00     0.045 H 
ATOM     61  H   LIG d   1      -1.544  -6.244 -11.955  0.00  0.00     0.045 H 
ATOM     62  O   LIG d   1      -3.625  -5.759 -10.315  0.00  0.00    -0.377 OA
ATOM     63  H   LIG d   1      -3.200  -4.410 -11.833  0.00  0.00     0.057 H 
ATOM     64  H   LIG d   1      -2.605  -3.956 -10.199  0.00  0.00     0.057 H 
ATOM     65  C   LIG d   1      -3.116  -6.337  -9.110  0.00  0.00     0.060 C 
ATOM     66  C   LIG d   1      -1.771  -7.008  -9.400  0.00  0.00     0.022 C 
ATOM     67  H   LIG d   1      -3.825  -7.087  -8.732  0.00  0.00     0.057 H 
ATOM     68  H   LIG d   1      -2.978  -5.550  -8.354  0.00  0.00     0.057 H 
ATOM     69  H   LIG d   1      -1.916  -7.832 -10.115  0.00  0.00     0.045 H 
ATOM     70  H   LIG d   1      -1.347  -7.404  -8.466  0.00  0.00     0.045 H 
ENDBRANCH  54  57
ENDBRANCH  51  54
ENDBRANCH  50  51
ENDBRANCH   3  50
TORSDOF 13
ENDMDL
MODEL 6
REMARK VINA RESULT:      -5.7      2.567      4.100
REMARK  13 active torsions:
REMARK  status: ('A' for Active; 'I' for Inactive)
REMARK    1  A    between atoms: C_1  and  C_2 
REMARK    2  A    between atoms: C_4  and  O_24 
REMARK    3  A    between atoms: C_5  and  C_23 
REMARK    4  A    between atoms: C_10  and  C_13 
REMARK    5  A    between atoms: C_13  and  C_15 
REMARK    6  A    between atoms: C_13  and  C_16 
REMARK       I    between atoms: C_16  and  N_18 
REMARK    7  A    between atoms: N_18  and  C_19 
REMARK    8  A    between atoms: C_19  and  C_20 
REMARK    9  A    between atoms: C_19  and  C_21 
REMARK   10  A    between atoms: C_19  and  C_22 
REMARK   11  A    between atoms: O_24  and  C_25 
REMARK   12  A    between atoms: C_25  and  C_26 
REMARK   13  A    between atoms: C_26  and  N_27 
ROOT
ATOM      1  C   LIG d   1       9.890   4.245  -6.818  0.00  0.00    -0.043 A 
ATOM      2  C   LIG d   1      10.530   5.316  -6.233  0.00  0.00    -0.017 A 
ATOM      3  C   LIG d   1      10.566   5.426  -4.851  0.00  0.00     0.124 A 
ATOM      4  C   LIG d   1       9.960   4.456  -4.071  0.00  0.00    -0.005 A 
ATOM      5  C   LIG d   1       9.318   3.376  -4.662  0.00  0.00    -0.037 A 
ATOM      6  C   LIG d   1       9.279   3.272  -6.035  0.00  0.00    -0.041 A 
ATOM      7  C   LIG d   1       8.593   2.133  -6.742  0.00  0.00    -0.027 C 
ATOM      8  C   LIG d   1       8.370   0.963  -5.786  0.00  0.00    -0.045 C 
ATOM      9  C   LIG d   1       7.686   1.496  -4.522  0.00  0.00    -0.026 C 
ATOM     10  H   LIG d   1       6.806   2.100  -4.791  0.00  0.00     0.031 H 
ATOM     11  C   LIG d   1       8.691   2.352  -3.752  0.00  0.00    -0.024 C 
ATOM     12  H   LIG d   1      11.002   6.067  -6.850  0.00  0.00     0.066 H 
ATOM     13  H   LIG d   1       7.620   2.472  -7.125  0.00  0.00     0.031 H 
ATOM     14  H   LIG d   1       9.219   1.792  -7.581  0.00  0.00     0.031 H 
ATOM     15  H   LIG d   1       7.731   0.211  -6.270  0.00  0.00     0.027 H 
ATOM     16  H   LIG d   1       9.338   0.511  -5.526  0.00  0.00     0.027 H 
ATOM     17  H   LIG d   1       9.474   1.698  -3.341  0.00  0.00     0.032 H 
ATOM     18  H   LIG d   1       8.169   2.862  -2.930  0.00  0.00     0.032 H 
ENDROOT
BRANCH   9  19
ATOM     19  C   LIG d   1       7.231   0.325  -3.649  0.00  0.00     0.036 C 
ATOM     20  H   LIG d   1       7.845   0.277  -2.738  0.00  0.00     0.039 H 
BRANCH  19  21
ATOM     21  C   LIG d   1       7.363  -0.980  -4.436  0.00  0.00    -0.054 C 
ATOM     22  H   LIG d   1       6.572  -1.678  -4.125  0.00  0.00     0.024 H 
ATOM     23  H   LIG d   1       8.347  -1.429  -4.239  0.00  0.00     0.024 H 
ATOM     24  H   LIG d   1       7.265  -0.771  -5.512  0.00  0.00     0.024 H 
ENDBRANCH  19  21
BRANCH  19  25
ATOM     25  C   LIG d   1       5.792   0.526  -3.248  0.00  0.00     0.216 C 
ATOM     26  O   LIG d   1       5.523   0.943  -2.141  0.00  0.00    -0.276 OA
ATOM     27  N   LIG d   1       4.803   0.251  -4.122  0.00  0.00    -0.310 N 
ATOM     28  H   LIG d   1       5.047  -0.126  -5.126  0.00  0.00     0.149 HD
BRANCH  27  29
ATOM     29  C   LIG d   1       3.405   0.452  -3.734  0.00  0.00     0.026 C 
BRANCH  29  30
ATOM     30  C   LIG d   1       2.536   0.549  -4.990  0.00  0.00    -0.044 C 
ATOM     31  H   LIG d   1       1.933  -0.366  -5.089  0.00  0.00     0.025 H 
ATOM     32  H   LIG d   1       3.181   0.661  -5.874  0.00  0.00     0.025 H 
ATOM     33  H   LIG d   1       1.870   1.421  -4.909  0.00  0.00     0.025 H 
ENDBRANCH  29  30
BRANCH  29  34
ATOM     34  C   LIG d   1       2.938  -0.728  -2.880  0.00  0.00    -0.044 C 
ATOM     35  H   LIG d   1       3.813  -1.251  -2.467  0.00  0.00     0.025 H 
ATOM     36  H   LIG d   1       2.355  -1.423  -3.503  0.00  0.00     0.025 H 
ATOM     37  H   LIG d   1       2.309  -0.359  -2.056  0.00  0.00     0.025 H 
ENDBRANCH  29  34
BRANCH  29  38
ATOM     38  C   LIG d   1       3.280   1.746  -2.928  0.00  0.00    -0.044 C 
ATOM     39  H   LIG d   1       4.230   1.949  -2.411  0.00  0.00     0.025 H 
ATOM     40  H   LIG d   1       2.474   1.640  -2.186  0.00  0.00     0.025 H 
ATOM     41  H   LIG d   1       3.046   2.580  -3.607  0.00  0.00     0.025 H 
ENDBRANCH  29  38
ENDBRANCH  27  29
ENDBRANCH  19  25
ENDBRANCH   9  19
BRANCH   4  42
ATOM     42  C   LIG d   1       9.997   4.572  -2.569  0.00  0.00    -0.036 C 
ATOM     43  H   LIG d   1      10.277   5.598  -2.287  0.00  0.00     0.028 H 
ATOM     44  H   LIG d   1      10.737   3.866  -2.165  0.00  0.00     0.028 H 
ATOM     45  H   LIG d   1       9.004   4.337  -2.158  0.00  0.00     0.028 H 
ENDBRANCH   4  42
BRANCH   1  46
ATOM     46  C   LIG d   1       9.852   4.126  -8.320  0.00  0.00    -0.039 C 
ATOM     47  H   LIG d   1      10.864   4.270  -8.725  0.00  0.00     0.028 H 
ATOM     48  H   LIG d   1       9.180   4.894  -8.731  0.00  0.00     0.028 H 
ATOM     49  H   LIG d   1       9.483   3.129  -8.599  0.00  0.00     0.028 H 
ENDBRANCH   1  46
BRANCH   3  50
ATOM     50  O   LIG d   1      11.192   6.480  -4.266  0.00  0.00    -0.490 OA
BRANCH  50  51
ATOM     51  C   LIG d   1      12.613   6.546  -4.397  0.00  0.00     0.102 C 
ATOM     52  H   LIG d   1      12.954   5.761  -5.090  0.00  0.00     0.071 H 
ATOM     53  H   LIG d   1      12.900   7.532  -4.792  0.00  0.00     0.071 H 
BRANCH  51  54
ATOM     54  C   LIG d   1      13.263   6.336  -3.028  0.00  0.00     0.033 C 
ATOM     55  H   LIG d   1      13.742   7.271  -2.703  0.00  0.00     0.046 H 
ATOM     56  H   LIG d   1      12.495   6.044  -2.298  0.00  0.00     0.046 H 
BRANCH  54  57
ATOM     57  N   LIG d   1      14.276   5.276  -3.126  0.00  0.00    -0.295 N 
ATOM     58  C   LIG d   1      15.085   5.206  -1.901  0.00  0.00     0.022 C 
ATOM     59  C   LIG d   1      16.163   4.131  -2.068  0.00  0.00     0.060 C 
ATOM     60  H   LIG d   1      15.563   6.180  -1.720  0.00  0.00     0.045 H 
ATOM     61  H   LIG d   1      14.439   4.950  -1.048  0.00  0.00     0.045 H 
ATOM     62  O   LIG d   1      15.538   2.882  -2.376  0.00  0.00    -0.377 OA
ATOM     63  H   LIG d   1      16.735   4.034  -1.134  0.00  0.00     0.057 H 
ATOM     64  H   LIG d   1      16.842   4.413  -2.886  0.00  0.00     0.057 H 
ATOM     65  C   LIG d   1      14.742   2.913  -3.564  0.00  0.00     0.060 C 
ATOM     66  C   LIG d   1      13.651   3.976  -3.412  0.00  0.00     0.022 C 
ATOM     67  H   LIG d   1      14.276   1.929  -3.721  0.00  0.00     0.057 H 
ATOM     68  H   LIG d   1      15.378   3.161  -4.427  0.00  0.00     0.057 H 
ATOM     69  H   LIG d   1      12.981   3.701  -2.583  0.00  0.00     0.045 H 
ATOM     70  H   LIG d   1      13.070   4.045  -4.344  0.00  0.00     0.045 H 
ENDBRANCH  54  57
ENDBRANCH  51  54
ENDBRANCH  50  51
ENDBRANCH   3  50
TORSDOF 13
ENDMDL
MODEL 7
REMARK VINA RESULT:      -5.7      6.786     13.087
REMARK  13 active torsions:
REMARK  status: ('A' for Active; 'I' for Inactive)
REMARK    1  A    between atoms: C_1  and  C_2 
REMARK    2  A    between atoms: C_4  and  O_24 
REMARK    3  A    between atoms: C_5  and  C_23 
REMARK    4  A    between atoms: C_10  and  C_13 
REMARK    5  A    between atoms: C_13  and  C_15 
REMARK    6  A    between atoms: C_13  and  C_16 
REMARK       I    between atoms: C_16  and  N_18 
REMARK    7  A    between atoms: N_18  and  C_19 
REMARK    8  A    between atoms: C_19  and  C_20 
REMARK    9  A    between atoms: C_19  and  C_21 
REMARK   10  A    between atoms: C_19  and  C_22 
REMARK   11  A    between atoms: O_24  and  C_25 
REMARK   12  A    between atoms: C_25  and  C_26 
REMARK   13  A    between atoms: C_26  and  N_27 
ROOT
ATOM      1  C   LIG d   1       9.425  -5.622  -3.783  0.00  0.00    -0.043 A 
ATOM      2  C   LIG d   1       9.004  -6.913  -4.014  0.00  0.00    -0.017 A 
ATOM      3  C   LIG d   1       7.860  -7.141  -4.765  0.00  0.00     0.124 A 
ATOM      4  C   LIG d   1       7.154  -6.066  -5.278  0.00  0.00    -0.005 A 
ATOM      5  C   LIG d   1       7.581  -4.766  -5.046  0.00  0.00    -0.037 A 
ATOM      6  C   LIG d   1       8.715  -4.543  -4.295  0.00  0.00    -0.041 A 
ATOM      7  C   LIG d   1       9.231  -3.160  -3.998  0.00  0.00    -0.027 C 
ATOM      8  C   LIG d   1       8.626  -2.142  -4.961  0.00  0.00    -0.045 C 
ATOM      9  C   LIG d   1       7.103  -2.320  -4.961  0.00  0.00    -0.026 C 
ATOM     10  H   LIG d   1       6.721  -2.324  -3.929  0.00  0.00     0.031 H 
ATOM     11  C   LIG d   1       6.772  -3.645  -5.645  0.00  0.00    -0.024 C 
ATOM     12  H   LIG d   1       9.563  -7.746  -3.611  0.00  0.00     0.066 H 
ATOM     13  H   LIG d   1       8.960  -2.881  -2.969  0.00  0.00     0.031 H 
ATOM     14  H   LIG d   1      10.326  -3.145  -4.106  0.00  0.00     0.031 H 
ATOM     15  H   LIG d   1       8.886  -1.125  -4.632  0.00  0.00     0.027 H 
ATOM     16  H   LIG d   1       9.023  -2.312  -5.973  0.00  0.00     0.027 H 
ATOM     17  H   LIG d   1       7.000  -3.560  -6.717  0.00  0.00     0.032 H 
ATOM     18  H   LIG d   1       5.701  -3.856  -5.513  0.00  0.00     0.032 H 
ENDROOT
BRANCH   9  19
ATOM     19  C   LIG d   1       6.449  -1.167  -5.725  0.00  0.00     0.036 C 
ATOM     20  H   LIG d   1       6.336  -1.439  -6.786  0.00  0.00     0.039 H 
BRANCH  19  21
ATOM     21  C   LIG d   1       7.315   0.086  -5.598  0.00  0.00    -0.054 C 
ATOM     22  H   LIG d   1       8.059  -0.061  -4.800  0.00  0.00     0.024 H 
ATOM     23  H   LIG d   1       6.679   0.948  -5.352  0.00  0.00     0.024 H 
ATOM     24  H   LIG d   1       7.833   0.273  -6.551  0.00  0.00     0.024 H 
ENDBRANCH  19  21
BRANCH  19  25
ATOM     25  C   LIG d   1       5.082  -0.895  -5.150  0.00  0.00     0.216 C 
ATOM     26  O   LIG d   1       4.096  -1.356  -5.685  0.00  0.00    -0.276 OA
ATOM     27  N   LIG d   1       4.957  -0.145  -4.037  0.00  0.00    -0.310 N 
ATOM     28  H   LIG d   1       5.851   0.272  -3.552  0.00  0.00     0.149 HD
BRANCH  27  29
ATOM     29  C   LIG d   1       3.629   0.114  -3.475  0.00  0.00     0.026 C 
BRANCH  29  30
ATOM     30  C   LIG d   1       3.050  -1.187  -2.914  0.00  0.00    -0.044 C 
ATOM     31  H   LIG d   1       3.625  -1.491  -2.027  0.00  0.00     0.025 H 
ATOM     32  H   LIG d   1       3.109  -1.974  -3.679  0.00  0.00     0.025 H 
ATOM     33  H   LIG d   1       1.998  -1.027  -2.632  0.00  0.00     0.025 H 
ENDBRANCH  29  30
BRANCH  29  34
ATOM     34  C   LIG d   1       3.744   1.147  -2.352  0.00  0.00    -0.044 C 
ATOM     35  H   LIG d   1       4.099   0.654  -1.435  0.00  0.00     0.025 H 
ATOM     36  H   LIG d   1       2.758   1.599  -2.168  0.00  0.00     0.025 H 
ATOM     37  H   LIG d   1       4.458   1.931  -2.646  0.00  0.00     0.025 H 
ENDBRANCH  29  34
BRANCH  29  38
ATOM     38  C   LIG d   1       2.707   0.652  -4.570  0.00  0.00    -0.044 C 
ATOM     39  H   LIG d   1       2.195   1.556  -4.208  0.00  0.00     0.025 H 
ATOM     40  H   LIG d   1       1.960  -0.114  -4.830  0.00  0.00     0.025 H 
ATOM     41  H   LIG d   1       3.302   0.899  -5.462  0.00  0.00     0.025 H 
ENDBRANCH  29  38
ENDBRANCH  27  29
ENDBRANCH  19  25
ENDBRANCH   9  19
BRANCH   4  42
ATOM     42  C   LIG d   1       5.911  -6.309  -6.095  0.00  0.00    -0.036 C 
ATOM     43  H   LIG d   1       5.444  -7.254  -5.781  0.00  0.00     0.028 H 
ATOM     44  H   LIG d   1       6.178  -6.368  -7.160  0.00  0.00     0.028 H 
ATOM     45  H   LIG d   1       5.202  -5.481  -5.941  0.00  0.00     0.028 H 
ENDBRANCH   4  42
BRANCH   1  46
ATOM     46  C   LIG d   1      10.668  -5.376  -2.966  0.00  0.00    -0.039 C 
ATOM     47  H   LIG d   1      10.425  -5.451  -1.896  0.00  0.00     0.028 H 
ATOM     48  H   LIG d   1      11.057  -4.371  -3.184  0.00  0.00     0.028 H 
ATOM     49  H   LIG d   1      11.430  -6.127  -3.223  0.00  0.00     0.028 H 
ENDBRANCH   1  46
BRANCH   3  50
ATOM     50  O   LIG d   1       7.435  -8.410  -4.996  0.00  0.00    -0.490 OA
BRANCH  50  51
ATOM     51  C   LIG d   1       7.049  -9.183  -3.858  0.00  0.00     0.102 C 
ATOM     52  H   LIG d   1       7.732  -8.969  -3.021  0.00  0.00     0.071 H 
ATOM     53  H   LIG d   1       6.021  -8.920  -3.568  0.00  0.00     0.071 H 
BRANCH  51  54
ATOM     54  C   LIG d   1       7.117 -10.671  -4.205  0.00  0.00     0.033 C 
ATOM     55  H   LIG d   1       7.574 -10.796  -5.198  0.00  0.00     0.046 H 
ATOM     56  H   LIG d   1       7.724 -11.196  -3.453  0.00  0.00     0.046 H 
BRANCH  54  57
ATOM     57  N   LIG d   1       5.759 -11.233  -4.218  0.00  0.00    -0.295 N 
ATOM     58  C   LIG d   1       4.836 -10.399  -3.435  0.00  0.00     0.022 C 
ATOM     59  C   LIG d   1       3.451 -11.050  -3.426  0.00  0.00     0.060 C 
ATOM     60  H   LIG d   1       5.207 -10.309  -2.403  0.00  0.00     0.045 H 
ATOM     61  H   LIG d   1       4.770  -9.399  -3.889  0.00  0.00     0.045 H 
ATOM     62  O   LIG d   1       3.006 -11.231  -4.773  0.00  0.00    -0.377 OA
ATOM     63  H   LIG d   1       2.742 -10.402  -2.890  0.00  0.00     0.057 H 
ATOM     64  H   LIG d   1       3.506 -12.027  -2.923  0.00  0.00     0.057 H 
ATOM     65  C   LIG d   1       3.881 -12.040  -5.565  0.00  0.00     0.060 C 
ATOM     66  C   LIG d   1       5.271 -11.398  -5.595  0.00  0.00     0.022 C 
ATOM     67  H   LIG d   1       3.489 -12.113  -6.589  0.00  0.00     0.057 H 
ATOM     68  H   LIG d   1       3.951 -13.046  -5.125  0.00  0.00     0.057 H 
ATOM     69  H   LIG d   1       5.212 -10.415  -6.083  0.00  0.00     0.045 H 
ATOM     70  H   LIG d   1       5.963 -12.045  -6.154  0.00  0.00     0.045 H 
ENDBRANCH  54  57
ENDBRANCH  51  54
ENDBRANCH  50  51
ENDBRANCH   3  50
TORSDOF 13
ENDMDL
MODEL 8
REMARK VINA RESULT:      -5.6      7.810     13.366
REMARK  13 active torsions:
REMARK  status: ('A' for Active; 'I' for Inactive)
REMARK    1  A    between atoms: C_1  and  C_2 
REMARK    2  A    between atoms: C_4  and  O_24 
REMARK    3  A    between atoms: C_5  and  C_23 
REMARK    4  A    between atoms: C_10  and  C_13 
REMARK    5  A    between atoms: C_13  and  C_15 
REMARK    6  A    between atoms: C_13  and  C_16 
REMARK       I    between atoms: C_16  and  N_18 
REMARK    7  A    between atoms: N_18  and  C_19 
REMARK    8  A    between atoms: C_19  and  C_20 
REMARK    9  A    between atoms: C_19  and  C_21 
REMARK   10  A    between atoms: C_19  and  C_22 
REMARK   11  A    between atoms: O_24  and  C_25 
REMARK   12  A    between atoms: C_25  and  C_26 
REMARK   13  A    between atoms: C_26  and  N_27 
ROOT
ATOM      1  C   LIG d   1       3.378  -1.306 -13.118  0.00  0.00    -0.043 A 
ATOM      2  C   LIG d   1       2.731  -2.437 -13.567  0.00  0.00    -0.017 A 
ATOM      3  C   LIG d   1       1.867  -3.118 -12.722  0.00  0.00     0.124 A 
ATOM      4  C   LIG d   1       1.660  -2.651 -11.435  0.00  0.00    -0.005 A 
ATOM      5  C   LIG d   1       2.309  -1.510 -10.986  0.00  0.00    -0.037 A 
ATOM      6  C   LIG d   1       3.171  -0.839 -11.825  0.00  0.00    -0.041 A 
ATOM      7  C   LIG d   1       3.916   0.400 -11.401  0.00  0.00    -0.027 C 
ATOM      8  C   LIG d   1       3.270   1.016 -10.162  0.00  0.00    -0.045 C 
ATOM      9  C   LIG d   1       3.107  -0.081  -9.104  0.00  0.00    -0.026 C 
ATOM     10  H   LIG d   1       4.058  -0.616  -8.961  0.00  0.00     0.031 H 
ATOM     11  C   LIG d   1       2.027  -1.053  -9.578  0.00  0.00    -0.024 C 
ATOM     12  H   LIG d   1       2.898  -2.793 -14.574  0.00  0.00     0.066 H 
ATOM     13  H   LIG d   1       4.958   0.139 -11.167  0.00  0.00     0.031 H 
ATOM     14  H   LIG d   1       3.895   1.137 -12.217  0.00  0.00     0.031 H 
ATOM     15  H   LIG d   1       3.914   1.820  -9.775  0.00  0.00     0.027 H 
ATOM     16  H   LIG d   1       2.286   1.430 -10.428  0.00  0.00     0.027 H 
ATOM     17  H   LIG d   1       1.052  -0.545  -9.546  0.00  0.00     0.032 H 
ATOM     18  H   LIG d   1       2.011  -1.922  -8.906  0.00  0.00     0.032 H 
ENDROOT
BRANCH   9  19
ATOM     19  C   LIG d   1       2.689   0.545  -7.772  0.00  0.00     0.036 C 
ATOM     20  H   LIG d   1       1.650   0.266  -7.538  0.00  0.00     0.039 H 
BRANCH  19  21
ATOM     21  C   LIG d   1       2.812   2.066  -7.862  0.00  0.00    -0.054 C 
ATOM     22  H   LIG d   1       1.837   2.498  -8.136  0.00  0.00     0.024 H 
ATOM     23  H   LIG d   1       3.557   2.329  -8.627  0.00  0.00     0.024 H 
ATOM     24  H   LIG d   1       3.129   2.467  -6.888  0.00  0.00     0.024 H 
ENDBRANCH  19  21
BRANCH  19  25
ATOM     25  C   LIG d   1       3.584   0.032  -6.673  0.00  0.00     0.216 C 
ATOM     26  O   LIG d   1       4.788   0.038  -6.818  0.00  0.00    -0.276 OA
ATOM     27  N   LIG d   1       3.046  -0.427  -5.525  0.00  0.00    -0.310 N 
ATOM     28  H   LIG d   1       1.954  -0.432  -5.393  0.00  0.00     0.149 HD
BRANCH  27  29
ATOM     29  C   LIG d   1       3.916  -0.920  -4.455  0.00  0.00     0.026 C 
BRANCH  29  30
ATOM     30  C   LIG d   1       4.626  -2.194  -4.920  0.00  0.00    -0.044 C 
ATOM     31  H   LIG d   1       4.806  -2.850  -4.056  0.00  0.00     0.025 H 
ATOM     32  H   LIG d   1       5.586  -1.928  -5.387  0.00  0.00     0.025 H 
ATOM     33  H   LIG d   1       3.994  -2.718  -5.654  0.00  0.00     0.025 H 
ENDBRANCH  29  30
BRANCH  29  34
ATOM     34  C   LIG d   1       4.957   0.147  -4.112  0.00  0.00    -0.044 C 
ATOM     35  H   LIG d   1       5.766  -0.307  -3.520  0.00  0.00     0.025 H 
ATOM     36  H   LIG d   1       4.481   0.950  -3.529  0.00  0.00     0.025 H 
ATOM     37  H   LIG d   1       5.374   0.565  -5.041  0.00  0.00     0.025 H 
ENDBRANCH  29  34
BRANCH  29  38
ATOM     38  C   LIG d   1       3.076  -1.230  -3.215  0.00  0.00    -0.044 C 
ATOM     39  H   LIG d   1       3.506  -0.716  -2.343  0.00  0.00     0.025 H 
ATOM     40  H   LIG d   1       3.071  -2.316  -3.036  0.00  0.00     0.025 H 
ATOM     41  H   LIG d   1       2.045  -0.880  -3.375  0.00  0.00     0.025 H 
ENDBRANCH  29  38
ENDBRANCH  27  29
ENDBRANCH  19  25
ENDBRANCH   9  19
BRANCH   4  42
ATOM     42  C   LIG d   1       0.721  -3.388 -10.515  0.00  0.00    -0.036 C 
ATOM     43  H   LIG d   1       0.517  -2.771  -9.628  0.00  0.00     0.028 H 
ATOM     44  H   LIG d   1       1.182  -4.336 -10.203  0.00  0.00     0.028 H 
ATOM     45  H   LIG d   1      -0.222  -3.596 -11.042  0.00  0.00     0.028 H 
ENDBRANCH   4  42
BRANCH   1  46
ATOM     46  C   LIG d   1       4.317  -0.567 -14.037  0.00  0.00    -0.039 C 
ATOM     47  H   LIG d   1       5.115  -1.247 -14.369  0.00  0.00     0.028 H 
ATOM     48  H   LIG d   1       4.760   0.284 -13.500  0.00  0.00     0.028 H 
ATOM     49  H   LIG d   1       3.761  -0.199 -14.911  0.00  0.00     0.028 H 
ENDBRANCH   1  46
BRANCH   3  50
ATOM     50  O   LIG d   1       1.228  -4.236 -13.155  0.00  0.00    -0.490 OA
BRANCH  50  51
ATOM     51  C   LIG d   1       0.089  -4.047 -13.998  0.00  0.00     0.102 C 
ATOM     52  H   LIG d   1      -0.304  -3.029 -13.860  0.00  0.00     0.071 H 
ATOM     53  H   LIG d   1       0.384  -4.187 -15.048  0.00  0.00     0.071 H 
BRANCH  51  54
ATOM     54  C   LIG d   1      -0.991  -5.066 -13.631  0.00  0.00     0.033 C 
ATOM     55  H   LIG d   1      -1.566  -5.331 -14.530  0.00  0.00     0.046 H 
ATOM     56  H   LIG d   1      -0.519  -5.969 -13.218  0.00  0.00     0.046 H 
BRANCH  54  57
ATOM     57  N   LIG d   1      -1.893  -4.482 -12.629  0.00  0.00    -0.295 N 
ATOM     58  C   LIG d   1      -3.112  -3.955 -13.260  0.00  0.00     0.022 C 
ATOM     59  C   LIG d   1      -3.994  -3.305 -12.191  0.00  0.00     0.060 C 
ATOM     60  H   LIG d   1      -2.839  -3.205 -14.017  0.00  0.00     0.045 H 
ATOM     61  H   LIG d   1      -3.662  -4.778 -13.740  0.00  0.00     0.045 H 
ATOM     62  O   LIG d   1      -4.284  -4.265 -11.171  0.00  0.00    -0.377 OA
ATOM     63  H   LIG d   1      -4.934  -2.960 -12.647  0.00  0.00     0.057 H 
ATOM     64  H   LIG d   1      -3.465  -2.448 -11.747  0.00  0.00     0.057 H 
ATOM     65  C   LIG d   1      -3.120  -4.799 -10.534  0.00  0.00     0.060 C 
ATOM     66  C   LIG d   1      -2.229  -5.464 -11.587  0.00  0.00     0.022 C 
ATOM     67  H   LIG d   1      -3.420  -5.544  -9.784  0.00  0.00     0.057 H 
ATOM     68  H   LIG d   1      -2.564  -3.986 -10.043  0.00  0.00     0.057 H 
ATOM     69  H   LIG d   1      -2.764  -6.311 -12.041  0.00  0.00     0.045 H 
ATOM     70  H   LIG d   1      -1.305  -5.826 -11.112  0.00  0.00     0.045 H 
ENDBRANCH  54  57
ENDBRANCH  51  54
ENDBRANCH  50  51
ENDBRANCH   3  50
TORSDOF 13
ENDMDL
MODEL 9
REMARK VINA RESULT:      -5.5      2.353      8.369
REMARK  13 active torsions:
REMARK  status: ('A' for Active; 'I' for Inactive)
REMARK    1  A    between atoms: C_1  and  C_2 
REMARK    2  A    between atoms: C_4  and  O_24 
REMARK    3  A    between atoms: C_5  and  C_23 
REMARK    4  A    between atoms: C_10  and  C_13 
REMARK    5  A    between atoms: C_13  and  C_15 
REMARK    6  A    between atoms: C_13  and  C_16 
REMARK       I    between atoms: C_16  and  N_18 
REMARK    7  A    between atoms: N_18  and  C_19 
REMARK    8  A    between atoms: C_19  and  C_20 
REMARK    9  A    between atoms: C_19  and  C_21 
REMARK   10  A    between atoms: C_19  and  C_22 
REMARK   11  A    between atoms: O_24  and  C_25 
REMARK   12  A    between atoms: C_25  and  C_26 
REMARK   13  A    between atoms: C_26  and  N_27 
ROOT
ATOM      1  C   LIG d   1       9.746   4.572  -7.393  0.00  0.00    -0.043 A 
ATOM      2  C   LIG d   1       9.679   3.215  -7.166  0.00  0.00    -0.017 A 
ATOM      3  C   LIG d   1       9.586   2.738  -5.866  0.00  0.00     0.124 A 
ATOM      4  C   LIG d   1       9.556   3.632  -4.810  0.00  0.00    -0.005 A 
ATOM      5  C   LIG d   1       9.621   4.999  -5.041  0.00  0.00    -0.037 A 
ATOM      6  C   LIG d   1       9.719   5.470  -6.332  0.00  0.00    -0.041 A 
ATOM      7  C   LIG d   1       9.802   6.939  -6.655  0.00  0.00    -0.027 C 
ATOM      8  C   LIG d   1       9.329   7.777  -5.469  0.00  0.00    -0.045 C 
ATOM      9  C   LIG d   1      10.077   7.308  -4.216  0.00  0.00    -0.026 C 
ATOM     10  H   LIG d   1      11.160   7.276  -4.408  0.00  0.00     0.031 H 
ATOM     11  C   LIG d   1       9.572   5.914  -3.845  0.00  0.00    -0.024 C 
ATOM     12  H   LIG d   1       9.701   2.524  -7.996  0.00  0.00     0.066 H 
ATOM     13  H   LIG d   1      10.843   7.205  -6.887  0.00  0.00     0.031 H 
ATOM     14  H   LIG d   1       9.164   7.159  -7.524  0.00  0.00     0.031 H 
ATOM     15  H   LIG d   1       9.545   8.838  -5.661  0.00  0.00     0.027 H 
ATOM     16  H   LIG d   1       8.246   7.641  -5.333  0.00  0.00     0.027 H 
ATOM     17  H   LIG d   1       8.535   5.995  -3.487  0.00  0.00     0.032 H 
ATOM     18  H   LIG d   1      10.207   5.507  -3.045  0.00  0.00     0.032 H 
ENDROOT
BRANCH   9  19
ATOM     19  C   LIG d   1       9.809   8.277  -3.063  0.00  0.00     0.036 C 
ATOM     20  H   LIG d   1       8.728   8.459  -2.971  0.00  0.00     0.039 H 
BRANCH  19  21
ATOM     21  C   LIG d   1      10.538   9.595  -3.325  0.00  0.00    -0.054 C 
ATOM     22  H   LIG d   1      10.336  10.297  -2.501  0.00  0.00     0.024 H 
ATOM     23  H   LIG d   1      10.184  10.029  -4.271  0.00  0.00     0.024 H 
ATOM     24  H   LIG d   1      11.621   9.410  -3.389  0.00  0.00     0.024 H 
ENDBRANCH  19  21
BRANCH  19  25
ATOM     25  C   LIG d   1      10.307   7.674  -1.774  0.00  0.00     0.216 C 
ATOM     26  O   LIG d   1       9.522   7.398  -0.891  0.00  0.00    -0.276 OA
ATOM     27  N   LIG d   1      11.623   7.436  -1.605  0.00  0.00    -0.310 N 
ATOM     28  H   LIG d   1      12.334   7.686  -2.406  0.00  0.00     0.149 HD
BRANCH  27  29
ATOM     29  C   LIG d   1      12.105   6.844  -0.355  0.00  0.00     0.026 C 
BRANCH  29  30
ATOM     30  C   LIG d   1      11.521   5.438  -0.197  0.00  0.00    -0.044 C 
ATOM     31  H   LIG d   1      10.979   5.372   0.757  0.00  0.00     0.025 H 
ATOM     32  H   LIG d   1      12.336   4.700  -0.210  0.00  0.00     0.025 H 
ATOM     33  H   LIG d   1      10.828   5.234  -1.028  0.00  0.00     0.025 H 
ENDBRANCH  29  30
BRANCH  29  34
ATOM     34  C   LIG d   1      13.633   6.761  -0.387  0.00  0.00    -0.044 C 
ATOM     35  H   LIG d   1      14.047   7.295   0.481  0.00  0.00     0.025 H 
ATOM     36  H   LIG d   1      14.005   7.221  -1.314  0.00  0.00     0.025 H 
ATOM     37  H   LIG d   1      13.943   5.706  -0.349  0.00  0.00     0.025 H 
ENDBRANCH  29  34
BRANCH  29  38
ATOM     38  C   LIG d   1      11.666   7.713   0.825  0.00  0.00    -0.044 C 
ATOM     39  H   LIG d   1      11.553   7.086   1.720  0.00  0.00     0.025 H 
ATOM     40  H   LIG d   1      10.704   8.194   0.589  0.00  0.00     0.025 H 
ATOM     41  H   LIG d   1      12.425   8.487   1.012  0.00  0.00     0.025 H 
ENDBRANCH  29  38
ENDBRANCH  27  29
ENDBRANCH  19  25
ENDBRANCH   9  19
BRANCH   4  42
ATOM     42  C   LIG d   1       9.454   3.117  -3.397  0.00  0.00    -0.036 C 
ATOM     43  H   LIG d   1       8.819   2.220  -3.378  0.00  0.00     0.028 H 
ATOM     44  H   LIG d   1       9.012   3.892  -2.755  0.00  0.00     0.028 H 
ATOM     45  H   LIG d   1      10.458   2.863  -3.025  0.00  0.00     0.028 H 
ENDBRANCH   4  42
BRANCH   1  46
ATOM     46  C   LIG d   1       9.848   5.090  -8.805  0.00  0.00    -0.039 C 
ATOM     47  H   LIG d   1      10.893   5.355  -9.023  0.00  0.00     0.028 H 
ATOM     48  H   LIG d   1       9.213   5.981  -8.915  0.00  0.00     0.028 H 
ATOM     49  H   LIG d   1       9.513   4.312  -9.505  0.00  0.00     0.028 H 
ENDBRANCH   1  46
BRANCH   3  50
ATOM     50  O   LIG d   1       9.522   1.401  -5.632  0.00  0.00    -0.490 OA
BRANCH  50  51
ATOM     51  C   LIG d   1       8.265   0.761  -5.857  0.00  0.00     0.102 C 
ATOM     52  H   LIG d   1       7.454   1.496  -5.739  0.00  0.00     0.071 H 
ATOM     53  H   LIG d   1       8.240   0.349  -6.877  0.00  0.00     0.071 H 
BRANCH  51  54
ATOM     54  C   LIG d   1       8.080  -0.371  -4.845  0.00  0.00     0.033 C 
ATOM     55  H   LIG d   1       8.179  -1.340  -5.357  0.00  0.00     0.046 H 
ATOM     56  H   LIG d   1       8.845  -0.290  -4.060  0.00  0.00     0.046 H 
BRANCH  54  57
ATOM     57  N   LIG d   1       6.744  -0.272  -4.241  0.00  0.00    -0.295 N 
ATOM     58  C   LIG d   1       6.607   0.969  -3.465  0.00  0.00     0.022 C 
ATOM     59  C   LIG d   1       5.225   1.003  -2.806  0.00  0.00     0.060 C 
ATOM     60  H   LIG d   1       7.386   1.005  -2.689  0.00  0.00     0.045 H 
ATOM     61  H   LIG d   1       6.716   1.834  -4.135  0.00  0.00     0.045 H 
ATOM     62  O   LIG d   1       4.219   0.880  -3.814  0.00  0.00    -0.377 OA
ATOM     63  H   LIG d   1       5.094   1.955  -2.271  0.00  0.00     0.057 H 
ATOM     64  H   LIG d   1       5.136   0.168  -2.095  0.00  0.00     0.057 H 
ATOM     65  C   LIG d   1       4.322  -0.318  -4.589  0.00  0.00     0.060 C 
ATOM     66  C   LIG d   1       5.694  -0.365  -5.266  0.00  0.00     0.022 C 
ATOM     67  H   LIG d   1       3.534  -0.330  -5.356  0.00  0.00     0.057 H 
ATOM     68  H   LIG d   1       4.207  -1.193  -3.931  0.00  0.00     0.057 H 
ATOM     69  H   LIG d   1       5.789   0.479  -5.965  0.00  0.00     0.045 H 
ATOM     70  H   LIG d   1       5.802  -1.311  -5.817  0.00  0.00     0.045 H 
ENDBRANCH  54  57
ENDBRANCH  51  54
ENDBRANCH  50  51
ENDBRANCH   3  50
TORSDOF 13
ENDMDL
