MODEL 1
REMARK VINA RESULT:      -6.7      0.000      0.000
REMARK  13 active torsions:
REMARK  status: ('A' for Active; 'I' for Inactive)
REMARK    1  A    between atoms: C_3  and  O_39 
REMARK    2  A    between atoms: C_4  and  O_38 
REMARK    3  A    between atoms: C_6  and  C_7 
REMARK    4  A    between atoms: C_8  and  O_37 
REMARK    5  A    between atoms: C_12  and  O_36 
REMARK    6  A    between atoms: C_14  and  O_35 
REMARK    7  A    between atoms: C_15  and  O_18 
REMARK    8  A    between atoms: O_18  and  C_19 
REMARK    9  A    between atoms: C_21  and  O_34 
REMARK   10  A    between atoms: C_23  and  O_33 
REMARK   11  A    between atoms: C_25  and  O_32 
REMARK   12  A    between atoms: C_27  and  C_30 
REMARK   13  A    between atoms: C_30  and  O_31 
ROOT
ATOM      1  C   LIG d   1      11.061   7.676  -4.379  0.00  0.00     0.181 A 
ATOM      2  C   LIG d   1      10.995   6.320  -4.499  0.00  0.00     0.208 A 
ATOM      3  C   LIG d   1      11.053   5.512  -3.334  0.00  0.00     0.238 A 
ATOM      4  O   LIG d   1      10.997   4.294  -3.403  0.00  0.00    -0.283 OA
ATOM      5  C   LIG d   1      11.184   6.199  -2.039  0.00  0.00     0.113 A 
ATOM      6  C   LIG d   1      11.249   5.480  -0.838  0.00  0.00     0.135 A 
ATOM      7  C   LIG d   1      11.372   6.160   0.359  0.00  0.00     0.026 A 
ATOM      8  C   LIG d   1      11.430   7.549   0.371  0.00  0.00     0.166 A 
ATOM      9  C   LIG d   1      11.366   8.271  -0.814  0.00  0.00     0.208 A 
ATOM     10  C   LIG d   1      11.243   7.604  -2.027  0.00  0.00     0.188 A 
ATOM     11  O   LIG d   1      11.186   8.289  -3.190  0.00  0.00    -0.447 OA
ATOM     12  H   LIG d   1      11.421   5.611   1.286  0.00  0.00     0.069 H 
ENDROOT
BRANCH   9  13
ATOM     13  O   LIG d   1      11.425   9.631  -0.788  0.00  0.00    -0.453 OA
BRANCH  13  14
ATOM     14  C   LIG d   1      10.275  10.321  -0.294  0.00  0.00     0.231 C 
ATOM     15  H   LIG d   1       9.770   9.702   0.446  0.00  0.00     0.108 H 
ATOM     16  O   LIG d   1       9.383  10.594  -1.377  0.00  0.00    -0.331 OA
ATOM     17  C   LIG d   1       9.956  11.381  -2.422  0.00  0.00     0.114 C 
ATOM     18  C   LIG d   1      10.377  12.742  -1.862  0.00  0.00     0.112 C 
ATOM     19  H   LIG d   1      10.830  10.869  -2.826  0.00  0.00     0.065 H 
ATOM     20  C   LIG d   1      11.365  12.528  -0.711  0.00  0.00     0.115 C 
ATOM     21  H   LIG d   1      10.855  13.327  -2.647  0.00  0.00     0.065 H 
ATOM     22  C   LIG d   1      10.710  11.640   0.351  0.00  0.00     0.145 C 
ATOM     23  H   LIG d   1      12.266  12.041  -1.088  0.00  0.00     0.065 H 
ATOM     24  H   LIG d   1      11.425  11.436   1.148  0.00  0.00     0.068 H 
BRANCH  17  25
ATOM     25  C   LIG d   1       8.924  11.584  -3.533  0.00  0.00     0.073 C 
ATOM     26  H   LIG d   1       9.098  12.543  -4.020  0.00  0.00     0.058 H 
ATOM     27  H   LIG d   1       9.018  10.783  -4.267  0.00  0.00     0.058 H 
BRANCH  25  28
ATOM     28  O   LIG d   1       7.610  11.565  -2.972  0.00  0.00    -0.392 OA
ATOM     29  H   LIG d   1       6.946  11.154  -3.542  0.00  0.00     0.209 HD
ENDBRANCH  25  28
ENDBRANCH  17  25
BRANCH  18  30
ATOM     30  O   LIG d   1       9.227  13.439  -1.380  0.00  0.00    -0.387 OA
ATOM     31  H   LIG d   1       9.038  14.262  -1.852  0.00  0.00     0.210 HD
ENDBRANCH  18  30
BRANCH  20  32
ATOM     32  O   LIG d   1      11.710  13.789  -0.133  0.00  0.00    -0.386 OA
ATOM     33  H   LIG d   1      10.975  14.416  -0.090  0.00  0.00     0.210 HD
ENDBRANCH  20  32
BRANCH  22  34
ATOM     34  O   LIG d   1       9.568  12.305   0.893  0.00  0.00    -0.383 OA
ATOM     35  H   LIG d   1       9.320  13.111   0.418  0.00  0.00     0.210 HD
ENDBRANCH  22  34
ENDBRANCH  13  14
ENDBRANCH   9  13
BRANCH   8  36
ATOM     36  O   LIG d   1      11.551   8.207   1.554  0.00  0.00    -0.503 OA
ATOM     37  H   LIG d   1      11.337   7.668   2.327  0.00  0.00     0.292 HD
ENDBRANCH   8  36
BRANCH   6  38
ATOM     38  O   LIG d   1      11.191   4.123  -0.851  0.00  0.00    -0.506 OA
ATOM     39  H   LIG d   1      10.737   3.741  -0.088  0.00  0.00     0.292 HD
ENDBRANCH   6  38
BRANCH   1  40
ATOM     40  C   LIG d   1      11.000   8.501  -5.600  0.00  0.00     0.025 A 
ATOM     41  C   LIG d   1      12.106   9.265  -5.984  0.00  0.00    -0.047 A 
ATOM     42  C   LIG d   1      12.046  10.035  -7.126  0.00  0.00    -0.016 A 
ATOM     43  H   LIG d   1      13.007   9.248  -5.389  0.00  0.00     0.063 H 
ATOM     44  C   LIG d   1      10.891  10.055  -7.895  0.00  0.00     0.158 A 
ATOM     45  H   LIG d   1      12.901  10.626  -7.421  0.00  0.00     0.066 H 
ATOM     46  C   LIG d   1       9.785   9.295  -7.518  0.00  0.00     0.159 A 
ATOM     47  C   LIG d   1       9.837   8.520  -6.375  0.00  0.00    -0.006 A 
ATOM     48  H   LIG d   1       8.981   7.932  -6.082  0.00  0.00     0.066 H 
BRANCH  44  49
ATOM     49  O   LIG d   1      10.839  10.817  -9.019  0.00  0.00    -0.503 OA
ATOM     50  H   LIG d   1      11.481  11.540  -9.034  0.00  0.00     0.292 HD
ENDBRANCH  44  49
BRANCH  46  51
ATOM     51  O   LIG d   1       8.656   9.317  -8.274  0.00  0.00    -0.503 OA
ATOM     52  H   LIG d   1       8.673   9.969  -8.987  0.00  0.00     0.292 HD
ENDBRANCH  46  51
ENDBRANCH   1  40
BRANCH   2  53
ATOM     53  O   LIG d   1      10.875   5.745  -5.727  0.00  0.00    -0.501 OA
ATOM     54  H   LIG d   1      10.456   6.314  -6.388  0.00  0.00     0.292 HD
ENDBRANCH   2  53
TORSDOF 13
ENDMDL
MODEL 2
REMARK VINA RESULT:      -6.7      1.900      2.680
REMARK  13 active torsions:
REMARK  status: ('A' for Active; 'I' for Inactive)
REMARK    1  A    between atoms: C_3  and  O_39 
REMARK    2  A    between atoms: C_4  and  O_38 
REMARK    3  A    between atoms: C_6  and  C_7 
REMARK    4  A    between atoms: C_8  and  O_37 
REMARK    5  A    between atoms: C_12  and  O_36 
REMARK    6  A    between atoms: C_14  and  O_35 
REMARK    7  A    between atoms: C_15  and  O_18 
REMARK    8  A    between atoms: O_18  and  C_19 
REMARK    9  A    between atoms: C_21  and  O_34 
REMARK   10  A    between atoms: C_23  and  O_33 
REMARK   11  A    between atoms: C_25  and  O_32 
REMARK   12  A    between atoms: C_27  and  C_30 
REMARK   13  A    between atoms: C_30  and  O_31 
ROOT
ATOM      1  C   LIG d   1       9.869   6.922  -4.772  0.00  0.00     0.181 A 
ATOM      2  C   LIG d   1       9.761   5.699  -4.182  0.00  0.00     0.208 A 
ATOM      3  C   LIG d   1       9.937   5.584  -2.778  0.00  0.00     0.238 A 
ATOM      4  O   LIG d   1       9.848   4.505  -2.214  0.00  0.00    -0.283 OA
ATOM      5  C   LIG d   1      10.231   6.816  -2.029  0.00  0.00     0.113 A 
ATOM      6  C   LIG d   1      10.420   6.794  -0.640  0.00  0.00     0.135 A 
ATOM      7  C   LIG d   1      10.696   7.972   0.029  0.00  0.00     0.026 A 
ATOM      8  C   LIG d   1      10.785   9.170  -0.671  0.00  0.00     0.166 A 
ATOM      9  C   LIG d   1      10.598   9.201  -2.047  0.00  0.00     0.208 A 
ATOM     10  C   LIG d   1      10.321   8.027  -2.737  0.00  0.00     0.188 A 
ATOM     11  O   LIG d   1      10.144   8.038  -4.076  0.00  0.00    -0.447 OA
ATOM     12  H   LIG d   1      10.841   7.961   1.098  0.00  0.00     0.069 H 
ENDROOT
BRANCH   9  13
ATOM     13  O   LIG d   1      10.688  10.381  -2.720  0.00  0.00    -0.453 OA
BRANCH  13  14
ATOM     14  C   LIG d   1       9.467  10.957  -3.188  0.00  0.00     0.231 C 
ATOM     15  H   LIG d   1       8.633  10.312  -2.914  0.00  0.00     0.108 H 
ATOM     16  O   LIG d   1       9.519  11.093  -4.609  0.00  0.00    -0.331 OA
ATOM     17  C   LIG d   1      10.597  11.903  -5.080  0.00  0.00     0.114 C 
ATOM     18  C   LIG d   1      10.452  13.320  -4.520  0.00  0.00     0.112 C 
ATOM     19  H   LIG d   1      11.544  11.477  -4.747  0.00  0.00     0.065 H 
ATOM     20  C   LIG d   1      10.422  13.256  -2.989  0.00  0.00     0.115 C 
ATOM     21  H   LIG d   1      11.298  13.928  -4.841  0.00  0.00     0.065 H 
ATOM     22  C   LIG d   1       9.277  12.337  -2.551  0.00  0.00     0.145 C 
ATOM     23  H   LIG d   1      11.368  12.859  -2.621  0.00  0.00     0.065 H 
ATOM     24  H   LIG d   1       9.282  12.240  -1.465  0.00  0.00     0.068 H 
BRANCH  17  25
ATOM     25  C   LIG d   1      10.569  11.953  -6.609  0.00  0.00     0.073 C 
ATOM     26  H   LIG d   1      10.975  12.906  -6.949  0.00  0.00     0.058 H 
ATOM     27  H   LIG d   1      11.172  11.138  -7.010  0.00  0.00     0.058 H 
BRANCH  25  28
ATOM     28  O   LIG d   1       9.222  11.818  -7.065  0.00  0.00    -0.392 OA
ATOM     29  H   LIG d   1       9.097  11.116  -7.717  0.00  0.00     0.209 HD
ENDBRANCH  25  28
ENDBRANCH  17  25
BRANCH  18  30
ATOM     30  O   LIG d   1       9.238  13.902  -4.997  0.00  0.00    -0.387 OA
ATOM     31  H   LIG d   1       8.563  13.255  -5.248  0.00  0.00     0.210 HD
ENDBRANCH  18  30
BRANCH  20  32
ATOM     32  O   LIG d   1      10.213  14.565  -2.457  0.00  0.00    -0.386 OA
ATOM     33  H   LIG d   1      10.996  15.132  -2.488  0.00  0.00     0.210 HD
ENDBRANCH  20  32
BRANCH  22  34
ATOM     34  O   LIG d   1       8.030  12.890  -2.976  0.00  0.00    -0.383 OA
ATOM     35  H   LIG d   1       7.263  12.339  -2.766  0.00  0.00     0.210 HD
ENDBRANCH  22  34
ENDBRANCH  13  14
ENDBRANCH   9  13
BRANCH   8  36
ATOM     36  O   LIG d   1      11.055  10.322  -0.002  0.00  0.00    -0.503 OA
ATOM     37  H   LIG d   1      10.815  10.298   0.934  0.00  0.00     0.292 HD
ENDBRANCH   8  36
BRANCH   6  38
ATOM     38  O   LIG d   1      10.333   5.624   0.042  0.00  0.00    -0.506 OA
ATOM     39  H   LIG d   1       9.951   4.897  -0.468  0.00  0.00     0.292 HD
ENDBRANCH   6  38
BRANCH   1  40
ATOM     40  C   LIG d   1       9.684   7.025  -6.232  0.00  0.00     0.025 A 
ATOM     41  C   LIG d   1      10.085   5.975  -7.064  0.00  0.00    -0.047 A 
ATOM     42  C   LIG d   1       9.911   6.073  -8.428  0.00  0.00    -0.016 A 
ATOM     43  H   LIG d   1      10.527   5.087  -6.637  0.00  0.00     0.063 H 
ATOM     44  C   LIG d   1       9.339   7.212  -8.978  0.00  0.00     0.158 A 
ATOM     45  H   LIG d   1      10.222   5.262  -9.069  0.00  0.00     0.066 H 
ATOM     46  C   LIG d   1       8.937   8.262  -8.155  0.00  0.00     0.159 A 
ATOM     47  C   LIG d   1       9.108   8.171  -6.787  0.00  0.00    -0.006 A 
ATOM     48  H   LIG d   1       8.797   8.985  -6.148  0.00  0.00     0.066 H 
BRANCH  44  49
ATOM     49  O   LIG d   1       9.171   7.302 -10.323  0.00  0.00    -0.503 OA
ATOM     50  H   LIG d   1       9.022   6.452 -10.759  0.00  0.00     0.292 HD
ENDBRANCH  44  49
BRANCH  46  51
ATOM     51  O   LIG d   1       8.377   9.376  -8.698  0.00  0.00    -0.503 OA
ATOM     52  H   LIG d   1       8.723  10.204  -8.338  0.00  0.00     0.292 HD
ENDBRANCH  46  51
ENDBRANCH   1  40
BRANCH   2  53
ATOM     53  O   LIG d   1       9.487   4.597  -4.931  0.00  0.00    -0.501 OA
ATOM     54  H   LIG d   1       8.632   4.631  -5.382  0.00  0.00     0.292 HD
ENDBRANCH   2  53
TORSDOF 13
ENDMDL
MODEL 3
REMARK VINA RESULT:      -6.5      2.152      7.028
REMARK  13 active torsions:
REMARK  status: ('A' for Active; 'I' for Inactive)
REMARK    1  A    between atoms: C_3  and  O_39 
REMARK    2  A    between atoms: C_4  and  O_38 
REMARK    3  A    between atoms: C_6  and  C_7 
REMARK    4  A    between atoms: C_8  and  O_37 
REMARK    5  A    between atoms: C_12  and  O_36 
REMARK    6  A    between atoms: C_14  and  O_35 
REMARK    7  A    between atoms: C_15  and  O_18 
REMARK    8  A    between atoms: O_18  and  C_19 
REMARK    9  A    between atoms: C_21  and  O_34 
REMARK   10  A    between atoms: C_23  and  O_33 
REMARK   11  A    between atoms: C_25  and  O_32 
REMARK   12  A    between atoms: C_27  and  C_30 
REMARK   13  A    between atoms: C_30  and  O_31 
ROOT
ATOM      1  C   LIG d   1      10.499   6.194  -2.648  0.00  0.00     0.181 A 
ATOM      2  C   LIG d   1      10.219   6.532  -1.358  0.00  0.00     0.208 A 
ATOM      3  C   LIG d   1       9.911   7.880  -1.039  0.00  0.00     0.238 A 
ATOM      4  O   LIG d   1       9.655   8.219   0.105  0.00  0.00    -0.283 OA
ATOM      5  C   LIG d   1       9.914   8.853  -2.143  0.00  0.00     0.113 A 
ATOM      6  C   LIG d   1       9.622  10.206  -1.920  0.00  0.00     0.135 A 
ATOM      7  C   LIG d   1       9.635  11.091  -2.981  0.00  0.00     0.026 A 
ATOM      8  C   LIG d   1       9.935  10.642  -4.262  0.00  0.00     0.166 A 
ATOM      9  C   LIG d   1      10.225   9.303  -4.494  0.00  0.00     0.208 A 
ATOM     10  C   LIG d   1      10.217   8.399  -3.439  0.00  0.00     0.188 A 
ATOM     11  O   LIG d   1      10.503   7.096  -3.644  0.00  0.00    -0.447 OA
ATOM     12  H   LIG d   1       9.410  12.133  -2.815  0.00  0.00     0.069 H 
ENDROOT
BRANCH   9  13
ATOM     13  O   LIG d   1      10.517   8.878  -5.754  0.00  0.00    -0.453 OA
BRANCH  13  14
ATOM     14  C   LIG d   1       9.419   8.470  -6.573  0.00  0.00     0.231 C 
ATOM     15  H   LIG d   1       8.483   8.675  -6.054  0.00  0.00     0.108 H 
ATOM     16  O   LIG d   1       9.519   7.070  -6.841  0.00  0.00    -0.331 OA
ATOM     17  C   LIG d   1      10.727   6.686  -7.499  0.00  0.00     0.114 C 
ATOM     18  C   LIG d   1      10.813   7.389  -8.857  0.00  0.00     0.112 C 
ATOM     19  H   LIG d   1      11.583   6.974  -6.887  0.00  0.00     0.065 H 
ATOM     20  C   LIG d   1      10.744   8.904  -8.644  0.00  0.00     0.115 C 
ATOM     21  H   LIG d   1      11.755   7.133  -9.341  0.00  0.00     0.065 H 
ATOM     22  C   LIG d   1       9.452   9.244  -7.893  0.00  0.00     0.145 C 
ATOM     23  H   LIG d   1      11.603   9.231  -8.057  0.00  0.00     0.065 H 
ATOM     24  H   LIG d   1       9.421  10.315  -7.688  0.00  0.00     0.068 H 
BRANCH  17  25
ATOM     25  C   LIG d   1      10.736   5.171  -7.708  0.00  0.00     0.073 C 
ATOM     26  H   LIG d   1      11.346   4.927  -8.577  0.00  0.00     0.058 H 
ATOM     27  H   LIG d   1      11.153   4.685  -6.825  0.00  0.00     0.058 H 
BRANCH  25  28
ATOM     28  O   LIG d   1       9.400   4.711  -7.918  0.00  0.00    -0.392 OA
ATOM     29  H   LIG d   1       9.212   3.852  -7.515  0.00  0.00     0.209 HD
ENDBRANCH  25  28
ENDBRANCH  17  25
BRANCH  18  30
ATOM     30  O   LIG d   1       9.723   6.972  -9.681  0.00  0.00    -0.387 OA
ATOM     31  H   LIG d   1       9.960   6.839 -10.609  0.00  0.00     0.210 HD
ENDBRANCH  18  30
BRANCH  20  32
ATOM     32  O   LIG d   1      10.749   9.568  -9.909  0.00  0.00    -0.386 OA
ATOM     33  H   LIG d   1      11.547   9.411 -10.432  0.00  0.00     0.210 HD
ENDBRANCH  20  32
BRANCH  22  34
ATOM     34  O   LIG d   1       8.325   8.878  -8.690  0.00  0.00    -0.383 OA
ATOM     35  H   LIG d   1       8.129   7.930  -8.682  0.00  0.00     0.210 HD
ENDBRANCH  22  34
ENDBRANCH  13  14
ENDBRANCH   9  13
BRANCH   8  36
ATOM     36  O   LIG d   1       9.943  11.521  -5.299  0.00  0.00    -0.503 OA
ATOM     37  H   LIG d   1       9.642  12.409  -5.064  0.00  0.00     0.292 HD
ENDBRANCH   8  36
BRANCH   6  38
ATOM     38  O   LIG d   1       9.329  10.643  -0.668  0.00  0.00    -0.506 OA
ATOM     39  H   LIG d   1       9.648  10.064   0.037  0.00  0.00     0.292 HD
ENDBRANCH   6  38
BRANCH   1  40
ATOM     40  C   LIG d   1      10.817   4.788  -2.961  0.00  0.00     0.025 A 
ATOM     41  C   LIG d   1      12.147   4.393  -3.131  0.00  0.00    -0.047 A 
ATOM     42  C   LIG d   1      12.442   3.079  -3.424  0.00  0.00    -0.016 A 
ATOM     43  H   LIG d   1      12.942   5.116  -3.030  0.00  0.00     0.063 H 
ATOM     44  C   LIG d   1      11.421   2.146  -3.550  0.00  0.00     0.158 A 
ATOM     45  H   LIG d   1      13.469   2.774  -3.557  0.00  0.00     0.066 H 
ATOM     46  C   LIG d   1      10.093   2.534  -3.381  0.00  0.00     0.159 A 
ATOM     47  C   LIG d   1       9.790   3.849  -3.088  0.00  0.00    -0.006 A 
ATOM     48  H   LIG d   1       8.761   4.150  -2.957  0.00  0.00     0.066 H 
BRANCH  44  49
ATOM     49  O   LIG d   1      11.719   0.852  -3.839  0.00  0.00    -0.503 OA
ATOM     50  H   LIG d   1      11.792   0.668  -4.786  0.00  0.00     0.292 HD
ENDBRANCH  44  49
BRANCH  46  51
ATOM     51  O   LIG d   1       9.096   1.617  -3.505  0.00  0.00    -0.503 OA
ATOM     52  H   LIG d   1       8.208   1.999  -3.494  0.00  0.00     0.292 HD
ENDBRANCH  46  51
ENDBRANCH   1  40
BRANCH   2  53
ATOM     53  O   LIG d   1      10.233   5.583  -0.382  0.00  0.00    -0.501 OA
ATOM     54  H   LIG d   1       9.359   5.372  -0.026  0.00  0.00     0.292 HD
ENDBRANCH   2  53
TORSDOF 13
ENDMDL
MODEL 4
REMARK VINA RESULT:      -6.5      2.053      6.594
REMARK  13 active torsions:
REMARK  status: ('A' for Active; 'I' for Inactive)
REMARK    1  A    between atoms: C_3  and  O_39 
REMARK    2  A    between atoms: C_4  and  O_38 
REMARK    3  A    between atoms: C_6  and  C_7 
REMARK    4  A    between atoms: C_8  and  O_37 
REMARK    5  A    between atoms: C_12  and  O_36 
REMARK    6  A    between atoms: C_14  and  O_35 
REMARK    7  A    between atoms: C_15  and  O_18 
REMARK    8  A    between atoms: O_18  and  C_19 
REMARK    9  A    between atoms: C_21  and  O_34 
REMARK   10  A    between atoms: C_23  and  O_33 
REMARK   11  A    between atoms: C_25  and  O_32 
REMARK   12  A    between atoms: C_27  and  C_30 
REMARK   13  A    between atoms: C_30  and  O_31 
ROOT
ATOM      1  C   LIG d   1      10.113   9.182  -3.087  0.00  0.00     0.181 A 
ATOM      2  C   LIG d   1       9.919   8.545  -1.898  0.00  0.00     0.208 A 
ATOM      3  C   LIG d   1       9.903   7.126  -1.860  0.00  0.00     0.238 A 
ATOM      4  O   LIG d   1       9.732   6.521  -0.814  0.00  0.00    -0.283 OA
ATOM      5  C   LIG d   1      10.100   6.413  -3.132  0.00  0.00     0.113 A 
ATOM      6  C   LIG d   1      10.098   5.013  -3.188  0.00  0.00     0.135 A 
ATOM      7  C   LIG d   1      10.285   4.378  -4.401  0.00  0.00     0.026 A 
ATOM      8  C   LIG d   1      10.475   5.124  -5.559  0.00  0.00     0.166 A 
ATOM      9  C   LIG d   1      10.479   6.513  -5.514  0.00  0.00     0.208 A 
ATOM     10  C   LIG d   1      10.292   7.168  -4.303  0.00  0.00     0.188 A 
ATOM     11  O   LIG d   1      10.286   8.517  -4.241  0.00  0.00    -0.447 OA
ATOM     12  H   LIG d   1      10.286   3.300  -4.450  0.00  0.00     0.069 H 
ENDROOT
BRANCH   9  13
ATOM     13  O   LIG d   1      10.666   7.231  -6.655  0.00  0.00    -0.453 OA
BRANCH  13  14
ATOM     14  C   LIG d   1       9.496   7.603  -7.387  0.00  0.00     0.231 C 
ATOM     15  H   LIG d   1       8.627   7.555  -6.731  0.00  0.00     0.108 H 
ATOM     16  O   LIG d   1       9.316   6.705  -8.484  0.00  0.00    -0.331 OA
ATOM     17  C   LIG d   1      10.415   6.670  -9.397  0.00  0.00     0.114 C 
ATOM     18  C   LIG d   1      10.614   8.059 -10.009  0.00  0.00     0.112 C 
ATOM     19  H   LIG d   1      11.320   6.374  -8.865  0.00  0.00     0.065 H 
ATOM     20  C   LIG d   1      10.846   9.074  -8.885  0.00  0.00     0.115 C 
ATOM     21  H   LIG d   1      11.479   8.045 -10.670  0.00  0.00     0.065 H 
ATOM     22  C   LIG d   1       9.659   9.029  -7.918  0.00  0.00     0.145 C 
ATOM     23  H   LIG d   1      11.762   8.824  -8.349  0.00  0.00     0.065 H 
ATOM     24  H   LIG d   1       9.841   9.709  -7.085  0.00  0.00     0.068 H 
BRANCH  17  25
ATOM     25  C   LIG d   1      10.123   5.660 -10.508  0.00  0.00     0.073 C 
ATOM     26  H   LIG d   1      10.641   5.961 -11.418  0.00  0.00     0.058 H 
ATOM     27  H   LIG d   1      10.471   4.673 -10.202  0.00  0.00     0.058 H 
BRANCH  25  28
ATOM     28  O   LIG d   1       8.716   5.613 -10.753  0.00  0.00    -0.392 OA
ATOM     29  H   LIG d   1       8.405   4.764 -11.093  0.00  0.00     0.209 HD
ENDBRANCH  25  28
ENDBRANCH  17  25
BRANCH  18  30
ATOM     30  O   LIG d   1       9.451   8.426 -10.751  0.00  0.00    -0.387 OA
ATOM     31  H   LIG d   1       8.630   8.038 -10.416  0.00  0.00     0.210 HD
ENDBRANCH  18  30
BRANCH  20  32
ATOM     32  O   LIG d   1      10.961  10.386  -9.440  0.00  0.00    -0.386 OA
ATOM     33  H   LIG d   1      10.555  11.079  -8.901  0.00  0.00     0.210 HD
ENDBRANCH  20  32
BRANCH  22  34
ATOM     34  O   LIG d   1       8.469   9.422  -8.604  0.00  0.00    -0.383 OA
ATOM     35  H   LIG d   1       7.735   9.657  -8.016  0.00  0.00     0.210 HD
ENDBRANCH  22  34
ENDBRANCH  13  14
ENDBRANCH   9  13
BRANCH   8  36
ATOM     36  O   LIG d   1      10.660   4.489  -6.747  0.00  0.00    -0.503 OA
ATOM     37  H   LIG d   1      10.273   4.951  -7.503  0.00  0.00     0.292 HD
ENDBRANCH   8  36
BRANCH   6  38
ATOM     38  O   LIG d   1       9.912   4.285  -2.057  0.00  0.00    -0.506 OA
ATOM     39  H   LIG d   1       9.990   3.330  -2.186  0.00  0.00     0.292 HD
ENDBRANCH   6  38
BRANCH   1  40
ATOM     40  C   LIG d   1      10.127  10.657  -3.108  0.00  0.00     0.025 A 
ATOM     41  C   LIG d   1      11.341  11.345  -3.189  0.00  0.00    -0.047 A 
ATOM     42  C   LIG d   1      11.351  12.723  -3.209  0.00  0.00    -0.016 A 
ATOM     43  H   LIG d   1      12.269  10.796  -3.240  0.00  0.00     0.063 H 
ATOM     44  C   LIG d   1      10.158  13.430  -3.148  0.00  0.00     0.158 A 
ATOM     45  H   LIG d   1      12.289  13.253  -3.271  0.00  0.00     0.066 H 
ATOM     46  C   LIG d   1       8.944  12.751  -3.067  0.00  0.00     0.159 A 
ATOM     47  C   LIG d   1       8.926  11.369  -3.047  0.00  0.00    -0.006 A 
ATOM     48  H   LIG d   1       7.985  10.842  -2.984  0.00  0.00     0.066 H 
BRANCH  44  49
ATOM     49  O   LIG d   1      10.175  14.789  -3.167  0.00  0.00    -0.503 OA
ATOM     50  H   LIG d   1      10.930  15.166  -3.639  0.00  0.00     0.292 HD
ENDBRANCH  44  49
BRANCH  46  51
ATOM     51  O   LIG d   1       7.778  13.447  -3.008  0.00  0.00    -0.503 OA
ATOM     52  H   LIG d   1       7.154  13.229  -3.713  0.00  0.00     0.292 HD
ENDBRANCH  46  51
ENDBRANCH   1  40
BRANCH   2  53
ATOM     53  O   LIG d   1       9.743   9.263  -0.755  0.00  0.00    -0.501 OA
ATOM     54  H   LIG d   1      10.241   8.926   0.002  0.00  0.00     0.292 HD
ENDBRANCH   2  53
TORSDOF 13
ENDMDL
MODEL 5
REMARK VINA RESULT:      -6.5      1.514      5.964
REMARK  13 active torsions:
REMARK  status: ('A' for Active; 'I' for Inactive)
REMARK    1  A    between atoms: C_3  and  O_39 
REMARK    2  A    between atoms: C_4  and  O_38 
REMARK    3  A    between atoms: C_6  and  C_7 
REMARK    4  A    between atoms: C_8  and  O_37 
REMARK    5  A    between atoms: C_12  and  O_36 
REMARK    6  A    between atoms: C_14  and  O_35 
REMARK    7  A    between atoms: C_15  and  O_18 
REMARK    8  A    between atoms: O_18  and  C_19 
REMARK    9  A    between atoms: C_21  and  O_34 
REMARK   10  A    between atoms: C_23  and  O_33 
REMARK   11  A    between atoms: C_25  and  O_32 
REMARK   12  A    between atoms: C_27  and  C_30 
REMARK   13  A    between atoms: C_30  and  O_31 
ROOT
ATOM      1  C   LIG d   1      11.382   8.532  -0.519  0.00  0.00     0.181 A 
ATOM      2  C   LIG d   1      11.360   7.437   0.292  0.00  0.00     0.208 A 
ATOM      3  C   LIG d   1      11.236   6.145  -0.283  0.00  0.00     0.238 A 
ATOM      4  O   LIG d   1      11.213   5.142   0.412  0.00  0.00    -0.283 OA
ATOM      5  C   LIG d   1      11.138   6.063  -1.749  0.00  0.00     0.113 A 
ATOM      6  C   LIG d   1      11.013   4.828  -2.400  0.00  0.00     0.135 A 
ATOM      7  C   LIG d   1      10.923   4.791  -3.779  0.00  0.00     0.026 A 
ATOM      8  C   LIG d   1      10.955   5.970  -4.514  0.00  0.00     0.166 A 
ATOM      9  C   LIG d   1      11.080   7.198  -3.878  0.00  0.00     0.208 A 
ATOM     10  C   LIG d   1      11.171   7.255  -2.492  0.00  0.00     0.188 A 
ATOM     11  O   LIG d   1      11.286   8.441  -1.856  0.00  0.00    -0.447 OA
ATOM     12  H   LIG d   1      10.827   3.843  -4.286  0.00  0.00     0.069 H 
ENDROOT
BRANCH   9  13
ATOM     13  O   LIG d   1      11.110   8.345  -4.610  0.00  0.00    -0.453 OA
BRANCH  13  14
ATOM     14  C   LIG d   1       9.858   8.980  -4.876  0.00  0.00     0.231 C 
ATOM     15  H   LIG d   1       9.114   8.629  -4.162  0.00  0.00     0.108 H 
ATOM     16  O   LIG d   1       9.434   8.660  -6.202  0.00  0.00    -0.331 OA
ATOM     17  C   LIG d   1      10.354   9.055  -7.221  0.00  0.00     0.114 C 
ATOM     18  C   LIG d   1      10.533  10.575  -7.184  0.00  0.00     0.112 C 
ATOM     19  H   LIG d   1      11.317   8.573  -7.049  0.00  0.00     0.065 H 
ATOM     20  C   LIG d   1      11.019  10.991  -5.792  0.00  0.00     0.115 C 
ATOM     21  H   LIG d   1      11.268  10.874  -7.930  0.00  0.00     0.065 H 
ATOM     22  C   LIG d   1      10.016  10.497  -4.745  0.00  0.00     0.145 C 
ATOM     23  H   LIG d   1      11.996  10.546  -5.599  0.00  0.00     0.065 H 
ATOM     24  H   LIG d   1      10.382  10.739  -3.747  0.00  0.00     0.068 H 
BRANCH  17  25
ATOM     25  C   LIG d   1       9.812   8.638  -8.589  0.00  0.00     0.073 C 
ATOM     26  H   LIG d   1      10.339   9.184  -9.371  0.00  0.00     0.058 H 
ATOM     27  H   LIG d   1       9.964   7.568  -8.730  0.00  0.00     0.058 H 
BRANCH  25  28
ATOM     28  O   LIG d   1       8.416   8.934  -8.659  0.00  0.00    -0.392 OA
ATOM     29  H   LIG d   1       8.056   9.324  -7.851  0.00  0.00     0.209 HD
ENDBRANCH  25  28
ENDBRANCH  17  25
BRANCH  18  30
ATOM     30  O   LIG d   1       9.284  11.211  -7.463  0.00  0.00    -0.387 OA
ATOM     31  H   LIG d   1       8.879  10.936  -8.297  0.00  0.00     0.210 HD
ENDBRANCH  18  30
BRANCH  20  32
ATOM     32  O   LIG d   1      11.120  12.415  -5.724  0.00  0.00    -0.386 OA
ATOM     33  H   LIG d   1      11.997  12.758  -5.942  0.00  0.00     0.210 HD
ENDBRANCH  20  32
BRANCH  22  34
ATOM     34  O   LIG d   1       8.753  11.129  -4.957  0.00  0.00    -0.383 OA
ATOM     35  H   LIG d   1       8.495  11.192  -5.888  0.00  0.00     0.210 HD
ENDBRANCH  22  34
ENDBRANCH  13  14
ENDBRANCH   9  13
BRANCH   8  36
ATOM     36  O   LIG d   1      10.867   5.921  -5.870  0.00  0.00    -0.503 OA
ATOM     37  H   LIG d   1      11.630   5.511  -6.299  0.00  0.00     0.292 HD
ENDBRANCH   8  36
BRANCH   6  38
ATOM     38  O   LIG d   1      10.981   3.677  -1.681  0.00  0.00    -0.506 OA
ATOM     39  H   LIG d   1      10.834   3.807  -0.735  0.00  0.00     0.292 HD
ENDBRANCH   6  38
BRANCH   1  40
ATOM     40  C   LIG d   1      11.510   9.867   0.095  0.00  0.00     0.025 A 
ATOM     41  C   LIG d   1      12.774  10.375   0.408  0.00  0.00    -0.047 A 
ATOM     42  C   LIG d   1      12.891  11.623   0.982  0.00  0.00    -0.016 A 
ATOM     43  H   LIG d   1      13.658   9.792   0.198  0.00  0.00     0.063 H 
ATOM     44  C   LIG d   1      11.757  12.377   1.249  0.00  0.00     0.158 A 
ATOM     45  H   LIG d   1      13.868  12.014   1.225  0.00  0.00     0.066 H 
ATOM     46  C   LIG d   1      10.494  11.877   0.938  0.00  0.00     0.159 A 
ATOM     47  C   LIG d   1      10.369  10.627   0.363  0.00  0.00    -0.006 A 
ATOM     48  H   LIG d   1       9.390  10.238   0.123  0.00  0.00     0.066 H 
BRANCH  44  49
ATOM     49  O   LIG d   1      11.879  13.607   1.815  0.00  0.00    -0.503 OA
ATOM     50  H   LIG d   1      11.639  14.336   1.227  0.00  0.00     0.292 HD
ENDBRANCH  44  49
BRANCH  46  51
ATOM     51  O   LIG d   1       9.385  12.619   1.202  0.00  0.00    -0.503 OA
ATOM     52  H   LIG d   1       9.358  13.464   0.734  0.00  0.00     0.292 HD
ENDBRANCH  46  51
ENDBRANCH   1  40
BRANCH   2  53
ATOM     53  O   LIG d   1      11.455   7.581   1.642  0.00  0.00    -0.501 OA
ATOM     54  H   LIG d   1      11.892   8.397   1.921  0.00  0.00     0.292 HD
ENDBRANCH   2  53
TORSDOF 13
ENDMDL
MODEL 6
REMARK VINA RESULT:      -6.4      1.984      5.984
REMARK  13 active torsions:
REMARK  status: ('A' for Active; 'I' for Inactive)
REMARK    1  A    between atoms: C_3  and  O_39 
REMARK    2  A    between atoms: C_4  and  O_38 
REMARK    3  A    between atoms: C_6  and  C_7 
REMARK    4  A    between atoms: C_8  and  O_37 
REMARK    5  A    between atoms: C_12  and  O_36 
REMARK    6  A    between atoms: C_14  and  O_35 
REMARK    7  A    between atoms: C_15  and  O_18 
REMARK    8  A    between atoms: O_18  and  C_19 
REMARK    9  A    between atoms: C_21  and  O_34 
REMARK   10  A    between atoms: C_23  and  O_33 
REMARK   11  A    between atoms: C_25  and  O_32 
REMARK   12  A    between atoms: C_27  and  C_30 
REMARK   13  A    between atoms: C_30  and  O_31 
ROOT
ATOM      1  C   LIG d   1      10.997   5.891  -1.992  0.00  0.00     0.181 A 
ATOM      2  C   LIG d   1      11.275   5.877  -0.658  0.00  0.00     0.208 A 
ATOM      3  C   LIG d   1      11.211   7.086   0.082  0.00  0.00     0.238 A 
ATOM      4  O   LIG d   1      11.453   7.111   1.278  0.00  0.00    -0.283 OA
ATOM      5  C   LIG d   1      10.841   8.308  -0.649  0.00  0.00     0.113 A 
ATOM      6  C   LIG d   1      10.753   9.546   0.002  0.00  0.00     0.135 A 
ATOM      7  C   LIG d   1      10.403  10.672  -0.718  0.00  0.00     0.026 A 
ATOM      8  C   LIG d   1      10.139  10.578  -2.079  0.00  0.00     0.166 A 
ATOM      9  C   LIG d   1      10.222   9.355  -2.734  0.00  0.00     0.208 A 
ATOM     10  C   LIG d   1      10.574   8.212  -2.026  0.00  0.00     0.188 A 
ATOM     11  O   LIG d   1      10.666   7.016  -2.647  0.00  0.00    -0.447 OA
ATOM     12  H   LIG d   1      10.334  11.628  -0.221  0.00  0.00     0.069 H 
ENDROOT
BRANCH   9  13
ATOM     13  O   LIG d   1       9.962   9.277  -4.068  0.00  0.00    -0.453 OA
BRANCH  13  14
ATOM     14  C   LIG d   1      11.054   9.512  -4.958  0.00  0.00     0.231 C 
ATOM     15  H   LIG d   1      11.993   9.423  -4.412  0.00  0.00     0.108 H 
ATOM     16  O   LIG d   1      10.946  10.827  -5.508  0.00  0.00    -0.331 OA
ATOM     17  C   LIG d   1       9.733  11.061  -6.226  0.00  0.00     0.114 C 
ATOM     18  C   LIG d   1       9.646  10.094  -7.409  0.00  0.00     0.112 C 
ATOM     19  H   LIG d   1       8.881  10.901  -5.564  0.00  0.00     0.065 H 
ATOM     20  C   LIG d   1       9.724   8.655  -6.889  0.00  0.00     0.115 C 
ATOM     21  H   LIG d   1       8.701  10.240  -7.931  0.00  0.00     0.065 H 
ATOM     22  C   LIG d   1      11.020   8.482  -6.091  0.00  0.00     0.145 C 
ATOM     23  H   LIG d   1       8.869   8.452  -6.243  0.00  0.00     0.065 H 
ATOM     24  H   LIG d   1      11.058   7.478  -5.669  0.00  0.00     0.068 H 
BRANCH  17  25
ATOM     25  C   LIG d   1       9.715  12.501  -6.742  0.00  0.00     0.073 C 
ATOM     26  H   LIG d   1       9.356  13.164  -5.956  0.00  0.00     0.058 H 
ATOM     27  H   LIG d   1      10.724  12.795  -7.033  0.00  0.00     0.058 H 
BRANCH  25  28
ATOM     28  O   LIG d   1       8.848  12.591  -7.875  0.00  0.00    -0.392 OA
ATOM     29  H   LIG d   1       8.071  13.146  -7.731  0.00  0.00     0.209 HD
ENDBRANCH  25  28
ENDBRANCH  17  25
BRANCH  18  30
ATOM     30  O   LIG d   1      10.730  10.336  -8.307  0.00  0.00    -0.387 OA
ATOM     31  H   LIG d   1      10.886  11.273  -8.493  0.00  0.00     0.210 HD
ENDBRANCH  18  30
BRANCH  20  32
ATOM     32  O   LIG d   1       9.718   7.745  -7.991  0.00  0.00    -0.386 OA
ATOM     33  H   LIG d   1       9.722   8.175  -8.857  0.00  0.00     0.210 HD
ENDBRANCH  20  32
BRANCH  22  34
ATOM     34  O   LIG d   1      12.143   8.682  -6.951  0.00  0.00    -0.383 OA
ATOM     35  H   LIG d   1      11.905   8.863  -7.872  0.00  0.00     0.210 HD
ENDBRANCH  22  34
ENDBRANCH  13  14
ENDBRANCH   9  13
BRANCH   8  36
ATOM     36  O   LIG d   1       9.795  11.692  -2.778  0.00  0.00    -0.503 OA
ATOM     37  H   LIG d   1      10.395  12.439  -2.647  0.00  0.00     0.292 HD
ENDBRANCH   8  36
BRANCH   6  38
ATOM     38  O   LIG d   1      11.012   9.637   1.332  0.00  0.00    -0.506 OA
ATOM     39  H   LIG d   1      10.586   8.951   1.864  0.00  0.00     0.292 HD
ENDBRANCH   6  38
BRANCH   1  40
ATOM     40  C   LIG d   1      11.070   4.626  -2.746  0.00  0.00     0.025 A 
ATOM     41  C   LIG d   1      12.238   4.287  -3.434  0.00  0.00    -0.047 A 
ATOM     42  C   LIG d   1      12.303   3.104  -4.138  0.00  0.00    -0.016 A 
ATOM     43  H   LIG d   1      13.090   4.949  -3.410  0.00  0.00     0.063 H 
ATOM     44  C   LIG d   1      11.211   2.248  -4.166  0.00  0.00     0.158 A 
ATOM     45  H   LIG d   1      13.206   2.843  -4.670  0.00  0.00     0.066 H 
ATOM     46  C   LIG d   1      10.043   2.579  -3.482  0.00  0.00     0.159 A 
ATOM     47  C   LIG d   1       9.970   3.763  -2.774  0.00  0.00    -0.006 A 
ATOM     48  H   LIG d   1       9.065   4.021  -2.245  0.00  0.00     0.066 H 
BRANCH  44  49
ATOM     49  O   LIG d   1      11.281   1.083  -4.863  0.00  0.00    -0.503 OA
ATOM     50  H   LIG d   1      12.165   0.878  -5.198  0.00  0.00     0.292 HD
ENDBRANCH  44  49
BRANCH  46  51
ATOM     51  O   LIG d   1       8.975   1.738  -3.513  0.00  0.00    -0.503 OA
ATOM     52  H   LIG d   1       8.603   1.607  -4.395  0.00  0.00     0.292 HD
ENDBRANCH  46  51
ENDBRANCH   1  40
BRANCH   2  53
ATOM     53  O   LIG d   1      11.612   4.712  -0.040  0.00  0.00    -0.501 OA
ATOM     54  H   LIG d   1      10.890   4.311   0.464  0.00  0.00     0.292 HD
ENDBRANCH   2  53
TORSDOF 13
ENDMDL
MODEL 7
REMARK VINA RESULT:      -6.3      1.704      4.361
REMARK  13 active torsions:
REMARK  status: ('A' for Active; 'I' for Inactive)
REMARK    1  A    between atoms: C_3  and  O_39 
REMARK    2  A    between atoms: C_4  and  O_38 
REMARK    3  A    between atoms: C_6  and  C_7 
REMARK    4  A    between atoms: C_8  and  O_37 
REMARK    5  A    between atoms: C_12  and  O_36 
REMARK    6  A    between atoms: C_14  and  O_35 
REMARK    7  A    between atoms: C_15  and  O_18 
REMARK    8  A    between atoms: O_18  and  C_19 
REMARK    9  A    between atoms: C_21  and  O_34 
REMARK   10  A    between atoms: C_23  and  O_33 
REMARK   11  A    between atoms: C_25  and  O_32 
REMARK   12  A    between atoms: C_27  and  C_30 
REMARK   13  A    between atoms: C_30  and  O_31 
ROOT
ATOM      1  C   LIG d   1      11.066   6.289  -1.905  0.00  0.00     0.181 A 
ATOM      2  C   LIG d   1      11.204   5.627  -0.722  0.00  0.00     0.208 A 
ATOM      3  C   LIG d   1      11.347   6.368   0.480  0.00  0.00     0.238 A 
ATOM      4  O   LIG d   1      11.474   5.809   1.558  0.00  0.00    -0.283 OA
ATOM      5  C   LIG d   1      11.337   7.836   0.376  0.00  0.00     0.113 A 
ATOM      6  C   LIG d   1      11.473   8.646   1.512  0.00  0.00     0.135 A 
ATOM      7  C   LIG d   1      11.459  10.021   1.374  0.00  0.00     0.026 A 
ATOM      8  C   LIG d   1      11.312  10.597   0.118  0.00  0.00     0.166 A 
ATOM      9  C   LIG d   1      11.176   9.803  -1.014  0.00  0.00     0.208 A 
ATOM     10  C   LIG d   1      11.188   8.418  -0.895  0.00  0.00     0.188 A 
ATOM     11  O   LIG d   1      11.063   7.630  -1.985  0.00  0.00    -0.447 OA
ATOM     12  H   LIG d   1      11.563  10.649   2.246  0.00  0.00     0.069 H 
ENDROOT
BRANCH   9  13
ATOM     13  O   LIG d   1      11.032  10.380  -2.238  0.00  0.00    -0.453 OA
BRANCH  13  14
ATOM     14  C   LIG d   1       9.729  10.348  -2.823  0.00  0.00     0.231 C 
ATOM     15  H   LIG d   1       9.113   9.619  -2.297  0.00  0.00     0.108 H 
ATOM     16  O   LIG d   1       9.834   9.979  -4.199  0.00  0.00    -0.331 OA
ATOM     17  C   LIG d   1      10.646  10.858  -4.980  0.00  0.00     0.114 C 
ATOM     18  C   LIG d   1      10.040  12.264  -4.958  0.00  0.00     0.112 C 
ATOM     19  H   LIG d   1      11.652  10.890  -4.562  0.00  0.00     0.065 H 
ATOM     20  C   LIG d   1       9.926  12.740  -3.507  0.00  0.00     0.115 C 
ATOM     21  H   LIG d   1      10.682  12.945  -5.515  0.00  0.00     0.065 H 
ATOM     22  C   LIG d   1       9.087  11.733  -2.715  0.00  0.00     0.145 C 
ATOM     23  H   LIG d   1      10.922  12.811  -3.066  0.00  0.00     0.065 H 
ATOM     24  H   LIG d   1       9.047  12.035  -1.668  0.00  0.00     0.068 H 
BRANCH  17  25
ATOM     25  C   LIG d   1      10.708  10.351  -6.422  0.00  0.00     0.073 C 
ATOM     26  H   LIG d   1      11.036  11.157  -7.077  0.00  0.00     0.058 H 
ATOM     27  H   LIG d   1      11.414   9.522  -6.485  0.00  0.00     0.058 H 
BRANCH  25  28
ATOM     28  O   LIG d   1       9.412   9.904  -6.826  0.00  0.00    -0.392 OA
ATOM     29  H   LIG d   1       8.707  10.544  -6.661  0.00  0.00     0.209 HD
ENDBRANCH  25  28
ENDBRANCH  17  25
BRANCH  18  30
ATOM     30  O   LIG d   1       8.743  12.235  -5.554  0.00  0.00    -0.387 OA
ATOM     31  H   LIG d   1       8.057  12.671  -5.028  0.00  0.00     0.210 HD
ENDBRANCH  18  30
BRANCH  20  32
ATOM     32  O   LIG d   1       9.295  14.022  -3.470  0.00  0.00    -0.386 OA
ATOM     33  H   LIG d   1       8.430  14.023  -3.038  0.00  0.00     0.210 HD
ENDBRANCH  20  32
BRANCH  22  34
ATOM     34  O   LIG d   1       7.763  11.689  -3.250  0.00  0.00    -0.383 OA
ATOM     35  H   LIG d   1       7.205  12.434  -2.983  0.00  0.00     0.210 HD
ENDBRANCH  22  34
ENDBRANCH  13  14
ENDBRANCH   9  13
BRANCH   8  36
ATOM     36  O   LIG d   1      11.299  11.951  -0.005  0.00  0.00    -0.503 OA
ATOM     37  H   LIG d   1      10.706  12.396   0.615  0.00  0.00     0.292 HD
ENDBRANCH   8  36
BRANCH   6  38
ATOM     38  O   LIG d   1      11.617   8.082   2.739  0.00  0.00    -0.506 OA
ATOM     39  H   LIG d   1      11.405   8.675   3.472  0.00  0.00     0.292 HD
ENDBRANCH   6  38
BRANCH   1  40
ATOM     40  C   LIG d   1      10.919   5.504  -3.145  0.00  0.00     0.025 A 
ATOM     41  C   LIG d   1       9.645   5.195  -3.631  0.00  0.00    -0.047 A 
ATOM     42  C   LIG d   1       9.511   4.461  -4.790  0.00  0.00    -0.016 A 
ATOM     43  H   LIG d   1       8.768   5.535  -3.102  0.00  0.00     0.063 H 
ATOM     44  C   LIG d   1      10.637   4.027  -5.476  0.00  0.00     0.158 A 
ATOM     45  H   LIG d   1       8.527   4.222  -5.165  0.00  0.00     0.066 H 
ATOM     46  C   LIG d   1      11.910   4.332  -4.997  0.00  0.00     0.159 A 
ATOM     47  C   LIG d   1      12.053   5.067  -3.836  0.00  0.00    -0.006 A 
ATOM     48  H   LIG d   1      13.039   5.303  -3.463  0.00  0.00     0.066 H 
BRANCH  44  49
ATOM     49  O   LIG d   1      10.498   3.303  -6.618  0.00  0.00    -0.503 OA
ATOM     50  H   LIG d   1       9.833   3.653  -7.227  0.00  0.00     0.292 HD
ENDBRANCH  44  49
BRANCH  46  51
ATOM     51  O   LIG d   1      13.011   3.905  -5.671  0.00  0.00    -0.503 OA
ATOM     52  H   LIG d   1      13.652   3.437  -5.120  0.00  0.00     0.292 HD
ENDBRANCH  46  51
ENDBRANCH   1  40
BRANCH   2  53
ATOM     53  O   LIG d   1      11.206   4.266  -0.693  0.00  0.00    -0.501 OA
ATOM     54  H   LIG d   1      11.524   3.891   0.140  0.00  0.00     0.292 HD
ENDBRANCH   2  53
TORSDOF 13
ENDMDL
MODEL 8
REMARK VINA RESULT:      -6.2     11.544     15.029
REMARK  13 active torsions:
REMARK  status: ('A' for Active; 'I' for Inactive)
REMARK    1  A    between atoms: C_3  and  O_39 
REMARK    2  A    between atoms: C_4  and  O_38 
REMARK    3  A    between atoms: C_6  and  C_7 
REMARK    4  A    between atoms: C_8  and  O_37 
REMARK    5  A    between atoms: C_12  and  O_36 
REMARK    6  A    between atoms: C_14  and  O_35 
REMARK    7  A    between atoms: C_15  and  O_18 
REMARK    8  A    between atoms: O_18  and  C_19 
REMARK    9  A    between atoms: C_21  and  O_34 
REMARK   10  A    between atoms: C_23  and  O_33 
REMARK   11  A    between atoms: C_25  and  O_32 
REMARK   12  A    between atoms: C_27  and  C_30 
REMARK   13  A    between atoms: C_30  and  O_31 
ROOT
ATOM      1  C   LIG d   1       3.979  -4.091  -8.318  0.00  0.00     0.181 A 
ATOM      2  C   LIG d   1       3.148  -4.349  -9.366  0.00  0.00     0.208 A 
ATOM      3  C   LIG d   1       2.394  -3.290  -9.937  0.00  0.00     0.238 A 
ATOM      4  O   LIG d   1       1.640  -3.483 -10.876  0.00  0.00    -0.283 OA
ATOM      5  C   LIG d   1       2.559  -1.950  -9.351  0.00  0.00     0.113 A 
ATOM      6  C   LIG d   1       1.854  -0.847  -9.851  0.00  0.00     0.135 A 
ATOM      7  C   LIG d   1       2.034   0.396  -9.275  0.00  0.00     0.026 A 
ATOM      8  C   LIG d   1       2.909   0.551  -8.206  0.00  0.00     0.166 A 
ATOM      9  C   LIG d   1       3.613  -0.536  -7.703  0.00  0.00     0.208 A 
ATOM     10  C   LIG d   1       3.444  -1.794  -8.270  0.00  0.00     0.188 A 
ATOM     11  O   LIG d   1       4.115  -2.863  -7.790  0.00  0.00    -0.447 OA
ATOM     12  H   LIG d   1       1.495   1.249  -9.657  0.00  0.00     0.069 H 
ENDROOT
BRANCH   9  13
ATOM     13  O   LIG d   1       4.466  -0.370  -6.655  0.00  0.00    -0.453 OA
BRANCH  13  14
ATOM     14  C   LIG d   1       3.882  -0.130  -5.373  0.00  0.00     0.231 C 
ATOM     15  H   LIG d   1       3.003   0.503  -5.488  0.00  0.00     0.108 H 
ATOM     16  O   LIG d   1       4.834   0.523  -4.531  0.00  0.00    -0.331 OA
ATOM     17  C   LIG d   1       6.043  -0.214  -4.335  0.00  0.00     0.114 C 
ATOM     18  C   LIG d   1       5.721  -1.550  -3.661  0.00  0.00     0.112 C 
ATOM     19  H   LIG d   1       6.516  -0.399  -5.299  0.00  0.00     0.065 H 
ATOM     20  C   LIG d   1       4.723  -2.324  -4.528  0.00  0.00     0.115 C 
ATOM     21  H   LIG d   1       6.634  -2.132  -3.551  0.00  0.00     0.065 H 
ATOM     22  C   LIG d   1       3.473  -1.463  -4.741  0.00  0.00     0.145 C 
ATOM     23  H   LIG d   1       5.177  -2.550  -5.494  0.00  0.00     0.065 H 
ATOM     24  H   LIG d   1       2.781  -1.983  -5.403  0.00  0.00     0.068 H 
BRANCH  17  25
ATOM     25  C   LIG d   1       6.992   0.591  -3.446  0.00  0.00     0.073 C 
ATOM     26  H   LIG d   1       6.704   1.641  -3.463  0.00  0.00     0.058 H 
ATOM     27  H   LIG d   1       6.937   0.217  -2.423  0.00  0.00     0.058 H 
BRANCH  25  28
ATOM     28  O   LIG d   1       8.330   0.454  -3.930  0.00  0.00    -0.392 OA
ATOM     29  H   LIG d   1       9.008   0.686  -3.282  0.00  0.00     0.209 HD
ENDBRANCH  25  28
ENDBRANCH  17  25
BRANCH  18  30
ATOM     30  O   LIG d   1       5.149  -1.311  -2.374  0.00  0.00    -0.387 OA
ATOM     31  H   LIG d   1       5.354  -0.440  -2.006  0.00  0.00     0.210 HD
ENDBRANCH  18  30
BRANCH  20  32
ATOM     32  O   LIG d   1       4.359  -3.540  -3.873  0.00  0.00    -0.386 OA
ATOM     33  H   LIG d   1       4.053  -4.234  -4.473  0.00  0.00     0.210 HD
ENDBRANCH  20  32
BRANCH  22  34
ATOM     34  O   LIG d   1       2.840  -1.221  -3.483  0.00  0.00    -0.383 OA
ATOM     35  H   LIG d   1       3.454  -1.178  -2.735  0.00  0.00     0.210 HD
ENDBRANCH  22  34
ENDBRANCH  13  14
ENDBRANCH   9  13
BRANCH   8  36
ATOM     36  O   LIG d   1       3.079   1.779  -7.647  0.00  0.00    -0.503 OA
ATOM     37  H   LIG d   1       3.942   2.176  -7.826  0.00  0.00     0.292 HD
ENDBRANCH   8  36
BRANCH   6  38
ATOM     38  O   LIG d   1       1.000  -0.999 -10.896  0.00  0.00    -0.506 OA
ATOM     39  H   LIG d   1       1.085  -0.319 -11.577  0.00  0.00     0.292 HD
ENDBRANCH   6  38
BRANCH   1  40
ATOM     40  C   LIG d   1       4.754  -5.204  -7.736  0.00  0.00     0.025 A 
ATOM     41  C   LIG d   1       5.984  -5.566  -8.292  0.00  0.00    -0.047 A 
ATOM     42  C   LIG d   1       6.706  -6.606  -7.747  0.00  0.00    -0.016 A 
ATOM     43  H   LIG d   1       6.369  -5.029  -9.146  0.00  0.00     0.063 H 
ATOM     44  C   LIG d   1       6.215  -7.294  -6.647  0.00  0.00     0.158 A 
ATOM     45  H   LIG d   1       7.656  -6.885  -8.178  0.00  0.00     0.066 H 
ATOM     46  C   LIG d   1       4.989  -6.938  -6.087  0.00  0.00     0.159 A 
ATOM     47  C   LIG d   1       4.259  -5.897  -6.628  0.00  0.00    -0.006 A 
ATOM     48  H   LIG d   1       3.309  -5.621  -6.195  0.00  0.00     0.066 H 
BRANCH  44  49
ATOM     49  O   LIG d   1       6.931  -8.319  -6.114  0.00  0.00    -0.503 OA
ATOM     50  H   LIG d   1       6.467  -9.168  -6.118  0.00  0.00     0.292 HD
ENDBRANCH  44  49
BRANCH  46  51
ATOM     51  O   LIG d   1       4.511  -7.616  -5.009  0.00  0.00    -0.503 OA
ATOM     52  H   LIG d   1       3.573  -7.464  -4.834  0.00  0.00     0.292 HD
ENDBRANCH  46  51
ENDBRANCH   1  40
BRANCH   2  53
ATOM     53  O   LIG d   1       3.040  -5.612  -9.862  0.00  0.00    -0.501 OA
ATOM     54  H   LIG d   1       2.177  -6.022  -9.711  0.00  0.00     0.292 HD
ENDBRANCH   2  53
TORSDOF 13
ENDMDL
MODEL 9
REMARK VINA RESULT:      -6.1      1.700      5.810
REMARK  13 active torsions:
REMARK  status: ('A' for Active; 'I' for Inactive)
REMARK    1  A    between atoms: C_3  and  O_39 
REMARK    2  A    between atoms: C_4  and  O_38 
REMARK    3  A    between atoms: C_6  and  C_7 
REMARK    4  A    between atoms: C_8  and  O_37 
REMARK    5  A    between atoms: C_12  and  O_36 
REMARK    6  A    between atoms: C_14  and  O_35 
REMARK    7  A    between atoms: C_15  and  O_18 
REMARK    8  A    between atoms: O_18  and  C_19 
REMARK    9  A    between atoms: C_21  and  O_34 
REMARK   10  A    between atoms: C_23  and  O_33 
REMARK   11  A    between atoms: C_25  and  O_32 
REMARK   12  A    between atoms: C_27  and  C_30 
REMARK   13  A    between atoms: C_30  and  O_31 
ROOT
ATOM      1  C   LIG d   1      10.292   6.925  -3.354  0.00  0.00     0.181 A 
ATOM      2  C   LIG d   1      10.093   5.758  -4.029  0.00  0.00     0.208 A 
ATOM      3  C   LIG d   1       9.840   5.794  -5.425  0.00  0.00     0.238 A 
ATOM      4  O   LIG d   1       9.657   4.770  -6.063  0.00  0.00    -0.283 OA
ATOM      5  C   LIG d   1       9.806   7.115  -6.073  0.00  0.00     0.113 A 
ATOM      6  C   LIG d   1       9.562   7.244  -7.447  0.00  0.00     0.135 A 
ATOM      7  C   LIG d   1       9.537   8.501  -8.021  0.00  0.00     0.026 A 
ATOM      8  C   LIG d   1       9.753   9.630  -7.239  0.00  0.00     0.166 A 
ATOM      9  C   LIG d   1       9.996   9.513  -5.877  0.00  0.00     0.208 A 
ATOM     10  C   LIG d   1      10.024   8.257  -5.283  0.00  0.00     0.188 A 
ATOM     11  O   LIG d   1      10.253   8.124  -3.959  0.00  0.00    -0.447 OA
ATOM     12  H   LIG d   1       9.351   8.606  -9.079  0.00  0.00     0.069 H 
ENDROOT
BRANCH   9  13
ATOM     13  O   LIG d   1      10.205  10.627  -5.123  0.00  0.00    -0.453 OA
BRANCH  13  14
ATOM     14  C   LIG d   1       9.053  11.384  -4.748  0.00  0.00     0.231 C 
ATOM     15  H   LIG d   1       8.226  11.141  -5.415  0.00  0.00     0.108 H 
ATOM     16  O   LIG d   1       9.348  12.779  -4.843  0.00  0.00    -0.331 OA
ATOM     17  C   LIG d   1      10.439  13.202  -4.023  0.00  0.00     0.114 C 
ATOM     18  C   LIG d   1      10.106  12.933  -2.553  0.00  0.00     0.112 C 
ATOM     19  H   LIG d   1      11.337  12.648  -4.299  0.00  0.00     0.065 H 
ATOM     20  C   LIG d   1       9.808  11.442  -2.370  0.00  0.00     0.115 C 
ATOM     21  H   LIG d   1      10.955  13.213  -1.930  0.00  0.00     0.065 H 
ATOM     22  C   LIG d   1       8.664  11.042  -3.307  0.00  0.00     0.145 C 
ATOM     23  H   LIG d   1      10.697  10.859  -2.611  0.00  0.00     0.065 H 
ATOM     24  H   LIG d   1       8.482   9.970  -3.224  0.00  0.00     0.068 H 
BRANCH  17  25
ATOM     25  C   LIG d   1      10.680  14.699  -4.226  0.00  0.00     0.073 C 
ATOM     26  H   LIG d   1       9.741  15.186  -4.485  0.00  0.00     0.058 H 
ATOM     27  H   LIG d   1      11.072  15.132  -3.305  0.00  0.00     0.058 H 
BRANCH  25  28
ATOM     28  O   LIG d   1      11.624  14.891  -5.282  0.00  0.00    -0.392 OA
ATOM     29  H   LIG d   1      11.777  15.817  -5.508  0.00  0.00     0.209 HD
ENDBRANCH  25  28
ENDBRANCH  17  25
BRANCH  18  30
ATOM     30  O   LIG d   1       8.962  13.699  -2.174  0.00  0.00    -0.387 OA
ATOM     31  H   LIG d   1       9.175  14.546  -1.757  0.00  0.00     0.210 HD
ENDBRANCH  18  30
BRANCH  20  32
ATOM     32  O   LIG d   1       9.425  11.192  -1.016  0.00  0.00    -0.386 OA
ATOM     33  H   LIG d   1       9.060  10.309  -0.867  0.00  0.00     0.210 HD
ENDBRANCH  20  32
BRANCH  22  34
ATOM     34  O   LIG d   1       7.480  11.757  -2.949  0.00  0.00    -0.383 OA
ATOM     35  H   LIG d   1       6.790  11.203  -2.556  0.00  0.00     0.210 HD
ENDBRANCH  22  34
ENDBRANCH  13  14
ENDBRANCH   9  13
BRANCH   8  36
ATOM     36  O   LIG d   1       9.727  10.862  -7.814  0.00  0.00    -0.503 OA
ATOM     37  H   LIG d   1      10.463  11.029  -8.418  0.00  0.00     0.292 HD
ENDBRANCH   8  36
BRANCH   6  38
ATOM     38  O   LIG d   1       9.351   6.140  -8.210  0.00  0.00    -0.506 OA
ATOM     39  H   LIG d   1       8.925   6.323  -9.058  0.00  0.00     0.292 HD
ENDBRANCH   6  38
BRANCH   1  40
ATOM     40  C   LIG d   1      10.553   6.869  -1.903  0.00  0.00     0.025 A 
ATOM     41  C   LIG d   1      10.739   5.636  -1.272  0.00  0.00    -0.047 A 
ATOM     42  C   LIG d   1      10.983   5.588   0.084  0.00  0.00    -0.016 A 
ATOM     43  H   LIG d   1      10.694   4.724  -1.846  0.00  0.00     0.063 H 
ATOM     44  C   LIG d   1      11.045   6.760   0.824  0.00  0.00     0.158 A 
ATOM     45  H   LIG d   1      11.125   4.634   0.571  0.00  0.00     0.066 H 
ATOM     46  C   LIG d   1      10.861   7.993   0.201  0.00  0.00     0.159 A 
ATOM     47  C   LIG d   1      10.616   8.050  -1.157  0.00  0.00    -0.006 A 
ATOM     48  H   LIG d   1      10.474   9.005  -1.641  0.00  0.00     0.066 H 
BRANCH  44  49
ATOM     49  O   LIG d   1      11.285   6.705   2.161  0.00  0.00    -0.503 OA
ATOM     50  H   LIG d   1      11.668   7.515   2.525  0.00  0.00     0.292 HD
ENDBRANCH  44  49
BRANCH  46  51
ATOM     51  O   LIG d   1      10.923   9.139   0.930  0.00  0.00    -0.503 OA
ATOM     52  H   LIG d   1      11.157   9.002   1.858  0.00  0.00     0.292 HD
ENDBRANCH  46  51
ENDBRANCH   1  40
BRANCH   2  53
ATOM     53  O   LIG d   1      10.138   4.568  -3.371  0.00  0.00    -0.501 OA
ATOM     54  H   LIG d   1       9.487   3.923  -3.681  0.00  0.00     0.292 HD
ENDBRANCH   2  53
TORSDOF 13
ENDMDL
