MODEL 1
REMARK VINA RESULT:      -7.0      0.000      0.000
REMARK  8 active torsions:
REMARK  status: ('A' for Active; 'I' for Inactive)
REMARK    1  A    between atoms: C_1  and  C_2 
REMARK    2  A    between atoms: C_2  and  O_3 
REMARK    3  A    between atoms: O_3  and  P_4 
REMARK    4  A    between atoms: P_4  and  N_6 
REMARK    5  A    between atoms: P_4  and  O_25 
REMARK    6  A    between atoms: C_7  and  N_9 
REMARK    7  A    between atoms: O_25  and  C_26 
REMARK    8  A    between atoms: C_26  and  C_27 
ROOT
ATOM      1  N   LIG d   1       3.601  -0.593  -4.329  0.00  0.00    -0.338 N 
ATOM      2  C   LIG d   1       3.190   0.478  -3.413  0.00  0.00     0.016 C 
ATOM      3  C   LIG d   1       4.201   0.621  -2.283  0.00  0.00    -0.007 C 
ATOM      4  H   LIG d   1       3.768   1.271  -1.522  0.00  0.00     0.033 H 
ATOM      5  C   LIG d   1       4.497  -0.733  -1.637  0.00  0.00    -0.037 C 
ATOM      6  C   LIG d   1       5.052  -1.670  -2.713  0.00  0.00     0.016 C 
ATOM      7  H   LIG d   1       5.352  -2.618  -2.266  0.00  0.00     0.038 H 
ATOM      8  C   LIG d   1       3.948  -1.907  -3.764  0.00  0.00     0.020 C 
ATOM      9  C   LIG d   1       6.233  -1.021  -3.394  0.00  0.00     0.027 C 
ATOM     10  C   LIG d   1       7.175  -1.840  -3.934  0.00  0.00    -0.042 C 
ATOM     11  C   LIG d   1       8.261  -1.310  -4.637  0.00  0.00    -0.055 C 
ATOM     12  C   LIG d   1       8.347   0.041  -4.797  0.00  0.00     0.003 C 
ATOM     13  C   LIG d   1       7.359   0.859  -4.232  0.00  0.00     0.252 C 
ATOM     14  O   LIG d   1       7.389   2.065  -4.422  0.00  0.00    -0.268 OA
ATOM     15  N   LIG d   1       6.368   0.324  -3.476  0.00  0.00    -0.312 N 
ATOM     16  C   LIG d   1       5.500   1.247  -2.756  0.00  0.00     0.031 C 
ATOM     17  H   LIG d   1       3.127   1.418  -3.962  0.00  0.00     0.047 H 
ATOM     18  H   LIG d   1       2.212   0.241  -2.995  0.00  0.00     0.047 H 
ATOM     19  H   LIG d   1       5.233  -0.607  -0.843  0.00  0.00     0.028 H 
ATOM     20  H   LIG d   1       3.579  -1.151  -1.224  0.00  0.00     0.028 H 
ATOM     21  H   LIG d   1       3.072  -2.351  -3.292  0.00  0.00     0.047 H 
ATOM     22  H   LIG d   1       4.319  -2.562  -4.552  0.00  0.00     0.047 H 
ATOM     23  H   LIG d   1       7.083  -2.910  -3.817  0.00  0.00     0.064 H 
ATOM     24  H   LIG d   1       9.019  -1.960  -5.049  0.00  0.00     0.062 H 
ATOM     25  H   LIG d   1       9.167   0.477  -5.351  0.00  0.00     0.067 H 
ATOM     26  H   LIG d   1       5.268   2.093  -3.403  0.00  0.00     0.050 H 
ATOM     27  H   LIG d   1       6.053   1.609  -1.889  0.00  0.00     0.050 H 
ENDROOT
BRANCH   1  28
ATOM     28  C   LIG d   1       3.654  -0.375  -5.687  0.00  0.00    -0.039 C 
ATOM     29  N   LIG d   1       3.089   0.683  -6.200  0.00  0.00    -0.195 NA
ATOM     30  S   LIG d   1       4.484  -1.525  -6.732  0.00  0.00    -0.724 SA
BRANCH  29  31
ATOM     31  P   LIG d   1       3.285   1.026  -7.791  0.00  0.00     0.456 P 
ATOM     32  O   LIG d   1       2.774   2.387  -8.069  0.00  0.00    -0.232 OA
BRANCH  31  33
ATOM     33  O   LIG d   1       2.469  -0.044  -8.676  0.00  0.00    -0.291 OA
BRANCH  33  34
ATOM     34  C   LIG d   1       2.563  -0.110 -10.100  0.00  0.00     0.056 C 
ATOM     35  H   LIG d   1       3.493  -0.604 -10.380  0.00  0.00     0.056 H 
ATOM     36  H   LIG d   1       2.550   0.900 -10.512  0.00  0.00     0.056 H 
BRANCH  34  37
ATOM     37  C   LIG d   1       1.377  -0.902 -10.653  0.00  0.00    -0.041 C 
ATOM     38  H   LIG d   1       0.583  -0.939  -9.906  0.00  0.00     0.025 H 
ATOM     39  H   LIG d   1       1.005  -0.416 -11.555  0.00  0.00     0.025 H 
ATOM     40  H   LIG d   1       1.697  -1.916 -10.892  0.00  0.00     0.025 H 
ENDBRANCH  34  37
ENDBRANCH  33  34
ENDBRANCH  31  33
BRANCH  31  41
ATOM     41  O   LIG d   1       4.848   0.953  -8.168  0.00  0.00    -0.291 OA
BRANCH  41  42
ATOM     42  C   LIG d   1       5.470   1.850  -9.091  0.00  0.00     0.056 C 
ATOM     43  H   LIG d   1       5.374   1.454 -10.101  0.00  0.00     0.056 H 
ATOM     44  H   LIG d   1       4.984   2.823  -9.034  0.00  0.00     0.056 H 
BRANCH  42  45
ATOM     45  C   LIG d   1       6.952   1.997  -8.740  0.00  0.00    -0.041 C 
ATOM     46  H   LIG d   1       7.130   1.599  -7.741  0.00  0.00     0.025 H 
ATOM     47  H   LIG d   1       7.553   1.446  -9.463  0.00  0.00     0.025 H 
ATOM     48  H   LIG d   1       7.229   3.051  -8.766  0.00  0.00     0.025 H 
ENDBRANCH  42  45
ENDBRANCH  41  42
ENDBRANCH  31  41
ENDBRANCH  29  31
ENDBRANCH   1  28
TORSDOF 8
ENDMDL
MODEL 2
REMARK VINA RESULT:      -6.8      0.848      2.128
REMARK  8 active torsions:
REMARK  status: ('A' for Active; 'I' for Inactive)
REMARK    1  A    between atoms: C_1  and  C_2 
REMARK    2  A    between atoms: C_2  and  O_3 
REMARK    3  A    between atoms: O_3  and  P_4 
REMARK    4  A    between atoms: P_4  and  N_6 
REMARK    5  A    between atoms: P_4  and  O_25 
REMARK    6  A    between atoms: C_7  and  N_9 
REMARK    7  A    between atoms: O_25  and  C_26 
REMARK    8  A    between atoms: C_26  and  C_27 
ROOT
ATOM      1  N   LIG d   1       3.558  -0.594  -4.128  0.00  0.00    -0.338 N 
ATOM      2  C   LIG d   1       3.256   0.627  -3.369  0.00  0.00     0.016 C 
ATOM      3  C   LIG d   1       4.308   0.850  -2.291  0.00  0.00    -0.007 C 
ATOM      4  H   LIG d   1       3.949   1.634  -1.624  0.00  0.00     0.033 H 
ATOM      5  C   LIG d   1       4.523  -0.416  -1.461  0.00  0.00    -0.037 C 
ATOM      6  C   LIG d   1       4.974  -1.538  -2.401  0.00  0.00     0.016 C 
ATOM      7  H   LIG d   1       5.216  -2.433  -1.827  0.00  0.00     0.038 H 
ATOM      8  C   LIG d   1       3.824  -1.836  -3.384  0.00  0.00     0.020 C 
ATOM      9  C   LIG d   1       6.179  -1.086  -3.191  0.00  0.00     0.027 C 
ATOM     10  C   LIG d   1       7.040  -2.045  -3.625  0.00  0.00    -0.042 C 
ATOM     11  C   LIG d   1       8.142  -1.708  -4.418  0.00  0.00    -0.055 C 
ATOM     12  C   LIG d   1       8.322  -0.403  -4.774  0.00  0.00     0.003 C 
ATOM     13  C   LIG d   1       7.415   0.561  -4.315  0.00  0.00     0.252 C 
ATOM     14  O   LIG d   1       7.528   1.721  -4.677  0.00  0.00    -0.268 OA
ATOM     15  N   LIG d   1       6.411   0.218  -3.470  0.00  0.00    -0.312 N 
ATOM     16  C   LIG d   1       5.635   1.299  -2.874  0.00  0.00     0.031 C 
ATOM     17  H   LIG d   1       3.246   1.480  -4.047  0.00  0.00     0.047 H 
ATOM     18  H   LIG d   1       2.276   0.528  -2.902  0.00  0.00     0.047 H 
ATOM     19  H   LIG d   1       5.290  -0.236  -0.709  0.00  0.00     0.028 H 
ATOM     20  H   LIG d   1       3.589  -0.698  -0.974  0.00  0.00     0.028 H 
ATOM     21  H   LIG d   1       2.932  -2.138  -2.836  0.00  0.00     0.047 H 
ATOM     22  H   LIG d   1       4.121  -2.624  -4.076  0.00  0.00     0.047 H 
ATOM     23  H   LIG d   1       6.873  -3.077  -3.352  0.00  0.00     0.064 H 
ATOM     24  H   LIG d   1       8.836  -2.467  -4.746  0.00  0.00     0.062 H 
ATOM     25  H   LIG d   1       9.155  -0.116  -5.401  0.00  0.00     0.067 H 
ATOM     26  H   LIG d   1       5.448   2.060  -3.633  0.00  0.00     0.050 H 
ATOM     27  H   LIG d   1       6.239   1.738  -2.080  0.00  0.00     0.050 H 
ENDROOT
BRANCH   1  28
ATOM     28  C   LIG d   1       3.586  -0.577  -5.503  0.00  0.00    -0.039 C 
ATOM     29  N   LIG d   1       3.051   0.418  -6.154  0.00  0.00    -0.195 NA
ATOM     30  S   LIG d   1       4.345  -1.900  -6.385  0.00  0.00    -0.724 SA
BRANCH  29  31
ATOM     31  P   LIG d   1       3.221   0.519  -7.782  0.00  0.00     0.456 P 
ATOM     32  O   LIG d   1       4.546  -0.010  -8.174  0.00  0.00    -0.232 OA
BRANCH  31  33
ATOM     33  O   LIG d   1       3.102   2.058  -8.240  0.00  0.00    -0.291 OA
BRANCH  33  34
ATOM     34  C   LIG d   1       3.966   2.651  -9.210  0.00  0.00     0.056 C 
ATOM     35  H   LIG d   1       5.004   2.515  -8.903  0.00  0.00     0.056 H 
ATOM     36  H   LIG d   1       3.749   3.717  -9.288  0.00  0.00     0.056 H 
BRANCH  34  37
ATOM     37  C   LIG d   1       3.744   1.985 -10.568  0.00  0.00    -0.041 C 
ATOM     38  H   LIG d   1       3.220   1.039 -10.428  0.00  0.00     0.025 H 
ATOM     39  H   LIG d   1       3.146   2.641 -11.201  0.00  0.00     0.025 H 
ATOM     40  H   LIG d   1       4.707   1.799 -11.044  0.00  0.00     0.025 H 
ENDBRANCH  34  37
ENDBRANCH  33  34
ENDBRANCH  31  33
BRANCH  31  41
ATOM     41  O   LIG d   1       2.066  -0.344  -8.497  0.00  0.00    -0.291 OA
BRANCH  41  42
ATOM     42  C   LIG d   1       2.328  -1.279  -9.546  0.00  0.00     0.056 C 
ATOM     43  H   LIG d   1       3.372  -1.201  -9.848  0.00  0.00     0.056 H 
ATOM     44  H   LIG d   1       2.126  -2.289  -9.190  0.00  0.00     0.056 H 
BRANCH  42  45
ATOM     45  C   LIG d   1       1.426  -0.969 -10.742  0.00  0.00    -0.041 C 
ATOM     46  H   LIG d   1       1.941  -1.239 -11.664  0.00  0.00     0.025 H 
ATOM     47  H   LIG d   1       0.503  -1.543 -10.660  0.00  0.00     0.025 H 
ATOM     48  H   LIG d   1       1.192   0.096 -10.755  0.00  0.00     0.025 H 
ENDBRANCH  42  45
ENDBRANCH  41  42
ENDBRANCH  31  41
ENDBRANCH  29  31
ENDBRANCH   1  28
TORSDOF 8
ENDMDL
MODEL 3
REMARK VINA RESULT:      -6.0      1.617      2.372
REMARK  8 active torsions:
REMARK  status: ('A' for Active; 'I' for Inactive)
REMARK    1  A    between atoms: C_1  and  C_2 
REMARK    2  A    between atoms: C_2  and  O_3 
REMARK    3  A    between atoms: O_3  and  P_4 
REMARK    4  A    between atoms: P_4  and  N_6 
REMARK    5  A    between atoms: P_4  and  O_25 
REMARK    6  A    between atoms: C_7  and  N_9 
REMARK    7  A    between atoms: O_25  and  C_26 
REMARK    8  A    between atoms: C_26  and  C_27 
ROOT
ATOM      1  N   LIG d   1       3.711  -0.631  -4.428  0.00  0.00    -0.338 N 
ATOM      2  C   LIG d   1       3.216   0.374  -3.478  0.00  0.00     0.016 C 
ATOM      3  C   LIG d   1       4.155   0.478  -2.285  0.00  0.00    -0.007 C 
ATOM      4  H   LIG d   1       3.660   1.071  -1.515  0.00  0.00     0.033 H 
ATOM      5  C   LIG d   1       4.456  -0.902  -1.699  0.00  0.00    -0.037 C 
ATOM      6  C   LIG d   1       5.100  -1.760  -2.792  0.00  0.00     0.016 C 
ATOM      7  H   LIG d   1       5.403  -2.724  -2.382  0.00  0.00     0.038 H 
ATOM      8  C   LIG d   1       4.065  -1.965  -3.917  0.00  0.00     0.020 C 
ATOM      9  C   LIG d   1       6.297  -1.040  -3.365  0.00  0.00     0.027 C 
ATOM     10  C   LIG d   1       7.293  -1.801  -3.893  0.00  0.00    -0.042 C 
ATOM     11  C   LIG d   1       8.401  -1.201  -4.501  0.00  0.00    -0.055 C 
ATOM     12  C   LIG d   1       8.454   0.159  -4.579  0.00  0.00     0.003 C 
ATOM     13  C   LIG d   1       7.411   0.915  -4.028  0.00  0.00     0.252 C 
ATOM     14  O   LIG d   1       7.414   2.130  -4.148  0.00  0.00    -0.268 OA
ATOM     15  N   LIG d   1       6.395   0.310  -3.363  0.00  0.00    -0.312 N 
ATOM     16  C   LIG d   1       5.459   1.166  -2.644  0.00  0.00     0.031 C 
ATOM     17  H   LIG d   1       3.155   1.341  -3.976  0.00  0.00     0.047 H 
ATOM     18  H   LIG d   1       2.223   0.086  -3.133  0.00  0.00     0.047 H 
ATOM     19  H   LIG d   1       5.141  -0.803  -0.858  0.00  0.00     0.028 H 
ATOM     20  H   LIG d   1       3.529  -1.368  -1.365  0.00  0.00     0.028 H 
ATOM     21  H   LIG d   1       3.177  -2.460  -3.523  0.00  0.00     0.047 H 
ATOM     22  H   LIG d   1       4.500  -2.564  -4.718  0.00  0.00     0.047 H 
ATOM     23  H   LIG d   1       7.227  -2.878  -3.843  0.00  0.00     0.064 H 
ATOM     24  H   LIG d   1       9.201  -1.806  -4.903  0.00  0.00     0.062 H 
ATOM     25  H   LIG d   1       9.290   0.649  -5.059  0.00  0.00     0.067 H 
ATOM     26  H   LIG d   1       5.239   2.042  -3.255  0.00  0.00     0.050 H 
ATOM     27  H   LIG d   1       5.950   1.492  -1.727  0.00  0.00     0.050 H 
ENDROOT
BRANCH   1  28
ATOM     28  C   LIG d   1       3.834  -0.334  -5.765  0.00  0.00    -0.039 C 
ATOM     29  N   LIG d   1       4.926  -0.648  -6.405  0.00  0.00    -0.195 NA
ATOM     30  S   LIG d   1       2.516   0.472  -6.614  0.00  0.00    -0.724 SA
BRANCH  29  31
ATOM     31  P   LIG d   1       5.015  -0.438  -8.029  0.00  0.00     0.456 P 
ATOM     32  O   LIG d   1       3.817  -1.028  -8.669  0.00  0.00    -0.232 OA
BRANCH  31  33
ATOM     33  O   LIG d   1       6.336  -1.164  -8.593  0.00  0.00    -0.291 OA
BRANCH  33  34
ATOM     34  C   LIG d   1       6.563  -2.570  -8.475  0.00  0.00     0.056 C 
ATOM     35  H   LIG d   1       6.541  -3.026  -9.465  0.00  0.00     0.056 H 
ATOM     36  H   LIG d   1       5.783  -3.013  -7.855  0.00  0.00     0.056 H 
BRANCH  34  37
ATOM     37  C   LIG d   1       7.928  -2.815  -7.830  0.00  0.00    -0.041 C 
ATOM     38  H   LIG d   1       8.216  -1.941  -7.245  0.00  0.00     0.025 H 
ATOM     39  H   LIG d   1       7.870  -3.686  -7.177  0.00  0.00     0.025 H 
ATOM     40  H   LIG d   1       8.671  -2.992  -8.608  0.00  0.00     0.025 H 
ENDBRANCH  34  37
ENDBRANCH  33  34
ENDBRANCH  31  33
BRANCH  31  41
ATOM     41  O   LIG d   1       5.082   1.134  -8.364  0.00  0.00    -0.291 OA
BRANCH  41  42
ATOM     42  C   LIG d   1       4.833   1.665  -9.668  0.00  0.00     0.056 C 
ATOM     43  H   LIG d   1       5.692   2.250  -9.992  0.00  0.00     0.056 H 
ATOM     44  H   LIG d   1       4.667   0.845 -10.366  0.00  0.00     0.056 H 
BRANCH  42  45
ATOM     45  C   LIG d   1       3.592   2.560  -9.626  0.00  0.00    -0.041 C 
ATOM     46  H   LIG d   1       3.000   2.318  -8.745  0.00  0.00     0.025 H 
ATOM     47  H   LIG d   1       3.900   3.605  -9.583  0.00  0.00     0.025 H 
ATOM     48  H   LIG d   1       2.995   2.395 -10.523  0.00  0.00     0.025 H 
ENDBRANCH  42  45
ENDBRANCH  41  42
ENDBRANCH  31  41
ENDBRANCH  29  31
ENDBRANCH   1  28
TORSDOF 8
ENDMDL
MODEL 4
REMARK VINA RESULT:      -6.0      1.976      3.386
REMARK  8 active torsions:
REMARK  status: ('A' for Active; 'I' for Inactive)
REMARK    1  A    between atoms: C_1  and  C_2 
REMARK    2  A    between atoms: C_2  and  O_3 
REMARK    3  A    between atoms: O_3  and  P_4 
REMARK    4  A    between atoms: P_4  and  N_6 
REMARK    5  A    between atoms: P_4  and  O_25 
REMARK    6  A    between atoms: C_7  and  N_9 
REMARK    7  A    between atoms: O_25  and  C_26 
REMARK    8  A    between atoms: C_26  and  C_27 
ROOT
ATOM      1  N   LIG d   1       6.332  -1.246  -5.978  0.00  0.00    -0.338 N 
ATOM      2  C   LIG d   1       6.000  -2.665  -5.793  0.00  0.00     0.016 C 
ATOM      3  C   LIG d   1       5.805  -2.971  -4.315  0.00  0.00    -0.007 C 
ATOM      4  H   LIG d   1       5.765  -4.054  -4.196  0.00  0.00     0.033 H 
ATOM      5  C   LIG d   1       6.978  -2.446  -3.485  0.00  0.00    -0.037 C 
ATOM      6  C   LIG d   1       7.076  -0.932  -3.692  0.00  0.00     0.016 C 
ATOM      7  H   LIG d   1       7.851  -0.515  -3.048  0.00  0.00     0.038 H 
ATOM      8  C   LIG d   1       7.419  -0.668  -5.172  0.00  0.00     0.020 C 
ATOM      9  C   LIG d   1       5.745  -0.289  -3.385  0.00  0.00     0.027 C 
ATOM     10  C   LIG d   1       5.755   1.003  -2.963  0.00  0.00    -0.042 C 
ATOM     11  C   LIG d   1       4.556   1.684  -2.724  0.00  0.00    -0.055 C 
ATOM     12  C   LIG d   1       3.376   1.038  -2.946  0.00  0.00     0.003 C 
ATOM     13  C   LIG d   1       3.399  -0.293  -3.384  0.00  0.00     0.252 C 
ATOM     14  O   LIG d   1       2.352  -0.862  -3.648  0.00  0.00    -0.268 OA
ATOM     15  N   LIG d   1       4.574  -0.956  -3.518  0.00  0.00    -0.312 N 
ATOM     16  C   LIG d   1       4.511  -2.390  -3.777  0.00  0.00     0.031 C 
ATOM     17  H   LIG d   1       5.082  -2.894  -6.334  0.00  0.00     0.047 H 
ATOM     18  H   LIG d   1       6.810  -3.279  -6.186  0.00  0.00     0.047 H 
ATOM     19  H   LIG d   1       6.808  -2.663  -2.431  0.00  0.00     0.028 H 
ATOM     20  H   LIG d   1       7.902  -2.922  -3.814  0.00  0.00     0.028 H 
ATOM     21  H   LIG d   1       8.365  -1.146  -5.428  0.00  0.00     0.047 H 
ATOM     22  H   LIG d   1       7.484   0.405  -5.353  0.00  0.00     0.047 H 
ATOM     23  H   LIG d   1       6.698   1.509  -2.811  0.00  0.00     0.064 H 
ATOM     24  H   LIG d   1       4.565   2.704  -2.370  0.00  0.00     0.062 H 
ATOM     25  H   LIG d   1       2.435   1.545  -2.786  0.00  0.00     0.067 H 
ATOM     26  H   LIG d   1       3.713  -2.584  -4.494  0.00  0.00     0.050 H 
ATOM     27  H   LIG d   1       4.266  -2.883  -2.837  0.00  0.00     0.050 H 
ENDROOT
BRANCH   1  28
ATOM     28  C   LIG d   1       5.646  -0.477  -6.889  0.00  0.00    -0.039 C 
ATOM     29  N   LIG d   1       6.257   0.487  -7.521  0.00  0.00    -0.195 NA
ATOM     30  S   LIG d   1       3.941  -0.794  -7.203  0.00  0.00    -0.724 SA
BRANCH  29  31
ATOM     31  P   LIG d   1       5.487   1.300  -8.718  0.00  0.00     0.456 P 
ATOM     32  O   LIG d   1       4.223   1.868  -8.195  0.00  0.00    -0.232 OA
BRANCH  31  33
ATOM     33  O   LIG d   1       5.160   0.291  -9.929  0.00  0.00    -0.291 OA
BRANCH  33  34
ATOM     34  C   LIG d   1       4.352   0.654 -11.050  0.00  0.00     0.056 C 
ATOM     35  H   LIG d   1       4.862   0.374 -11.971  0.00  0.00     0.056 H 
ATOM     36  H   LIG d   1       4.183   1.732 -11.042  0.00  0.00     0.056 H 
BRANCH  34  37
ATOM     37  C   LIG d   1       3.009  -0.073 -10.968  0.00  0.00    -0.041 C 
ATOM     38  H   LIG d   1       3.169  -1.096 -10.628  0.00  0.00     0.025 H 
ATOM     39  H   LIG d   1       2.357   0.446 -10.265  0.00  0.00     0.025 H 
ATOM     40  H   LIG d   1       2.542  -0.087 -11.953  0.00  0.00     0.025 H 
ENDBRANCH  34  37
ENDBRANCH  33  34
ENDBRANCH  31  33
BRANCH  31  41
ATOM     41  O   LIG d   1       6.429   2.491  -9.250  0.00  0.00    -0.291 OA
BRANCH  41  42
ATOM     42  C   LIG d   1       7.808   2.612  -8.893  0.00  0.00     0.056 C 
ATOM     43  H   LIG d   1       8.128   3.645  -9.027  0.00  0.00     0.056 H 
ATOM     44  H   LIG d   1       7.939   2.323  -7.851  0.00  0.00     0.056 H 
BRANCH  42  45
ATOM     45  C   LIG d   1       8.649   1.698  -9.787  0.00  0.00    -0.041 C 
ATOM     46  H   LIG d   1       8.299   0.671  -9.687  0.00  0.00     0.025 H 
ATOM     47  H   LIG d   1       8.552   2.016 -10.825  0.00  0.00     0.025 H 
ATOM     48  H   LIG d   1       9.695   1.757  -9.485  0.00  0.00     0.025 H 
ENDBRANCH  42  45
ENDBRANCH  41  42
ENDBRANCH  31  41
ENDBRANCH  29  31
ENDBRANCH   1  28
TORSDOF 8
ENDMDL
MODEL 5
REMARK VINA RESULT:      -6.0      2.784      6.581
REMARK  8 active torsions:
REMARK  status: ('A' for Active; 'I' for Inactive)
REMARK    1  A    between atoms: C_1  and  C_2 
REMARK    2  A    between atoms: C_2  and  O_3 
REMARK    3  A    between atoms: O_3  and  P_4 
REMARK    4  A    between atoms: P_4  and  N_6 
REMARK    5  A    between atoms: P_4  and  O_25 
REMARK    6  A    between atoms: C_7  and  N_9 
REMARK    7  A    between atoms: O_25  and  C_26 
REMARK    8  A    between atoms: C_26  and  C_27 
ROOT
ATOM      1  N   LIG d   1       3.565  -2.162  -9.045  0.00  0.00    -0.338 N 
ATOM      2  C   LIG d   1       4.284  -2.744 -10.186  0.00  0.00     0.016 C 
ATOM      3  C   LIG d   1       4.206  -1.812 -11.388  0.00  0.00    -0.007 C 
ATOM      4  H   LIG d   1       4.565  -2.357 -12.262  0.00  0.00     0.033 H 
ATOM      5  C   LIG d   1       2.764  -1.382 -11.657  0.00  0.00    -0.037 C 
ATOM      6  C   LIG d   1       2.233  -0.666 -10.412  0.00  0.00     0.016 C 
ATOM      7  H   LIG d   1       1.234  -0.273 -10.602  0.00  0.00     0.038 H 
ATOM      8  C   LIG d   1       2.190  -1.682  -9.252  0.00  0.00     0.020 C 
ATOM      9  C   LIG d   1       3.169   0.457 -10.032  0.00  0.00     0.027 C 
ATOM     10  C   LIG d   1       2.640   1.516  -9.364  0.00  0.00    -0.042 C 
ATOM     11  C   LIG d   1       3.459   2.561  -8.923  0.00  0.00    -0.055 C 
ATOM     12  C   LIG d   1       4.801   2.487  -9.150  0.00  0.00     0.003 C 
ATOM     13  C   LIG d   1       5.317   1.380  -9.838  0.00  0.00     0.252 C 
ATOM     14  O   LIG d   1       6.523   1.270  -9.992  0.00  0.00    -0.268 OA
ATOM     15  N   LIG d   1       4.488   0.429 -10.335  0.00  0.00    -0.312 N 
ATOM     16  C   LIG d   1       5.073  -0.580 -11.211  0.00  0.00     0.031 C 
ATOM     17  H   LIG d   1       5.328  -2.897  -9.914  0.00  0.00     0.047 H 
ATOM     18  H   LIG d   1       3.836  -3.704 -10.443  0.00  0.00     0.047 H 
ATOM     19  H   LIG d   1       2.736  -0.705 -12.510  0.00  0.00     0.028 H 
ATOM     20  H   LIG d   1       2.151  -2.260 -11.864  0.00  0.00     0.028 H 
ATOM     21  H   LIG d   1       1.540  -2.518  -9.512  0.00  0.00     0.047 H 
ATOM     22  H   LIG d   1       1.827  -1.197  -8.346  0.00  0.00     0.047 H 
ATOM     23  H   LIG d   1       1.577   1.551  -9.173  0.00  0.00     0.064 H 
ATOM     24  H   LIG d   1       3.035   3.412  -8.410  0.00  0.00     0.062 H 
ATOM     25  H   LIG d   1       5.460   3.272  -8.805  0.00  0.00     0.067 H 
ATOM     26  H   LIG d   1       6.039  -0.883 -10.807  0.00  0.00     0.050 H 
ATOM     27  H   LIG d   1       5.231  -0.117 -12.186  0.00  0.00     0.050 H 
ENDROOT
BRANCH   1  28
ATOM     28  C   LIG d   1       4.163  -2.073  -7.809  0.00  0.00    -0.039 C 
ATOM     29  N   LIG d   1       4.003  -1.001  -7.083  0.00  0.00    -0.195 NA
ATOM     30  S   LIG d   1       5.145  -3.407  -7.207  0.00  0.00    -0.724 SA
BRANCH  29  31
ATOM     31  P   LIG d   1       4.582  -0.956  -5.550  0.00  0.00     0.456 P 
ATOM     32  O   LIG d   1       6.048  -1.158  -5.569  0.00  0.00    -0.232 OA
BRANCH  31  33
ATOM     33  O   LIG d   1       3.892  -2.123  -4.681  0.00  0.00    -0.291 OA
BRANCH  33  34
ATOM     34  C   LIG d   1       4.523  -2.732  -3.553  0.00  0.00     0.056 C 
ATOM     35  H   LIG d   1       5.578  -2.455  -3.534  0.00  0.00     0.056 H 
ATOM     36  H   LIG d   1       4.434  -3.816  -3.629  0.00  0.00     0.056 H 
BRANCH  34  37
ATOM     37  C   LIG d   1       3.846  -2.252  -2.268  0.00  0.00    -0.041 C 
ATOM     38  H   LIG d   1       3.772  -3.082  -1.565  0.00  0.00     0.025 H 
ATOM     39  H   LIG d   1       4.438  -1.451  -1.824  0.00  0.00     0.025 H 
ATOM     40  H   LIG d   1       2.848  -1.882  -2.499  0.00  0.00     0.025 H 
ENDBRANCH  34  37
ENDBRANCH  33  34
ENDBRANCH  31  33
BRANCH  31  41
ATOM     41  O   LIG d   1       4.246   0.474  -4.891  0.00  0.00    -0.291 OA
BRANCH  41  42
ATOM     42  C   LIG d   1       3.123   0.693  -4.036  0.00  0.00     0.056 C 
ATOM     43  H   LIG d   1       2.395   1.322  -4.547  0.00  0.00     0.056 H 
ATOM     44  H   LIG d   1       2.665  -0.264  -3.787  0.00  0.00     0.056 H 
BRANCH  42  45
ATOM     45  C   LIG d   1       3.586   1.388  -2.753  0.00  0.00    -0.041 C 
ATOM     46  H   LIG d   1       4.659   1.246  -2.631  0.00  0.00     0.025 H 
ATOM     47  H   LIG d   1       3.364   2.453  -2.817  0.00  0.00     0.025 H 
ATOM     48  H   LIG d   1       3.063   0.958  -1.899  0.00  0.00     0.025 H 
ENDBRANCH  42  45
ENDBRANCH  41  42
ENDBRANCH  31  41
ENDBRANCH  29  31
ENDBRANCH   1  28
TORSDOF 8
ENDMDL
MODEL 6
REMARK VINA RESULT:      -5.8      2.618      6.392
REMARK  8 active torsions:
REMARK  status: ('A' for Active; 'I' for Inactive)
REMARK    1  A    between atoms: C_1  and  C_2 
REMARK    2  A    between atoms: C_2  and  O_3 
REMARK    3  A    between atoms: O_3  and  P_4 
REMARK    4  A    between atoms: P_4  and  N_6 
REMARK    5  A    between atoms: P_4  and  O_25 
REMARK    6  A    between atoms: C_7  and  N_9 
REMARK    7  A    between atoms: O_25  and  C_26 
REMARK    8  A    between atoms: C_26  and  C_27 
ROOT
ATOM      1  N   LIG d   1       4.501  -2.232  -8.755  0.00  0.00    -0.338 N 
ATOM      2  C   LIG d   1       5.464  -2.538  -9.821  0.00  0.00     0.016 C 
ATOM      3  C   LIG d   1       5.156  -1.710 -11.061  0.00  0.00    -0.007 C 
ATOM      4  H   LIG d   1       5.749  -2.104 -11.886  0.00  0.00     0.033 H 
ATOM      5  C   LIG d   1       3.679  -1.821 -11.444  0.00  0.00    -0.037 C 
ATOM      6  C   LIG d   1       2.837  -1.323 -10.266  0.00  0.00     0.016 C 
ATOM      7  H   LIG d   1       1.781  -1.311 -10.539  0.00  0.00     0.038 H 
ATOM      8  C   LIG d   1       3.064  -2.273  -9.073  0.00  0.00     0.020 C 
ATOM      9  C   LIG d   1       3.286   0.064  -9.870  0.00  0.00     0.027 C 
ATOM     10  C   LIG d   1       2.369   0.876  -9.281  0.00  0.00    -0.042 C 
ATOM     11  C   LIG d   1       2.731   2.149  -8.827  0.00  0.00    -0.055 C 
ATOM     12  C   LIG d   1       4.027   2.551  -8.960  0.00  0.00     0.003 C 
ATOM     13  C   LIG d   1       4.950   1.689  -9.568  0.00  0.00     0.252 C 
ATOM     14  O   LIG d   1       6.126   2.011  -9.635  0.00  0.00    -0.268 OA
ATOM     15  N   LIG d   1       4.550   0.500 -10.082  0.00  0.00    -0.312 N 
ATOM     16  C   LIG d   1       5.518  -0.248 -10.876  0.00  0.00     0.031 C 
ATOM     17  H   LIG d   1       6.471  -2.308  -9.473  0.00  0.00     0.047 H 
ATOM     18  H   LIG d   1       5.403  -3.597 -10.069  0.00  0.00     0.047 H 
ATOM     19  H   LIG d   1       3.481  -1.209 -12.323  0.00  0.00     0.028 H 
ATOM     20  H   LIG d   1       3.433  -2.862 -11.657  0.00  0.00     0.028 H 
ATOM     21  H   LIG d   1       2.773  -3.288  -9.343  0.00  0.00     0.047 H 
ATOM     22  H   LIG d   1       2.485  -1.936  -8.213  0.00  0.00     0.047 H 
ATOM     23  H   LIG d   1       1.350   0.536  -9.164  0.00  0.00     0.064 H 
ATOM     24  H   LIG d   1       1.997   2.801  -8.378  0.00  0.00     0.062 H 
ATOM     25  H   LIG d   1       4.339   3.523  -8.603  0.00  0.00     0.067 H 
ATOM     26  H   LIG d   1       6.494  -0.185 -10.395  0.00  0.00     0.050 H 
ATOM     27  H   LIG d   1       5.577   0.227 -11.855  0.00  0.00     0.050 H 
ENDROOT
BRANCH   1  28
ATOM     28  C   LIG d   1       4.932  -1.921  -7.486  0.00  0.00    -0.039 C 
ATOM     29  N   LIG d   1       4.327  -0.991  -6.802  0.00  0.00    -0.195 NA
ATOM     30  S   LIG d   1       6.302  -2.780  -6.786  0.00  0.00    -0.724 SA
BRANCH  29  31
ATOM     31  P   LIG d   1       4.736  -0.727  -5.236  0.00  0.00     0.456 P 
ATOM     32  O   LIG d   1       4.551  -1.975  -4.461  0.00  0.00    -0.232 OA
BRANCH  31  33
ATOM     33  O   LIG d   1       3.797   0.428  -4.623  0.00  0.00    -0.291 OA
BRANCH  33  34
ATOM     34  C   LIG d   1       3.094   0.287  -3.387  0.00  0.00     0.056 C 
ATOM     35  H   LIG d   1       3.086  -0.763  -3.092  0.00  0.00     0.056 H 
ATOM     36  H   LIG d   1       2.068   0.636  -3.511  0.00  0.00     0.056 H 
BRANCH  34  37
ATOM     37  C   LIG d   1       3.788   1.116  -2.306  0.00  0.00    -0.041 C 
ATOM     38  H   LIG d   1       3.645   0.641  -1.335  0.00  0.00     0.025 H 
ATOM     39  H   LIG d   1       4.855   1.180  -2.526  0.00  0.00     0.025 H 
ATOM     40  H   LIG d   1       3.361   2.119  -2.286  0.00  0.00     0.025 H 
ENDBRANCH  34  37
ENDBRANCH  33  34
ENDBRANCH  31  33
BRANCH  31  41
ATOM     41  O   LIG d   1       6.276  -0.268  -5.154  0.00  0.00    -0.291 OA
BRANCH  41  42
ATOM     42  C   LIG d   1       6.974  -0.097  -3.918  0.00  0.00     0.056 C 
ATOM     43  H   LIG d   1       6.353  -0.457  -3.098  0.00  0.00     0.056 H 
ATOM     44  H   LIG d   1       7.904  -0.663  -3.945  0.00  0.00     0.056 H 
BRANCH  42  45
ATOM     45  C   LIG d   1       7.285   1.387  -3.708  0.00  0.00    -0.041 C 
ATOM     46  H   LIG d   1       7.368   1.880  -4.676  0.00  0.00     0.025 H 
ATOM     47  H   LIG d   1       6.482   1.849  -3.133  0.00  0.00     0.025 H 
ATOM     48  H   LIG d   1       8.225   1.488  -3.166  0.00  0.00     0.025 H 
ENDBRANCH  42  45
ENDBRANCH  41  42
ENDBRANCH  31  41
ENDBRANCH  29  31
ENDBRANCH   1  28
TORSDOF 8
ENDMDL
MODEL 7
REMARK VINA RESULT:      -5.6      2.701      5.408
REMARK  8 active torsions:
REMARK  status: ('A' for Active; 'I' for Inactive)
REMARK    1  A    between atoms: C_1  and  C_2 
REMARK    2  A    between atoms: C_2  and  O_3 
REMARK    3  A    between atoms: O_3  and  P_4 
REMARK    4  A    between atoms: P_4  and  N_6 
REMARK    5  A    between atoms: P_4  and  O_25 
REMARK    6  A    between atoms: C_7  and  N_9 
REMARK    7  A    between atoms: O_25  and  C_26 
REMARK    8  A    between atoms: C_26  and  C_27 
ROOT
ATOM      1  N   LIG d   1       5.867  -0.162  -3.312  0.00  0.00    -0.338 N 
ATOM      2  C   LIG d   1       5.975  -1.531  -2.793  0.00  0.00     0.016 C 
ATOM      3  C   LIG d   1       4.690  -2.301  -3.067  0.00  0.00    -0.007 C 
ATOM      4  H   LIG d   1       4.724  -3.229  -2.497  0.00  0.00     0.033 H 
ATOM      5  C   LIG d   1       3.466  -1.508  -2.608  0.00  0.00    -0.037 C 
ATOM      6  C   LIG d   1       3.443  -0.176  -3.363  0.00  0.00     0.016 C 
ATOM      7  H   LIG d   1       2.535   0.377  -3.119  0.00  0.00     0.038 H 
ATOM      8  C   LIG d   1       4.685   0.637  -2.947  0.00  0.00     0.020 C 
ATOM      9  C   LIG d   1       3.511  -0.433  -4.850  0.00  0.00     0.027 C 
ATOM     10  C   LIG d   1       2.955   0.496  -5.672  0.00  0.00    -0.042 C 
ATOM     11  C   LIG d   1       3.038   0.358  -7.062  0.00  0.00    -0.055 C 
ATOM     12  C   LIG d   1       3.712  -0.710  -7.578  0.00  0.00     0.003 C 
ATOM     13  C   LIG d   1       4.277  -1.647  -6.704  0.00  0.00     0.252 C 
ATOM     14  O   LIG d   1       4.936  -2.573  -7.151  0.00  0.00    -0.268 OA
ATOM     15  N   LIG d   1       4.100  -1.537  -5.364  0.00  0.00    -0.312 N 
ATOM     16  C   LIG d   1       4.539  -2.653  -4.534  0.00  0.00     0.031 C 
ATOM     17  H   LIG d   1       6.810  -2.036  -3.279  0.00  0.00     0.047 H 
ATOM     18  H   LIG d   1       6.154  -1.496  -1.718  0.00  0.00     0.047 H 
ATOM     19  H   LIG d   1       2.560  -2.071  -2.828  0.00  0.00     0.028 H 
ATOM     20  H   LIG d   1       3.531  -1.321  -1.535  0.00  0.00     0.028 H 
ATOM     21  H   LIG d   1       4.675   0.813  -1.871  0.00  0.00     0.047 H 
ATOM     22  H   LIG d   1       4.703   1.588  -3.479  0.00  0.00     0.047 H 
ATOM     23  H   LIG d   1       2.443   1.348  -5.249  0.00  0.00     0.064 H 
ATOM     24  H   LIG d   1       2.579   1.085  -7.715  0.00  0.00     0.062 H 
ATOM     25  H   LIG d   1       3.807  -0.832  -8.648  0.00  0.00     0.067 H 
ATOM     26  H   LIG d   1       5.495  -3.019  -4.910  0.00  0.00     0.050 H 
ATOM     27  H   LIG d   1       3.797  -3.447  -4.632  0.00  0.00     0.050 H 
ENDROOT
BRANCH   1  28
ATOM     28  C   LIG d   1       6.851   0.365  -4.117  0.00  0.00    -0.039 C 
ATOM     29  N   LIG d   1       7.162   1.628  -4.024  0.00  0.00    -0.195 NA
ATOM     30  S   LIG d   1       7.691  -0.668  -5.271  0.00  0.00    -0.724 SA
BRANCH  29  31
ATOM     31  P   LIG d   1       8.438   2.221  -4.867  0.00  0.00     0.456 P 
ATOM     32  O   LIG d   1       9.620   1.359  -4.644  0.00  0.00    -0.232 OA
BRANCH  31  33
ATOM     33  O   LIG d   1       8.763   3.716  -4.366  0.00  0.00    -0.291 OA
BRANCH  33  34
ATOM     34  C   LIG d   1       9.959   4.414  -4.720  0.00  0.00     0.056 C 
ATOM     35  H   LIG d   1      10.551   3.798  -5.397  0.00  0.00     0.056 H 
ATOM     36  H   LIG d   1      10.538   4.622  -3.820  0.00  0.00     0.056 H 
BRANCH  34  37
ATOM     37  C   LIG d   1       9.597   5.730  -5.410  0.00  0.00    -0.041 C 
ATOM     38  H   LIG d   1       8.599   5.652  -5.842  0.00  0.00     0.025 H 
ATOM     39  H   LIG d   1       9.614   6.539  -4.679  0.00  0.00     0.025 H 
ATOM     40  H   LIG d   1      10.319   5.937  -6.199  0.00  0.00     0.025 H 
ENDBRANCH  34  37
ENDBRANCH  33  34
ENDBRANCH  31  33
BRANCH  31  41
ATOM     41  O   LIG d   1       8.080   2.247  -6.436  0.00  0.00    -0.291 OA
BRANCH  41  42
ATOM     42  C   LIG d   1       9.063   2.093  -7.462  0.00  0.00     0.056 C 
ATOM     43  H   LIG d   1      10.042   1.947  -7.007  0.00  0.00     0.056 H 
ATOM     44  H   LIG d   1       8.814   1.227  -8.075  0.00  0.00     0.056 H 
BRANCH  42  45
ATOM     45  C   LIG d   1       9.089   3.348  -8.336  0.00  0.00    -0.041 C 
ATOM     46  H   LIG d   1       8.202   3.949  -8.136  0.00  0.00     0.025 H 
ATOM     47  H   LIG d   1       9.981   3.931  -8.109  0.00  0.00     0.025 H 
ATOM     48  H   LIG d   1       9.102   3.059  -9.387  0.00  0.00     0.025 H 
ENDBRANCH  42  45
ENDBRANCH  41  42
ENDBRANCH  31  41
ENDBRANCH  29  31
ENDBRANCH   1  28
TORSDOF 8
ENDMDL
MODEL 8
REMARK VINA RESULT:      -5.6      2.758      5.820
REMARK  8 active torsions:
REMARK  status: ('A' for Active; 'I' for Inactive)
REMARK    1  A    between atoms: C_1  and  C_2 
REMARK    2  A    between atoms: C_2  and  O_3 
REMARK    3  A    between atoms: O_3  and  P_4 
REMARK    4  A    between atoms: P_4  and  N_6 
REMARK    5  A    between atoms: P_4  and  O_25 
REMARK    6  A    between atoms: C_7  and  N_9 
REMARK    7  A    between atoms: O_25  and  C_26 
REMARK    8  A    between atoms: C_26  and  C_27 
ROOT
ATOM      1  N   LIG d   1       5.930  -0.300  -3.108  0.00  0.00    -0.338 N 
ATOM      2  C   LIG d   1       6.077  -1.724  -2.782  0.00  0.00     0.016 C 
ATOM      3  C   LIG d   1       4.789  -2.471  -3.098  0.00  0.00    -0.007 C 
ATOM      4  H   LIG d   1       4.858  -3.467  -2.659  0.00  0.00     0.033 H 
ATOM      5  C   LIG d   1       3.579  -1.766  -2.484  0.00  0.00    -0.037 C 
ATOM      6  C   LIG d   1       3.507  -0.347  -3.053  0.00  0.00     0.016 C 
ATOM      7  H   LIG d   1       2.606   0.154  -2.698  0.00  0.00     0.038 H 
ATOM      8  C   LIG d   1       4.759   0.424  -2.589  0.00  0.00     0.020 C 
ATOM      9  C   LIG d   1       3.509  -0.403  -4.563  0.00  0.00     0.027 C 
ATOM     10  C   LIG d   1       2.906   0.617  -5.229  0.00  0.00    -0.042 C 
ATOM     11  C   LIG d   1       2.927   0.666  -6.627  0.00  0.00    -0.055 C 
ATOM     12  C   LIG d   1       3.587  -0.312  -7.310  0.00  0.00     0.003 C 
ATOM     13  C   LIG d   1       4.201  -1.349  -6.594  0.00  0.00     0.252 C 
ATOM     14  O   LIG d   1       4.849  -2.195  -7.190  0.00  0.00    -0.268 OA
ATOM     15  N   LIG d   1       4.085  -1.420  -5.245  0.00  0.00    -0.312 N 
ATOM     16  C   LIG d   1       4.573  -2.629  -4.592  0.00  0.00     0.031 C 
ATOM     17  H   LIG d   1       6.893  -2.146  -3.367  0.00  0.00     0.047 H 
ATOM     18  H   LIG d   1       6.304  -1.829  -1.721  0.00  0.00     0.047 H 
ATOM     19  H   LIG d   1       2.669  -2.311  -2.737  0.00  0.00     0.028 H 
ATOM     20  H   LIG d   1       3.691  -1.722  -1.400  0.00  0.00     0.028 H 
ATOM     21  H   LIG d   1       4.796   0.455  -1.500  0.00  0.00     0.047 H 
ATOM     22  H   LIG d   1       4.742   1.438  -2.990  0.00  0.00     0.047 H 
ATOM     23  H   LIG d   1       2.405   1.397  -4.673  0.00  0.00     0.064 H 
ATOM     24  H   LIG d   1       2.431   1.466  -7.156  0.00  0.00     0.062 H 
ATOM     25  H   LIG d   1       3.634  -0.291  -8.390  0.00  0.00     0.067 H 
ATOM     26  H   LIG d   1       5.515  -2.925  -5.055  0.00  0.00     0.050 H 
ATOM     27  H   LIG d   1       3.836  -3.414  -4.761  0.00  0.00     0.050 H 
ENDROOT
BRANCH   1  28
ATOM     28  C   LIG d   1       6.871   0.345  -3.879  0.00  0.00    -0.039 C 
ATOM     29  N   LIG d   1       7.348   1.497  -3.497  0.00  0.00    -0.195 NA
ATOM     30  S   LIG d   1       7.431  -0.387  -5.381  0.00  0.00    -0.724 SA
BRANCH  29  31
ATOM     31  P   LIG d   1       8.580   2.190  -4.329  0.00  0.00     0.456 P 
ATOM     32  O   LIG d   1       8.098   2.613  -5.663  0.00  0.00    -0.232 OA
BRANCH  31  33
ATOM     33  O   LIG d   1       9.775   1.127  -4.503  0.00  0.00    -0.291 OA
BRANCH  33  34
ATOM     34  C   LIG d   1      11.089   1.494  -4.929  0.00  0.00     0.056 C 
ATOM     35  H   LIG d   1      11.069   2.506  -5.335  0.00  0.00     0.056 H 
ATOM     36  H   LIG d   1      11.428   0.801  -5.700  0.00  0.00     0.056 H 
BRANCH  34  37
ATOM     37  C   LIG d   1      12.046   1.439  -3.738  0.00  0.00    -0.041 C 
ATOM     38  H   LIG d   1      13.047   1.184  -4.087  0.00  0.00     0.025 H 
ATOM     39  H   LIG d   1      12.069   2.412  -3.246  0.00  0.00     0.025 H 
ATOM     40  H   LIG d   1      11.705   0.683  -3.031  0.00  0.00     0.025 H 
ENDBRANCH  34  37
ENDBRANCH  33  34
ENDBRANCH  31  33
BRANCH  31  41
ATOM     41  O   LIG d   1       9.117   3.474  -3.520  0.00  0.00    -0.291 OA
BRANCH  41  42
ATOM     42  C   LIG d   1       9.572   4.666  -4.165  0.00  0.00     0.056 C 
ATOM     43  H   LIG d   1      10.536   4.478  -4.635  0.00  0.00     0.056 H 
ATOM     44  H   LIG d   1       8.850   4.966  -4.923  0.00  0.00     0.056 H 
BRANCH  42  45
ATOM     45  C   LIG d   1       9.719   5.782  -3.128  0.00  0.00    -0.041 C 
ATOM     46  H   LIG d   1      10.355   6.570  -3.531  0.00  0.00     0.025 H 
ATOM     47  H   LIG d   1       8.736   6.192  -2.894  0.00  0.00     0.025 H 
ATOM     48  H   LIG d   1      10.170   5.379  -2.221  0.00  0.00     0.025 H 
ENDBRANCH  42  45
ENDBRANCH  41  42
ENDBRANCH  31  41
ENDBRANCH  29  31
ENDBRANCH   1  28
TORSDOF 8
ENDMDL
MODEL 9
REMARK VINA RESULT:      -5.5      1.964      4.058
REMARK  8 active torsions:
REMARK  status: ('A' for Active; 'I' for Inactive)
REMARK    1  A    between atoms: C_1  and  C_2 
REMARK    2  A    between atoms: C_2  and  O_3 
REMARK    3  A    between atoms: O_3  and  P_4 
REMARK    4  A    between atoms: P_4  and  N_6 
REMARK    5  A    between atoms: P_4  and  O_25 
REMARK    6  A    between atoms: C_7  and  N_9 
REMARK    7  A    between atoms: O_25  and  C_26 
REMARK    8  A    between atoms: C_26  and  C_27 
ROOT
ATOM      1  N   LIG d   1       6.722  -1.168  -6.585  0.00  0.00    -0.338 N 
ATOM      2  C   LIG d   1       7.273  -2.529  -6.586  0.00  0.00     0.016 C 
ATOM      3  C   LIG d   1       7.784  -2.891  -5.199  0.00  0.00    -0.007 C 
ATOM      4  H   LIG d   1       8.365  -3.810  -5.281  0.00  0.00     0.033 H 
ATOM      5  C   LIG d   1       8.703  -1.799  -4.649  0.00  0.00    -0.037 C 
ATOM      6  C   LIG d   1       7.912  -0.490  -4.584  0.00  0.00     0.016 C 
ATOM      7  H   LIG d   1       8.514   0.290  -4.117  0.00  0.00     0.038 H 
ATOM      8  C   LIG d   1       7.538  -0.079  -6.022  0.00  0.00     0.020 C 
ATOM      9  C   LIG d   1       6.640  -0.703  -3.798  0.00  0.00     0.027 C 
ATOM     10  C   LIG d   1       6.109   0.374  -3.159  0.00  0.00    -0.042 C 
ATOM     11  C   LIG d   1       4.898   0.267  -2.467  0.00  0.00    -0.055 C 
ATOM     12  C   LIG d   1       4.243  -0.930  -2.467  0.00  0.00     0.003 C 
ATOM     13  C   LIG d   1       4.814  -2.020  -3.138  0.00  0.00     0.252 C 
ATOM     14  O   LIG d   1       4.208  -3.078  -3.200  0.00  0.00    -0.268 OA
ATOM     15  N   LIG d   1       6.034  -1.911  -3.721  0.00  0.00    -0.312 N 
ATOM     16  C   LIG d   1       6.652  -3.134  -4.219  0.00  0.00     0.031 C 
ATOM     17  H   LIG d   1       6.495  -3.233  -6.880  0.00  0.00     0.047 H 
ATOM     18  H   LIG d   1       8.095  -2.584  -7.300  0.00  0.00     0.047 H 
ATOM     19  H   LIG d   1       9.043  -2.073  -3.651  0.00  0.00     0.028 H 
ATOM     20  H   LIG d   1       9.563  -1.676  -5.309  0.00  0.00     0.028 H 
ATOM     21  H   LIG d   1       8.440   0.054  -6.620  0.00  0.00     0.047 H 
ATOM     22  H   LIG d   1       6.961   0.846  -6.007  0.00  0.00     0.047 H 
ATOM     23  H   LIG d   1       6.629   1.321  -3.185  0.00  0.00     0.064 H 
ATOM     24  H   LIG d   1       4.488   1.117  -1.944  0.00  0.00     0.062 H 
ATOM     25  H   LIG d   1       3.297  -1.037  -1.956  0.00  0.00     0.067 H 
ATOM     26  H   LIG d   1       5.889  -3.743  -4.705  0.00  0.00     0.050 H 
ATOM     27  H   LIG d   1       7.040  -3.679  -3.359  0.00  0.00     0.050 H 
ENDROOT
BRANCH   1  28
ATOM     28  C   LIG d   1       5.472  -0.915  -7.102  0.00  0.00    -0.039 C 
ATOM     29  N   LIG d   1       5.045   0.313  -7.206  0.00  0.00    -0.195 NA
ATOM     30  S   LIG d   1       4.449  -2.251  -7.626  0.00  0.00    -0.724 SA
BRANCH  29  31
ATOM     31  P   LIG d   1       3.626   0.626  -7.966  0.00  0.00     0.456 P 
ATOM     32  O   LIG d   1       3.550   2.068  -8.294  0.00  0.00    -0.232 OA
BRANCH  31  33
ATOM     33  O   LIG d   1       2.401   0.231  -6.999  0.00  0.00    -0.291 OA
BRANCH  33  34
ATOM     34  C   LIG d   1       2.534   0.115  -5.582  0.00  0.00     0.056 C 
ATOM     35  H   LIG d   1       3.506  -0.315  -5.342  0.00  0.00     0.056 H 
ATOM     36  H   LIG d   1       1.746  -0.532  -5.194  0.00  0.00     0.056 H 
BRANCH  34  37
ATOM     37  C   LIG d   1       2.417   1.500  -4.943  0.00  0.00    -0.041 C 
ATOM     38  H   LIG d   1       2.123   1.396  -3.898  0.00  0.00     0.025 H 
ATOM     39  H   LIG d   1       3.380   2.009  -5.001  0.00  0.00     0.025 H 
ATOM     40  H   LIG d   1       1.665   2.084  -5.475  0.00  0.00     0.025 H 
ENDBRANCH  34  37
ENDBRANCH  33  34
ENDBRANCH  31  33
BRANCH  31  41
ATOM     41  O   LIG d   1       3.541  -0.237  -9.322  0.00  0.00    -0.291 OA
BRANCH  41  42
ATOM     42  C   LIG d   1       2.643   0.074 -10.389  0.00  0.00     0.056 C 
ATOM     43  H   LIG d   1       2.395   1.134 -10.357  0.00  0.00     0.056 H 
ATOM     44  H   LIG d   1       3.116  -0.161 -11.341  0.00  0.00     0.056 H 
BRANCH  42  45
ATOM     45  C   LIG d   1       1.364  -0.753 -10.236  0.00  0.00    -0.041 C 
ATOM     46  H   LIG d   1       0.585  -0.137  -9.786  0.00  0.00     0.025 H 
ATOM     47  H   LIG d   1       1.034  -1.096 -11.217  0.00  0.00     0.025 H 
ATOM     48  H   LIG d   1       1.562  -1.614  -9.598  0.00  0.00     0.025 H 
ENDBRANCH  42  45
ENDBRANCH  41  42
ENDBRANCH  31  41
ENDBRANCH  29  31
ENDBRANCH   1  28
TORSDOF 8
ENDMDL
MODEL 10
REMARK VINA RESULT:      -5.5      2.857      6.504
REMARK  8 active torsions:
REMARK  status: ('A' for Active; 'I' for Inactive)
REMARK    1  A    between atoms: C_1  and  C_2 
REMARK    2  A    between atoms: C_2  and  O_3 
REMARK    3  A    between atoms: O_3  and  P_4 
REMARK    4  A    between atoms: P_4  and  N_6 
REMARK    5  A    between atoms: P_4  and  O_25 
REMARK    6  A    between atoms: C_7  and  N_9 
REMARK    7  A    between atoms: O_25  and  C_26 
REMARK    8  A    between atoms: C_26  and  C_27 
ROOT
ATOM      1  N   LIG d   1       4.126   0.788  -8.388  0.00  0.00    -0.338 N 
ATOM      2  C   LIG d   1       2.829   0.971  -9.052  0.00  0.00     0.016 C 
ATOM      3  C   LIG d   1       2.844   0.313 -10.425  0.00  0.00    -0.007 C 
ATOM      4  H   LIG d   1       1.955   0.638 -10.966  0.00  0.00     0.033 H 
ATOM      5  C   LIG d   1       4.071   0.744 -11.228  0.00  0.00    -0.037 C 
ATOM      6  C   LIG d   1       5.325   0.341 -10.447  0.00  0.00     0.016 C 
ATOM      7  H   LIG d   1       6.218   0.559 -11.033  0.00  0.00     0.038 H 
ATOM      8  C   LIG d   1       5.349   1.138  -9.128  0.00  0.00     0.020 C 
ATOM      9  C   LIG d   1       5.268  -1.132 -10.119  0.00  0.00     0.027 C 
ATOM     10  C   LIG d   1       6.450  -1.785  -9.957  0.00  0.00    -0.042 C 
ATOM     11  C   LIG d   1       6.474  -3.134  -9.587  0.00  0.00    -0.055 C 
ATOM     12  C   LIG d   1       5.292  -3.777  -9.363  0.00  0.00     0.003 C 
ATOM     13  C   LIG d   1       4.091  -3.075  -9.534  0.00  0.00     0.252 C 
ATOM     14  O   LIG d   1       3.029  -3.620  -9.276  0.00  0.00    -0.268 OA
ATOM     15  N   LIG d   1       4.096  -1.796  -9.984  0.00  0.00    -0.312 N 
ATOM     16  C   LIG d   1       2.811  -1.201 -10.332  0.00  0.00     0.031 C 
ATOM     17  H   LIG d   1       2.045   0.520  -8.443  0.00  0.00     0.047 H 
ATOM     18  H   LIG d   1       2.627   2.036  -9.164  0.00  0.00     0.047 H 
ATOM     19  H   LIG d   1       4.067   0.249 -12.199  0.00  0.00     0.028 H 
ATOM     20  H   LIG d   1       4.057   1.825 -11.367  0.00  0.00     0.028 H 
ATOM     21  H   LIG d   1       5.363   2.207  -9.337  0.00  0.00     0.047 H 
ATOM     22  H   LIG d   1       6.227   0.862  -8.542  0.00  0.00     0.047 H 
ATOM     23  H   LIG d   1       7.379  -1.257 -10.117  0.00  0.00     0.064 H 
ATOM     24  H   LIG d   1       7.412  -3.657  -9.478  0.00  0.00     0.062 H 
ATOM     25  H   LIG d   1       5.281  -4.814  -9.059  0.00  0.00     0.067 H 
ATOM     26  H   LIG d   1       2.072  -1.493  -9.585  0.00  0.00     0.050 H 
ATOM     27  H   LIG d   1       2.512  -1.608 -11.299  0.00  0.00     0.050 H 
ENDROOT
BRANCH   1  28
ATOM     28  C   LIG d   1       4.195   0.306  -7.101  0.00  0.00    -0.039 C 
ATOM     29  N   LIG d   1       5.336  -0.098  -6.617  0.00  0.00    -0.195 NA
ATOM     30  S   LIG d   1       2.741   0.237  -6.107  0.00  0.00    -0.724 SA
BRANCH  29  31
ATOM     31  P   LIG d   1       5.451  -0.523  -5.037  0.00  0.00     0.456 P 
ATOM     32  O   LIG d   1       6.844  -0.925  -4.735  0.00  0.00    -0.232 OA
BRANCH  31  33
ATOM     33  O   LIG d   1       4.461  -1.757  -4.739  0.00  0.00    -0.291 OA
BRANCH  33  34
ATOM     34  C   LIG d   1       4.673  -2.688  -3.676  0.00  0.00     0.056 C 
ATOM     35  H   LIG d   1       5.724  -2.673  -3.385  0.00  0.00     0.056 H 
ATOM     36  H   LIG d   1       4.404  -3.690  -4.011  0.00  0.00     0.056 H 
BRANCH  34  37
ATOM     37  C   LIG d   1       3.806  -2.300  -2.477  0.00  0.00    -0.041 C 
ATOM     38  H   LIG d   1       3.222  -3.163  -2.156  0.00  0.00     0.025 H 
ATOM     39  H   LIG d   1       4.446  -1.969  -1.659  0.00  0.00     0.025 H 
ATOM     40  H   LIG d   1       3.132  -1.492  -2.762  0.00  0.00     0.025 H 
ENDBRANCH  34  37
ENDBRANCH  33  34
ENDBRANCH  31  33
BRANCH  31  41
ATOM     41  O   LIG d   1       5.042   0.729  -4.113  0.00  0.00    -0.291 OA
BRANCH  41  42
ATOM     42  C   LIG d   1       5.629   0.978  -2.834  0.00  0.00     0.056 C 
ATOM     43  H   LIG d   1       6.317   0.170  -2.587  0.00  0.00     0.056 H 
ATOM     44  H   LIG d   1       6.172   1.922  -2.862  0.00  0.00     0.056 H 
BRANCH  42  45
ATOM     45  C   LIG d   1       4.529   1.053  -1.773  0.00  0.00    -0.041 C 
ATOM     46  H   LIG d   1       3.944   0.134  -1.791  0.00  0.00     0.025 H 
ATOM     47  H   LIG d   1       4.980   1.178  -0.789  0.00  0.00     0.025 H 
ATOM     48  H   LIG d   1       3.878   1.902  -1.984  0.00  0.00     0.025 H 
ENDBRANCH  42  45
ENDBRANCH  41  42
ENDBRANCH  31  41
ENDBRANCH  29  31
ENDBRANCH   1  28
TORSDOF 8
ENDMDL
