MODEL 1
REMARK VINA RESULT:      -6.8      0.000      0.000
REMARK  2 active torsions:
REMARK  status: ('A' for Active; 'I' for Inactive)
REMARK    1  A    between atoms: C_1  and  C_2 
REMARK    2  A    between atoms: C_10  and  C_11 
ROOT
ATOM      1  C   LIG d   1       6.696   0.369  -8.230  0.00  0.00    -0.015 A 
ATOM      2  C   LIG d   1       6.966   0.397  -9.588  0.00  0.00    -0.102 A 
ATOM      3  C   LIG d   1       5.939   0.258 -10.517  0.00  0.00    -0.068 A 
ATOM      4  C   LIG d   1       4.650   0.092 -10.097  0.00  0.00    -0.048 A 
ATOM      5  C   LIG d   1       4.363   0.062  -8.732  0.00  0.00     0.068 A 
ATOM      6  C   LIG d   1       5.391   0.201  -7.785  0.00  0.00     0.142 A 
ATOM      7  O   LIG d   1       4.874   0.140  -6.538  0.00  0.00    -0.451 OA
ATOM      8  C   LIG d   1       3.530  -0.035  -6.558  0.00  0.00     0.176 A 
ATOM      9  C   LIG d   1       2.720  -0.135  -5.476  0.00  0.00    -0.008 C 
ATOM     10  C   LIG d   1       3.113  -0.104  -7.968  0.00  0.00     0.232 A 
ATOM     11  O   LIG d   1       1.987  -0.259  -8.405  0.00  0.00    -0.283 OA
ATOM     12  O   LIG d   1       8.244   0.561 -10.017  0.00  0.00    -0.873 OA
ATOM     13  H   LIG d   1       6.162   0.281 -11.574  0.00  0.00     0.061 H 
ATOM     14  H   LIG d   1       3.855  -0.016 -10.819  0.00  0.00     0.063 H 
ATOM     15  H   LIG d   1       1.652  -0.363  -5.609  0.00  0.00     0.066 H 
ENDROOT
BRANCH   9  16
ATOM     16  C   LIG d   1       3.267   0.062  -4.125  0.00  0.00    -0.019 A 
ATOM     17  C   LIG d   1       3.664  -1.040  -3.361  0.00  0.00    -0.019 A 
ATOM     18  C   LIG d   1       4.181  -0.845  -2.095  0.00  0.00     0.124 A 
ATOM     19  H   LIG d   1       3.569  -2.038  -3.760  0.00  0.00     0.065 H 
ATOM     20  C   LIG d   1       4.298   0.436  -1.580  0.00  0.00    -0.026 A 
ATOM     21  F   LIG d   1       4.570  -1.907  -1.355  0.00  0.00    -0.205 F 
ATOM     22  C   LIG d   1       3.902   1.530  -2.331  0.00  0.00    -0.059 A 
ATOM     23  H   LIG d   1       4.700   0.582  -0.588  0.00  0.00     0.065 H 
ATOM     24  C   LIG d   1       3.389   1.353  -3.598  0.00  0.00    -0.054 A 
ATOM     25  H   LIG d   1       3.996   2.525  -1.922  0.00  0.00     0.062 H 
ATOM     26  H   LIG d   1       3.081   2.208  -4.180  0.00  0.00     0.062 H 
ENDBRANCH   9  16
BRANCH   1  27
ATOM     27  C   LIG d   1       7.817   0.521  -7.234  0.00  0.00    -0.037 C 
ATOM     28  H   LIG d   1       7.934   1.583  -6.973  0.00  0.00     0.028 H 
ATOM     29  H   LIG d   1       8.753   0.147  -7.675  0.00  0.00     0.028 H 
ATOM     30  H   LIG d   1       7.583  -0.056  -6.327  0.00  0.00     0.028 H 
ENDBRANCH   1  27
TORSDOF 2
ENDMDL
MODEL 2
REMARK VINA RESULT:      -6.7      1.644      3.053
REMARK  2 active torsions:
REMARK  status: ('A' for Active; 'I' for Inactive)
REMARK    1  A    between atoms: C_1  and  C_2 
REMARK    2  A    between atoms: C_10  and  C_11 
ROOT
ATOM      1  C   LIG d   1       4.416   0.690  -8.706  0.00  0.00    -0.015 A 
ATOM      2  C   LIG d   1       4.635   0.742 -10.072  0.00  0.00    -0.102 A 
ATOM      3  C   LIG d   1       5.872   0.393 -10.606  0.00  0.00    -0.068 A 
ATOM      4  C   LIG d   1       6.886  -0.007  -9.783  0.00  0.00    -0.048 A 
ATOM      5  C   LIG d   1       6.681  -0.065  -8.404  0.00  0.00     0.068 A 
ATOM      6  C   LIG d   1       5.436   0.286  -7.854  0.00  0.00     0.142 A 
ATOM      7  O   LIG d   1       5.477   0.152  -6.510  0.00  0.00    -0.451 OA
ATOM      8  C   LIG d   1       6.689  -0.276  -6.084  0.00  0.00     0.176 A 
ATOM      9  C   LIG d   1       7.049  -0.508  -4.797  0.00  0.00    -0.008 C 
ATOM     10  C   LIG d   1       7.545  -0.437  -7.270  0.00  0.00     0.232 A 
ATOM     11  O   LIG d   1       8.707  -0.801  -7.306  0.00  0.00    -0.283 OA
ATOM     12  O   LIG d   1       3.633   1.139 -10.900  0.00  0.00    -0.873 OA
ATOM     13  H   LIG d   1       6.031   0.438 -11.673  0.00  0.00     0.061 H 
ATOM     14  H   LIG d   1       7.845  -0.278 -10.197  0.00  0.00     0.063 H 
ATOM     15  H   LIG d   1       8.090  -0.772  -4.557  0.00  0.00     0.066 H 
ENDROOT
BRANCH   9  16
ATOM     16  C   LIG d   1       6.050  -0.406  -3.723  0.00  0.00    -0.019 A 
ATOM     17  C   LIG d   1       5.303  -1.528  -3.350  0.00  0.00    -0.019 A 
ATOM     18  C   LIG d   1       4.369  -1.423  -2.337  0.00  0.00     0.124 A 
ATOM     19  H   LIG d   1       5.457  -2.472  -3.850  0.00  0.00     0.065 H 
ATOM     20  C   LIG d   1       4.167  -0.210  -1.700  0.00  0.00    -0.026 A 
ATOM     21  F   LIG d   1       3.648  -2.506  -1.970  0.00  0.00    -0.205 F 
ATOM     22  C   LIG d   1       4.900   0.905  -2.069  0.00  0.00    -0.059 A 
ATOM     23  H   LIG d   1       3.433  -0.133  -0.911  0.00  0.00     0.065 H 
ATOM     24  C   LIG d   1       5.839   0.816  -3.074  0.00  0.00    -0.054 A 
ATOM     25  H   LIG d   1       4.735   1.847  -1.567  0.00  0.00     0.062 H 
ATOM     26  H   LIG d   1       6.409   1.687  -3.360  0.00  0.00     0.062 H 
ENDBRANCH   9  16
BRANCH   1  27
ATOM     27  C   LIG d   1       3.072   1.072  -8.142  0.00  0.00    -0.037 C 
ATOM     28  H   LIG d   1       3.181   1.328  -7.077  0.00  0.00     0.028 H 
ATOM     29  H   LIG d   1       2.376   0.227  -8.245  0.00  0.00     0.028 H 
ATOM     30  H   LIG d   1       2.677   1.941  -8.689  0.00  0.00     0.028 H 
ENDBRANCH   1  27
TORSDOF 2
ENDMDL
MODEL 3
REMARK VINA RESULT:      -6.6      2.653      3.131
REMARK  2 active torsions:
REMARK  status: ('A' for Active; 'I' for Inactive)
REMARK    1  A    between atoms: C_1  and  C_2 
REMARK    2  A    between atoms: C_10  and  C_11 
ROOT
ATOM      1  C   LIG d   1       3.274  -2.304  -9.306  0.00  0.00    -0.015 A 
ATOM      2  C   LIG d   1       3.085  -2.183 -10.672  0.00  0.00    -0.102 A 
ATOM      3  C   LIG d   1       2.840  -0.939 -11.246  0.00  0.00    -0.068 A 
ATOM      4  C   LIG d   1       2.783   0.179 -10.462  0.00  0.00    -0.048 A 
ATOM      5  C   LIG d   1       2.971   0.072  -9.084  0.00  0.00     0.068 A 
ATOM      6  C   LIG d   1       3.219  -1.179  -8.494  0.00  0.00     0.142 A 
ATOM      7  O   LIG d   1       3.367  -1.032  -7.159  0.00  0.00    -0.451 OA
ATOM      8  C   LIG d   1       3.235   0.261  -6.777  0.00  0.00     0.176 A 
ATOM      9  C   LIG d   1       3.329   0.734  -5.510  0.00  0.00    -0.008 C 
ATOM     10  C   LIG d   1       2.966   1.056  -7.986  0.00  0.00     0.232 A 
ATOM     11  O   LIG d   1       2.783   2.257  -8.062  0.00  0.00    -0.283 OA
ATOM     12  O   LIG d   1       3.140  -3.288 -11.460  0.00  0.00    -0.873 OA
ATOM     13  H   LIG d   1       2.695  -0.856 -12.313  0.00  0.00     0.061 H 
ATOM     14  H   LIG d   1       2.593   1.144 -10.908  0.00  0.00     0.063 H 
ATOM     15  H   LIG d   1       3.119   1.794  -5.303  0.00  0.00     0.066 H 
ENDROOT
BRANCH   9  16
ATOM     16  C   LIG d   1       3.711  -0.167  -4.413  0.00  0.00    -0.019 A 
ATOM     17  C   LIG d   1       5.053  -0.508  -4.219  0.00  0.00    -0.019 A 
ATOM     18  C   LIG d   1       5.402  -1.353  -3.184  0.00  0.00     0.124 A 
ATOM     19  H   LIG d   1       5.813  -0.112  -4.875  0.00  0.00     0.065 H 
ATOM     20  C   LIG d   1       4.426  -1.868  -2.345  0.00  0.00    -0.026 A 
ATOM     21  F   LIG d   1       6.699  -1.682  -2.990  0.00  0.00    -0.205 F 
ATOM     22  C   LIG d   1       3.095  -1.537  -2.536  0.00  0.00    -0.059 A 
ATOM     23  H   LIG d   1       4.705  -2.531  -1.539  0.00  0.00     0.065 H 
ATOM     24  C   LIG d   1       2.731  -0.692  -3.561  0.00  0.00    -0.054 A 
ATOM     25  H   LIG d   1       2.341  -1.943  -1.879  0.00  0.00     0.062 H 
ATOM     26  H   LIG d   1       1.693  -0.436  -3.708  0.00  0.00     0.062 H 
ENDBRANCH   9  16
BRANCH   1  27
ATOM     27  C   LIG d   1       3.538  -3.658  -8.698  0.00  0.00    -0.037 C 
ATOM     28  H   LIG d   1       2.699  -3.934  -8.041  0.00  0.00     0.028 H 
ATOM     29  H   LIG d   1       4.467  -3.622  -8.110  0.00  0.00     0.028 H 
ATOM     30  H   LIG d   1       3.639  -4.406  -9.498  0.00  0.00     0.028 H 
ENDBRANCH   1  27
TORSDOF 2
ENDMDL
MODEL 4
REMARK VINA RESULT:      -6.4      2.877      3.730
REMARK  2 active torsions:
REMARK  status: ('A' for Active; 'I' for Inactive)
REMARK    1  A    between atoms: C_1  and  C_2 
REMARK    2  A    between atoms: C_10  and  C_11 
ROOT
ATOM      1  C   LIG d   1       3.088  -0.852  -8.639  0.00  0.00    -0.015 A 
ATOM      2  C   LIG d   1       2.716  -1.338  -9.882  0.00  0.00    -0.102 A 
ATOM      3  C   LIG d   1       2.956  -2.665 -10.224  0.00  0.00    -0.068 A 
ATOM      4  C   LIG d   1       3.563  -3.505  -9.334  0.00  0.00    -0.048 A 
ATOM      5  C   LIG d   1       3.943  -3.030  -8.078  0.00  0.00     0.068 A 
ATOM      6  C   LIG d   1       3.707  -1.692  -7.722  0.00  0.00     0.142 A 
ATOM      7  O   LIG d   1       4.157  -1.467  -6.468  0.00  0.00    -0.451 OA
ATOM      8  C   LIG d   1       4.701  -2.581  -5.922  0.00  0.00     0.176 A 
ATOM      9  C   LIG d   1       5.240  -2.683  -4.682  0.00  0.00    -0.008 C 
ATOM     10  C   LIG d   1       4.607  -3.657  -6.921  0.00  0.00     0.232 A 
ATOM     11  O   LIG d   1       4.987  -4.809  -6.814  0.00  0.00    -0.283 OA
ATOM     12  O   LIG d   1       2.112  -0.511 -10.774  0.00  0.00    -0.873 OA
ATOM     13  H   LIG d   1       2.661  -3.032 -11.196  0.00  0.00     0.061 H 
ATOM     14  H   LIG d   1       3.748  -4.534  -9.601  0.00  0.00     0.063 H 
ATOM     15  H   LIG d   1       5.733  -3.617  -4.372  0.00  0.00     0.066 H 
ENDROOT
BRANCH   9  16
ATOM     16  C   LIG d   1       5.167  -1.547  -3.752  0.00  0.00    -0.019 A 
ATOM     17  C   LIG d   1       5.993  -0.434  -3.936  0.00  0.00    -0.019 A 
ATOM     18  C   LIG d   1       5.914   0.630  -3.059  0.00  0.00     0.124 A 
ATOM     19  H   LIG d   1       6.688  -0.406  -4.761  0.00  0.00     0.065 H 
ATOM     20  C   LIG d   1       5.026   0.592  -1.995  0.00  0.00    -0.026 A 
ATOM     21  F   LIG d   1       6.707   1.710  -3.235  0.00  0.00    -0.205 F 
ATOM     22  C   LIG d   1       4.209  -0.510  -1.806  0.00  0.00    -0.059 A 
ATOM     23  H   LIG d   1       4.971   1.426  -1.310  0.00  0.00     0.065 H 
ATOM     24  C   LIG d   1       4.273  -1.578  -2.675  0.00  0.00    -0.054 A 
ATOM     25  H   LIG d   1       3.521  -0.532  -0.974  0.00  0.00     0.062 H 
ATOM     26  H   LIG d   1       3.635  -2.436  -2.524  0.00  0.00     0.062 H 
ENDBRANCH   9  16
BRANCH   1  27
ATOM     27  C   LIG d   1       2.823   0.588  -8.282  0.00  0.00    -0.037 C 
ATOM     28  H   LIG d   1       2.296   0.634  -7.316  0.00  0.00     0.028 H 
ATOM     29  H   LIG d   1       2.201   1.052  -9.061  0.00  0.00     0.028 H 
ATOM     30  H   LIG d   1       3.777   1.129  -8.204  0.00  0.00     0.028 H 
ENDBRANCH   1  27
TORSDOF 2
ENDMDL
MODEL 5
REMARK VINA RESULT:      -6.3      2.291      3.980
REMARK  2 active torsions:
REMARK  status: ('A' for Active; 'I' for Inactive)
REMARK    1  A    between atoms: C_1  and  C_2 
REMARK    2  A    between atoms: C_10  and  C_11 
ROOT
ATOM      1  C   LIG d   1       7.355   1.230  -7.830  0.00  0.00    -0.015 A 
ATOM      2  C   LIG d   1       8.362   1.667  -8.675  0.00  0.00    -0.102 A 
ATOM      3  C   LIG d   1       9.572   2.122  -8.158  0.00  0.00    -0.068 A 
ATOM      4  C   LIG d   1       9.778   2.142  -6.808  0.00  0.00    -0.048 A 
ATOM      5  C   LIG d   1       8.772   1.705  -5.945  0.00  0.00     0.068 A 
ATOM      6  C   LIG d   1       7.547   1.244  -6.455  0.00  0.00     0.142 A 
ATOM      7  O   LIG d   1       6.738   0.876  -5.436  0.00  0.00    -0.451 OA
ATOM      8  C   LIG d   1       7.332   1.056  -4.232  0.00  0.00     0.176 A 
ATOM      9  C   LIG d   1       6.785   0.784  -3.022  0.00  0.00    -0.008 C 
ATOM     10  C   LIG d   1       8.675   1.606  -4.477  0.00  0.00     0.232 A 
ATOM     11  O   LIG d   1       9.518   1.909  -3.652  0.00  0.00    -0.283 OA
ATOM     12  O   LIG d   1       8.168   1.651 -10.019  0.00  0.00    -0.873 OA
ATOM     13  H   LIG d   1      10.350   2.460  -8.826  0.00  0.00     0.061 H 
ATOM     14  H   LIG d   1      10.716   2.496  -6.408  0.00  0.00     0.063 H 
ATOM     15  H   LIG d   1       7.327   1.050  -2.102  0.00  0.00     0.066 H 
ENDROOT
BRANCH   9  16
ATOM     16  C   LIG d   1       5.469   0.134  -2.938  0.00  0.00    -0.019 A 
ATOM     17  C   LIG d   1       5.375  -1.262  -2.922  0.00  0.00    -0.019 A 
ATOM     18  C   LIG d   1       4.134  -1.863  -2.839  0.00  0.00     0.124 A 
ATOM     19  H   LIG d   1       6.268  -1.865  -2.973  0.00  0.00     0.065 H 
ATOM     20  C   LIG d   1       2.987  -1.088  -2.780  0.00  0.00    -0.026 A 
ATOM     21  F   LIG d   1       4.038  -3.211  -2.820  0.00  0.00    -0.205 F 
ATOM     22  C   LIG d   1       3.075   0.293  -2.800  0.00  0.00    -0.059 A 
ATOM     23  H   LIG d   1       2.019  -1.564  -2.719  0.00  0.00     0.065 H 
ATOM     24  C   LIG d   1       4.305   0.909  -2.878  0.00  0.00    -0.054 A 
ATOM     25  H   LIG d   1       2.176   0.890  -2.754  0.00  0.00     0.062 H 
ATOM     26  H   LIG d   1       4.371   1.986  -2.893  0.00  0.00     0.062 H 
ENDBRANCH   9  16
BRANCH   1  27
ATOM     27  C   LIG d   1       6.050   0.739  -8.403  0.00  0.00    -0.037 C 
ATOM     28  H   LIG d   1       5.339   0.551  -7.585  0.00  0.00     0.028 H 
ATOM     29  H   LIG d   1       6.221  -0.192  -8.962  0.00  0.00     0.028 H 
ATOM     30  H   LIG d   1       5.637   1.502  -9.079  0.00  0.00     0.028 H 
ENDBRANCH   1  27
TORSDOF 2
ENDMDL
MODEL 6
REMARK VINA RESULT:      -6.3      3.276      5.905
REMARK  2 active torsions:
REMARK  status: ('A' for Active; 'I' for Inactive)
REMARK    1  A    between atoms: C_1  and  C_2 
REMARK    2  A    between atoms: C_10  and  C_11 
ROOT
ATOM      1  C   LIG d   1       6.493  -1.397  -5.070  0.00  0.00    -0.015 A 
ATOM      2  C   LIG d   1       6.843  -1.957  -3.853  0.00  0.00    -0.102 A 
ATOM      3  C   LIG d   1       5.930  -1.996  -2.803  0.00  0.00    -0.068 A 
ATOM      4  C   LIG d   1       4.675  -1.481  -2.965  0.00  0.00    -0.048 A 
ATOM      5  C   LIG d   1       4.308  -0.914  -4.185  0.00  0.00     0.068 A 
ATOM      6  C   LIG d   1       5.222  -0.868  -5.252  0.00  0.00     0.142 A 
ATOM      7  O   LIG d   1       4.644  -0.278  -6.322  0.00  0.00    -0.451 OA
ATOM      8  C   LIG d   1       3.368   0.095  -6.063  0.00  0.00     0.176 A 
ATOM      9  C   LIG d   1       2.523   0.710  -6.927  0.00  0.00    -0.008 C 
ATOM     10  C   LIG d   1       3.069  -0.281  -4.672  0.00  0.00     0.232 A 
ATOM     11  O   LIG d   1       2.029  -0.112  -4.061  0.00  0.00    -0.283 OA
ATOM     12  O   LIG d   1       8.088  -2.471  -3.682  0.00  0.00    -0.873 OA
ATOM     13  H   LIG d   1       6.214  -2.436  -1.858  0.00  0.00     0.061 H 
ATOM     14  H   LIG d   1       3.968  -1.513  -2.149  0.00  0.00     0.063 H 
ATOM     15  H   LIG d   1       1.534   1.047  -6.582  0.00  0.00     0.066 H 
ENDROOT
BRANCH   9  16
ATOM     16  C   LIG d   1       2.928   0.928  -8.323  0.00  0.00    -0.019 A 
ATOM     17  C   LIG d   1       2.755  -0.086  -9.271  0.00  0.00    -0.019 A 
ATOM     18  C   LIG d   1       3.134   0.129 -10.581  0.00  0.00     0.124 A 
ATOM     19  H   LIG d   1       2.325  -1.032  -8.980  0.00  0.00     0.065 H 
ATOM     20  C   LIG d   1       3.692   1.342 -10.955  0.00  0.00    -0.026 A 
ATOM     21  F   LIG d   1       2.965  -0.846 -11.501  0.00  0.00    -0.205 F 
ATOM     22  C   LIG d   1       3.870   2.347 -10.019  0.00  0.00    -0.059 A 
ATOM     23  H   LIG d   1       3.991   1.503 -11.980  0.00  0.00     0.065 H 
ATOM     24  C   LIG d   1       3.492   2.150  -8.709  0.00  0.00    -0.054 A 
ATOM     25  H   LIG d   1       4.307   3.288 -10.318  0.00  0.00     0.062 H 
ATOM     26  H   LIG d   1       3.632   2.935  -7.982  0.00  0.00     0.062 H 
ENDBRANCH   9  16
BRANCH   1  27
ATOM     27  C   LIG d   1       7.491  -1.360  -6.199  0.00  0.00    -0.037 C 
ATOM     28  H   LIG d   1       7.398  -2.276  -6.801  0.00  0.00     0.028 H 
ATOM     29  H   LIG d   1       8.509  -1.294  -5.787  0.00  0.00     0.028 H 
ATOM     30  H   LIG d   1       7.296  -0.483  -6.834  0.00  0.00     0.028 H 
ENDBRANCH   1  27
TORSDOF 2
ENDMDL
MODEL 7
REMARK VINA RESULT:      -6.3      3.761      4.374
REMARK  2 active torsions:
REMARK  status: ('A' for Active; 'I' for Inactive)
REMARK    1  A    between atoms: C_1  and  C_2 
REMARK    2  A    between atoms: C_10  and  C_11 
ROOT
ATOM      1  C   LIG d   1       8.251  -2.672  -5.942  0.00  0.00    -0.015 A 
ATOM      2  C   LIG d   1       8.945  -3.602  -6.699  0.00  0.00    -0.102 A 
ATOM      3  C   LIG d   1       8.401  -4.858  -6.949  0.00  0.00    -0.068 A 
ATOM      4  C   LIG d   1       7.174  -5.188  -6.449  0.00  0.00    -0.048 A 
ATOM      5  C   LIG d   1       6.463  -4.261  -5.684  0.00  0.00     0.068 A 
ATOM      6  C   LIG d   1       7.002  -2.990  -5.425  0.00  0.00     0.142 A 
ATOM      7  O   LIG d   1       6.139  -2.274  -4.671  0.00  0.00    -0.451 OA
ATOM      8  C   LIG d   1       5.017  -2.978  -4.385  0.00  0.00     0.176 A 
ATOM      9  C   LIG d   1       3.964  -2.541  -3.651  0.00  0.00    -0.008 C 
ATOM     10  C   LIG d   1       5.153  -4.303  -5.010  0.00  0.00     0.232 A 
ATOM     11  O   LIG d   1       4.359  -5.226  -4.981  0.00  0.00    -0.283 OA
ATOM     12  O   LIG d   1      10.166  -3.285  -7.201  0.00  0.00    -0.873 OA
ATOM     13  H   LIG d   1       8.952  -5.575  -7.541  0.00  0.00     0.061 H 
ATOM     14  H   LIG d   1       6.754  -6.163  -6.643  0.00  0.00     0.063 H 
ATOM     15  H   LIG d   1       3.141  -3.229  -3.408  0.00  0.00     0.066 H 
ENDROOT
BRANCH   9  16
ATOM     16  C   LIG d   1       3.923  -1.150  -3.178  0.00  0.00    -0.019 A 
ATOM     17  C   LIG d   1       3.300  -0.164  -3.950  0.00  0.00    -0.019 A 
ATOM     18  C   LIG d   1       3.262   1.140  -3.496  0.00  0.00     0.124 A 
ATOM     19  H   LIG d   1       2.849  -0.422  -4.897  0.00  0.00     0.065 H 
ATOM     20  C   LIG d   1       3.847   1.473  -2.284  0.00  0.00    -0.026 A 
ATOM     21  F   LIG d   1       2.658   2.095  -4.237  0.00  0.00    -0.205 F 
ATOM     22  C   LIG d   1       4.469   0.501  -1.518  0.00  0.00    -0.059 A 
ATOM     23  H   LIG d   1       3.817   2.494  -1.936  0.00  0.00     0.065 H 
ATOM     24  C   LIG d   1       4.511  -0.805  -1.955  0.00  0.00    -0.054 A 
ATOM     25  H   LIG d   1       4.922   0.769  -0.576  0.00  0.00     0.062 H 
ATOM     26  H   LIG d   1       4.997  -1.560  -1.356  0.00  0.00     0.062 H 
ENDBRANCH   9  16
BRANCH   1  27
ATOM     27  C   LIG d   1       8.852  -1.315  -5.678  0.00  0.00    -0.037 C 
ATOM     28  H   LIG d   1       9.944  -1.411  -5.580  0.00  0.00     0.028 H 
ATOM     29  H   LIG d   1       8.435  -0.903  -4.748  0.00  0.00     0.028 H 
ATOM     30  H   LIG d   1       8.617  -0.641  -6.515  0.00  0.00     0.028 H 
ENDBRANCH   1  27
TORSDOF 2
ENDMDL
MODEL 8
REMARK VINA RESULT:      -6.2      3.293      6.743
REMARK  2 active torsions:
REMARK  status: ('A' for Active; 'I' for Inactive)
REMARK    1  A    between atoms: C_1  and  C_2 
REMARK    2  A    between atoms: C_10  and  C_11 
ROOT
ATOM      1  C   LIG d   1       3.457   0.269  -4.116  0.00  0.00    -0.015 A 
ATOM      2  C   LIG d   1       3.813   0.268  -2.778  0.00  0.00    -0.102 A 
ATOM      3  C   LIG d   1       4.675  -0.702  -2.275  0.00  0.00    -0.068 A 
ATOM      4  C   LIG d   1       5.181  -1.665  -3.100  0.00  0.00    -0.048 A 
ATOM      5  C   LIG d   1       4.832  -1.677  -4.452  0.00  0.00     0.068 A 
ATOM      6  C   LIG d   1       3.962  -0.703  -4.970  0.00  0.00     0.142 A 
ATOM      7  O   LIG d   1       3.774  -0.917  -6.291  0.00  0.00    -0.451 OA
ATOM      8  C   LIG d   1       4.469  -1.994  -6.731  0.00  0.00     0.176 A 
ATOM      9  C   LIG d   1       4.490  -2.468  -8.001  0.00  0.00    -0.008 C 
ATOM     10  C   LIG d   1       5.189  -2.558  -5.578  0.00  0.00     0.232 A 
ATOM     11  O   LIG d   1       5.919  -3.533  -5.560  0.00  0.00    -0.283 OA
ATOM     12  O   LIG d   1       3.315   1.221  -1.948  0.00  0.00    -0.873 OA
ATOM     13  H   LIG d   1       4.945  -0.693  -1.229  0.00  0.00     0.061 H 
ATOM     14  H   LIG d   1       5.850  -2.417  -2.709  0.00  0.00     0.063 H 
ATOM     15  H   LIG d   1       5.022  -3.404  -8.228  0.00  0.00     0.066 H 
ENDROOT
BRANCH   9  16
ATOM     16  C   LIG d   1       3.803  -1.733  -9.073  0.00  0.00    -0.019 A 
ATOM     17  C   LIG d   1       4.435  -0.657  -9.704  0.00  0.00    -0.019 A 
ATOM     18  C   LIG d   1       3.783   0.025 -10.713  0.00  0.00     0.124 A 
ATOM     19  H   LIG d   1       5.429  -0.362  -9.404  0.00  0.00     0.065 H 
ATOM     20  C   LIG d   1       2.504  -0.350 -11.093  0.00  0.00    -0.026 A 
ATOM     21  F   LIG d   1       4.391   1.062 -11.328  0.00  0.00    -0.205 F 
ATOM     22  C   LIG d   1       1.872  -1.412 -10.468  0.00  0.00    -0.059 A 
ATOM     23  H   LIG d   1       1.997   0.189 -11.880  0.00  0.00     0.065 H 
ATOM     24  C   LIG d   1       2.511  -2.105  -9.463  0.00  0.00    -0.054 A 
ATOM     25  H   LIG d   1       0.875  -1.697 -10.770  0.00  0.00     0.062 H 
ATOM     26  H   LIG d   1       2.015  -2.933  -8.978  0.00  0.00     0.062 H 
ENDBRANCH   9  16
BRANCH   1  27
ATOM     27  C   LIG d   1       2.522   1.325  -4.648  0.00  0.00    -0.037 C 
ATOM     28  H   LIG d   1       1.637   1.390  -3.998  0.00  0.00     0.028 H 
ATOM     29  H   LIG d   1       2.209   1.059  -5.668  0.00  0.00     0.028 H 
ATOM     30  H   LIG d   1       3.037   2.297  -4.664  0.00  0.00     0.028 H 
ENDBRANCH   1  27
TORSDOF 2
ENDMDL
MODEL 9
REMARK VINA RESULT:      -6.2      4.574      6.978
REMARK  2 active torsions:
REMARK  status: ('A' for Active; 'I' for Inactive)
REMARK    1  A    between atoms: C_1  and  C_2 
REMARK    2  A    between atoms: C_10  and  C_11 
ROOT
ATOM      1  C   LIG d   1       5.480   0.205  -2.937  0.00  0.00    -0.015 A 
ATOM      2  C   LIG d   1       4.849  -1.027  -2.901  0.00  0.00    -0.102 A 
ATOM      3  C   LIG d   1       5.433  -2.140  -3.499  0.00  0.00    -0.068 A 
ATOM      4  C   LIG d   1       6.639  -2.026  -4.131  0.00  0.00    -0.048 A 
ATOM      5  C   LIG d   1       7.286  -0.791  -4.176  0.00  0.00     0.068 A 
ATOM      6  C   LIG d   1       6.707   0.339  -3.576  0.00  0.00     0.142 A 
ATOM      7  O   LIG d   1       7.512   1.410  -3.747  0.00  0.00    -0.451 OA
ATOM      8  C   LIG d   1       8.632   1.092  -4.440  0.00  0.00     0.176 A 
ATOM      9  C   LIG d   1       9.634   1.942  -4.775  0.00  0.00    -0.008 C 
ATOM     10  C   LIG d   1       8.559  -0.341  -4.768  0.00  0.00     0.232 A 
ATOM     11  O   LIG d   1       9.371  -1.006  -5.386  0.00  0.00    -0.283 OA
ATOM     12  O   LIG d   1       3.650  -1.151  -2.276  0.00  0.00    -0.873 OA
ATOM     13  H   LIG d   1       4.931  -3.096  -3.465  0.00  0.00     0.061 H 
ATOM     14  H   LIG d   1       7.090  -2.890  -4.596  0.00  0.00     0.063 H 
ATOM     15  H   LIG d   1      10.458   1.594  -5.416  0.00  0.00     0.066 H 
ENDROOT
BRANCH   9  16
ATOM     16  C   LIG d   1       9.620   3.327  -4.284  0.00  0.00    -0.019 A 
ATOM     17  C   LIG d   1       9.986   3.608  -2.964  0.00  0.00    -0.019 A 
ATOM     18  C   LIG d   1       9.974   4.914  -2.512  0.00  0.00     0.124 A 
ATOM     19  H   LIG d   1      10.280   2.809  -2.301  0.00  0.00     0.065 H 
ATOM     20  C   LIG d   1       9.591   5.940  -3.361  0.00  0.00    -0.026 A 
ATOM     21  F   LIG d   1      10.331   5.191  -1.239  0.00  0.00    -0.205 F 
ATOM     22  C   LIG d   1       9.222   5.667  -4.667  0.00  0.00    -0.059 A 
ATOM     23  H   LIG d   1       9.579   6.959  -3.001  0.00  0.00     0.065 H 
ATOM     24  C   LIG d   1       9.234   4.371  -5.134  0.00  0.00    -0.054 A 
ATOM     25  H   LIG d   1       8.924   6.473  -5.322  0.00  0.00     0.062 H 
ATOM     26  H   LIG d   1       8.946   4.160  -6.153  0.00  0.00     0.062 H 
ENDBRANCH   9  16
BRANCH   1  27
ATOM     27  C   LIG d   1       4.837   1.402  -2.285  0.00  0.00    -0.037 C 
ATOM     28  H   LIG d   1       4.647   1.183  -1.223  0.00  0.00     0.028 H 
ATOM     29  H   LIG d   1       3.886   1.627  -2.788  0.00  0.00     0.028 H 
ATOM     30  H   LIG d   1       5.509   2.269  -2.366  0.00  0.00     0.028 H 
ENDBRANCH   1  27
TORSDOF 2
ENDMDL
