MODEL 1
REMARK VINA RESULT:      -5.3      0.000      0.000
REMARK  3 active torsions:
REMARK  status: ('A' for Active; 'I' for Inactive)
REMARK    1  A    between atoms: C_1  and  C_2 
REMARK    2  A    between atoms: C_2  and  C_4 
REMARK    3  A    between atoms: C_2  and  O_10 
ROOT
ATOM      1  C   LIG d   1       3.111   0.003  -3.639  0.00  0.00    -0.019 A 
ATOM      2  C   LIG d   1       3.235  -1.349  -3.374  0.00  0.00    -0.056 A 
ATOM      3  C   LIG d   1       4.003  -1.777  -2.308  0.00  0.00    -0.061 A 
ATOM      4  C   LIG d   1       4.640  -0.853  -1.501  0.00  0.00    -0.062 A 
ATOM      5  C   LIG d   1       4.513   0.499  -1.763  0.00  0.00    -0.061 A 
ATOM      6  C   LIG d   1       3.748   0.926  -2.832  0.00  0.00    -0.056 A 
ATOM      7  H   LIG d   1       2.733  -2.070  -4.003  0.00  0.00     0.062 H 
ATOM      8  H   LIG d   1       4.102  -2.832  -2.104  0.00  0.00     0.062 H 
ATOM      9  H   LIG d   1       5.239  -1.187  -0.666  0.00  0.00     0.062 H 
ATOM     10  H   LIG d   1       5.011   1.219  -1.132  0.00  0.00     0.062 H 
ATOM     11  H   LIG d   1       3.649   1.982  -3.036  0.00  0.00     0.062 H 
ENDROOT
BRANCH   1  12
ATOM     12  C   LIG d   1       2.277   0.469  -4.805  0.00  0.00     0.077 C 
ATOM     13  H   LIG d   1       2.083   1.537  -4.707  0.00  0.00     0.064 H 
BRANCH  12  14
ATOM     14  C   LIG d   1       3.031   0.205  -6.109  0.00  0.00    -0.035 C 
ATOM     15  H   LIG d   1       4.101   0.332  -5.944  0.00  0.00     0.026 H 
ATOM     16  H   LIG d   1       2.834  -0.814  -6.443  0.00  0.00     0.026 H 
ATOM     17  H   LIG d   1       2.695   0.907  -6.872  0.00  0.00     0.026 H 
ENDBRANCH  12  14
BRANCH  12  18
ATOM     18  O   LIG d   1       1.037  -0.241  -4.819  0.00  0.00    -0.388 OA
ATOM     19  H   LIG d   1       0.891  -0.791  -4.037  0.00  0.00     0.210 HD
ENDBRANCH  12  18
ENDBRANCH   1  12
TORSDOF 3
ENDMDL
MODEL 2
REMARK VINA RESULT:      -4.7      3.406      3.912
REMARK  3 active torsions:
REMARK  status: ('A' for Active; 'I' for Inactive)
REMARK    1  A    between atoms: C_1  and  C_2 
REMARK    2  A    between atoms: C_2  and  C_4 
REMARK    3  A    between atoms: C_2  and  O_10 
ROOT
ATOM      1  C   LIG d   1       6.302   0.107  -3.422  0.00  0.00    -0.019 A 
ATOM      2  C   LIG d   1       5.971  -1.232  -3.314  0.00  0.00    -0.056 A 
ATOM      3  C   LIG d   1       4.924  -1.621  -2.500  0.00  0.00    -0.061 A 
ATOM      4  C   LIG d   1       4.203  -0.671  -1.800  0.00  0.00    -0.062 A 
ATOM      5  C   LIG d   1       4.531   0.668  -1.912  0.00  0.00    -0.061 A 
ATOM      6  C   LIG d   1       5.581   1.056  -2.722  0.00  0.00    -0.056 A 
ATOM      7  H   LIG d   1       6.531  -1.973  -3.865  0.00  0.00     0.062 H 
ATOM      8  H   LIG d   1       4.667  -2.666  -2.413  0.00  0.00     0.062 H 
ATOM      9  H   LIG d   1       3.383  -0.975  -1.166  0.00  0.00     0.062 H 
ATOM     10  H   LIG d   1       3.968   1.408  -1.365  0.00  0.00     0.062 H 
ATOM     11  H   LIG d   1       5.838   2.101  -2.809  0.00  0.00     0.062 H 
ENDROOT
BRANCH   1  12
ATOM     12  C   LIG d   1       7.447   0.530  -4.306  0.00  0.00     0.077 C 
ATOM     13  H   LIG d   1       7.104   0.592  -5.339  0.00  0.00     0.064 H 
BRANCH  12  14
ATOM     14  C   LIG d   1       7.960   1.900  -3.856  0.00  0.00    -0.035 C 
ATOM     15  H   LIG d   1       8.462   2.392  -4.689  0.00  0.00     0.026 H 
ATOM     16  H   LIG d   1       7.121   2.511  -3.525  0.00  0.00     0.026 H 
ATOM     17  H   LIG d   1       8.663   1.771  -3.032  0.00  0.00     0.026 H 
ENDBRANCH  12  14
BRANCH  12  18
ATOM     18  O   LIG d   1       8.503  -0.429  -4.211  0.00  0.00    -0.388 OA
ATOM     19  H   LIG d   1       8.739  -0.838  -5.055  0.00  0.00     0.210 HD
ENDBRANCH  12  18
ENDBRANCH   1  12
TORSDOF 3
ENDMDL
MODEL 3
REMARK VINA RESULT:      -4.6      3.047      4.047
REMARK  3 active torsions:
REMARK  status: ('A' for Active; 'I' for Inactive)
REMARK    1  A    between atoms: C_1  and  C_2 
REMARK    2  A    between atoms: C_2  and  C_4 
REMARK    3  A    between atoms: C_2  and  O_10 
ROOT
ATOM      1  C   LIG d   1       5.829  -0.950  -3.000  0.00  0.00    -0.019 A 
ATOM      2  C   LIG d   1       6.020   0.420  -3.000  0.00  0.00    -0.056 A 
ATOM      3  C   LIG d   1       4.978   1.263  -2.664  0.00  0.00    -0.061 A 
ATOM      4  C   LIG d   1       3.748   0.737  -2.318  0.00  0.00    -0.062 A 
ATOM      5  C   LIG d   1       3.558  -0.633  -2.313  0.00  0.00    -0.061 A 
ATOM      6  C   LIG d   1       4.599  -1.475  -2.654  0.00  0.00    -0.056 A 
ATOM      7  H   LIG d   1       6.983   0.830  -3.266  0.00  0.00     0.062 H 
ATOM      8  H   LIG d   1       5.127   2.333  -2.668  0.00  0.00     0.062 H 
ATOM      9  H   LIG d   1       2.934   1.396  -2.053  0.00  0.00     0.062 H 
ATOM     10  H   LIG d   1       2.596  -1.043  -2.043  0.00  0.00     0.062 H 
ATOM     11  H   LIG d   1       4.450  -2.545  -2.649  0.00  0.00     0.062 H 
ENDROOT
BRANCH   1  12
ATOM     12  C   LIG d   1       6.964  -1.869  -3.372  0.00  0.00     0.077 C 
ATOM     13  H   LIG d   1       7.317  -2.388  -2.481  0.00  0.00     0.064 H 
BRANCH  12  14
ATOM     14  C   LIG d   1       6.476  -2.892  -4.399  0.00  0.00    -0.035 C 
ATOM     15  H   LIG d   1       5.437  -2.684  -4.656  0.00  0.00     0.026 H 
ATOM     16  H   LIG d   1       7.092  -2.828  -5.297  0.00  0.00     0.026 H 
ATOM     17  H   LIG d   1       6.552  -3.895  -3.978  0.00  0.00     0.026 H 
ENDBRANCH  12  14
BRANCH  12  18
ATOM     18  O   LIG d   1       8.033  -1.104  -3.932  0.00  0.00    -0.388 OA
ATOM     19  H   LIG d   1       8.078  -1.139  -4.897  0.00  0.00     0.210 HD
ENDBRANCH  12  18
ENDBRANCH   1  12
TORSDOF 3
ENDMDL
MODEL 4
REMARK VINA RESULT:      -4.5      2.033      2.978
REMARK  3 active torsions:
REMARK  status: ('A' for Active; 'I' for Inactive)
REMARK    1  A    between atoms: C_1  and  C_2 
REMARK    2  A    between atoms: C_2  and  C_4 
REMARK    3  A    between atoms: C_2  and  O_10 
ROOT
ATOM      1  C   LIG d   1       4.486  -0.983  -3.852  0.00  0.00    -0.019 A 
ATOM      2  C   LIG d   1       3.708   0.031  -4.381  0.00  0.00    -0.056 A 
ATOM      3  C   LIG d   1       3.298   1.078  -3.577  0.00  0.00    -0.061 A 
ATOM      4  C   LIG d   1       3.673   1.117  -2.247  0.00  0.00    -0.062 A 
ATOM      5  C   LIG d   1       4.455   0.106  -1.720  0.00  0.00    -0.061 A 
ATOM      6  C   LIG d   1       4.861  -0.944  -2.522  0.00  0.00    -0.056 A 
ATOM      7  H   LIG d   1       3.419   0.003  -5.421  0.00  0.00     0.062 H 
ATOM      8  H   LIG d   1       2.687   1.868  -3.989  0.00  0.00     0.062 H 
ATOM      9  H   LIG d   1       3.355   1.936  -1.620  0.00  0.00     0.062 H 
ATOM     10  H   LIG d   1       4.747   0.136  -0.681  0.00  0.00     0.062 H 
ATOM     11  H   LIG d   1       5.472  -1.734  -2.110  0.00  0.00     0.062 H 
ENDROOT
BRANCH   1  12
ATOM     12  C   LIG d   1       4.929  -2.127  -4.727  0.00  0.00     0.077 C 
ATOM     13  H   LIG d   1       5.040  -1.777  -5.753  0.00  0.00     0.064 H 
BRANCH  12  14
ATOM     14  C   LIG d   1       6.269  -2.666  -4.223  0.00  0.00    -0.035 C 
ATOM     15  H   LIG d   1       6.899  -2.927  -5.073  0.00  0.00     0.026 H 
ATOM     16  H   LIG d   1       6.765  -1.903  -3.623  0.00  0.00     0.026 H 
ATOM     17  H   LIG d   1       6.097  -3.553  -3.612  0.00  0.00     0.026 H 
ENDBRANCH  12  14
BRANCH  12  18
ATOM     18  O   LIG d   1       3.949  -3.168  -4.682  0.00  0.00    -0.388 OA
ATOM     19  H   LIG d   1       4.014  -3.800  -5.411  0.00  0.00     0.210 HD
ENDBRANCH  12  18
ENDBRANCH   1  12
TORSDOF 3
ENDMDL
MODEL 5
REMARK VINA RESULT:      -4.4      2.537      3.245
REMARK  3 active torsions:
REMARK  status: ('A' for Active; 'I' for Inactive)
REMARK    1  A    between atoms: C_1  and  C_2 
REMARK    2  A    between atoms: C_2  and  C_4 
REMARK    3  A    between atoms: C_2  and  O_10 
ROOT
ATOM      1  C   LIG d   1       5.144  -0.321  -2.978  0.00  0.00    -0.019 A 
ATOM      2  C   LIG d   1       5.628  -1.061  -4.042  0.00  0.00    -0.056 A 
ATOM      3  C   LIG d   1       5.206  -2.364  -4.226  0.00  0.00    -0.061 A 
ATOM      4  C   LIG d   1       4.294  -2.925  -3.352  0.00  0.00    -0.062 A 
ATOM      5  C   LIG d   1       3.807  -2.184  -2.291  0.00  0.00    -0.061 A 
ATOM      6  C   LIG d   1       4.233  -0.882  -2.104  0.00  0.00    -0.056 A 
ATOM      7  H   LIG d   1       6.337  -0.621  -4.728  0.00  0.00     0.062 H 
ATOM      8  H   LIG d   1       5.587  -2.943  -5.054  0.00  0.00     0.062 H 
ATOM      9  H   LIG d   1       3.962  -3.943  -3.496  0.00  0.00     0.062 H 
ATOM     10  H   LIG d   1       3.095  -2.623  -1.608  0.00  0.00     0.062 H 
ATOM     11  H   LIG d   1       3.852  -0.303  -1.276  0.00  0.00     0.062 H 
ENDROOT
BRANCH   1  12
ATOM     12  C   LIG d   1       5.609   1.098  -2.775  0.00  0.00     0.077 C 
ATOM     13  H   LIG d   1       5.797   1.270  -1.715  0.00  0.00     0.064 H 
BRANCH  12  14
ATOM     14  C   LIG d   1       6.897   1.332  -3.567  0.00  0.00    -0.035 C 
ATOM     15  H   LIG d   1       7.556   0.472  -3.451  0.00  0.00     0.026 H 
ATOM     16  H   LIG d   1       6.656   1.466  -4.622  0.00  0.00     0.026 H 
ATOM     17  H   LIG d   1       7.396   2.226  -3.193  0.00  0.00     0.026 H 
ENDBRANCH  12  14
BRANCH  12  18
ATOM     18  O   LIG d   1       4.598   2.000  -3.232  0.00  0.00    -0.388 OA
ATOM     19  H   LIG d   1       3.889   2.152  -2.592  0.00  0.00     0.210 HD
ENDBRANCH  12  18
ENDBRANCH   1  12
TORSDOF 3
ENDMDL
MODEL 6
REMARK VINA RESULT:      -4.4      2.023      2.382
REMARK  3 active torsions:
REMARK  status: ('A' for Active; 'I' for Inactive)
REMARK    1  A    between atoms: C_1  and  C_2 
REMARK    2  A    between atoms: C_2  and  C_4 
REMARK    3  A    between atoms: C_2  and  O_10 
ROOT
ATOM      1  C   LIG d   1       3.979  -0.967  -5.051  0.00  0.00    -0.019 A 
ATOM      2  C   LIG d   1       4.645  -2.079  -4.570  0.00  0.00    -0.056 A 
ATOM      3  C   LIG d   1       4.457  -2.485  -3.262  0.00  0.00    -0.061 A 
ATOM      4  C   LIG d   1       3.595  -1.785  -2.439  0.00  0.00    -0.062 A 
ATOM      5  C   LIG d   1       2.925  -0.675  -2.922  0.00  0.00    -0.061 A 
ATOM      6  C   LIG d   1       3.118  -0.267  -4.228  0.00  0.00    -0.056 A 
ATOM      7  H   LIG d   1       5.315  -2.628  -5.215  0.00  0.00     0.062 H 
ATOM      8  H   LIG d   1       4.980  -3.351  -2.885  0.00  0.00     0.062 H 
ATOM      9  H   LIG d   1       3.446  -2.103  -1.418  0.00  0.00     0.062 H 
ATOM     10  H   LIG d   1       2.253  -0.129  -2.278  0.00  0.00     0.062 H 
ATOM     11  H   LIG d   1       2.594   0.599  -4.605  0.00  0.00     0.062 H 
ENDROOT
BRANCH   1  12
ATOM     12  C   LIG d   1       4.189  -0.521  -6.476  0.00  0.00     0.077 C 
ATOM     13  H   LIG d   1       4.337  -1.394  -7.111  0.00  0.00     0.064 H 
BRANCH  12  14
ATOM     14  C   LIG d   1       2.960   0.255  -6.954  0.00  0.00    -0.035 C 
ATOM     15  H   LIG d   1       2.656   0.965  -6.184  0.00  0.00     0.026 H 
ATOM     16  H   LIG d   1       3.204   0.794  -7.869  0.00  0.00     0.026 H 
ATOM     17  H   LIG d   1       2.144  -0.441  -7.149  0.00  0.00     0.026 H 
ENDBRANCH  12  14
BRANCH  12  18
ATOM     18  O   LIG d   1       5.342   0.321  -6.547  0.00  0.00    -0.388 OA
ATOM     19  H   LIG d   1       6.174  -0.160  -6.655  0.00  0.00     0.210 HD
ENDBRANCH  12  18
ENDBRANCH   1  12
TORSDOF 3
ENDMDL
MODEL 7
REMARK VINA RESULT:      -4.0      2.910      3.735
REMARK  3 active torsions:
REMARK  status: ('A' for Active; 'I' for Inactive)
REMARK    1  A    between atoms: C_1  and  C_2 
REMARK    2  A    between atoms: C_2  and  C_4 
REMARK    3  A    between atoms: C_2  and  O_10 
ROOT
ATOM      1  C   LIG d   1       5.405  -0.547  -3.473  0.00  0.00    -0.019 A 
ATOM      2  C   LIG d   1       4.408  -1.423  -3.864  0.00  0.00    -0.056 A 
ATOM      3  C   LIG d   1       4.732  -2.706  -4.260  0.00  0.00    -0.061 A 
ATOM      4  C   LIG d   1       6.052  -3.117  -4.258  0.00  0.00    -0.062 A 
ATOM      5  C   LIG d   1       7.048  -2.243  -3.862  0.00  0.00    -0.061 A 
ATOM      6  C   LIG d   1       6.724  -0.958  -3.471  0.00  0.00    -0.056 A 
ATOM      7  H   LIG d   1       3.377  -1.102  -3.862  0.00  0.00     0.062 H 
ATOM      8  H   LIG d   1       3.955  -3.389  -4.569  0.00  0.00     0.062 H 
ATOM      9  H   LIG d   1       6.306  -4.121  -4.565  0.00  0.00     0.062 H 
ATOM     10  H   LIG d   1       8.079  -2.565  -3.861  0.00  0.00     0.062 H 
ATOM     11  H   LIG d   1       7.502  -0.276  -3.161  0.00  0.00     0.062 H 
ENDROOT
BRANCH   1  12
ATOM     12  C   LIG d   1       5.051   0.854  -3.046  0.00  0.00     0.077 C 
ATOM     13  H   LIG d   1       4.272   1.247  -3.699  0.00  0.00     0.064 H 
BRANCH  12  14
ATOM     14  C   LIG d   1       4.545   0.835  -1.602  0.00  0.00    -0.035 C 
ATOM     15  H   LIG d   1       3.570   0.351  -1.565  0.00  0.00     0.026 H 
ATOM     16  H   LIG d   1       5.249   0.284  -0.978  0.00  0.00     0.026 H 
ATOM     17  H   LIG d   1       4.458   1.858  -1.234  0.00  0.00     0.026 H 
ENDBRANCH  12  14
BRANCH  12  18
ATOM     18  O   LIG d   1       6.210   1.686  -3.134  0.00  0.00    -0.388 OA
ATOM     19  H   LIG d   1       6.441   2.128  -2.305  0.00  0.00     0.210 HD
ENDBRANCH  12  18
ENDBRANCH   1  12
TORSDOF 3
ENDMDL
MODEL 8
REMARK VINA RESULT:      -4.0      2.757      3.123
REMARK  3 active torsions:
REMARK  status: ('A' for Active; 'I' for Inactive)
REMARK    1  A    between atoms: C_1  and  C_2 
REMARK    2  A    between atoms: C_2  and  C_4 
REMARK    3  A    between atoms: C_2  and  O_10 
ROOT
ATOM      1  C   LIG d   1       5.381   0.009  -4.038  0.00  0.00    -0.019 A 
ATOM      2  C   LIG d   1       4.059  -0.244  -4.356  0.00  0.00    -0.056 A 
ATOM      3  C   LIG d   1       3.056   0.111  -3.474  0.00  0.00    -0.061 A 
ATOM      4  C   LIG d   1       3.374   0.727  -2.278  0.00  0.00    -0.062 A 
ATOM      5  C   LIG d   1       4.696   0.984  -1.962  0.00  0.00    -0.061 A 
ATOM      6  C   LIG d   1       5.698   0.624  -2.842  0.00  0.00    -0.056 A 
ATOM      7  H   LIG d   1       3.810  -0.721  -5.292  0.00  0.00     0.062 H 
ATOM      8  H   LIG d   1       2.024  -0.089  -3.720  0.00  0.00     0.062 H 
ATOM      9  H   LIG d   1       2.590   1.007  -1.589  0.00  0.00     0.062 H 
ATOM     10  H   LIG d   1       4.943   1.465  -1.027  0.00  0.00     0.062 H 
ATOM     11  H   LIG d   1       6.731   0.825  -2.595  0.00  0.00     0.062 H 
ENDROOT
BRANCH   1  12
ATOM     12  C   LIG d   1       6.475  -0.384  -4.997  0.00  0.00     0.077 C 
ATOM     13  H   LIG d   1       7.440  -0.304  -4.499  0.00  0.00     0.064 H 
BRANCH  12  14
ATOM     14  C   LIG d   1       6.255  -1.826  -5.459  0.00  0.00    -0.035 C 
ATOM     15  H   LIG d   1       7.199  -2.242  -5.813  0.00  0.00     0.026 H 
ATOM     16  H   LIG d   1       5.885  -2.422  -4.625  0.00  0.00     0.026 H 
ATOM     17  H   LIG d   1       5.525  -1.841  -6.269  0.00  0.00     0.026 H 
ENDBRANCH  12  14
BRANCH  12  18
ATOM     18  O   LIG d   1       6.450   0.488  -6.130  0.00  0.00    -0.388 OA
ATOM     19  H   LIG d   1       7.309   0.595  -6.562  0.00  0.00     0.210 HD
ENDBRANCH  12  18
ENDBRANCH   1  12
TORSDOF 3
ENDMDL
MODEL 9
REMARK VINA RESULT:      -3.8      5.666      6.803
REMARK  3 active torsions:
REMARK  status: ('A' for Active; 'I' for Inactive)
REMARK    1  A    between atoms: C_1  and  C_2 
REMARK    2  A    between atoms: C_2  and  C_4 
REMARK    3  A    between atoms: C_2  and  O_10 
ROOT
ATOM      1  C   LIG d   1       2.762  -0.181  -9.911  0.00  0.00    -0.019 A 
ATOM      2  C   LIG d   1       2.474   0.344  -8.664  0.00  0.00    -0.056 A 
ATOM      3  C   LIG d   1       2.908   1.613  -8.332  0.00  0.00    -0.061 A 
ATOM      4  C   LIG d   1       3.622   2.361  -9.249  0.00  0.00    -0.062 A 
ATOM      5  C   LIG d   1       3.905   1.839 -10.498  0.00  0.00    -0.061 A 
ATOM      6  C   LIG d   1       3.475   0.567 -10.828  0.00  0.00    -0.056 A 
ATOM      7  H   LIG d   1       1.913  -0.240  -7.949  0.00  0.00     0.062 H 
ATOM      8  H   LIG d   1       2.688   2.021  -7.357  0.00  0.00     0.062 H 
ATOM      9  H   LIG d   1       3.960   3.354  -8.991  0.00  0.00     0.062 H 
ATOM     10  H   LIG d   1       4.463   2.423 -11.214  0.00  0.00     0.062 H 
ATOM     11  H   LIG d   1       3.696   0.159 -11.803  0.00  0.00     0.062 H 
ENDROOT
BRANCH   1  12
ATOM     12  C   LIG d   1       2.292  -1.567 -10.271  0.00  0.00     0.077 C 
ATOM     13  H   LIG d   1       2.590  -1.796 -11.294  0.00  0.00     0.064 H 
BRANCH  12  14
ATOM     14  C   LIG d   1       2.921  -2.583  -9.316  0.00  0.00    -0.035 C 
ATOM     15  H   LIG d   1       2.367  -2.592  -8.378  0.00  0.00     0.026 H 
ATOM     16  H   LIG d   1       2.888  -3.575  -9.767  0.00  0.00     0.026 H 
ATOM     17  H   LIG d   1       3.958  -2.307  -9.124  0.00  0.00     0.026 H 
ENDBRANCH  12  14
BRANCH  12  18
ATOM     18  O   LIG d   1       0.868  -1.631 -10.164  0.00  0.00    -0.388 OA
ATOM     19  H   LIG d   1       0.418  -0.814 -10.418  0.00  0.00     0.210 HD
ENDBRANCH  12  18
ENDBRANCH   1  12
TORSDOF 3
ENDMDL
