MODEL 1
REMARK VINA RESULT:      -5.5      0.000      0.000
REMARK  1 active torsions:
REMARK  status: ('A' for Active; 'I' for Inactive)
REMARK    1  A    between atoms: CB_1  and  CA_2 
REMARK       I    between atoms: CA_2  and  C_4 
REMARK       I    between atoms: CA_2  and  N_33 
REMARK       I    between atoms: C_4  and  N_6 
REMARK       I    between atoms: CA_10  and  C_12 
REMARK       I    between atoms: C_12  and  N_14 
REMARK       I    between atoms: N_14  and  CA_15 
REMARK       I    between atoms: CA_15  and  C_16 
ROOT
ATOM      1  CA  ALA d   1       4.858  -0.558  -2.292  0.00  0.00     0.051 C 
ATOM      2  HA  ALA d   1       5.628  -1.126  -1.770  0.00  0.00     0.095 H 
ATOM      3  C   ALA d   1       5.328  -0.237  -3.687  0.00  0.00     0.264 C 
ATOM      4  O   ALA d   1       5.431   0.918  -4.040  0.00  0.00    -0.269 OA
ATOM      5  H1  ALA d   1       4.274   0.501  -0.625  0.00  0.00     0.200 HD
ATOM      6  H2  ALA d   1       5.406   1.285  -1.558  0.00  0.00     0.200 HD
ATOM      7  N   ALA d   1       4.573   0.699  -1.579  0.00  0.00     0.227 N 
ATOM      8  H3  ALA d   1       3.823   1.202  -2.067  0.00  0.00     0.200 HD
ATOM      9  N   PRO d   2       5.633  -1.233  -4.541  0.00  0.00    -0.285 N 
ATOM     10  CD  PRO d   2       5.554  -2.675  -4.244  0.00  0.00     0.016 C 
ATOM     11  CG  PRO d   2       6.547  -3.340  -5.230  0.00  0.00    -0.035 C 
ATOM     12  CB  PRO d   2       6.351  -2.471  -6.504  0.00  0.00    -0.024 C 
ATOM     13  CA  PRO d   2       6.102  -1.063  -5.924  0.00  0.00     0.102 C 
ATOM     14  HA  PRO d   2       7.028  -0.489  -5.933  0.00  0.00     0.060 H 
ATOM     15  C   PRO d   2       5.050  -0.354  -6.737  0.00  0.00     0.234 C 
ATOM     16  O   PRO d   2       4.009  -0.013  -6.218  0.00  0.00    -0.274 OA
ATOM     17  HD1 PRO d   2       5.857  -2.867  -3.214  0.00  0.00     0.046 H 
ATOM     18  HD2 PRO d   2       4.543  -3.043  -4.417  0.00  0.00     0.046 H 
ATOM     19  HG1 PRO d   2       7.570  -3.266  -4.863  0.00  0.00     0.028 H 
ATOM     20  HG2 PRO d   2       6.275  -4.378  -5.418  0.00  0.00     0.028 H 
ATOM     21  HB1 PRO d   2       5.488  -2.813  -7.074  0.00  0.00     0.029 H 
ATOM     22  HB2 PRO d   2       7.250  -2.480  -7.121  0.00  0.00     0.029 H 
ATOM     23  N   GLY d   3       5.267  -0.096  -8.043  0.00  0.00    -0.308 N 
ATOM     24  CA  GLY d   3       4.245   0.594  -8.833  0.00  0.00     0.051 C 
ATOM     25  C   GLY d   3       4.732   0.756 -10.250  0.00  0.00     0.059 C 
ATOM     26  O   GLY d   3       5.820   0.339 -10.568  0.00  0.00    -0.548 OA
ATOM     27  H   GLY d   3       6.101  -0.369  -8.459  0.00  0.00     0.149 HD
ATOM     28  HA1 GLY d   3       3.326   0.008  -8.830  0.00  0.00     0.052 H 
ATOM     29  HA2 GLY d   3       4.052   1.575  -8.400  0.00  0.00     0.052 H 
ATOM     30  OXT GLY d   3       3.955   1.365 -11.160  0.00  0.00    -0.548 OA
ENDROOT
BRANCH   1  31
ATOM     31  CB  ALA d   1       3.575  -1.389  -2.365  0.00  0.00    -0.013 C 
ATOM     32  HB1 ALA d   1       2.718  -0.725  -2.472  0.00  0.00     0.029 H 
ATOM     33  HB2 ALA d   1       3.624  -2.060  -3.222  0.00  0.00     0.029 H 
ATOM     34  HB3 ALA d   1       3.469  -1.975  -1.451  0.00  0.00     0.029 H 
ENDBRANCH   1  31
TORSDOF 6
ENDMDL
MODEL 2
REMARK VINA RESULT:      -5.4      2.308      2.469
REMARK  1 active torsions:
REMARK  status: ('A' for Active; 'I' for Inactive)
REMARK    1  A    between atoms: CB_1  and  CA_2 
REMARK       I    between atoms: CA_2  and  C_4 
REMARK       I    between atoms: CA_2  and  N_33 
REMARK       I    between atoms: C_4  and  N_6 
REMARK       I    between atoms: CA_10  and  C_12 
REMARK       I    between atoms: C_12  and  N_14 
REMARK       I    between atoms: N_14  and  CA_15 
REMARK       I    between atoms: CA_15  and  C_16 
ROOT
ATOM      1  CA  ALA d   1       6.702   0.682  -3.581  0.00  0.00     0.051 C 
ATOM      2  HA  ALA d   1       7.406   0.002  -3.102  0.00  0.00     0.095 H 
ATOM      3  C   ALA d   1       6.239   0.090  -4.887  0.00  0.00     0.264 C 
ATOM      4  O   ALA d   1       6.439   0.683  -5.925  0.00  0.00    -0.269 OA
ATOM      5  H1  ALA d   1       7.679   2.389  -2.971  0.00  0.00     0.200 HD
ATOM      6  H2  ALA d   1       8.121   1.866  -4.488  0.00  0.00     0.200 HD
ATOM      7  N   ALA d   1       7.341   1.984  -3.843  0.00  0.00     0.227 N 
ATOM      8  H3  ALA d   1       6.652   2.620  -4.262  0.00  0.00     0.200 HD
ATOM      9  N   PRO d   2       5.604  -1.098  -4.900  0.00  0.00    -0.285 N 
ATOM     10  CD  PRO d   2       5.299  -1.923  -3.717  0.00  0.00     0.016 C 
ATOM     11  CG  PRO d   2       5.165  -3.367  -4.263  0.00  0.00    -0.035 C 
ATOM     12  CB  PRO d   2       4.477  -3.121  -5.635  0.00  0.00    -0.024 C 
ATOM     13  CA  PRO d   2       5.102  -1.789  -6.097  0.00  0.00     0.102 C 
ATOM     14  HA  PRO d   2       5.924  -1.983  -6.785  0.00  0.00     0.060 H 
ATOM     15  C   PRO d   2       4.056  -0.941  -6.776  0.00  0.00     0.234 C 
ATOM     16  O   PRO d   2       3.758   0.140  -6.314  0.00  0.00    -0.274 OA
ATOM     17  HD1 PRO d   2       6.112  -1.864  -2.993  0.00  0.00     0.046 H 
ATOM     18  HD2 PRO d   2       4.362  -1.601  -3.262  0.00  0.00     0.046 H 
ATOM     19  HG1 PRO d   2       6.144  -3.826  -4.396  0.00  0.00     0.028 H 
ATOM     20  HG2 PRO d   2       4.536  -3.973  -3.612  0.00  0.00     0.028 H 
ATOM     21  HB1 PRO d   2       3.399  -3.020  -5.512  0.00  0.00     0.029 H 
ATOM     22  HB2 PRO d   2       4.713  -3.921  -6.335  0.00  0.00     0.029 H 
ATOM     23  N   GLY d   3       3.453  -1.385  -7.897  0.00  0.00    -0.308 N 
ATOM     24  CA  GLY d   3       2.437  -0.561  -8.557  0.00  0.00     0.051 C 
ATOM     25  C   GLY d   3       1.923  -1.280  -9.777  0.00  0.00     0.059 C 
ATOM     26  O   GLY d   3       2.361  -2.368 -10.067  0.00  0.00    -0.548 OA
ATOM     27  H   GLY d   3       3.692  -2.250  -8.266  0.00  0.00     0.149 HD
ATOM     28  HA1 GLY d   3       1.612  -0.380  -7.868  0.00  0.00     0.052 H 
ATOM     29  HA2 GLY d   3       2.878   0.391  -8.854  0.00  0.00     0.052 H 
ATOM     30  OXT GLY d   3       0.980  -0.711 -10.543  0.00  0.00    -0.548 OA
ENDROOT
BRANCH   1  31
ATOM     31  CB  ALA d   1       5.497   0.897  -2.663  0.00  0.00    -0.013 C 
ATOM     32  HB1 ALA d   1       5.840   1.229  -1.683  0.00  0.00     0.029 H 
ATOM     33  HB2 ALA d   1       4.842   1.654  -3.094  0.00  0.00     0.029 H 
ATOM     34  HB3 ALA d   1       4.949  -0.040  -2.558  0.00  0.00     0.029 H 
ENDBRANCH   1  31
TORSDOF 6
ENDMDL
MODEL 3
REMARK VINA RESULT:      -5.2      2.258      3.335
REMARK  1 active torsions:
REMARK  status: ('A' for Active; 'I' for Inactive)
REMARK    1  A    between atoms: CB_1  and  CA_2 
REMARK       I    between atoms: CA_2  and  C_4 
REMARK       I    between atoms: CA_2  and  N_33 
REMARK       I    between atoms: C_4  and  N_6 
REMARK       I    between atoms: CA_10  and  C_12 
REMARK       I    between atoms: C_12  and  N_14 
REMARK       I    between atoms: N_14  and  CA_15 
REMARK       I    between atoms: CA_15  and  C_16 
ROOT
ATOM      1  CA  ALA d   1       7.000  -0.981  -3.489  0.00  0.00     0.051 C 
ATOM      2  HA  ALA d   1       6.634  -1.079  -2.467  0.00  0.00     0.095 H 
ATOM      3  C   ALA d   1       5.879  -1.268  -4.454  0.00  0.00     0.264 C 
ATOM      4  O   ALA d   1       5.982  -2.178  -5.249  0.00  0.00    -0.269 OA
ATOM      5  H1  ALA d   1       8.859  -1.765  -3.074  0.00  0.00     0.200 HD
ATOM      6  H2  ALA d   1       7.765  -2.887  -3.632  0.00  0.00     0.200 HD
ATOM      7  N   ALA d   1       8.100  -1.930  -3.734  0.00  0.00     0.227 N 
ATOM      8  H3  ALA d   1       8.453  -1.799  -4.690  0.00  0.00     0.200 HD
ATOM      9  N   PRO d   2       4.764  -0.512  -4.435  0.00  0.00    -0.285 N 
ATOM     10  CD  PRO d   2       4.508   0.620  -3.526  0.00  0.00     0.016 C 
ATOM     11  CG  PRO d   2       2.964   0.731  -3.454  0.00  0.00    -0.035 C 
ATOM     12  CB  PRO d   2       2.557   0.384  -4.914  0.00  0.00    -0.024 C 
ATOM     13  CA  PRO d   2       3.598  -0.681  -5.316  0.00  0.00     0.102 C 
ATOM     14  HA  PRO d   2       3.178  -1.677  -5.187  0.00  0.00     0.060 H 
ATOM     15  C   PRO d   2       4.010  -0.478  -6.752  0.00  0.00     0.234 C 
ATOM     16  O   PRO d   2       5.164  -0.225  -7.022  0.00  0.00    -0.274 OA
ATOM     17  HD1 PRO d   2       4.920   0.413  -2.537  0.00  0.00     0.046 H 
ATOM     18  HD2 PRO d   2       4.936   1.536  -3.931  0.00  0.00     0.046 H 
ATOM     19  HG1 PRO d   2       2.552   0.006  -2.753  0.00  0.00     0.028 H 
ATOM     20  HG2 PRO d   2       2.658   1.744  -3.192  0.00  0.00     0.028 H 
ATOM     21  HB1 PRO d   2       2.636   1.262  -5.554  0.00  0.00     0.029 H 
ATOM     22  HB2 PRO d   2       1.550  -0.029  -4.947  0.00  0.00     0.029 H 
ATOM     23  N   GLY d   3       3.094  -0.581  -7.736  0.00  0.00    -0.308 N 
ATOM     24  CA  GLY d   3       3.493  -0.385  -9.132  0.00  0.00     0.051 C 
ATOM     25  C   GLY d   3       2.291  -0.552 -10.025  0.00  0.00     0.059 C 
ATOM     26  O   GLY d   3       1.212  -0.809  -9.546  0.00  0.00    -0.548 OA
ATOM     27  H   GLY d   3       2.170  -0.784  -7.519  0.00  0.00     0.149 HD
ATOM     28  HA1 GLY d   3       3.901   0.618  -9.255  0.00  0.00     0.052 H 
ATOM     29  HA2 GLY d   3       4.250  -1.121  -9.399  0.00  0.00     0.052 H 
ATOM     30  OXT GLY d   3       2.420  -0.416 -11.354  0.00  0.00    -0.548 OA
ENDROOT
BRANCH   1  31
ATOM     31  CB  ALA d   1       7.514   0.442  -3.712  0.00  0.00    -0.013 C 
ATOM     32  HB1 ALA d   1       7.540   0.973  -2.761  0.00  0.00     0.029 H 
ATOM     33  HB2 ALA d   1       8.518   0.405  -4.134  0.00  0.00     0.029 H 
ATOM     34  HB3 ALA d   1       6.849   0.965  -4.401  0.00  0.00     0.029 H 
ENDBRANCH   1  31
TORSDOF 6
ENDMDL
MODEL 4
REMARK VINA RESULT:      -5.1      3.438      5.254
REMARK  1 active torsions:
REMARK  status: ('A' for Active; 'I' for Inactive)
REMARK    1  A    between atoms: CB_1  and  CA_2 
REMARK       I    between atoms: CA_2  and  C_4 
REMARK       I    between atoms: CA_2  and  N_33 
REMARK       I    between atoms: C_4  and  N_6 
REMARK       I    between atoms: CA_10  and  C_12 
REMARK       I    between atoms: C_12  and  N_14 
REMARK       I    between atoms: N_14  and  CA_15 
REMARK       I    between atoms: CA_15  and  C_16 
ROOT
ATOM      1  CA  ALA d   1       3.552  -0.798  -3.936  0.00  0.00     0.051 C 
ATOM      2  HA  ALA d   1       3.396  -1.825  -4.266  0.00  0.00     0.095 H 
ATOM      3  C   ALA d   1       5.010  -0.588  -3.617  0.00  0.00     0.264 C 
ATOM      4  O   ALA d   1       5.343  -0.256  -2.499  0.00  0.00    -0.269 OA
ATOM      5  H1  ALA d   1       1.763  -0.676  -2.925  0.00  0.00     0.200 HD
ATOM      6  H2  ALA d   1       3.048  -1.120  -1.966  0.00  0.00     0.200 HD
ATOM      7  N   ALA d   1       2.751  -0.517  -2.733  0.00  0.00     0.227 N 
ATOM      8  H3  ALA d   1       2.885   0.464  -2.459  0.00  0.00     0.200 HD
ATOM      9  N   PRO d   2       5.942  -0.767  -4.573  0.00  0.00    -0.285 N 
ATOM     10  CD  PRO d   2       5.677  -1.169  -5.967  0.00  0.00     0.016 C 
ATOM     11  CG  PRO d   2       6.996  -1.824  -6.449  0.00  0.00    -0.035 C 
ATOM     12  CB  PRO d   2       8.062  -0.936  -5.747  0.00  0.00    -0.024 C 
ATOM     13  CA  PRO d   2       7.392  -0.597  -4.399  0.00  0.00     0.102 C 
ATOM     14  HA  PRO d   2       7.754  -1.273  -3.625  0.00  0.00     0.060 H 
ATOM     15  C   PRO d   2       7.698   0.829  -4.020  0.00  0.00     0.234 C 
ATOM     16  O   PRO d   2       6.797   1.631  -3.897  0.00  0.00    -0.274 OA
ATOM     17  HD1 PRO d   2       4.859  -1.888  -6.005  0.00  0.00     0.046 H 
ATOM     18  HD2 PRO d   2       5.444  -0.295  -6.575  0.00  0.00     0.046 H 
ATOM     19  HG1 PRO d   2       7.066  -2.857  -6.109  0.00  0.00     0.028 H 
ATOM     20  HG2 PRO d   2       7.088  -1.764  -7.532  0.00  0.00     0.028 H 
ATOM     21  HB1 PRO d   2       8.249  -0.031  -6.324  0.00  0.00     0.029 H 
ATOM     22  HB2 PRO d   2       8.986  -1.492  -5.589  0.00  0.00     0.029 H 
ATOM     23  N   GLY d   3       8.974   1.213  -3.815  0.00  0.00    -0.308 N 
ATOM     24  CA  GLY d   3       9.272   2.599  -3.446  0.00  0.00     0.051 C 
ATOM     25  C   GLY d   3      10.760   2.765  -3.278  0.00  0.00     0.059 C 
ATOM     26  O   GLY d   3      11.497   1.822  -3.449  0.00  0.00    -0.548 OA
ATOM     27  H   GLY d   3       9.695   0.571  -3.913  0.00  0.00     0.149 HD
ATOM     28  HA1 GLY d   3       8.918   3.268  -4.231  0.00  0.00     0.052 H 
ATOM     29  HA2 GLY d   3       8.771   2.841  -2.509  0.00  0.00     0.052 H 
ATOM     30  OXT GLY d   3      11.268   3.960  -2.939  0.00  0.00    -0.548 OA
ENDROOT
BRANCH   1  31
ATOM     31  CB  ALA d   1       3.130   0.163  -5.049  0.00  0.00    -0.013 C 
ATOM     32  HB1 ALA d   1       4.015   0.528  -5.569  0.00  0.00     0.029 H 
ATOM     33  HB2 ALA d   1       2.484  -0.359  -5.755  0.00  0.00     0.029 H 
ATOM     34  HB3 ALA d   1       2.589   1.005  -4.617  0.00  0.00     0.029 H 
ENDBRANCH   1  31
TORSDOF 6
ENDMDL
MODEL 5
REMARK VINA RESULT:      -5.1      2.683      6.029
REMARK  1 active torsions:
REMARK  status: ('A' for Active; 'I' for Inactive)
REMARK    1  A    between atoms: CB_1  and  CA_2 
REMARK       I    between atoms: CA_2  and  C_4 
REMARK       I    between atoms: CA_2  and  N_33 
REMARK       I    between atoms: C_4  and  N_6 
REMARK       I    between atoms: CA_10  and  C_12 
REMARK       I    between atoms: C_12  and  N_14 
REMARK       I    between atoms: N_14  and  CA_15 
REMARK       I    between atoms: CA_15  and  C_16 
ROOT
ATOM      1  CA  ALA d   1       5.285  -3.512  -9.314  0.00  0.00     0.051 C 
ATOM      2  HA  ALA d   1       5.075  -3.211 -10.340  0.00  0.00     0.095 H 
ATOM      3  C   ALA d   1       5.259  -2.300  -8.419  0.00  0.00     0.264 C 
ATOM      4  O   ALA d   1       6.249  -1.991  -7.789  0.00  0.00    -0.269 OA
ATOM      5  H1  ALA d   1       6.653  -4.957  -9.843  0.00  0.00     0.200 HD
ATOM      6  H2  ALA d   1       7.336  -3.481  -9.491  0.00  0.00     0.200 HD
ATOM      7  N   ALA d   1       6.611  -4.147  -9.226  0.00  0.00     0.227 N 
ATOM      8  H3  ALA d   1       6.776  -4.454  -8.260  0.00  0.00     0.200 HD
ATOM      9  N   PRO d   2       4.137  -1.561  -8.316  0.00  0.00    -0.285 N 
ATOM     10  CD  PRO d   2       2.870  -1.822  -9.023  0.00  0.00     0.016 C 
ATOM     11  CG  PRO d   2       2.159  -0.446  -9.084  0.00  0.00    -0.035 C 
ATOM     12  CB  PRO d   2       2.541   0.165  -7.707  0.00  0.00    -0.024 C 
ATOM     13  CA  PRO d   2       3.974  -0.360  -7.485  0.00  0.00     0.102 C 
ATOM     14  HA  PRO d   2       4.698   0.398  -7.783  0.00  0.00     0.060 H 
ATOM     15  C   PRO d   2       4.170  -0.713  -6.033  0.00  0.00     0.234 C 
ATOM     16  O   PRO d   2       4.429  -1.855  -5.715  0.00  0.00    -0.274 OA
ATOM     17  HD1 PRO d   2       3.065  -2.193 -10.029  0.00  0.00     0.046 H 
ATOM     18  HD2 PRO d   2       2.265  -2.537  -8.465  0.00  0.00     0.046 H 
ATOM     19  HG1 PRO d   2       2.550   0.160  -9.900  0.00  0.00     0.028 H 
ATOM     20  HG2 PRO d   2       1.080  -0.569  -9.173  0.00  0.00     0.028 H 
ATOM     21  HB1 PRO d   2       1.872  -0.196  -6.927  0.00  0.00     0.029 H 
ATOM     22  HB2 PRO d   2       2.532   1.254  -7.751  0.00  0.00     0.029 H 
ATOM     23  N   GLY d   3       4.060   0.241  -5.086  0.00  0.00    -0.308 N 
ATOM     24  CA  GLY d   3       4.251  -0.102  -3.675  0.00  0.00     0.051 C 
ATOM     25  C   GLY d   3       4.075   1.133  -2.830  0.00  0.00     0.059 C 
ATOM     26  O   GLY d   3       3.816   2.191  -3.353  0.00  0.00    -0.548 OA
ATOM     27  H   GLY d   3       3.854   1.154  -5.340  0.00  0.00     0.149 HD
ATOM     28  HA1 GLY d   3       3.517  -0.852  -3.380  0.00  0.00     0.052 H 
ATOM     29  HA2 GLY d   3       5.255  -0.501  -3.531  0.00  0.00     0.052 H 
ATOM     30  OXT GLY d   3       4.205   1.058  -1.496  0.00  0.00    -0.548 OA
ENDROOT
BRANCH   1  31
ATOM     31  CB  ALA d   1       4.224  -4.512  -8.850  0.00  0.00    -0.013 C 
ATOM     32  HB1 ALA d   1       4.314  -4.665  -7.775  0.00  0.00     0.029 H 
ATOM     33  HB2 ALA d   1       3.232  -4.123  -9.079  0.00  0.00     0.029 H 
ATOM     34  HB3 ALA d   1       4.370  -5.462  -9.365  0.00  0.00     0.029 H 
ENDBRANCH   1  31
TORSDOF 6
ENDMDL
MODEL 6
REMARK VINA RESULT:      -5.1      3.330      4.281
REMARK  1 active torsions:
REMARK  status: ('A' for Active; 'I' for Inactive)
REMARK    1  A    between atoms: CB_1  and  CA_2 
REMARK       I    between atoms: CA_2  and  C_4 
REMARK       I    between atoms: CA_2  and  N_33 
REMARK       I    between atoms: C_4  and  N_6 
REMARK       I    between atoms: CA_10  and  C_12 
REMARK       I    between atoms: C_12  and  N_14 
REMARK       I    between atoms: N_14  and  CA_15 
REMARK       I    between atoms: CA_15  and  C_16 
ROOT
ATOM      1  CA  ALA d   1       4.641   0.316  -3.371  0.00  0.00     0.051 C 
ATOM      2  HA  ALA d   1       5.543   0.895  -3.177  0.00  0.00     0.095 H 
ATOM      3  C   ALA d   1       4.901  -0.662  -4.488  0.00  0.00     0.264 C 
ATOM      4  O   ALA d   1       4.242  -0.608  -5.505  0.00  0.00    -0.269 OA
ATOM      5  H1  ALA d   1       3.357   1.887  -3.022  0.00  0.00     0.200 HD
ATOM      6  H2  ALA d   1       3.760   1.691  -4.624  0.00  0.00     0.200 HD
ATOM      7  N   ALA d   1       3.532   1.205  -3.758  0.00  0.00     0.227 N 
ATOM      8  H3  ALA d   1       2.684   0.644  -3.903  0.00  0.00     0.200 HD
ATOM      9  N   PRO d   2       5.865  -1.595  -4.357  0.00  0.00    -0.285 N 
ATOM     10  CD  PRO d   2       6.736  -1.770  -3.181  0.00  0.00     0.016 C 
ATOM     11  CG  PRO d   2       8.002  -2.477  -3.727  0.00  0.00    -0.035 C 
ATOM     12  CB  PRO d   2       7.393  -3.431  -4.793  0.00  0.00    -0.024 C 
ATOM     13  CA  PRO d   2       6.223  -2.605  -5.364  0.00  0.00     0.102 C 
ATOM     14  HA  PRO d   2       6.530  -2.115  -6.287  0.00  0.00     0.060 H 
ATOM     15  C   PRO d   2       5.042  -3.504  -5.629  0.00  0.00     0.234 C 
ATOM     16  O   PRO d   2       3.997  -3.321  -5.043  0.00  0.00    -0.274 OA
ATOM     17  HD1 PRO d   2       6.997  -0.802  -2.754  0.00  0.00     0.046 H 
ATOM     18  HD2 PRO d   2       6.245  -2.395  -2.435  0.00  0.00     0.046 H 
ATOM     19  HG1 PRO d   2       8.681  -1.761  -4.189  0.00  0.00     0.028 H 
ATOM     20  HG2 PRO d   2       8.505  -3.039  -2.940  0.00  0.00     0.028 H 
ATOM     21  HB1 PRO d   2       7.029  -4.346  -4.327  0.00  0.00     0.029 H 
ATOM     22  HB2 PRO d   2       8.121  -3.658  -5.571  0.00  0.00     0.029 H 
ATOM     23  N   GLY d   3       5.149  -4.511  -6.519  0.00  0.00    -0.308 N 
ATOM     24  CA  GLY d   3       4.001  -5.384  -6.777  0.00  0.00     0.051 C 
ATOM     25  C   GLY d   3       4.381  -6.420  -7.803  0.00  0.00     0.059 C 
ATOM     26  O   GLY d   3       5.494  -6.428  -8.272  0.00  0.00    -0.548 OA
ATOM     27  H   GLY d   3       5.986  -4.657  -6.988  0.00  0.00     0.149 HD
ATOM     28  HA1 GLY d   3       3.707  -5.880  -5.852  0.00  0.00     0.052 H 
ATOM     29  HA2 GLY d   3       3.169  -4.789  -7.151  0.00  0.00     0.052 H 
ATOM     30  OXT GLY d   3       3.480  -7.335  -8.198  0.00  0.00    -0.548 OA
ENDROOT
BRANCH   1  31
ATOM     31  CB  ALA d   1       4.246  -0.449  -2.107  0.00  0.00    -0.013 C 
ATOM     32  HB1 ALA d   1       3.948  -1.463  -2.373  0.00  0.00     0.029 H 
ATOM     33  HB2 ALA d   1       5.095  -0.488  -1.424  0.00  0.00     0.029 H 
ATOM     34  HB3 ALA d   1       3.412   0.058  -1.620  0.00  0.00     0.029 H 
ENDBRANCH   1  31
TORSDOF 6
ENDMDL
MODEL 7
REMARK VINA RESULT:      -5.0     10.452     11.743
REMARK  1 active torsions:
REMARK  status: ('A' for Active; 'I' for Inactive)
REMARK    1  A    between atoms: CB_1  and  CA_2 
REMARK       I    between atoms: CA_2  and  C_4 
REMARK       I    between atoms: CA_2  and  N_33 
REMARK       I    between atoms: C_4  and  N_6 
REMARK       I    between atoms: CA_10  and  C_12 
REMARK       I    between atoms: C_12  and  N_14 
REMARK       I    between atoms: N_14  and  CA_15 
REMARK       I    between atoms: CA_15  and  C_16 
ROOT
ATOM      1  CA  ALA d   1      11.391   5.165  -0.775  0.00  0.00     0.051 C 
ATOM      2  HA  ALA d   1      11.202   4.991   0.284  0.00  0.00     0.095 H 
ATOM      3  C   ALA d   1      10.556   6.326  -1.251  0.00  0.00     0.264 C 
ATOM      4  O   ALA d   1       9.747   6.166  -2.139  0.00  0.00    -0.269 OA
ATOM      5  H1  ALA d   1      11.584   3.168  -1.238  0.00  0.00     0.200 HD
ATOM      6  H2  ALA d   1      10.049   3.767  -1.470  0.00  0.00     0.200 HD
ATOM      7  N   ALA d   1      11.043   3.969  -1.562  0.00  0.00     0.227 N 
ATOM      8  H3  ALA d   1      11.260   4.141  -2.551  0.00  0.00     0.200 HD
ATOM      9  N   PRO d   2      10.711   7.541  -0.690  0.00  0.00    -0.285 N 
ATOM     10  CD  PRO d   2      11.653   7.874   0.394  0.00  0.00     0.016 C 
ATOM     11  CG  PRO d   2      11.043   9.121   1.082  0.00  0.00    -0.035 C 
ATOM     12  CB  PRO d   2      10.453   9.891  -0.133  0.00  0.00    -0.024 C 
ATOM     13  CA  PRO d   2       9.966   8.755  -1.055  0.00  0.00     0.102 C 
ATOM     14  HA  PRO d   2       8.898   8.592  -0.911  0.00  0.00     0.060 H 
ATOM     15  C   PRO d   2      10.241   9.110  -2.494  0.00  0.00     0.234 C 
ATOM     16  O   PRO d   2      10.981   8.417  -3.159  0.00  0.00    -0.274 OA
ATOM     17  HD1 PRO d   2      11.725   7.048   1.102  0.00  0.00     0.046 H 
ATOM     18  HD2 PRO d   2      12.635   8.109  -0.016  0.00  0.00     0.046 H 
ATOM     19  HG1 PRO d   2      10.257   8.837   1.781  0.00  0.00     0.028 H 
ATOM     20  HG2 PRO d   2      11.814   9.708   1.580  0.00  0.00     0.028 H 
ATOM     21  HB1 PRO d   2      11.224  10.484  -0.624  0.00  0.00     0.029 H 
ATOM     22  HB2 PRO d   2       9.619  10.522   0.176  0.00  0.00     0.029 H 
ATOM     23  N   GLY d   3       9.663  10.198  -3.042  0.00  0.00    -0.308 N 
ATOM     24  CA  GLY d   3       9.929  10.543  -4.441  0.00  0.00     0.051 C 
ATOM     25  C   GLY d   3       9.168  11.792  -4.803  0.00  0.00     0.059 C 
ATOM     26  O   GLY d   3       8.474  12.338  -3.979  0.00  0.00    -0.548 OA
ATOM     27  H   GLY d   3       9.070  10.752  -2.509  0.00  0.00     0.149 HD
ATOM     28  HA1 GLY d   3      10.997  10.717  -4.575  0.00  0.00     0.052 H 
ATOM     29  HA2 GLY d   3       9.610   9.723  -5.084  0.00  0.00     0.052 H 
ATOM     30  OXT GLY d   3       9.261  12.298  -6.043  0.00  0.00    -0.548 OA
ENDROOT
BRANCH   1  31
ATOM     31  CB  ALA d   1      12.873   5.483  -0.983  0.00  0.00    -0.013 C 
ATOM     32  HB1 ALA d   1      13.411   5.337  -0.047  0.00  0.00     0.029 H 
ATOM     33  HB2 ALA d   1      13.284   4.820  -1.744  0.00  0.00     0.029 H 
ATOM     34  HB3 ALA d   1      12.980   6.519  -1.306  0.00  0.00     0.029 H 
ENDBRANCH   1  31
TORSDOF 6
ENDMDL
MODEL 8
REMARK VINA RESULT:      -4.9      2.768      6.616
REMARK  1 active torsions:
REMARK  status: ('A' for Active; 'I' for Inactive)
REMARK    1  A    between atoms: CB_1  and  CA_2 
REMARK       I    between atoms: CA_2  and  C_4 
REMARK       I    between atoms: CA_2  and  N_33 
REMARK       I    between atoms: C_4  and  N_6 
REMARK       I    between atoms: CA_10  and  C_12 
REMARK       I    between atoms: C_12  and  N_14 
REMARK       I    between atoms: N_14  and  CA_15 
REMARK       I    between atoms: CA_15  and  C_16 
ROOT
ATOM      1  CA  ALA d   1       5.642  -1.553 -11.294  0.00  0.00     0.051 C 
ATOM      2  HA  ALA d   1       5.946  -0.827 -12.048  0.00  0.00     0.095 H 
ATOM      3  C   ALA d   1       5.580  -0.882  -9.946  0.00  0.00     0.264 C 
ATOM      4  O   ALA d   1       6.279  -1.281  -9.038  0.00  0.00    -0.269 OA
ATOM      5  H1  ALA d   1       6.676  -3.117 -12.144  0.00  0.00     0.200 HD
ATOM      6  H2  ALA d   1       7.523  -2.319 -10.955  0.00  0.00     0.200 HD
ATOM      7  N   ALA d   1       6.606  -2.666 -11.234  0.00  0.00     0.227 N 
ATOM      8  H3  ALA d   1       6.284  -3.354 -10.543  0.00  0.00     0.200 HD
ATOM      9  N   PRO d   2       4.748   0.159  -9.748  0.00  0.00    -0.285 N 
ATOM     10  CD  PRO d   2       3.848   0.743 -10.759  0.00  0.00     0.016 C 
ATOM     11  CG  PRO d   2       3.609   2.198 -10.285  0.00  0.00    -0.035 C 
ATOM     12  CB  PRO d   2       3.556   2.020  -8.742  0.00  0.00    -0.024 C 
ATOM     13  CA  PRO d   2       4.588   0.902  -8.490  0.00  0.00     0.102 C 
ATOM     14  HA  PRO d   2       5.542   1.338  -8.194  0.00  0.00     0.060 H 
ATOM     15  C   PRO d   2       4.088  -0.022  -7.410  0.00  0.00     0.234 C 
ATOM     16  O   PRO d   2       3.889  -1.193  -7.657  0.00  0.00    -0.274 OA
ATOM     17  HD1 PRO d   2       4.323   0.736 -11.740  0.00  0.00     0.046 H 
ATOM     18  HD2 PRO d   2       2.906   0.194 -10.790  0.00  0.00     0.046 H 
ATOM     19  HG1 PRO d   2       4.438   2.844 -10.573  0.00  0.00     0.028 H 
ATOM     20  HG2 PRO d   2       2.664   2.583 -10.668  0.00  0.00     0.028 H 
ATOM     21  HB1 PRO d   2       2.562   1.707  -8.425  0.00  0.00     0.029 H 
ATOM     22  HB2 PRO d   2       3.851   2.939  -8.235  0.00  0.00     0.029 H 
ATOM     23  N   GLY d   3       3.864   0.452  -6.168  0.00  0.00    -0.308 N 
ATOM     24  CA  GLY d   3       3.379  -0.447  -5.117  0.00  0.00     0.051 C 
ATOM     25  C   GLY d   3       3.211   0.326  -3.834  0.00  0.00     0.059 C 
ATOM     26  O   GLY d   3       3.470   1.505  -3.800  0.00  0.00    -0.548 OA
ATOM     27  H   GLY d   3       4.024   1.388  -5.970  0.00  0.00     0.149 HD
ATOM     28  HA1 GLY d   3       2.419  -0.869  -5.415  0.00  0.00     0.052 H 
ATOM     29  HA2 GLY d   3       4.099  -1.251  -4.966  0.00  0.00     0.052 H 
ATOM     30  OXT GLY d   3       2.774  -0.297  -2.729  0.00  0.00    -0.548 OA
ENDROOT
BRANCH   1  31
ATOM     31  CB  ALA d   1       4.263  -2.110 -11.650  0.00  0.00    -0.013 C 
ATOM     32  HB1 ALA d   1       3.491  -1.455 -11.247  0.00  0.00     0.029 H 
ATOM     33  HB2 ALA d   1       4.161  -2.165 -12.734  0.00  0.00     0.029 H 
ATOM     34  HB3 ALA d   1       4.152  -3.107 -11.224  0.00  0.00     0.029 H 
ENDBRANCH   1  31
TORSDOF 6
ENDMDL
MODEL 9
REMARK VINA RESULT:      -4.9      2.416      6.326
REMARK  1 active torsions:
REMARK  status: ('A' for Active; 'I' for Inactive)
REMARK    1  A    between atoms: CB_1  and  CA_2 
REMARK       I    between atoms: CA_2  and  C_4 
REMARK       I    between atoms: CA_2  and  N_33 
REMARK       I    between atoms: C_4  and  N_6 
REMARK       I    between atoms: CA_10  and  C_12 
REMARK       I    between atoms: C_12  and  N_14 
REMARK       I    between atoms: N_14  and  CA_15 
REMARK       I    between atoms: CA_15  and  C_16 
ROOT
ATOM      1  CA  ALA d   1       6.748   0.366 -10.251  0.00  0.00     0.051 C 
ATOM      2  HA  ALA d   1       6.278   0.988 -11.012  0.00  0.00     0.095 H 
ATOM      3  C   ALA d   1       5.994   0.502  -8.953  0.00  0.00     0.264 C 
ATOM      4  O   ALA d   1       6.561   0.917  -7.964  0.00  0.00    -0.269 OA
ATOM      5  H1  ALA d   1       8.666   0.714 -10.915  0.00  0.00     0.200 HD
ATOM      6  H2  ALA d   1       8.180   1.738  -9.697  0.00  0.00     0.200 HD
ATOM      7  N   ALA d   1       8.146   0.779 -10.041  0.00  0.00     0.227 N 
ATOM      8  H3  ALA d   1       8.581   0.160  -9.346  0.00  0.00     0.200 HD
ATOM      9  N   PRO d   2       4.692   0.162  -8.891  0.00  0.00    -0.285 N 
ATOM     10  CD  PRO d   2       3.884  -0.352 -10.012  0.00  0.00     0.016 C 
ATOM     11  CG  PRO d   2       2.421   0.001  -9.642  0.00  0.00    -0.035 C 
ATOM     12  CB  PRO d   2       2.426  -0.216  -8.103  0.00  0.00    -0.024 C 
ATOM     13  CA  PRO d   2       3.840   0.245  -7.696  0.00  0.00     0.102 C 
ATOM     14  HA  PRO d   2       3.806   1.273  -7.336  0.00  0.00     0.060 H 
ATOM     15  C   PRO d   2       4.383  -0.657  -6.617  0.00  0.00     0.234 C 
ATOM     16  O   PRO d   2       5.388  -1.305  -6.818  0.00  0.00    -0.274 OA
ATOM     17  HD1 PRO d   2       4.170   0.139 -10.942  0.00  0.00     0.046 H 
ATOM     18  HD2 PRO d   2       4.003  -1.432 -10.100  0.00  0.00     0.046 H 
ATOM     19  HG1 PRO d   2       2.197   1.039  -9.887  0.00  0.00     0.028 H 
ATOM     20  HG2 PRO d   2       1.721  -0.675 -10.131  0.00  0.00     0.028 H 
ATOM     21  HB1 PRO d   2       2.279  -1.269  -7.863  0.00  0.00     0.029 H 
ATOM     22  HB2 PRO d   2       1.666   0.399  -7.622  0.00  0.00     0.029 H 
ATOM     23  N   GLY d   3       3.751  -0.743  -5.429  0.00  0.00    -0.308 N 
ATOM     24  CA  GLY d   3       4.279  -1.620  -4.381  0.00  0.00     0.051 C 
ATOM     25  C   GLY d   3       3.395  -1.534  -3.163  0.00  0.00     0.059 C 
ATOM     26  O   GLY d   3       2.425  -0.814  -3.170  0.00  0.00    -0.548 OA
ATOM     27  H   GLY d   3       2.947  -0.224  -5.269  0.00  0.00     0.149 HD
ATOM     28  HA1 GLY d   3       4.299  -2.648  -4.743  0.00  0.00     0.052 H 
ATOM     29  HA2 GLY d   3       5.289  -1.306  -4.120  0.00  0.00     0.052 H 
ATOM     30  OXT GLY d   3       3.687  -2.257  -2.071  0.00  0.00    -0.548 OA
ENDROOT
BRANCH   1  31
ATOM     31  CB  ALA d   1       6.725  -1.095 -10.703  0.00  0.00    -0.013 C 
ATOM     32  HB1 ALA d   1       5.887  -1.254 -11.381  0.00  0.00     0.029 H 
ATOM     33  HB2 ALA d   1       7.657  -1.332 -11.216  0.00  0.00     0.029 H 
ATOM     34  HB3 ALA d   1       6.615  -1.744  -9.833  0.00  0.00     0.029 H 
ENDBRANCH   1  31
TORSDOF 6
ENDMDL
MODEL 10
REMARK VINA RESULT:      -4.9      9.468     11.546
REMARK  1 active torsions:
REMARK  status: ('A' for Active; 'I' for Inactive)
REMARK    1  A    between atoms: CB_1  and  CA_2 
REMARK       I    between atoms: CA_2  and  C_4 
REMARK       I    between atoms: CA_2  and  N_33 
REMARK       I    between atoms: C_4  and  N_6 
REMARK       I    between atoms: CA_10  and  C_12 
REMARK       I    between atoms: C_12  and  N_14 
REMARK       I    between atoms: N_14  and  CA_15 
REMARK       I    between atoms: CA_15  and  C_16 
ROOT
ATOM      1  CA  ALA d   1       9.812   9.233  -7.504  0.00  0.00     0.051 C 
ATOM      2  HA  ALA d   1       9.169   8.685  -8.192  0.00  0.00     0.095 H 
ATOM      3  C   ALA d   1       9.554   8.765  -6.094  0.00  0.00     0.264 C 
ATOM      4  O   ALA d   1       9.170   9.553  -5.256  0.00  0.00    -0.269 OA
ATOM      5  H1  ALA d   1       9.692  11.007  -8.541  0.00  0.00     0.200 HD
ATOM      6  H2  ALA d   1       8.582  10.872  -7.309  0.00  0.00     0.200 HD
ATOM      7  N   ALA d   1       9.543  10.679  -7.588  0.00  0.00     0.227 N 
ATOM      8  H3  ALA d   1      10.182  11.179  -6.958  0.00  0.00     0.200 HD
ATOM      9  N   PRO d   2       9.752   7.474  -5.766  0.00  0.00    -0.285 N 
ATOM     10  CD  PRO d   2      10.214   6.415  -6.681  0.00  0.00     0.016 C 
ATOM     11  CG  PRO d   2       9.695   5.095  -6.057  0.00  0.00    -0.035 C 
ATOM     12  CB  PRO d   2       9.862   5.381  -4.538  0.00  0.00    -0.024 C 
ATOM     13  CA  PRO d   2       9.539   6.885  -4.435  0.00  0.00     0.102 C 
ATOM     14  HA  PRO d   2       8.503   7.023  -4.131  0.00  0.00     0.060 H 
ATOM     15  C   PRO d   2      10.458   7.538  -3.435  0.00  0.00     0.234 C 
ATOM     16  O   PRO d   2      11.216   8.416  -3.789  0.00  0.00    -0.274 OA
ATOM     17  HD1 PRO d   2       9.787   6.559  -7.674  0.00  0.00     0.046 H 
ATOM     18  HD2 PRO d   2      11.303   6.408  -6.734  0.00  0.00     0.046 H 
ATOM     19  HG1 PRO d   2       8.649   4.929  -6.309  0.00  0.00     0.028 H 
ATOM     20  HG2 PRO d   2      10.309   4.250  -6.367  0.00  0.00     0.028 H 
ATOM     21  HB1 PRO d   2      10.884   5.182  -4.219  0.00  0.00     0.029 H 
ATOM     22  HB2 PRO d   2       9.153   4.794  -3.954  0.00  0.00     0.029 H 
ATOM     23  N   GLY d   3      10.437   7.147  -2.145  0.00  0.00    -0.308 N 
ATOM     24  CA  GLY d   3      11.330   7.782  -1.172  0.00  0.00     0.051 C 
ATOM     25  C   GLY d   3      11.111   7.167   0.186  0.00  0.00     0.059 C 
ATOM     26  O   GLY d   3      10.293   6.290   0.328  0.00  0.00    -0.548 OA
ATOM     27  H   GLY d   3       9.831   6.445  -1.861  0.00  0.00     0.149 HD
ATOM     28  HA1 GLY d   3      12.366   7.630  -1.476  0.00  0.00     0.052 H 
ATOM     29  HA2 GLY d   3      11.117   8.850  -1.127  0.00  0.00     0.052 H 
ATOM     30  OXT GLY d   3      11.825   7.596   1.239  0.00  0.00    -0.548 OA
ENDROOT
BRANCH   1  31
ATOM     31  CB  ALA d   1      11.277   8.979  -7.865  0.00  0.00    -0.013 C 
ATOM     32  HB1 ALA d   1      11.807   9.929  -7.927  0.00  0.00     0.029 H 
ATOM     33  HB2 ALA d   1      11.738   8.356  -7.098  0.00  0.00     0.029 H 
ATOM     34  HB3 ALA d   1      11.331   8.469  -8.827  0.00  0.00     0.029 H 
ENDBRANCH   1  31
TORSDOF 6
ENDMDL
