MODEL 1
REMARK VINA RESULT:      -6.3      0.000      0.000
REMARK  8 active torsions:
REMARK  status: ('A' for Active; 'I' for Inactive)
REMARK    1  A    between atoms: C_1  and  C_2 
REMARK    2  A    between atoms: C_2  and  C_3 
REMARK    3  A    between atoms: C_3  and  C_4 
REMARK    4  A    between atoms: C_4  and  C_5 
REMARK    5  A    between atoms: C_10  and  O_11 
REMARK    6  A    between atoms: O_11  and  C_12 
REMARK    7  A    between atoms: C_12  and  C_14 
REMARK    8  A    between atoms: C_17  and  C_20 
ROOT
ATOM      1  C   LIG d   1       4.089  -1.427  -4.963  0.00  0.00    -0.004 A 
ATOM      2  C   LIG d   1       4.301  -1.758  -6.271  0.00  0.00    -0.041 A 
ATOM      3  C   LIG d   1       3.748  -0.972  -7.282  0.00  0.00     0.065 A 
ATOM      4  C   LIG d   1       2.975   0.157  -6.963  0.00  0.00     0.142 A 
ATOM      5  C   LIG d   1       2.769   0.479  -5.628  0.00  0.00     0.024 A 
ATOM      6  C   LIG d   1       3.320  -0.313  -4.636  0.00  0.00     0.138 A 
ATOM      7  O   LIG d   1       2.442   0.916  -7.942  0.00  0.00    -0.462 OA
ATOM      8  C   LIG d   1       2.606   0.657  -9.241  0.00  0.00     0.104 A 
ATOM      9  C   LIG d   1       3.329  -0.401  -9.690  0.00  0.00     0.064 A 
ATOM     10  C   LIG d   1       3.956  -1.299  -8.705  0.00  0.00     0.200 A 
ATOM     11  O   LIG d   1       4.617  -2.264  -9.050  0.00  0.00    -0.286 OA
ATOM     12  H   LIG d   1       4.894  -2.625  -6.521  0.00  0.00     0.063 H 
ATOM     13  H   LIG d   1       2.177   1.344  -5.366  0.00  0.00     0.069 H 
ATOM     14  H   LIG d   1       2.145   1.315  -9.963  0.00  0.00     0.104 H 
ENDROOT
BRANCH   1  15
ATOM     15  C   LIG d   1       4.685  -2.275  -3.869  0.00  0.00    -0.024 C 
ATOM     16  H   LIG d   1       4.224  -3.262  -3.882  0.00  0.00     0.031 H 
ATOM     17  H   LIG d   1       4.504  -1.802  -2.903  0.00  0.00     0.031 H 
BRANCH  15  18
ATOM     18  C   LIG d   1       6.192  -2.413  -4.095  0.00  0.00    -0.049 C 
ATOM     19  H   LIG d   1       6.416  -2.270  -5.151  0.00  0.00     0.027 H 
ATOM     20  H   LIG d   1       6.516  -3.407  -3.786  0.00  0.00     0.027 H 
BRANCH  18  21
ATOM     21  C   LIG d   1       6.930  -1.357  -3.270  0.00  0.00    -0.056 C 
ATOM     22  H   LIG d   1       6.272  -0.983  -2.486  0.00  0.00     0.026 H 
ATOM     23  H   LIG d   1       7.817  -1.802  -2.819  0.00  0.00     0.026 H 
BRANCH  21  24
ATOM     24  C   LIG d   1       7.348  -0.200  -4.179  0.00  0.00    -0.065 C 
ATOM     25  H   LIG d   1       8.178  -0.516  -4.812  0.00  0.00     0.023 H 
ATOM     26  H   LIG d   1       6.505   0.093  -4.806  0.00  0.00     0.023 H 
ATOM     27  H   LIG d   1       7.658   0.649  -3.570  0.00  0.00     0.023 H 
ENDBRANCH  21  24
ENDBRANCH  18  21
ENDBRANCH  15  18
ENDBRANCH   1  15
BRANCH   6  28
ATOM     28  O   LIG d   1       3.111   0.001  -3.331  0.00  0.00    -0.426 OA
BRANCH  28  29
ATOM     29  C   LIG d   1       3.788   1.054  -2.842  0.00  0.00     0.309 C 
ATOM     30  O   LIG d   1       3.696   2.133  -3.378  0.00  0.00    -0.251 OA
BRANCH  29  31
ATOM     31  C   LIG d   1       4.662   0.888  -1.626  0.00  0.00     0.034 C 
ATOM     32  H   LIG d   1       4.360   1.605  -0.862  0.00  0.00     0.034 H 
ATOM     33  H   LIG d   1       4.556  -0.125  -1.237  0.00  0.00     0.034 H 
ATOM     34  H   LIG d   1       5.703   1.065  -1.899  0.00  0.00     0.034 H 
ENDBRANCH  29  31
ENDBRANCH  28  29
ENDBRANCH   6  28
BRANCH   9  35
ATOM     35  C   LIG d   1       3.484  -0.648 -11.145  0.00  0.00    -0.011 A 
ATOM     36  C   LIG d   1       4.590  -0.145 -11.826  0.00  0.00    -0.054 A 
ATOM     37  C   LIG d   1       4.729  -0.378 -13.179  0.00  0.00    -0.061 A 
ATOM     38  H   LIG d   1       5.338   0.427 -11.296  0.00  0.00     0.062 H 
ATOM     39  C   LIG d   1       3.773  -1.110 -13.859  0.00  0.00    -0.062 A 
ATOM     40  H   LIG d   1       5.586   0.012 -13.708  0.00  0.00     0.062 H 
ATOM     41  C   LIG d   1       2.672  -1.612 -13.189  0.00  0.00    -0.061 A 
ATOM     42  H   LIG d   1       3.886  -1.290 -14.918  0.00  0.00     0.062 H 
ATOM     43  C   LIG d   1       2.525  -1.389 -11.834  0.00  0.00    -0.054 A 
ATOM     44  H   LIG d   1       1.929  -2.182 -13.725  0.00  0.00     0.062 H 
ATOM     45  H   LIG d   1       1.667  -1.785 -11.311  0.00  0.00     0.062 H 
ENDBRANCH   9  35
TORSDOF 8
ENDMDL
MODEL 2
REMARK VINA RESULT:      -6.2      4.429      5.557
REMARK  8 active torsions:
REMARK  status: ('A' for Active; 'I' for Inactive)
REMARK    1  A    between atoms: C_1  and  C_2 
REMARK    2  A    between atoms: C_2  and  C_3 
REMARK    3  A    between atoms: C_3  and  C_4 
REMARK    4  A    between atoms: C_4  and  C_5 
REMARK    5  A    between atoms: C_10  and  O_11 
REMARK    6  A    between atoms: O_11  and  C_12 
REMARK    7  A    between atoms: C_12  and  C_14 
REMARK    8  A    between atoms: C_17  and  C_20 
ROOT
ATOM      1  C   LIG d   1       5.291  -2.235  -3.538  0.00  0.00    -0.004 A 
ATOM      2  C   LIG d   1       4.676  -3.289  -4.152  0.00  0.00    -0.041 A 
ATOM      3  C   LIG d   1       5.265  -3.878  -5.271  0.00  0.00     0.065 A 
ATOM      4  C   LIG d   1       6.486  -3.393  -5.770  0.00  0.00     0.142 A 
ATOM      5  C   LIG d   1       7.098  -2.322  -5.134  0.00  0.00     0.024 A 
ATOM      6  C   LIG d   1       6.499  -1.744  -4.028  0.00  0.00     0.138 A 
ATOM      7  O   LIG d   1       7.054  -3.965  -6.851  0.00  0.00    -0.462 OA
ATOM      8  C   LIG d   1       6.514  -4.998  -7.503  0.00  0.00     0.104 A 
ATOM      9  C   LIG d   1       5.337  -5.563  -7.129  0.00  0.00     0.064 A 
ATOM     10  C   LIG d   1       4.629  -5.017  -5.959  0.00  0.00     0.200 A 
ATOM     11  O   LIG d   1       3.570  -5.485  -5.577  0.00  0.00    -0.286 OA
ATOM     12  H   LIG d   1       3.737  -3.664  -3.772  0.00  0.00     0.063 H 
ATOM     13  H   LIG d   1       8.037  -1.937  -5.505  0.00  0.00     0.069 H 
ATOM     14  H   LIG d   1       7.033  -5.397  -8.361  0.00  0.00     0.104 H 
ENDROOT
BRANCH   1  15
ATOM     15  C   LIG d   1       4.657  -1.597  -2.329  0.00  0.00    -0.024 C 
ATOM     16  H   LIG d   1       5.314  -0.818  -1.942  0.00  0.00     0.031 H 
ATOM     17  H   LIG d   1       4.497  -2.353  -1.560  0.00  0.00     0.031 H 
BRANCH  15  18
ATOM     18  C   LIG d   1       3.313  -0.979  -2.724  0.00  0.00    -0.049 C 
ATOM     19  H   LIG d   1       2.534  -1.348  -2.058  0.00  0.00     0.027 H 
ATOM     20  H   LIG d   1       3.074  -1.256  -3.751  0.00  0.00     0.027 H 
BRANCH  18  21
ATOM     21  C   LIG d   1       3.401   0.544  -2.613  0.00  0.00    -0.056 C 
ATOM     22  H   LIG d   1       3.634   0.967  -3.589  0.00  0.00     0.026 H 
ATOM     23  H   LIG d   1       2.446   0.938  -2.265  0.00  0.00     0.026 H 
BRANCH  21  24
ATOM     24  C   LIG d   1       4.500   0.920  -1.619  0.00  0.00    -0.065 C 
ATOM     25  H   LIG d   1       5.433   0.436  -1.907  0.00  0.00     0.023 H 
ATOM     26  H   LIG d   1       4.638   2.002  -1.620  0.00  0.00     0.023 H 
ATOM     27  H   LIG d   1       4.215   0.592  -0.619  0.00  0.00     0.023 H 
ENDBRANCH  21  24
ENDBRANCH  18  21
ENDBRANCH  15  18
ENDBRANCH   1  15
BRANCH   6  28
ATOM     28  O   LIG d   1       7.097  -0.692  -3.411  0.00  0.00    -0.426 OA
BRANCH  28  29
ATOM     29  C   LIG d   1       7.067   0.487  -4.053  0.00  0.00     0.309 C 
ATOM     30  O   LIG d   1       6.163   0.738  -4.815  0.00  0.00    -0.251 OA
BRANCH  29  31
ATOM     31  C   LIG d   1       8.161   1.498  -3.824  0.00  0.00     0.034 C 
ATOM     32  H   LIG d   1       8.982   1.308  -4.515  0.00  0.00     0.034 H 
ATOM     33  H   LIG d   1       7.769   2.501  -3.991  0.00  0.00     0.034 H 
ATOM     34  H   LIG d   1       8.522   1.416  -2.798  0.00  0.00     0.034 H 
ENDBRANCH  29  31
ENDBRANCH  28  29
ENDBRANCH   6  28
BRANCH   9  35
ATOM     35  C   LIG d   1       4.776  -6.710  -7.885  0.00  0.00    -0.011 A 
ATOM     36  C   LIG d   1       3.931  -6.487  -8.970  0.00  0.00    -0.054 A 
ATOM     37  C   LIG d   1       3.412  -7.557  -9.669  0.00  0.00    -0.061 A 
ATOM     38  H   LIG d   1       3.682  -5.477  -9.263  0.00  0.00     0.062 H 
ATOM     39  C   LIG d   1       3.730  -8.850  -9.296  0.00  0.00    -0.062 A 
ATOM     40  H   LIG d   1       2.757  -7.385 -10.511  0.00  0.00     0.062 H 
ATOM     41  C   LIG d   1       4.568  -9.079  -8.219  0.00  0.00    -0.061 A 
ATOM     42  H   LIG d   1       3.322  -9.685  -9.846  0.00  0.00     0.062 H 
ATOM     43  C   LIG d   1       5.096  -8.015  -7.515  0.00  0.00    -0.054 A 
ATOM     44  H   LIG d   1       4.812 -10.090  -7.931  0.00  0.00     0.062 H 
ATOM     45  H   LIG d   1       5.754  -8.195  -6.677  0.00  0.00     0.062 H 
ENDBRANCH   9  35
TORSDOF 8
ENDMDL
MODEL 3
REMARK VINA RESULT:      -6.1      4.381      7.862
REMARK  8 active torsions:
REMARK  status: ('A' for Active; 'I' for Inactive)
REMARK    1  A    between atoms: C_1  and  C_2 
REMARK    2  A    between atoms: C_2  and  C_3 
REMARK    3  A    between atoms: C_3  and  C_4 
REMARK    4  A    between atoms: C_4  and  C_5 
REMARK    5  A    between atoms: C_10  and  O_11 
REMARK    6  A    between atoms: O_11  and  C_12 
REMARK    7  A    between atoms: C_12  and  C_14 
REMARK    8  A    between atoms: C_17  and  C_20 
ROOT
ATOM      1  C   LIG d   1       5.842  -2.209  -4.031  0.00  0.00    -0.004 A 
ATOM      2  C   LIG d   1       6.117  -0.904  -3.736  0.00  0.00    -0.041 A 
ATOM      3  C   LIG d   1       7.331  -0.345  -4.136  0.00  0.00     0.065 A 
ATOM      4  C   LIG d   1       8.270  -1.115  -4.842  0.00  0.00     0.142 A 
ATOM      5  C   LIG d   1       7.975  -2.440  -5.134  0.00  0.00     0.024 A 
ATOM      6  C   LIG d   1       6.769  -2.983  -4.726  0.00  0.00     0.138 A 
ATOM      7  O   LIG d   1       9.442  -0.572  -5.229  0.00  0.00    -0.462 OA
ATOM      8  C   LIG d   1       9.781   0.695  -4.978  0.00  0.00     0.104 A 
ATOM      9  C   LIG d   1       8.968   1.549  -4.306  0.00  0.00     0.064 A 
ATOM     10  C   LIG d   1       7.661   1.061  -3.834  0.00  0.00     0.200 A 
ATOM     11  O   LIG d   1       6.890   1.783  -3.226  0.00  0.00    -0.286 OA
ATOM     12  H   LIG d   1       5.398  -0.309  -3.193  0.00  0.00     0.063 H 
ATOM     13  H   LIG d   1       8.686  -3.046  -5.676  0.00  0.00     0.069 H 
ATOM     14  H   LIG d   1      10.740   1.053  -5.323  0.00  0.00     0.104 H 
ENDROOT
BRANCH   1  15
ATOM     15  C   LIG d   1       4.532  -2.816  -3.599  0.00  0.00    -0.024 C 
ATOM     16  H   LIG d   1       4.693  -3.851  -3.297  0.00  0.00     0.031 H 
ATOM     17  H   LIG d   1       3.826  -2.785  -4.429  0.00  0.00     0.031 H 
BRANCH  15  18
ATOM     18  C   LIG d   1       3.967  -2.022  -2.419  0.00  0.00    -0.049 C 
ATOM     19  H   LIG d   1       4.763  -1.434  -1.963  0.00  0.00     0.027 H 
ATOM     20  H   LIG d   1       3.558  -2.712  -1.680  0.00  0.00     0.027 H 
BRANCH  18  21
ATOM     21  C   LIG d   1       2.861  -1.089  -2.914  0.00  0.00    -0.056 C 
ATOM     22  H   LIG d   1       2.767  -1.179  -3.996  0.00  0.00     0.026 H 
ATOM     23  H   LIG d   1       1.917  -1.362  -2.443  0.00  0.00     0.026 H 
BRANCH  21  24
ATOM     24  C   LIG d   1       3.212   0.355  -2.552  0.00  0.00    -0.065 C 
ATOM     25  H   LIG d   1       3.513   0.893  -3.451  0.00  0.00     0.023 H 
ATOM     26  H   LIG d   1       2.341   0.841  -2.112  0.00  0.00     0.023 H 
ATOM     27  H   LIG d   1       4.031   0.361  -1.833  0.00  0.00     0.023 H 
ENDBRANCH  21  24
ENDBRANCH  18  21
ENDBRANCH  15  18
ENDBRANCH   1  15
BRANCH   6  28
ATOM     28  O   LIG d   1       6.485  -4.280  -5.008  0.00  0.00    -0.426 OA
BRANCH  28  29
ATOM     29  C   LIG d   1       6.375  -4.612  -6.305  0.00  0.00     0.309 C 
ATOM     30  O   LIG d   1       7.168  -5.376  -6.803  0.00  0.00    -0.251 OA
BRANCH  29  31
ATOM     31  C   LIG d   1       5.263  -4.030  -7.139  0.00  0.00     0.034 C 
ATOM     32  H   LIG d   1       4.863  -4.800  -7.799  0.00  0.00     0.034 H 
ATOM     33  H   LIG d   1       4.471  -3.665  -6.485  0.00  0.00     0.034 H 
ATOM     34  H   LIG d   1       5.650  -3.205  -7.737  0.00  0.00     0.034 H 
ENDBRANCH  29  31
ENDBRANCH  28  29
ENDBRANCH   6  28
BRANCH   9  35
ATOM     35  C   LIG d   1       9.389   2.949  -4.050  0.00  0.00    -0.011 A 
ATOM     36  C   LIG d   1      10.055   3.276  -2.871  0.00  0.00    -0.054 A 
ATOM     37  C   LIG d   1      10.443   4.579  -2.639  0.00  0.00    -0.061 A 
ATOM     38  H   LIG d   1      10.266   2.510  -2.139  0.00  0.00     0.062 H 
ATOM     39  C   LIG d   1      10.174   5.561  -3.574  0.00  0.00    -0.062 A 
ATOM     40  H   LIG d   1      10.960   4.833  -1.725  0.00  0.00     0.062 H 
ATOM     41  C   LIG d   1       9.512   5.244  -4.747  0.00  0.00    -0.061 A 
ATOM     42  H   LIG d   1      10.480   6.580  -3.389  0.00  0.00     0.062 H 
ATOM     43  C   LIG d   1       9.123   3.942  -4.992  0.00  0.00    -0.054 A 
ATOM     44  H   LIG d   1       9.303   6.014  -5.474  0.00  0.00     0.062 H 
ATOM     45  H   LIG d   1       8.610   3.694  -5.910  0.00  0.00     0.062 H 
ENDBRANCH   9  35
TORSDOF 8
ENDMDL
MODEL 4
REMARK VINA RESULT:      -6.0      4.591      6.602
REMARK  8 active torsions:
REMARK  status: ('A' for Active; 'I' for Inactive)
REMARK    1  A    between atoms: C_1  and  C_2 
REMARK    2  A    between atoms: C_2  and  C_3 
REMARK    3  A    between atoms: C_3  and  C_4 
REMARK    4  A    between atoms: C_4  and  C_5 
REMARK    5  A    between atoms: C_10  and  O_11 
REMARK    6  A    between atoms: O_11  and  C_12 
REMARK    7  A    between atoms: C_12  and  C_14 
REMARK    8  A    between atoms: C_17  and  C_20 
ROOT
ATOM      1  C   LIG d   1       4.787  -1.454  -4.754  0.00  0.00    -0.004 A 
ATOM      2  C   LIG d   1       4.301  -2.686  -5.089  0.00  0.00    -0.041 A 
ATOM      3  C   LIG d   1       5.178  -3.763  -5.221  0.00  0.00     0.065 A 
ATOM      4  C   LIG d   1       6.556  -3.588  -5.012  0.00  0.00     0.142 A 
ATOM      5  C   LIG d   1       7.034  -2.330  -4.673  0.00  0.00     0.024 A 
ATOM      6  C   LIG d   1       6.153  -1.269  -4.550  0.00  0.00     0.138 A 
ATOM      7  O   LIG d   1       7.401  -4.631  -5.138  0.00  0.00    -0.462 OA
ATOM      8  C   LIG d   1       7.001  -5.863  -5.461  0.00  0.00     0.104 A 
ATOM      9  C   LIG d   1       5.699  -6.173  -5.691  0.00  0.00     0.064 A 
ATOM     10  C   LIG d   1       4.688  -5.107  -5.580  0.00  0.00     0.200 A 
ATOM     11  O   LIG d   1       3.505  -5.326  -5.775  0.00  0.00    -0.286 OA
ATOM     12  H   LIG d   1       3.243  -2.825  -5.251  0.00  0.00     0.063 H 
ATOM     13  H   LIG d   1       8.091  -2.178  -4.508  0.00  0.00     0.069 H 
ATOM     14  H   LIG d   1       7.743  -6.644  -5.543  0.00  0.00     0.104 H 
ENDROOT
BRANCH   1  15
ATOM     15  C   LIG d   1       3.843  -0.288  -4.612  0.00  0.00    -0.024 C 
ATOM     16  H   LIG d   1       3.064  -0.357  -5.371  0.00  0.00     0.031 H 
ATOM     17  H   LIG d   1       4.394   0.644  -4.738  0.00  0.00     0.031 H 
BRANCH  15  18
ATOM     18  C   LIG d   1       3.204  -0.318  -3.221  0.00  0.00    -0.049 C 
ATOM     19  H   LIG d   1       3.632  -1.134  -2.641  0.00  0.00     0.027 H 
ATOM     20  H   LIG d   1       2.128  -0.468  -3.319  0.00  0.00     0.027 H 
BRANCH  18  21
ATOM     21  C   LIG d   1       3.471   1.009  -2.509  0.00  0.00    -0.056 C 
ATOM     22  H   LIG d   1       3.706   1.776  -3.246  0.00  0.00     0.026 H 
ATOM     23  H   LIG d   1       2.586   1.305  -1.947  0.00  0.00     0.026 H 
BRANCH  21  24
ATOM     24  C   LIG d   1       4.652   0.844  -1.550  0.00  0.00    -0.065 C 
ATOM     25  H   LIG d   1       5.585   0.990  -2.094  0.00  0.00     0.023 H 
ATOM     26  H   LIG d   1       4.578   1.583  -0.752  0.00  0.00     0.023 H 
ATOM     27  H   LIG d   1       4.634  -0.157  -1.120  0.00  0.00     0.023 H 
ENDBRANCH  21  24
ENDBRANCH  18  21
ENDBRANCH  15  18
ENDBRANCH   1  15
BRANCH   6  28
ATOM     28  O   LIG d   1       6.623  -0.038  -4.224  0.00  0.00    -0.426 OA
BRANCH  28  29
ATOM     29  C   LIG d   1       7.404   0.576  -5.129  0.00  0.00     0.309 C 
ATOM     30  O   LIG d   1       6.959   0.868  -6.213  0.00  0.00    -0.251 OA
BRANCH  29  31
ATOM     31  C   LIG d   1       8.838   0.898  -4.791  0.00  0.00     0.034 C 
ATOM     32  H   LIG d   1       9.294   1.435  -5.623  0.00  0.00     0.034 H 
ATOM     33  H   LIG d   1       8.869   1.519  -3.896  0.00  0.00     0.034 H 
ATOM     34  H   LIG d   1       9.386  -0.027  -4.611  0.00  0.00     0.034 H 
ENDBRANCH  29  31
ENDBRANCH  28  29
ENDBRANCH   6  28
BRANCH   9  35
ATOM     35  C   LIG d   1       5.303  -7.557  -6.047  0.00  0.00    -0.011 A 
ATOM     36  C   LIG d   1       5.182  -7.929  -7.385  0.00  0.00    -0.054 A 
ATOM     37  C   LIG d   1       4.812  -9.218  -7.709  0.00  0.00    -0.061 A 
ATOM     38  H   LIG d   1       5.376  -7.208  -8.166  0.00  0.00     0.062 H 
ATOM     39  C   LIG d   1       4.563 -10.141  -6.711  0.00  0.00    -0.062 A 
ATOM     40  H   LIG d   1       4.718  -9.507  -8.746  0.00  0.00     0.062 H 
ATOM     41  C   LIG d   1       4.681  -9.779  -5.382  0.00  0.00    -0.061 A 
ATOM     42  H   LIG d   1       4.274 -11.149  -6.970  0.00  0.00     0.062 H 
ATOM     43  C   LIG d   1       5.054  -8.493  -5.045  0.00  0.00    -0.054 A 
ATOM     44  H   LIG d   1       4.484 -10.503  -4.606  0.00  0.00     0.062 H 
ATOM     45  H   LIG d   1       5.150  -8.212  -4.006  0.00  0.00     0.062 H 
ENDBRANCH   9  35
TORSDOF 8
ENDMDL
MODEL 5
REMARK VINA RESULT:      -6.0      3.056      6.502
REMARK  8 active torsions:
REMARK  status: ('A' for Active; 'I' for Inactive)
REMARK    1  A    between atoms: C_1  and  C_2 
REMARK    2  A    between atoms: C_2  and  C_3 
REMARK    3  A    between atoms: C_3  and  C_4 
REMARK    4  A    between atoms: C_4  and  C_5 
REMARK    5  A    between atoms: C_10  and  O_11 
REMARK    6  A    between atoms: O_11  and  C_12 
REMARK    7  A    between atoms: C_12  and  C_14 
REMARK    8  A    between atoms: C_17  and  C_20 
ROOT
ATOM      1  C   LIG d   1       3.653  -0.306  -5.728  0.00  0.00    -0.004 A 
ATOM      2  C   LIG d   1       3.907  -1.531  -5.180  0.00  0.00    -0.041 A 
ATOM      3  C   LIG d   1       4.623  -2.481  -5.909  0.00  0.00     0.065 A 
ATOM      4  C   LIG d   1       5.086  -2.184  -7.202  0.00  0.00     0.142 A 
ATOM      5  C   LIG d   1       4.819  -0.935  -7.745  0.00  0.00     0.024 A 
ATOM      6  C   LIG d   1       4.103  -0.004  -7.012  0.00  0.00     0.138 A 
ATOM      7  O   LIG d   1       5.779  -3.103  -7.904  0.00  0.00    -0.462 OA
ATOM      8  C   LIG d   1       6.066  -4.320  -7.435  0.00  0.00     0.104 A 
ATOM      9  C   LIG d   1       5.681  -4.738  -6.203  0.00  0.00     0.064 A 
ATOM     10  C   LIG d   1       4.915  -3.814  -5.349  0.00  0.00     0.200 A 
ATOM     11  O   LIG d   1       4.543  -4.134  -4.233  0.00  0.00    -0.286 OA
ATOM     12  H   LIG d   1       3.553  -1.764  -4.186  0.00  0.00     0.063 H 
ATOM     13  H   LIG d   1       5.167  -0.691  -8.738  0.00  0.00     0.069 H 
ATOM     14  H   LIG d   1       6.626  -4.998  -8.062  0.00  0.00     0.104 H 
ENDROOT
BRANCH   1  15
ATOM     15  C   LIG d   1       2.879   0.721  -4.944  0.00  0.00    -0.024 C 
ATOM     16  H   LIG d   1       1.847   0.742  -5.292  0.00  0.00     0.031 H 
ATOM     17  H   LIG d   1       3.331   1.703  -5.085  0.00  0.00     0.031 H 
BRANCH  15  18
ATOM     18  C   LIG d   1       2.909   0.356  -3.458  0.00  0.00    -0.049 C 
ATOM     19  H   LIG d   1       3.440  -0.586  -3.326  0.00  0.00     0.027 H 
ATOM     20  H   LIG d   1       1.888   0.251  -3.089  0.00  0.00     0.027 H 
BRANCH  18  21
ATOM     21  C   LIG d   1       3.623   1.459  -2.676  0.00  0.00    -0.056 C 
ATOM     22  H   LIG d   1       4.174   2.096  -3.367  0.00  0.00     0.026 H 
ATOM     23  H   LIG d   1       2.888   2.058  -2.137  0.00  0.00     0.026 H 
BRANCH  21  24
ATOM     24  C   LIG d   1       4.596   0.829  -1.677  0.00  0.00    -0.065 C 
ATOM     25  H   LIG d   1       4.802  -0.200  -1.972  0.00  0.00     0.023 H 
ATOM     26  H   LIG d   1       5.526   1.397  -1.668  0.00  0.00     0.023 H 
ATOM     27  H   LIG d   1       4.154   0.840  -0.682  0.00  0.00     0.023 H 
ENDBRANCH  21  24
ENDBRANCH  18  21
ENDBRANCH  15  18
ENDBRANCH   1  15
BRANCH   6  28
ATOM     28  O   LIG d   1       3.839   1.215  -7.547  0.00  0.00    -0.426 OA
BRANCH  28  29
ATOM     29  C   LIG d   1       3.194   1.237  -8.725  0.00  0.00     0.309 C 
ATOM     30  O   LIG d   1       2.214   0.550  -8.891  0.00  0.00    -0.251 OA
BRANCH  29  31
ATOM     31  C   LIG d   1       3.694   2.118  -9.842  0.00  0.00     0.034 C 
ATOM     32  H   LIG d   1       4.732   2.391  -9.652  0.00  0.00     0.034 H 
ATOM     33  H   LIG d   1       3.627   1.579 -10.787  0.00  0.00     0.034 H 
ATOM     34  H   LIG d   1       3.084   3.020  -9.894  0.00  0.00     0.034 H 
ENDBRANCH  29  31
ENDBRANCH  28  29
ENDBRANCH   6  28
BRANCH   9  35
ATOM     35  C   LIG d   1       6.024  -6.101  -5.725  0.00  0.00    -0.011 A 
ATOM     36  C   LIG d   1       5.042  -7.088  -5.663  0.00  0.00    -0.054 A 
ATOM     37  C   LIG d   1       5.367  -8.353  -5.218  0.00  0.00    -0.061 A 
ATOM     38  H   LIG d   1       4.029  -6.863  -5.963  0.00  0.00     0.062 H 
ATOM     39  C   LIG d   1       6.663  -8.642  -4.834  0.00  0.00    -0.062 A 
ATOM     40  H   LIG d   1       4.607  -9.119  -5.170  0.00  0.00     0.062 H 
ATOM     41  C   LIG d   1       7.642  -7.666  -4.892  0.00  0.00    -0.061 A 
ATOM     42  H   LIG d   1       6.913  -9.634  -4.486  0.00  0.00     0.062 H 
ATOM     43  C   LIG d   1       7.329  -6.399  -5.340  0.00  0.00    -0.054 A 
ATOM     44  H   LIG d   1       8.652  -7.897  -4.590  0.00  0.00     0.062 H 
ATOM     45  H   LIG d   1       8.095  -5.638  -5.390  0.00  0.00     0.062 H 
ENDBRANCH   9  35
TORSDOF 8
ENDMDL
MODEL 6
REMARK VINA RESULT:      -5.9      3.509      4.674
REMARK  8 active torsions:
REMARK  status: ('A' for Active; 'I' for Inactive)
REMARK    1  A    between atoms: C_1  and  C_2 
REMARK    2  A    between atoms: C_2  and  C_3 
REMARK    3  A    between atoms: C_3  and  C_4 
REMARK    4  A    between atoms: C_4  and  C_5 
REMARK    5  A    between atoms: C_10  and  O_11 
REMARK    6  A    between atoms: O_11  and  C_12 
REMARK    7  A    between atoms: C_12  and  C_14 
REMARK    8  A    between atoms: C_17  and  C_20 
ROOT
ATOM      1  C   LIG d   1       5.190  -1.889  -4.435  0.00  0.00    -0.004 A 
ATOM      2  C   LIG d   1       4.656  -3.056  -4.903  0.00  0.00    -0.041 A 
ATOM      3  C   LIG d   1       4.544  -3.264  -6.278  0.00  0.00     0.065 A 
ATOM      4  C   LIG d   1       4.977  -2.280  -7.183  0.00  0.00     0.142 A 
ATOM      5  C   LIG d   1       5.517  -1.100  -6.692  0.00  0.00     0.024 A 
ATOM      6  C   LIG d   1       5.617  -0.906  -5.325  0.00  0.00     0.138 A 
ATOM      7  O   LIG d   1       4.869  -2.484  -8.512  0.00  0.00    -0.462 OA
ATOM      8  C   LIG d   1       4.359  -3.598  -9.043  0.00  0.00     0.104 A 
ATOM      9  C   LIG d   1       3.902  -4.628  -8.285  0.00  0.00     0.064 A 
ATOM     10  C   LIG d   1       3.972  -4.512  -6.818  0.00  0.00     0.200 A 
ATOM     11  O   LIG d   1       3.578  -5.404  -6.087  0.00  0.00    -0.286 OA
ATOM     12  H   LIG d   1       4.321  -3.814  -4.210  0.00  0.00     0.063 H 
ATOM     13  H   LIG d   1       5.855  -0.334  -7.374  0.00  0.00     0.069 H 
ATOM     14  H   LIG d   1       4.307  -3.682 -10.119  0.00  0.00     0.104 H 
ENDROOT
BRANCH   1  15
ATOM     15  C   LIG d   1       5.312  -1.661  -2.951  0.00  0.00    -0.024 C 
ATOM     16  H   LIG d   1       5.897  -0.760  -2.768  0.00  0.00     0.031 H 
ATOM     17  H   LIG d   1       5.808  -2.517  -2.491  0.00  0.00     0.031 H 
BRANCH  15  18
ATOM     18  C   LIG d   1       3.917  -1.495  -2.344  0.00  0.00    -0.049 C 
ATOM     19  H   LIG d   1       3.937  -1.797  -1.298  0.00  0.00     0.027 H 
ATOM     20  H   LIG d   1       3.207  -2.118  -2.889  0.00  0.00     0.027 H 
BRANCH  18  21
ATOM     21  C   LIG d   1       3.490  -0.029  -2.444  0.00  0.00    -0.056 C 
ATOM     22  H   LIG d   1       3.424   0.260  -3.491  0.00  0.00     0.026 H 
ATOM     23  H   LIG d   1       2.517   0.099  -1.969  0.00  0.00     0.026 H 
BRANCH  21  24
ATOM     24  C   LIG d   1       4.521   0.851  -1.735  0.00  0.00    -0.065 C 
ATOM     25  H   LIG d   1       5.137   1.359  -2.478  0.00  0.00     0.023 H 
ATOM     26  H   LIG d   1       4.008   1.592  -1.122  0.00  0.00     0.023 H 
ATOM     27  H   LIG d   1       5.155   0.232  -1.101  0.00  0.00     0.023 H 
ENDBRANCH  21  24
ENDBRANCH  18  21
ENDBRANCH  15  18
ENDBRANCH   1  15
BRANCH   6  28
ATOM     28  O   LIG d   1       6.141   0.252  -4.846  0.00  0.00    -0.426 OA
BRANCH  28  29
ATOM     29  C   LIG d   1       7.377   0.578  -5.259  0.00  0.00     0.309 C 
ATOM     30  O   LIG d   1       7.559   1.605  -5.870  0.00  0.00    -0.251 OA
BRANCH  29  31
ATOM     31  C   LIG d   1       8.537  -0.337  -4.960  0.00  0.00     0.034 C 
ATOM     32  H   LIG d   1       9.372   0.249  -4.576  0.00  0.00     0.034 H 
ATOM     33  H   LIG d   1       8.235  -1.074  -4.216  0.00  0.00     0.034 H 
ATOM     34  H   LIG d   1       8.841  -0.848  -5.874  0.00  0.00     0.034 H 
ENDBRANCH  29  31
ENDBRANCH  28  29
ENDBRANCH   6  28
BRANCH   9  35
ATOM     35  C   LIG d   1       3.345  -5.846  -8.921  0.00  0.00    -0.011 A 
ATOM     36  C   LIG d   1       3.960  -7.081  -8.727  0.00  0.00    -0.054 A 
ATOM     37  C   LIG d   1       3.437  -8.211  -9.321  0.00  0.00    -0.061 A 
ATOM     38  H   LIG d   1       4.846  -7.154  -8.113  0.00  0.00     0.062 H 
ATOM     39  C   LIG d   1       2.304  -8.120 -10.108  0.00  0.00    -0.062 A 
ATOM     40  H   LIG d   1       3.913  -9.169  -9.171  0.00  0.00     0.062 H 
ATOM     41  C   LIG d   1       1.688  -6.897 -10.305  0.00  0.00    -0.061 A 
ATOM     42  H   LIG d   1       1.897  -9.007 -10.571  0.00  0.00     0.062 H 
ATOM     43  C   LIG d   1       2.200  -5.761  -9.712  0.00  0.00    -0.054 A 
ATOM     44  H   LIG d   1       0.804  -6.832 -10.921  0.00  0.00     0.062 H 
ATOM     45  H   LIG d   1       1.716  -4.807  -9.863  0.00  0.00     0.062 H 
ENDBRANCH   9  35
TORSDOF 8
ENDMDL
MODEL 7
REMARK VINA RESULT:      -5.8      1.925      2.755
REMARK  8 active torsions:
REMARK  status: ('A' for Active; 'I' for Inactive)
REMARK    1  A    between atoms: C_1  and  C_2 
REMARK    2  A    between atoms: C_2  and  C_3 
REMARK    3  A    between atoms: C_3  and  C_4 
REMARK    4  A    between atoms: C_4  and  C_5 
REMARK    5  A    between atoms: C_10  and  O_11 
REMARK    6  A    between atoms: O_11  and  C_12 
REMARK    7  A    between atoms: C_12  and  C_14 
REMARK    8  A    between atoms: C_17  and  C_20 
ROOT
ATOM      1  C   LIG d   1       5.960  -1.274  -5.004  0.00  0.00    -0.004 A 
ATOM      2  C   LIG d   1       5.117  -1.679  -6.000  0.00  0.00    -0.041 A 
ATOM      3  C   LIG d   1       5.184  -1.070  -7.253  0.00  0.00     0.065 A 
ATOM      4  C   LIG d   1       6.114  -0.045  -7.497  0.00  0.00     0.142 A 
ATOM      5  C   LIG d   1       6.963   0.354  -6.474  0.00  0.00     0.024 A 
ATOM      6  C   LIG d   1       6.881  -0.255  -5.234  0.00  0.00     0.138 A 
ATOM      7  O   LIG d   1       6.178   0.541  -8.709  0.00  0.00    -0.462 OA
ATOM      8  C   LIG d   1       5.388   0.200  -9.731  0.00  0.00     0.104 A 
ATOM      9  C   LIG d   1       4.447  -0.774  -9.634  0.00  0.00     0.064 A 
ATOM     10  C   LIG d   1       4.290  -1.481  -8.352  0.00  0.00     0.200 A 
ATOM     11  O   LIG d   1       3.462  -2.364  -8.206  0.00  0.00    -0.286 OA
ATOM     12  H   LIG d   1       4.401  -2.466  -5.817  0.00  0.00     0.063 H 
ATOM     13  H   LIG d   1       7.683   1.141  -6.645  0.00  0.00     0.069 H 
ATOM     14  H   LIG d   1       5.503   0.720 -10.671  0.00  0.00     0.104 H 
ENDROOT
BRANCH   1  15
ATOM     15  C   LIG d   1       5.889  -1.930  -3.649  0.00  0.00    -0.024 C 
ATOM     16  H   LIG d   1       5.958  -1.168  -2.872  0.00  0.00     0.031 H 
ATOM     17  H   LIG d   1       6.715  -2.634  -3.542  0.00  0.00     0.031 H 
BRANCH  15  18
ATOM     18  C   LIG d   1       4.560  -2.677  -3.513  0.00  0.00    -0.049 C 
ATOM     19  H   LIG d   1       4.755  -3.737  -3.352  0.00  0.00     0.027 H 
ATOM     20  H   LIG d   1       3.977  -2.550  -4.425  0.00  0.00     0.027 H 
BRANCH  18  21
ATOM     21  C   LIG d   1       3.779  -2.115  -2.324  0.00  0.00    -0.056 C 
ATOM     22  H   LIG d   1       2.752  -1.915  -2.626  0.00  0.00     0.026 H 
ATOM     23  H   LIG d   1       3.784  -2.839  -1.510  0.00  0.00     0.026 H 
BRANCH  21  24
ATOM     24  C   LIG d   1       4.434  -0.815  -1.853  0.00  0.00    -0.065 C 
ATOM     25  H   LIG d   1       3.845  -0.384  -1.043  0.00  0.00     0.023 H 
ATOM     26  H   LIG d   1       5.443  -1.025  -1.496  0.00  0.00     0.023 H 
ATOM     27  H   LIG d   1       4.482  -0.110  -2.682  0.00  0.00     0.023 H 
ENDBRANCH  21  24
ENDBRANCH  18  21
ENDBRANCH  15  18
ENDBRANCH   1  15
BRANCH   6  28
ATOM     28  O   LIG d   1       7.709   0.141  -4.233  0.00  0.00    -0.426 OA
BRANCH  28  29
ATOM     29  C   LIG d   1       7.534   1.383  -3.753  0.00  0.00     0.309 C 
ATOM     30  O   LIG d   1       6.456   1.717  -3.320  0.00  0.00    -0.251 OA
BRANCH  29  31
ATOM     31  C   LIG d   1       8.681   2.361  -3.754  0.00  0.00     0.034 C 
ATOM     32  H   LIG d   1       9.622   1.816  -3.685  0.00  0.00     0.034 H 
ATOM     33  H   LIG d   1       8.662   2.941  -4.677  0.00  0.00     0.034 H 
ATOM     34  H   LIG d   1       8.586   3.033  -2.901  0.00  0.00     0.034 H 
ENDBRANCH  29  31
ENDBRANCH  28  29
ENDBRANCH   6  28
BRANCH   9  35
ATOM     35  C   LIG d   1       3.593  -1.118 -10.797  0.00  0.00    -0.011 A 
ATOM     36  C   LIG d   1       4.148  -1.747 -11.910  0.00  0.00    -0.054 A 
ATOM     37  C   LIG d   1       3.349  -2.066 -12.989  0.00  0.00    -0.061 A 
ATOM     38  H   LIG d   1       5.201  -1.985 -11.928  0.00  0.00     0.062 H 
ATOM     39  C   LIG d   1       2.000  -1.762 -12.968  0.00  0.00    -0.062 A 
ATOM     40  H   LIG d   1       3.778  -2.554 -13.852  0.00  0.00     0.062 H 
ATOM     41  C   LIG d   1       1.444  -1.137 -11.867  0.00  0.00    -0.061 A 
ATOM     42  H   LIG d   1       1.378  -2.013 -13.814  0.00  0.00     0.062 H 
ATOM     43  C   LIG d   1       2.232  -0.818 -10.780  0.00  0.00    -0.054 A 
ATOM     44  H   LIG d   1       0.390  -0.902 -11.855  0.00  0.00     0.062 H 
ATOM     45  H   LIG d   1       1.796  -0.334  -9.918  0.00  0.00     0.062 H 
ENDBRANCH   9  35
TORSDOF 8
ENDMDL
MODEL 8
REMARK VINA RESULT:      -5.6      5.118      8.408
REMARK  8 active torsions:
REMARK  status: ('A' for Active; 'I' for Inactive)
REMARK    1  A    between atoms: C_1  and  C_2 
REMARK    2  A    between atoms: C_2  and  C_3 
REMARK    3  A    between atoms: C_3  and  C_4 
REMARK    4  A    between atoms: C_4  and  C_5 
REMARK    5  A    between atoms: C_10  and  O_11 
REMARK    6  A    between atoms: O_11  and  C_12 
REMARK    7  A    between atoms: C_12  and  C_14 
REMARK    8  A    between atoms: C_17  and  C_20 
ROOT
ATOM      1  C   LIG d   1      10.300   3.129  -4.340  0.00  0.00    -0.004 A 
ATOM      2  C   LIG d   1       9.048   2.826  -3.886  0.00  0.00    -0.041 A 
ATOM      3  C   LIG d   1       8.482   1.587  -4.189  0.00  0.00     0.065 A 
ATOM      4  C   LIG d   1       9.193   0.650  -4.958  0.00  0.00     0.142 A 
ATOM      5  C   LIG d   1      10.465   0.974  -5.412  0.00  0.00     0.024 A 
ATOM      6  C   LIG d   1      11.011   2.209  -5.107  0.00  0.00     0.138 A 
ATOM      7  O   LIG d   1       8.646  -0.547  -5.249  0.00  0.00    -0.462 OA
ATOM      8  C   LIG d   1       7.429  -0.915  -4.841  0.00  0.00     0.104 A 
ATOM      9  C   LIG d   1       6.634  -0.108  -4.092  0.00  0.00     0.064 A 
ATOM     10  C   LIG d   1       7.133   1.226  -3.716  0.00  0.00     0.200 A 
ATOM     11  O   LIG d   1       6.464   1.993  -3.045  0.00  0.00    -0.286 OA
ATOM     12  H   LIG d   1       8.497   3.543  -3.295  0.00  0.00     0.063 H 
ATOM     13  H   LIG d   1      11.025   0.265  -6.004  0.00  0.00     0.069 H 
ATOM     14  H   LIG d   1       7.062  -1.893  -5.118  0.00  0.00     0.104 H 
ENDROOT
BRANCH   1  15
ATOM     15  C   LIG d   1      10.913   4.466  -4.014  0.00  0.00    -0.024 C 
ATOM     16  H   LIG d   1      10.732   5.159  -4.836  0.00  0.00     0.031 H 
ATOM     17  H   LIG d   1      11.986   4.348  -3.867  0.00  0.00     0.031 H 
BRANCH  15  18
ATOM     18  C   LIG d   1      10.280   5.019  -2.735  0.00  0.00    -0.049 C 
ATOM     19  H   LIG d   1      11.046   5.128  -1.968  0.00  0.00     0.027 H 
ATOM     20  H   LIG d   1       9.511   4.330  -2.383  0.00  0.00     0.027 H 
BRANCH  18  21
ATOM     21  C   LIG d   1       9.650   6.382  -3.026  0.00  0.00    -0.056 C 
ATOM     22  H   LIG d   1      10.317   6.962  -3.663  0.00  0.00     0.026 H 
ATOM     23  H   LIG d   1       8.695   6.241  -3.532  0.00  0.00     0.026 H 
BRANCH  21  24
ATOM     24  C   LIG d   1       9.423   7.130  -1.710  0.00  0.00    -0.065 C 
ATOM     25  H   LIG d   1       8.720   7.946  -1.873  0.00  0.00     0.023 H 
ATOM     26  H   LIG d   1       9.017   6.443  -0.967  0.00  0.00     0.023 H 
ATOM     27  H   LIG d   1      10.370   7.533  -1.352  0.00  0.00     0.023 H 
ENDBRANCH  21  24
ENDBRANCH  18  21
ENDBRANCH  15  18
ENDBRANCH   1  15
BRANCH   6  28
ATOM     28  O   LIG d   1      12.252   2.525  -5.557  0.00  0.00    -0.426 OA
BRANCH  28  29
ATOM     29  C   LIG d   1      13.261   1.723  -5.177  0.00  0.00     0.309 C 
ATOM     30  O   LIG d   1      13.872   1.087  -6.004  0.00  0.00    -0.251 OA
BRANCH  29  31
ATOM     31  C   LIG d   1      13.630   1.615  -3.720  0.00  0.00     0.034 C 
ATOM     32  H   LIG d   1      14.013   0.616  -3.515  0.00  0.00     0.034 H 
ATOM     33  H   LIG d   1      14.395   2.354  -3.484  0.00  0.00     0.034 H 
ATOM     34  H   LIG d   1      12.747   1.799  -3.107  0.00  0.00     0.034 H 
ENDBRANCH  29  31
ENDBRANCH  28  29
ENDBRANCH   6  28
BRANCH   9  35
ATOM     35  C   LIG d   1       5.288  -0.561  -3.662  0.00  0.00    -0.011 A 
ATOM     36  C   LIG d   1       5.161  -1.539  -2.677  0.00  0.00    -0.054 A 
ATOM     37  C   LIG d   1       3.907  -1.956  -2.281  0.00  0.00    -0.061 A 
ATOM     38  H   LIG d   1       6.043  -1.970  -2.226  0.00  0.00     0.062 H 
ATOM     39  C   LIG d   1       2.778  -1.406  -2.857  0.00  0.00    -0.062 A 
ATOM     40  H   LIG d   1       3.808  -2.714  -1.517  0.00  0.00     0.062 H 
ATOM     41  C   LIG d   1       2.897  -0.435  -3.835  0.00  0.00    -0.061 A 
ATOM     42  H   LIG d   1       1.798  -1.735  -2.544  0.00  0.00     0.062 H 
ATOM     43  C   LIG d   1       4.146  -0.007  -4.237  0.00  0.00    -0.054 A 
ATOM     44  H   LIG d   1       2.012  -0.009  -4.283  0.00  0.00     0.062 H 
ATOM     45  H   LIG d   1       4.238   0.755  -4.998  0.00  0.00     0.062 H 
ENDBRANCH   9  35
TORSDOF 8
ENDMDL
MODEL 9
REMARK VINA RESULT:      -5.6      2.781      7.152
REMARK  8 active torsions:
REMARK  status: ('A' for Active; 'I' for Inactive)
REMARK    1  A    between atoms: C_1  and  C_2 
REMARK    2  A    between atoms: C_2  and  C_3 
REMARK    3  A    between atoms: C_3  and  C_4 
REMARK    4  A    between atoms: C_4  and  C_5 
REMARK    5  A    between atoms: C_10  and  O_11 
REMARK    6  A    between atoms: O_11  and  C_12 
REMARK    7  A    between atoms: C_12  and  C_14 
REMARK    8  A    between atoms: C_17  and  C_20 
ROOT
ATOM      1  C   LIG d   1       4.045  -0.283  -5.293  0.00  0.00    -0.004 A 
ATOM      2  C   LIG d   1       4.866  -1.075  -4.542  0.00  0.00    -0.041 A 
ATOM      3  C   LIG d   1       5.979  -1.675  -5.132  0.00  0.00     0.065 A 
ATOM      4  C   LIG d   1       6.260  -1.468  -6.493  0.00  0.00     0.142 A 
ATOM      5  C   LIG d   1       5.416  -0.660  -7.242  0.00  0.00     0.024 A 
ATOM      6  C   LIG d   1       4.312  -0.076  -6.644  0.00  0.00     0.138 A 
ATOM      7  O   LIG d   1       7.338  -2.047  -7.060  0.00  0.00    -0.462 OA
ATOM      8  C   LIG d   1       8.185  -2.832  -6.391  0.00  0.00     0.104 A 
ATOM      9  C   LIG d   1       8.033  -3.116  -5.073  0.00  0.00     0.064 A 
ATOM     10  C   LIG d   1       6.887  -2.536  -4.351  0.00  0.00     0.200 A 
ATOM     11  O   LIG d   1       6.700  -2.755  -3.167  0.00  0.00    -0.286 OA
ATOM     12  H   LIG d   1       4.653  -1.237  -3.495  0.00  0.00     0.063 H 
ATOM     13  H   LIG d   1       5.618  -0.491  -8.290  0.00  0.00     0.069 H 
ATOM     14  H   LIG d   1       9.025  -3.259  -6.921  0.00  0.00     0.104 H 
ENDROOT
BRANCH   1  15
ATOM     15  C   LIG d   1       2.842   0.365  -4.659  0.00  0.00    -0.024 C 
ATOM     16  H   LIG d   1       1.934  -0.098  -5.044  0.00  0.00     0.031 H 
ATOM     17  H   LIG d   1       2.836   1.429  -4.895  0.00  0.00     0.031 H 
BRANCH  15  18
ATOM     18  C   LIG d   1       2.904   0.180  -3.140  0.00  0.00    -0.049 C 
ATOM     19  H   LIG d   1       3.502  -0.700  -2.906  0.00  0.00     0.027 H 
ATOM     20  H   LIG d   1       1.896   0.049  -2.749  0.00  0.00     0.027 H 
BRANCH  18  21
ATOM     21  C   LIG d   1       3.543   1.415  -2.502  0.00  0.00    -0.056 C 
ATOM     22  H   LIG d   1       3.950   2.058  -3.282  0.00  0.00     0.026 H 
ATOM     23  H   LIG d   1       2.790   1.962  -1.936  0.00  0.00     0.026 H 
BRANCH  21  24
ATOM     24  C   LIG d   1       4.668   0.978  -1.562  0.00  0.00    -0.065 C 
ATOM     25  H   LIG d   1       5.256   0.194  -2.038  0.00  0.00     0.023 H 
ATOM     26  H   LIG d   1       5.311   1.831  -1.343  0.00  0.00     0.023 H 
ATOM     27  H   LIG d   1       4.241   0.599  -0.634  0.00  0.00     0.023 H 
ENDBRANCH  21  24
ENDBRANCH  18  21
ENDBRANCH  15  18
ENDBRANCH   1  15
BRANCH   6  28
ATOM     28  O   LIG d   1       3.485   0.709  -7.381  0.00  0.00    -0.426 OA
BRANCH  28  29
ATOM     29  C   LIG d   1       2.972   0.172  -8.500  0.00  0.00     0.309 C 
ATOM     30  O   LIG d   1       2.306  -0.835  -8.437  0.00  0.00    -0.251 OA
BRANCH  29  31
ATOM     31  C   LIG d   1       3.226   0.824  -9.835  0.00  0.00     0.034 C 
ATOM     32  H   LIG d   1       4.189   0.493 -10.223  0.00  0.00     0.034 H 
ATOM     33  H   LIG d   1       2.437   0.544 -10.532  0.00  0.00     0.034 H 
ATOM     34  H   LIG d   1       3.235   1.908  -9.713  0.00  0.00     0.034 H 
ENDBRANCH  29  31
ENDBRANCH  28  29
ENDBRANCH   6  28
BRANCH   9  35
ATOM     35  C   LIG d   1       9.002  -3.995  -4.371  0.00  0.00    -0.011 A 
ATOM     36  C   LIG d   1      10.155  -3.453  -3.807  0.00  0.00    -0.054 A 
ATOM     37  C   LIG d   1      11.052  -4.275  -3.156  0.00  0.00    -0.061 A 
ATOM     38  H   LIG d   1      10.346  -2.393  -3.879  0.00  0.00     0.062 H 
ATOM     39  C   LIG d   1      10.809  -5.632  -3.062  0.00  0.00    -0.062 A 
ATOM     40  H   LIG d   1      11.946  -3.856  -2.717  0.00  0.00     0.062 H 
ATOM     41  C   LIG d   1       9.666  -6.176  -3.621  0.00  0.00    -0.061 A 
ATOM     42  H   LIG d   1      11.514  -6.272  -2.552  0.00  0.00     0.062 H 
ATOM     43  C   LIG d   1       8.760  -5.363  -4.271  0.00  0.00    -0.054 A 
ATOM     44  H   LIG d   1       9.482  -7.237  -3.546  0.00  0.00     0.062 H 
ATOM     45  H   LIG d   1       7.865  -5.788  -4.703  0.00  0.00     0.062 H 
ENDBRANCH   9  35
TORSDOF 8
ENDMDL
MODEL 10
REMARK VINA RESULT:      -5.6      1.745      2.453
REMARK  8 active torsions:
REMARK  status: ('A' for Active; 'I' for Inactive)
REMARK    1  A    between atoms: C_1  and  C_2 
REMARK    2  A    between atoms: C_2  and  C_3 
REMARK    3  A    between atoms: C_3  and  C_4 
REMARK    4  A    between atoms: C_4  and  C_5 
REMARK    5  A    between atoms: C_10  and  O_11 
REMARK    6  A    between atoms: O_11  and  C_12 
REMARK    7  A    between atoms: C_12  and  C_14 
REMARK    8  A    between atoms: C_17  and  C_20 
ROOT
ATOM      1  C   LIG d   1       5.798  -2.202  -4.899  0.00  0.00    -0.004 A 
ATOM      2  C   LIG d   1       5.361  -2.598  -6.131  0.00  0.00    -0.041 A 
ATOM      3  C   LIG d   1       4.440  -1.812  -6.824  0.00  0.00     0.065 A 
ATOM      4  C   LIG d   1       3.961  -0.616  -6.263  0.00  0.00     0.142 A 
ATOM      5  C   LIG d   1       4.416  -0.228  -5.011  0.00  0.00     0.024 A 
ATOM      6  C   LIG d   1       5.326  -1.020  -4.332  0.00  0.00     0.138 A 
ATOM      7  O   LIG d   1       3.073   0.143  -6.936  0.00  0.00    -0.462 OA
ATOM      8  C   LIG d   1       2.600  -0.179  -8.143  0.00  0.00     0.104 A 
ATOM      9  C   LIG d   1       2.977  -1.306  -8.800  0.00  0.00     0.064 A 
ATOM     10  C   LIG d   1       3.946  -2.210  -8.156  0.00  0.00     0.200 A 
ATOM     11  O   LIG d   1       4.321  -3.235  -8.698  0.00  0.00    -0.286 OA
ATOM     12  H   LIG d   1       5.726  -3.517  -6.565  0.00  0.00     0.063 H 
ATOM     13  H   LIG d   1       4.058   0.690  -4.566  0.00  0.00     0.069 H 
ATOM     14  H   LIG d   1       1.889   0.484  -8.615  0.00  0.00     0.104 H 
ENDROOT
BRANCH   1  15
ATOM     15  C   LIG d   1       6.792  -3.049  -4.147  0.00  0.00    -0.024 C 
ATOM     16  H   LIG d   1       6.570  -4.103  -4.313  0.00  0.00     0.031 H 
ATOM     17  H   LIG d   1       6.728  -2.826  -3.082  0.00  0.00     0.031 H 
BRANCH  15  18
ATOM     18  C   LIG d   1       8.206  -2.741  -4.648  0.00  0.00    -0.049 C 
ATOM     19  H   LIG d   1       8.606  -1.887  -4.103  0.00  0.00     0.027 H 
ATOM     20  H   LIG d   1       8.172  -2.509  -5.712  0.00  0.00     0.027 H 
BRANCH  18  21
ATOM     21  C   LIG d   1       9.103  -3.959  -4.419  0.00  0.00    -0.056 C 
ATOM     22  H   LIG d   1       8.572  -4.862  -4.715  0.00  0.00     0.026 H 
ATOM     23  H   LIG d   1      10.011  -3.858  -5.015  0.00  0.00     0.026 H 
BRANCH  21  24
ATOM     24  C   LIG d   1       9.474  -4.047  -2.938  0.00  0.00    -0.065 C 
ATOM     25  H   LIG d   1       8.961  -4.896  -2.485  0.00  0.00     0.023 H 
ATOM     26  H   LIG d   1      10.552  -4.181  -2.840  0.00  0.00     0.023 H 
ATOM     27  H   LIG d   1       9.175  -3.130  -2.432  0.00  0.00     0.023 H 
ENDBRANCH  21  24
ENDBRANCH  18  21
ENDBRANCH  15  18
ENDBRANCH   1  15
BRANCH   6  28
ATOM     28  O   LIG d   1       5.765  -0.640  -3.105  0.00  0.00    -0.426 OA
BRANCH  28  29
ATOM     29  C   LIG d   1       4.836  -0.482  -2.148  0.00  0.00     0.309 C 
ATOM     30  O   LIG d   1       4.266  -1.445  -1.693  0.00  0.00    -0.251 OA
BRANCH  29  31
ATOM     31  C   LIG d   1       4.504   0.899  -1.642  0.00  0.00     0.034 C 
ATOM     32  H   LIG d   1       4.015   1.467  -2.432  0.00  0.00     0.034 H 
ATOM     33  H   LIG d   1       3.836   0.819  -0.783  0.00  0.00     0.034 H 
ATOM     34  H   LIG d   1       5.421   1.407  -1.342  0.00  0.00     0.034 H 
ENDBRANCH  29  31
ENDBRANCH  28  29
ENDBRANCH   6  28
BRANCH   9  35
ATOM     35  C   LIG d   1       2.425  -1.620 -10.140  0.00  0.00    -0.011 A 
ATOM     36  C   LIG d   1       1.367  -2.519 -10.267  0.00  0.00    -0.054 A 
ATOM     37  C   LIG d   1       0.857  -2.807 -11.517  0.00  0.00    -0.061 A 
ATOM     38  H   LIG d   1       0.948  -2.989  -9.390  0.00  0.00     0.062 H 
ATOM     39  C   LIG d   1       1.393  -2.208 -12.641  0.00  0.00    -0.062 A 
ATOM     40  H   LIG d   1       0.037  -3.504 -11.617  0.00  0.00     0.062 H 
ATOM     41  C   LIG d   1       2.443  -1.315 -12.521  0.00  0.00    -0.061 A 
ATOM     42  H   LIG d   1       0.991  -2.436 -13.617  0.00  0.00     0.062 H 
ATOM     43  C   LIG d   1       2.958  -1.015 -11.276  0.00  0.00    -0.054 A 
ATOM     44  H   LIG d   1       2.859  -0.850 -13.403  0.00  0.00     0.062 H 
ATOM     45  H   LIG d   1       3.776  -0.315 -11.183  0.00  0.00     0.062 H 
ENDBRANCH   9  35
TORSDOF 8
ENDMDL
