MODEL 1
REMARK VINA RESULT:      -7.5      0.000      0.000
REMARK  6 active torsions:
REMARK  status: ('A' for Active; 'I' for Inactive)
REMARK    1  A    between atoms: C_1  and  C_2 
REMARK    2  A    between atoms: C_2  and  C_3 
REMARK    3  A    between atoms: C_3  and  S_4 
REMARK    4  A    between atoms: S_4  and  N_7 
REMARK    5  A    between atoms: N_7  and  C_8 
REMARK       I    between atoms: N_22  and  C_24 
REMARK       I    between atoms: C_24  and  N_26 
REMARK    6  A    between atoms: N_26  and  C_27 
ROOT
ATOM      1  C   LIG d   1       4.110  -1.303  -7.338  0.00  0.00     0.112 A 
ATOM      2  C   LIG d   1       4.547  -2.536  -6.939  0.00  0.00    -0.032 A 
ATOM      3  C   LIG d   1       4.719  -2.782  -5.572  0.00  0.00    -0.040 A 
ATOM      4  C   LIG d   1       4.436  -1.821  -4.654  0.00  0.00     0.027 A 
ATOM      5  N   LIG d   1       3.926  -0.627  -5.041  0.00  0.00    -0.310 N 
ATOM      6  C   LIG d   1       3.828  -0.330  -6.361  0.00  0.00     0.274 A 
ATOM      7  O   LIG d   1       3.492   0.793  -6.704  0.00  0.00    -0.266 OA
ATOM      8  C   LIG d   1       3.429   0.377  -4.100  0.00  0.00     0.031 C 
ATOM      9  C   LIG d   1       3.952   0.159  -2.691  0.00  0.00    -0.006 C 
ATOM     10  H   LIG d   1       3.342   0.752  -2.009  0.00  0.00     0.033 H 
ATOM     11  C   LIG d   1       3.801  -1.311  -2.303  0.00  0.00    -0.037 C 
ATOM     12  C   LIG d   1       4.716  -2.145  -3.205  0.00  0.00     0.016 C 
ATOM     13  H   LIG d   1       4.572  -3.210  -3.023  0.00  0.00     0.038 H 
ATOM     14  C   LIG d   1       6.173  -1.750  -2.910  0.00  0.00     0.024 C 
ATOM     15  N   LIG d   1       6.305  -0.313  -3.204  0.00  0.00    -0.285 N 
ATOM     16  C   LIG d   1       5.397   0.624  -2.532  0.00  0.00     0.021 C 
ATOM     17  C   LIG d   1       7.241   0.131  -4.065  0.00  0.00     0.302 C 
ATOM     18  O   LIG d   1       7.925  -0.662  -4.682  0.00  0.00    -0.253 OA
ATOM     19  N   LIG d   1       7.418   1.455  -4.243  0.00  0.00    -0.296 N 
ATOM     20  H   LIG d   1       4.755  -3.307  -7.667  0.00  0.00     0.064 H 
ATOM     21  H   LIG d   1       5.082  -3.744  -5.244  0.00  0.00     0.064 H 
ATOM     22  H   LIG d   1       3.737   1.364  -4.441  0.00  0.00     0.050 H 
ATOM     23  H   LIG d   1       2.340   0.336  -4.082  0.00  0.00     0.050 H 
ATOM     24  H   LIG d   1       2.766  -1.624  -2.441  0.00  0.00     0.028 H 
ATOM     25  H   LIG d   1       4.090  -1.448  -1.261  0.00  0.00     0.028 H 
ATOM     26  H   LIG d   1       6.849  -2.322  -3.548  0.00  0.00     0.047 H 
ATOM     27  H   LIG d   1       6.406  -1.937  -1.863  0.00  0.00     0.047 H 
ATOM     28  H   LIG d   1       5.648   0.673  -1.473  0.00  0.00     0.047 H 
ATOM     29  H   LIG d   1       5.509   1.614  -2.973  0.00  0.00     0.047 H 
ATOM     30  H   LIG d   1       6.825   2.088  -3.806  0.00  0.00     0.150 HD
ENDROOT
BRANCH  19  31
ATOM     31  C   LIG d   1       8.507   1.941  -5.095  0.00  0.00     0.025 C 
ATOM     32  C   LIG d   1       8.885   3.363  -4.678  0.00  0.00    -0.035 C 
ATOM     33  C   LIG d   1      10.022   3.871  -5.567  0.00  0.00    -0.051 C 
ATOM     34  H   LIG d   1       8.019   4.017  -4.787  0.00  0.00     0.028 H 
ATOM     35  H   LIG d   1       9.210   3.363  -3.637  0.00  0.00     0.028 H 
ATOM     36  C   LIG d   1       9.566   3.871  -7.028  0.00  0.00    -0.053 C 
ATOM     37  H   LIG d   1      10.888   3.217  -5.457  0.00  0.00     0.027 H 
ATOM     38  H   LIG d   1      10.292   4.884  -5.270  0.00  0.00     0.027 H 
ATOM     39  C   LIG d   1       9.187   2.449  -7.444  0.00  0.00    -0.051 C 
ATOM     40  H   LIG d   1      10.375   4.232  -7.661  0.00  0.00     0.026 H 
ATOM     41  H   LIG d   1       8.700   4.524  -7.137  0.00  0.00     0.026 H 
ATOM     42  C   LIG d   1       8.050   1.942  -6.555  0.00  0.00    -0.035 C 
ATOM     43  H   LIG d   1       8.862   2.450  -8.484  0.00  0.00     0.027 H 
ATOM     44  H   LIG d   1      10.053   1.796  -7.334  0.00  0.00     0.027 H 
ATOM     45  H   LIG d   1       7.184   2.595  -6.664  0.00  0.00     0.028 H 
ATOM     46  H   LIG d   1       7.781   0.929  -6.852  0.00  0.00     0.028 H 
ATOM     47  H   LIG d   1       9.373   1.288  -4.985  0.00  0.00     0.050 H 
ENDBRANCH  19  31
BRANCH   1  48
ATOM     48  N   LIG d   1       3.944  -1.013  -8.699  0.00  0.00    -0.215 N 
ATOM     49  H   LIG d   1       3.058  -1.005  -9.089  0.00  0.00     0.173 HD
BRANCH  48  50
ATOM     50  S   LIG d   1       5.266  -0.683  -9.641  0.00  0.00     0.043 S 
ATOM     51  O   LIG d   1       6.228  -0.149  -8.742  0.00  0.00    -0.155 OA
ATOM     52  O   LIG d   1       5.522  -1.891 -10.343  0.00  0.00    -0.155 OA
BRANCH  50  53
ATOM     53  C   LIG d   1       4.707   0.602 -10.793  0.00  0.00     0.085 C 
ATOM     54  H   LIG d   1       5.526   1.292 -10.994  0.00  0.00     0.052 H 
ATOM     55  H   LIG d   1       4.384   0.139 -11.726  0.00  0.00     0.052 H 
BRANCH  53  56
ATOM     56  C   LIG d   1       3.536   1.368 -10.173  0.00  0.00    -0.035 C 
ATOM     57  H   LIG d   1       2.840   1.663 -10.958  0.00  0.00     0.028 H 
ATOM     58  H   LIG d   1       3.024   0.728  -9.455  0.00  0.00     0.028 H 
BRANCH  56  59
ATOM     59  C   LIG d   1       4.063   2.615  -9.462  0.00  0.00    -0.064 C 
ATOM     60  H   LIG d   1       3.830   2.554  -8.398  0.00  0.00     0.023 H 
ATOM     61  H   LIG d   1       5.143   2.681  -9.594  0.00  0.00     0.023 H 
ATOM     62  H   LIG d   1       3.591   3.502  -9.886  0.00  0.00     0.023 H 
ENDBRANCH  56  59
ENDBRANCH  53  56
ENDBRANCH  50  53
ENDBRANCH  48  50
ENDBRANCH   1  48
TORSDOF 6
ENDMDL
MODEL 2
REMARK VINA RESULT:      -7.0      1.931      5.400
REMARK  6 active torsions:
REMARK  status: ('A' for Active; 'I' for Inactive)
REMARK    1  A    between atoms: C_1  and  C_2 
REMARK    2  A    between atoms: C_2  and  C_3 
REMARK    3  A    between atoms: C_3  and  S_4 
REMARK    4  A    between atoms: S_4  and  N_7 
REMARK    5  A    between atoms: N_7  and  C_8 
REMARK       I    between atoms: N_22  and  C_24 
REMARK       I    between atoms: C_24  and  N_26 
REMARK    6  A    between atoms: N_26  and  C_27 
ROOT
ATOM      1  C   LIG d   1       7.823   0.779  -4.720  0.00  0.00     0.112 A 
ATOM      2  C   LIG d   1       7.376   1.714  -3.828  0.00  0.00    -0.032 A 
ATOM      3  C   LIG d   1       6.301   1.390  -2.992  0.00  0.00    -0.040 A 
ATOM      4  C   LIG d   1       5.724   0.161  -3.049  0.00  0.00     0.027 A 
ATOM      5  N   LIG d   1       6.217  -0.794  -3.874  0.00  0.00    -0.310 N 
ATOM      6  C   LIG d   1       7.201  -0.484  -4.754  0.00  0.00     0.274 A 
ATOM      7  O   LIG d   1       7.552  -1.308  -5.584  0.00  0.00    -0.266 OA
ATOM      8  C   LIG d   1       5.765  -2.185  -3.852  0.00  0.00     0.031 C 
ATOM      9  C   LIG d   1       4.417  -2.345  -3.172  0.00  0.00    -0.006 C 
ATOM     10  H   LIG d   1       4.275  -3.403  -2.948  0.00  0.00     0.033 H 
ATOM     11  C   LIG d   1       4.407  -1.577  -1.851  0.00  0.00    -0.037 C 
ATOM     12  C   LIG d   1       4.525  -0.082  -2.162  0.00  0.00     0.016 C 
ATOM     13  H   LIG d   1       4.613   0.498  -1.243  0.00  0.00     0.038 H 
ATOM     14  C   LIG d   1       3.271   0.349  -2.942  0.00  0.00     0.024 C 
ATOM     15  N   LIG d   1       3.230  -0.448  -4.179  0.00  0.00    -0.285 N 
ATOM     16  C   LIG d   1       3.261  -1.911  -4.070  0.00  0.00     0.021 C 
ATOM     17  C   LIG d   1       3.161   0.152  -5.384  0.00  0.00     0.302 C 
ATOM     18  O   LIG d   1       3.227   1.364  -5.464  0.00  0.00    -0.253 OA
ATOM     19  N   LIG d   1       3.018  -0.591  -6.499  0.00  0.00    -0.296 N 
ATOM     20  H   LIG d   1       7.845   2.685  -3.769  0.00  0.00     0.064 H 
ATOM     21  H   LIG d   1       5.925   2.125  -2.296  0.00  0.00     0.064 H 
ATOM     22  H   LIG d   1       5.688  -2.548  -4.877  0.00  0.00     0.050 H 
ATOM     23  H   LIG d   1       6.501  -2.787  -3.321  0.00  0.00     0.050 H 
ATOM     24  H   LIG d   1       5.250  -1.891  -1.236  0.00  0.00     0.028 H 
ATOM     25  H   LIG d   1       3.473  -1.769  -1.322  0.00  0.00     0.028 H 
ATOM     26  H   LIG d   1       3.333   1.410  -3.187  0.00  0.00     0.047 H 
ATOM     27  H   LIG d   1       2.379   0.158  -2.348  0.00  0.00     0.047 H 
ATOM     28  H   LIG d   1       2.320  -2.261  -3.646  0.00  0.00     0.047 H 
ATOM     29  H   LIG d   1       3.390  -2.345  -5.062  0.00  0.00     0.047 H 
ATOM     30  H   LIG d   1       3.037  -1.560  -6.443  0.00  0.00     0.150 HD
ENDROOT
BRANCH  19  31
ATOM     31  C   LIG d   1       2.832   0.064  -7.797  0.00  0.00     0.025 C 
ATOM     32  C   LIG d   1       2.208  -0.926  -8.782  0.00  0.00    -0.035 C 
ATOM     33  C   LIG d   1       2.014  -0.243 -10.138  0.00  0.00    -0.051 C 
ATOM     34  H   LIG d   1       2.868  -1.786  -8.901  0.00  0.00     0.028 H 
ATOM     35  H   LIG d   1       1.242  -1.259  -8.402  0.00  0.00     0.028 H 
ATOM     36  C   LIG d   1       3.369   0.226 -10.672  0.00  0.00    -0.053 C 
ATOM     37  H   LIG d   1       1.354   0.617 -10.019  0.00  0.00     0.027 H 
ATOM     38  H   LIG d   1       1.570  -0.947 -10.840  0.00  0.00     0.027 H 
ATOM     39  C   LIG d   1       3.993   1.215  -9.686  0.00  0.00    -0.051 C 
ATOM     40  H   LIG d   1       3.231   0.712 -11.637  0.00  0.00     0.026 H 
ATOM     41  H   LIG d   1       4.029  -0.634 -10.790  0.00  0.00     0.026 H 
ATOM     42  C   LIG d   1       4.187   0.531  -8.330  0.00  0.00    -0.035 C 
ATOM     43  H   LIG d   1       4.958   1.547 -10.066  0.00  0.00     0.027 H 
ATOM     44  H   LIG d   1       3.332   2.074  -9.568  0.00  0.00     0.027 H 
ATOM     45  H   LIG d   1       4.847  -0.329  -8.449  0.00  0.00     0.028 H 
ATOM     46  H   LIG d   1       4.631   1.236  -7.629  0.00  0.00     0.028 H 
ATOM     47  H   LIG d   1       2.171   0.923  -7.679  0.00  0.00     0.050 H 
ENDBRANCH  19  31
BRANCH   1  48
ATOM     48  N   LIG d   1       8.884   1.073  -5.587  0.00  0.00    -0.215 N 
ATOM     49  H   LIG d   1       9.799   0.953  -5.291  0.00  0.00     0.173 HD
BRANCH  48  50
ATOM     50  S   LIG d   1       8.573   1.624  -7.118  0.00  0.00     0.043 S 
ATOM     51  O   LIG d   1       9.273   0.730  -7.973  0.00  0.00    -0.155 OA
ATOM     52  O   LIG d   1       7.158   1.732  -7.184  0.00  0.00    -0.155 OA
BRANCH  50  53
ATOM     53  C   LIG d   1       9.330   3.271  -7.182  0.00  0.00     0.085 C 
ATOM     54  H   LIG d   1      10.066   3.302  -7.985  0.00  0.00     0.052 H 
ATOM     55  H   LIG d   1       8.559   4.019  -7.367  0.00  0.00     0.052 H 
BRANCH  53  56
ATOM     56  C   LIG d   1      10.018   3.568  -5.848  0.00  0.00    -0.035 C 
ATOM     57  H   LIG d   1       9.702   2.836  -5.105  0.00  0.00     0.028 H 
ATOM     58  H   LIG d   1      11.099   3.511  -5.977  0.00  0.00     0.028 H 
BRANCH  56  59
ATOM     59  C   LIG d   1       9.634   4.972  -5.377  0.00  0.00    -0.064 C 
ATOM     60  H   LIG d   1       8.666   4.936  -4.878  0.00  0.00     0.023 H 
ATOM     61  H   LIG d   1      10.388   5.341  -4.682  0.00  0.00     0.023 H 
ATOM     62  H   LIG d   1       9.575   5.640  -6.236  0.00  0.00     0.023 H 
ENDBRANCH  56  59
ENDBRANCH  53  56
ENDBRANCH  50  53
ENDBRANCH  48  50
ENDBRANCH   1  48
TORSDOF 6
ENDMDL
MODEL 3
REMARK VINA RESULT:      -7.0      2.226      5.308
REMARK  6 active torsions:
REMARK  status: ('A' for Active; 'I' for Inactive)
REMARK    1  A    between atoms: C_1  and  C_2 
REMARK    2  A    between atoms: C_2  and  C_3 
REMARK    3  A    between atoms: C_3  and  S_4 
REMARK    4  A    between atoms: S_4  and  N_7 
REMARK    5  A    between atoms: N_7  and  C_8 
REMARK       I    between atoms: N_22  and  C_24 
REMARK       I    between atoms: C_24  and  N_26 
REMARK    6  A    between atoms: N_26  and  C_27 
ROOT
ATOM      1  C   LIG d   1       8.246   0.605  -4.695  0.00  0.00     0.112 A 
ATOM      2  C   LIG d   1       7.719   1.753  -4.170  0.00  0.00    -0.032 A 
ATOM      3  C   LIG d   1       6.556   1.670  -3.396  0.00  0.00    -0.040 A 
ATOM      4  C   LIG d   1       5.969   0.469  -3.152  0.00  0.00     0.027 A 
ATOM      5  N   LIG d   1       6.533  -0.677  -3.603  0.00  0.00    -0.310 N 
ATOM      6  C   LIG d   1       7.612  -0.623  -4.424  0.00  0.00     0.274 A 
ATOM      7  O   LIG d   1       8.037  -1.648  -4.933  0.00  0.00    -0.266 OA
ATOM      8  C   LIG d   1       6.061  -2.008  -3.222  0.00  0.00     0.031 C 
ATOM      9  C   LIG d   1       4.645  -1.985  -2.674  0.00  0.00    -0.006 C 
ATOM     10  H   LIG d   1       4.464  -2.933  -2.167  0.00  0.00     0.033 H 
ATOM     11  C   LIG d   1       4.505  -0.863  -1.646  0.00  0.00    -0.037 C 
ATOM     12  C   LIG d   1       4.679   0.476  -2.367  0.00  0.00     0.016 C 
ATOM     13  H   LIG d   1       4.676   1.302  -1.655  0.00  0.00     0.038 H 
ATOM     14  C   LIG d   1       3.523   0.639  -3.369  0.00  0.00     0.024 C 
ATOM     15  N   LIG d   1       3.603  -0.487  -4.315  0.00  0.00    -0.285 N 
ATOM     16  C   LIG d   1       3.599  -1.853  -3.779  0.00  0.00     0.021 C 
ATOM     17  C   LIG d   1       3.673  -0.267  -5.642  0.00  0.00     0.302 C 
ATOM     18  O   LIG d   1       3.766   0.868  -6.068  0.00  0.00    -0.253 OA
ATOM     19  N   LIG d   1       3.639  -1.307  -6.500  0.00  0.00    -0.296 N 
ATOM     20  H   LIG d   1       8.194   2.707  -4.348  0.00  0.00     0.064 H 
ATOM     21  H   LIG d   1       6.119   2.571  -2.992  0.00  0.00     0.064 H 
ATOM     22  H   LIG d   1       6.089  -2.657  -4.098  0.00  0.00     0.050 H 
ATOM     23  H   LIG d   1       6.727  -2.416  -2.462  0.00  0.00     0.050 H 
ATOM     24  H   LIG d   1       5.272  -0.969  -0.879  0.00  0.00     0.028 H 
ATOM     25  H   LIG d   1       3.517  -0.907  -1.187  0.00  0.00     0.028 H 
ATOM     26  H   LIG d   1       3.627   1.582  -3.906  0.00  0.00     0.047 H 
ATOM     27  H   LIG d   1       2.569   0.615  -2.845  0.00  0.00     0.047 H 
ATOM     28  H   LIG d   1       2.613  -2.079  -3.374  0.00  0.00     0.047 H 
ATOM     29  H   LIG d   1       3.828  -2.556  -4.580  0.00  0.00     0.047 H 
ATOM     30  H   LIG d   1       3.637  -2.216  -6.160  0.00  0.00     0.150 HD
ENDROOT
BRANCH  19  31
ATOM     31  C   LIG d   1       3.604  -1.065  -7.944  0.00  0.00     0.025 C 
ATOM     32  C   LIG d   1       2.299  -0.358  -8.312  0.00  0.00    -0.035 C 
ATOM     33  C   LIG d   1       2.262  -0.105  -9.820  0.00  0.00    -0.051 C 
ATOM     34  H   LIG d   1       1.453  -0.986  -8.028  0.00  0.00     0.028 H 
ATOM     35  H   LIG d   1       2.238   0.593  -7.782  0.00  0.00     0.028 H 
ATOM     36  C   LIG d   1       2.347  -1.440 -10.564  0.00  0.00    -0.053 C 
ATOM     37  H   LIG d   1       3.107   0.523 -10.104  0.00  0.00     0.027 H 
ATOM     38  H   LIG d   1       1.332   0.399 -10.082  0.00  0.00     0.027 H 
ATOM     39  C   LIG d   1       3.652  -2.147 -10.195  0.00  0.00    -0.051 C 
ATOM     40  H   LIG d   1       2.321  -1.260 -11.637  0.00  0.00     0.026 H 
ATOM     41  H   LIG d   1       1.501  -2.068 -10.280  0.00  0.00     0.026 H 
ATOM     42  C   LIG d   1       3.689  -2.400  -8.687  0.00  0.00    -0.035 C 
ATOM     43  H   LIG d   1       3.712  -3.098 -10.724  0.00  0.00     0.027 H 
ATOM     44  H   LIG d   1       4.497  -1.519 -10.479  0.00  0.00     0.027 H 
ATOM     45  H   LIG d   1       2.843  -3.027  -8.403  0.00  0.00     0.028 H 
ATOM     46  H   LIG d   1       4.619  -2.903  -8.426  0.00  0.00     0.028 H 
ATOM     47  H   LIG d   1       4.449  -0.437  -8.228  0.00  0.00     0.050 H 
ENDBRANCH  19  31
BRANCH   1  48
ATOM     48  N   LIG d   1       9.398   0.650  -5.491  0.00  0.00    -0.215 N 
ATOM     49  H   LIG d   1      10.249   0.361  -5.129  0.00  0.00     0.173 HD
BRANCH  48  50
ATOM     50  S   LIG d   1       9.305   1.197  -7.052  0.00  0.00     0.043 S 
ATOM     51  O   LIG d   1       9.615   2.581  -6.970  0.00  0.00    -0.155 OA
ATOM     52  O   LIG d   1      10.131   0.311  -7.795  0.00  0.00    -0.155 OA
BRANCH  50  53
ATOM     53  C   LIG d   1       7.567   0.972  -7.521  0.00  0.00     0.085 C 
ATOM     54  H   LIG d   1       7.416  -0.046  -7.880  0.00  0.00     0.052 H 
ATOM     55  H   LIG d   1       6.931   1.151  -6.655  0.00  0.00     0.052 H 
BRANCH  53  56
ATOM     56  C   LIG d   1       7.207   1.962  -8.631  0.00  0.00    -0.035 C 
ATOM     57  H   LIG d   1       7.370   2.980  -8.277  0.00  0.00     0.028 H 
ATOM     58  H   LIG d   1       7.835   1.775  -9.502  0.00  0.00     0.028 H 
BRANCH  56  59
ATOM     59  C   LIG d   1       5.737   1.785  -9.015  0.00  0.00    -0.064 C 
ATOM     60  H   LIG d   1       5.670   1.287  -9.983  0.00  0.00     0.023 H 
ATOM     61  H   LIG d   1       5.235   1.179  -8.260  0.00  0.00     0.023 H 
ATOM     62  H   LIG d   1       5.257   2.761  -9.075  0.00  0.00     0.023 H 
ENDBRANCH  56  59
ENDBRANCH  53  56
ENDBRANCH  50  53
ENDBRANCH  48  50
ENDBRANCH   1  48
TORSDOF 6
ENDMDL
MODEL 4
REMARK VINA RESULT:      -6.9      3.445      6.564
REMARK  6 active torsions:
REMARK  status: ('A' for Active; 'I' for Inactive)
REMARK    1  A    between atoms: C_1  and  C_2 
REMARK    2  A    between atoms: C_2  and  C_3 
REMARK    3  A    between atoms: C_3  and  S_4 
REMARK    4  A    between atoms: S_4  and  N_7 
REMARK    5  A    between atoms: N_7  and  C_8 
REMARK       I    between atoms: N_22  and  C_24 
REMARK       I    between atoms: C_24  and  N_26 
REMARK    6  A    between atoms: N_26  and  C_27 
ROOT
ATOM      1  C   LIG d   1       2.350  -3.462  -9.762  0.00  0.00     0.112 A 
ATOM      2  C   LIG d   1       1.346  -2.627 -10.170  0.00  0.00    -0.032 A 
ATOM      3  C   LIG d   1       1.642  -1.281 -10.411  0.00  0.00    -0.040 A 
ATOM      4  C   LIG d   1       2.909  -0.813 -10.263  0.00  0.00     0.027 A 
ATOM      5  N   LIG d   1       3.921  -1.653  -9.938  0.00  0.00    -0.310 N 
ATOM      6  C   LIG d   1       3.651  -2.943  -9.617  0.00  0.00     0.274 A 
ATOM      7  O   LIG d   1       4.545  -3.662  -9.198  0.00  0.00    -0.266 OA
ATOM      8  C   LIG d   1       5.329  -1.255  -9.944  0.00  0.00     0.031 C 
ATOM      9  C   LIG d   1       5.504   0.252  -9.893  0.00  0.00    -0.006 C 
ATOM     10  H   LIG d   1       6.533   0.482 -10.174  0.00  0.00     0.033 H 
ATOM     11  C   LIG d   1       4.576   0.918 -10.908  0.00  0.00    -0.037 C 
ATOM     12  C   LIG d   1       3.129   0.667 -10.476  0.00  0.00     0.016 C 
ATOM     13  H   LIG d   1       2.431   1.047 -11.222  0.00  0.00     0.038 H 
ATOM     14  C   LIG d   1       2.899   1.372  -9.127  0.00  0.00     0.024 C 
ATOM     15  N   LIG d   1       3.849   0.792  -8.164  0.00  0.00    -0.285 N 
ATOM     16  C   LIG d   1       5.279   0.813  -8.491  0.00  0.00     0.021 C 
ATOM     17  C   LIG d   1       3.415   0.259  -7.005  0.00  0.00     0.302 C 
ATOM     18  O   LIG d   1       2.222   0.166  -6.787  0.00  0.00    -0.253 OA
ATOM     19  N   LIG d   1       4.303  -0.172  -6.087  0.00  0.00    -0.296 N 
ATOM     20  H   LIG d   1       0.342  -3.002 -10.305  0.00  0.00     0.064 H 
ATOM     21  H   LIG d   1       0.855  -0.607 -10.715  0.00  0.00     0.064 H 
ATOM     22  H   LIG d   1       5.824  -1.697  -9.080  0.00  0.00     0.050 H 
ATOM     23  H   LIG d   1       5.799  -1.635 -10.850  0.00  0.00     0.050 H 
ATOM     24  H   LIG d   1       4.743   0.489 -11.896  0.00  0.00     0.028 H 
ATOM     25  H   LIG d   1       4.770   1.990 -10.935  0.00  0.00     0.028 H 
ATOM     26  H   LIG d   1       1.877   1.201  -8.789  0.00  0.00     0.047 H 
ATOM     27  H   LIG d   1       3.081   2.441  -9.230  0.00  0.00     0.047 H 
ATOM     28  H   LIG d   1       5.644   1.840  -8.448  0.00  0.00     0.047 H 
ATOM     29  H   LIG d   1       5.825   0.209  -7.767  0.00  0.00     0.047 H 
ATOM     30  H   LIG d   1       5.252  -0.165  -6.290  0.00  0.00     0.150 HD
ENDROOT
BRANCH  19  31
ATOM     31  C   LIG d   1       3.836  -0.651  -4.783  0.00  0.00     0.025 C 
ATOM     32  C   LIG d   1       4.035   0.446  -3.737  0.00  0.00    -0.035 C 
ATOM     33  C   LIG d   1       3.547  -0.053  -2.375  0.00  0.00    -0.051 C 
ATOM     34  H   LIG d   1       5.093   0.701  -3.672  0.00  0.00     0.028 H 
ATOM     35  H   LIG d   1       3.466   1.331  -4.024  0.00  0.00     0.028 H 
ATOM     36  C   LIG d   1       4.345  -1.295  -1.971  0.00  0.00    -0.053 C 
ATOM     37  H   LIG d   1       2.488  -0.307  -2.439  0.00  0.00     0.027 H 
ATOM     38  H   LIG d   1       3.688   0.729  -1.629  0.00  0.00     0.027 H 
ATOM     39  C   LIG d   1       4.147  -2.392  -3.019  0.00  0.00    -0.051 C 
ATOM     40  H   LIG d   1       3.998  -1.650  -1.002  0.00  0.00     0.026 H 
ATOM     41  H   LIG d   1       5.404  -1.040  -1.907  0.00  0.00     0.026 H 
ATOM     42  C   LIG d   1       4.634  -1.892  -4.380  0.00  0.00    -0.035 C 
ATOM     43  H   LIG d   1       4.716  -3.275  -2.731  0.00  0.00     0.027 H 
ATOM     44  H   LIG d   1       3.088  -2.645  -3.083  0.00  0.00     0.027 H 
ATOM     45  H   LIG d   1       5.693  -1.637  -4.316  0.00  0.00     0.028 H 
ATOM     46  H   LIG d   1       4.493  -2.673  -5.126  0.00  0.00     0.028 H 
ATOM     47  H   LIG d   1       2.778  -0.904  -4.847  0.00  0.00     0.050 H 
ENDBRANCH  19  31
BRANCH   1  48
ATOM     48  N   LIG d   1       2.088  -4.811  -9.492  0.00  0.00    -0.215 N 
ATOM     49  H   LIG d   1       1.917  -5.099  -8.583  0.00  0.00     0.173 HD
BRANCH  48  50
ATOM     50  S   LIG d   1       2.070  -5.914 -10.728  0.00  0.00     0.043 S 
ATOM     51  O   LIG d   1       2.866  -5.328 -11.748  0.00  0.00    -0.155 OA
ATOM     52  O   LIG d   1       2.454  -7.141 -10.124  0.00  0.00    -0.155 OA
BRANCH  50  53
ATOM     53  C   LIG d   1       0.336  -5.993 -11.256  0.00  0.00     0.085 C 
ATOM     54  H   LIG d   1       0.094  -5.106 -11.842  0.00  0.00     0.052 H 
ATOM     55  H   LIG d   1       0.181  -6.884 -11.863  0.00  0.00     0.052 H 
BRANCH  53  56
ATOM     56  C   LIG d   1      -0.570  -6.052 -10.024  0.00  0.00    -0.035 C 
ATOM     57  H   LIG d   1      -0.949  -7.067  -9.901  0.00  0.00     0.028 H 
ATOM     58  H   LIG d   1       0.001  -5.768  -9.140  0.00  0.00     0.028 H 
BRANCH  56  59
ATOM     59  C   LIG d   1      -1.742  -5.087 -10.206  0.00  0.00    -0.064 C 
ATOM     60  H   LIG d   1      -2.673  -5.652 -10.269  0.00  0.00     0.023 H 
ATOM     61  H   LIG d   1      -1.788  -4.406  -9.357  0.00  0.00     0.023 H 
ATOM     62  H   LIG d   1      -1.603  -4.515 -11.123  0.00  0.00     0.023 H 
ENDBRANCH  56  59
ENDBRANCH  53  56
ENDBRANCH  50  53
ENDBRANCH  48  50
ENDBRANCH   1  48
TORSDOF 6
ENDMDL
MODEL 5
REMARK VINA RESULT:      -6.8      2.270      6.217
REMARK  6 active torsions:
REMARK  status: ('A' for Active; 'I' for Inactive)
REMARK    1  A    between atoms: C_1  and  C_2 
REMARK    2  A    between atoms: C_2  and  C_3 
REMARK    3  A    between atoms: C_3  and  S_4 
REMARK    4  A    between atoms: S_4  and  N_7 
REMARK    5  A    between atoms: N_7  and  C_8 
REMARK       I    between atoms: N_22  and  C_24 
REMARK       I    between atoms: C_24  and  N_26 
REMARK    6  A    between atoms: N_26  and  C_27 
ROOT
ATOM      1  C   LIG d   1       8.185   0.242  -8.807  0.00  0.00     0.112 A 
ATOM      2  C   LIG d   1       7.892  -0.795  -9.650  0.00  0.00    -0.032 A 
ATOM      3  C   LIG d   1       6.634  -0.832 -10.263  0.00  0.00    -0.040 A 
ATOM      4  C   LIG d   1       5.726   0.155 -10.043  0.00  0.00     0.027 A 
ATOM      5  N   LIG d   1       6.042   1.223  -9.272  0.00  0.00    -0.310 N 
ATOM      6  C   LIG d   1       7.220   1.246  -8.599  0.00  0.00     0.274 A 
ATOM      7  O   LIG d   1       7.446   2.146  -7.806  0.00  0.00    -0.266 OA
ATOM      8  C   LIG d   1       5.186   2.402  -9.144  0.00  0.00     0.031 C 
ATOM      9  C   LIG d   1       3.753   2.125  -9.562  0.00  0.00    -0.006 C 
ATOM     10  H   LIG d   1       3.252   3.083  -9.704  0.00  0.00     0.033 H 
ATOM     11  C   LIG d   1       3.737   1.381 -10.897  0.00  0.00    -0.037 C 
ATOM     12  C   LIG d   1       4.368   0.002 -10.687  0.00  0.00     0.016 C 
ATOM     13  H   LIG d   1       4.459  -0.530 -11.635  0.00  0.00     0.038 H 
ATOM     14  C   LIG d   1       3.477  -0.795  -9.717  0.00  0.00     0.024 C 
ATOM     15  N   LIG d   1       3.421  -0.039  -8.455  0.00  0.00    -0.285 N 
ATOM     16  C   LIG d   1       2.977   1.359  -8.495  0.00  0.00     0.021 C 
ATOM     17  C   LIG d   1       3.766  -0.620  -7.289  0.00  0.00     0.302 C 
ATOM     18  O   LIG d   1       4.218  -1.749  -7.282  0.00  0.00    -0.253 OA
ATOM     19  N   LIG d   1       3.610   0.051  -6.130  0.00  0.00    -0.296 N 
ATOM     20  H   LIG d   1       8.619  -1.570  -9.841  0.00  0.00     0.064 H 
ATOM     21  H   LIG d   1       6.382  -1.654 -10.916  0.00  0.00     0.064 H 
ATOM     22  H   LIG d   1       5.192   2.732  -8.106  0.00  0.00     0.050 H 
ATOM     23  H   LIG d   1       5.588   3.200  -9.768  0.00  0.00     0.050 H 
ATOM     24  H   LIG d   1       4.311   1.938 -11.637  0.00  0.00     0.028 H 
ATOM     25  H   LIG d   1       2.709   1.265 -11.241  0.00  0.00     0.028 H 
ATOM     26  H   LIG d   1       3.909  -1.780  -9.541  0.00  0.00     0.047 H 
ATOM     27  H   LIG d   1       2.475  -0.899 -10.132  0.00  0.00     0.047 H 
ATOM     28  H   LIG d   1       1.912   1.392  -8.726  0.00  0.00     0.047 H 
ATOM     29  H   LIG d   1       3.147   1.820  -7.522  0.00  0.00     0.047 H 
ATOM     30  H   LIG d   1       3.317   0.976  -6.141  0.00  0.00     0.150 HD
ENDROOT
BRANCH  19  31
ATOM     31  C   LIG d   1       3.880  -0.617  -4.855  0.00  0.00     0.025 C 
ATOM     32  C   LIG d   1       2.732  -0.343  -3.882  0.00  0.00    -0.035 C 
ATOM     33  C   LIG d   1       3.014  -1.041  -2.550  0.00  0.00    -0.051 C 
ATOM     34  H   LIG d   1       2.643   0.731  -3.718  0.00  0.00     0.028 H 
ATOM     35  H   LIG d   1       1.801  -0.725  -4.302  0.00  0.00     0.028 H 
ATOM     36  C   LIG d   1       4.321  -0.506  -1.961  0.00  0.00    -0.053 C 
ATOM     37  H   LIG d   1       3.103  -2.115  -2.714  0.00  0.00     0.027 H 
ATOM     38  H   LIG d   1       2.196  -0.846  -1.857  0.00  0.00     0.027 H 
ATOM     39  C   LIG d   1       5.469  -0.780  -2.934  0.00  0.00    -0.051 C 
ATOM     40  H   LIG d   1       4.522  -1.003  -1.012  0.00  0.00     0.026 H 
ATOM     41  H   LIG d   1       4.233   0.568  -1.796  0.00  0.00     0.026 H 
ATOM     42  C   LIG d   1       5.186  -0.082  -4.266  0.00  0.00    -0.035 C 
ATOM     43  H   LIG d   1       6.399  -0.398  -2.514  0.00  0.00     0.027 H 
ATOM     44  H   LIG d   1       5.557  -1.854  -3.098  0.00  0.00     0.027 H 
ATOM     45  H   LIG d   1       5.098   0.992  -4.102  0.00  0.00     0.028 H 
ATOM     46  H   LIG d   1       6.004  -0.278  -4.959  0.00  0.00     0.028 H 
ATOM     47  H   LIG d   1       3.968  -1.692  -5.019  0.00  0.00     0.050 H 
ENDBRANCH  19  31
BRANCH   1  48
ATOM     48  N   LIG d   1       9.426   0.303  -8.161  0.00  0.00    -0.215 N 
ATOM     49  H   LIG d   1      10.167   0.770  -8.576  0.00  0.00     0.173 HD
BRANCH  48  50
ATOM     50  S   LIG d   1       9.627  -0.421  -6.684  0.00  0.00     0.043 S 
ATOM     51  O   LIG d   1       8.376  -1.038  -6.410  0.00  0.00    -0.155 OA
ATOM     52  O   LIG d   1      10.805  -1.202  -6.821  0.00  0.00    -0.155 OA
BRANCH  50  53
ATOM     53  C   LIG d   1       9.915   0.948  -5.529  0.00  0.00     0.085 C 
ATOM     54  H   LIG d   1      10.868   0.801  -5.022  0.00  0.00     0.052 H 
ATOM     55  H   LIG d   1       9.937   1.889  -6.079  0.00  0.00     0.052 H 
BRANCH  53  56
ATOM     56  C   LIG d   1       8.788   0.989  -4.495  0.00  0.00    -0.035 C 
ATOM     57  H   LIG d   1       7.998   0.299  -4.792  0.00  0.00     0.028 H 
ATOM     58  H   LIG d   1       9.178   0.696  -3.521  0.00  0.00     0.028 H 
BRANCH  56  59
ATOM     59  C   LIG d   1       8.222   2.408  -4.413  0.00  0.00    -0.064 C 
ATOM     60  H   LIG d   1       8.084   2.685  -3.368  0.00  0.00     0.023 H 
ATOM     61  H   LIG d   1       8.916   3.103  -4.885  0.00  0.00     0.023 H 
ATOM     62  H   LIG d   1       7.263   2.447  -4.929  0.00  0.00     0.023 H 
ENDBRANCH  56  59
ENDBRANCH  53  56
ENDBRANCH  50  53
ENDBRANCH  48  50
ENDBRANCH   1  48
TORSDOF 6
ENDMDL
MODEL 6
REMARK VINA RESULT:      -6.4      2.445      5.682
REMARK  6 active torsions:
REMARK  status: ('A' for Active; 'I' for Inactive)
REMARK    1  A    between atoms: C_1  and  C_2 
REMARK    2  A    between atoms: C_2  and  C_3 
REMARK    3  A    between atoms: C_3  and  S_4 
REMARK    4  A    between atoms: S_4  and  N_7 
REMARK    5  A    between atoms: N_7  and  C_8 
REMARK       I    between atoms: N_22  and  C_24 
REMARK       I    between atoms: C_24  and  N_26 
REMARK    6  A    between atoms: N_26  and  C_27 
ROOT
ATOM      1  C   LIG d   1       4.219  -1.019  -5.621  0.00  0.00     0.112 A 
ATOM      2  C   LIG d   1       3.369   0.052  -5.585  0.00  0.00    -0.032 A 
ATOM      3  C   LIG d   1       2.775   0.483  -6.776  0.00  0.00    -0.040 A 
ATOM      4  C   LIG d   1       3.019  -0.162  -7.947  0.00  0.00     0.027 A 
ATOM      5  N   LIG d   1       3.797  -1.272  -7.972  0.00  0.00    -0.310 N 
ATOM      6  C   LIG d   1       4.453  -1.663  -6.851  0.00  0.00     0.274 A 
ATOM      7  O   LIG d   1       5.253  -2.583  -6.909  0.00  0.00    -0.266 OA
ATOM      8  C   LIG d   1       3.951  -2.117  -9.156  0.00  0.00     0.031 C 
ATOM      9  C   LIG d   1       3.550  -1.402 -10.434  0.00  0.00    -0.006 C 
ATOM     10  H   LIG d   1       3.427  -2.152 -11.216  0.00  0.00     0.033 H 
ATOM     11  C   LIG d   1       2.208  -0.698 -10.237  0.00  0.00    -0.037 C 
ATOM     12  C   LIG d   1       2.393   0.410  -9.196  0.00  0.00     0.016 C 
ATOM     13  H   LIG d   1       1.438   0.880  -8.958  0.00  0.00     0.038 H 
ATOM     14  C   LIG d   1       3.367   1.454  -9.772  0.00  0.00     0.024 C 
ATOM     15  N   LIG d   1       4.638   0.763 -10.042  0.00  0.00    -0.285 N 
ATOM     16  C   LIG d   1       4.621  -0.422 -10.908  0.00  0.00     0.021 C 
ATOM     17  C   LIG d   1       5.792   1.211  -9.511  0.00  0.00     0.302 C 
ATOM     18  O   LIG d   1       5.780   2.138  -8.723  0.00  0.00    -0.253 OA
ATOM     19  N   LIG d   1       6.961   0.632  -9.852  0.00  0.00    -0.296 N 
ATOM     20  H   LIG d   1       3.159   0.556  -4.652  0.00  0.00     0.064 H 
ATOM     21  H   LIG d   1       2.116   1.339  -6.765  0.00  0.00     0.064 H 
ATOM     22  H   LIG d   1       4.993  -2.425  -9.237  0.00  0.00     0.050 H 
ATOM     23  H   LIG d   1       3.331  -3.005  -9.040  0.00  0.00     0.050 H 
ATOM     24  H   LIG d   1       1.466  -1.413  -9.882  0.00  0.00     0.028 H 
ATOM     25  H   LIG d   1       1.878  -0.264 -11.181  0.00  0.00     0.028 H 
ATOM     26  H   LIG d   1       3.526   2.252  -9.046  0.00  0.00     0.047 H 
ATOM     27  H   LIG d   1       2.966   1.868 -10.696  0.00  0.00     0.047 H 
ATOM     28  H   LIG d   1       4.406  -0.116 -11.932  0.00  0.00     0.047 H 
ATOM     29  H   LIG d   1       5.596  -0.907 -10.876  0.00  0.00     0.047 H 
ATOM     30  H   LIG d   1       6.965  -0.153 -10.423  0.00  0.00     0.150 HD
ENDROOT
BRANCH  19  31
ATOM     31  C   LIG d   1       8.225   1.187  -9.361  0.00  0.00     0.025 C 
ATOM     32  C   LIG d   1       9.240   1.232 -10.504  0.00  0.00    -0.035 C 
ATOM     33  C   LIG d   1      10.560   1.812  -9.992  0.00  0.00    -0.051 C 
ATOM     34  H   LIG d   1       9.408   0.223 -10.881  0.00  0.00     0.028 H 
ATOM     35  H   LIG d   1       8.855   1.861 -11.308  0.00  0.00     0.028 H 
ATOM     36  C   LIG d   1      11.100   0.931  -8.864  0.00  0.00    -0.053 C 
ATOM     37  H   LIG d   1      10.391   2.822  -9.615  0.00  0.00     0.027 H 
ATOM     38  H   LIG d   1      11.283   1.845 -10.806  0.00  0.00     0.027 H 
ATOM     39  C   LIG d   1      10.085   0.885  -7.721  0.00  0.00    -0.051 C 
ATOM     40  H   LIG d   1      12.040   1.344  -8.499  0.00  0.00     0.026 H 
ATOM     41  H   LIG d   1      11.269  -0.078  -9.240  0.00  0.00     0.026 H 
ATOM     42  C   LIG d   1       8.765   0.306  -8.233  0.00  0.00    -0.035 C 
ATOM     43  H   LIG d   1      10.470   0.257  -6.918  0.00  0.00     0.027 H 
ATOM     44  H   LIG d   1       9.916   1.895  -7.345  0.00  0.00     0.027 H 
ATOM     45  H   LIG d   1       8.933  -0.704  -8.610  0.00  0.00     0.028 H 
ATOM     46  H   LIG d   1       8.042   0.273  -7.419  0.00  0.00     0.028 H 
ATOM     47  H   LIG d   1       8.056   2.196  -8.985  0.00  0.00     0.050 H 
ENDBRANCH  19  31
BRANCH   1  48
ATOM     48  N   LIG d   1       4.849  -1.467  -4.453  0.00  0.00    -0.215 N 
ATOM     49  H   LIG d   1       4.433  -2.155  -3.912  0.00  0.00     0.173 HD
BRANCH  48  50
ATOM     50  S   LIG d   1       6.305  -0.822  -3.997  0.00  0.00     0.043 S 
ATOM     51  O   LIG d   1       6.906  -1.822  -3.187  0.00  0.00    -0.155 OA
ATOM     52  O   LIG d   1       6.915  -0.410  -5.212  0.00  0.00    -0.155 OA
BRANCH  50  53
ATOM     53  C   LIG d   1       5.879   0.625  -2.990  0.00  0.00     0.085 C 
ATOM     54  H   LIG d   1       6.754   0.947  -2.427  0.00  0.00     0.052 H 
ATOM     55  H   LIG d   1       5.546   1.435  -3.639  0.00  0.00     0.052 H 
BRANCH  53  56
ATOM     56  C   LIG d   1       4.755   0.256  -2.018  0.00  0.00    -0.035 C 
ATOM     57  H   LIG d   1       4.430  -0.766  -2.210  0.00  0.00     0.028 H 
ATOM     58  H   LIG d   1       5.120   0.336  -0.994  0.00  0.00     0.028 H 
BRANCH  56  59
ATOM     59  C   LIG d   1       3.577   1.211  -2.216  0.00  0.00    -0.064 C 
ATOM     60  H   LIG d   1       3.884   2.044  -2.850  0.00  0.00     0.023 H 
ATOM     61  H   LIG d   1       2.753   0.679  -2.691  0.00  0.00     0.023 H 
ATOM     62  H   LIG d   1       3.252   1.593  -1.248  0.00  0.00     0.023 H 
ENDBRANCH  56  59
ENDBRANCH  53  56
ENDBRANCH  50  53
ENDBRANCH  48  50
ENDBRANCH   1  48
TORSDOF 6
ENDMDL
MODEL 7
REMARK VINA RESULT:      -6.3      3.044      5.353
REMARK  6 active torsions:
REMARK  status: ('A' for Active; 'I' for Inactive)
REMARK    1  A    between atoms: C_1  and  C_2 
REMARK    2  A    between atoms: C_2  and  C_3 
REMARK    3  A    between atoms: C_3  and  S_4 
REMARK    4  A    between atoms: S_4  and  N_7 
REMARK    5  A    between atoms: N_7  and  C_8 
REMARK       I    between atoms: N_22  and  C_24 
REMARK       I    between atoms: C_24  and  N_26 
REMARK    6  A    between atoms: N_26  and  C_27 
ROOT
ATOM      1  C   LIG d   1       6.833  -4.123  -4.962  0.00  0.00     0.112 A 
ATOM      2  C   LIG d   1       7.789  -3.230  -4.562  0.00  0.00    -0.032 A 
ATOM      3  C   LIG d   1       7.400  -2.112  -3.817  0.00  0.00    -0.040 A 
ATOM      4  C   LIG d   1       6.098  -1.924  -3.476  0.00  0.00     0.027 A 
ATOM      5  N   LIG d   1       5.161  -2.847  -3.801  0.00  0.00    -0.310 N 
ATOM      6  C   LIG d   1       5.493  -3.897  -4.594  0.00  0.00     0.274 A 
ATOM      7  O   LIG d   1       4.621  -4.654  -4.991  0.00  0.00    -0.266 OA
ATOM      8  C   LIG d   1       3.784  -2.801  -3.310  0.00  0.00     0.031 C 
ATOM      9  C   LIG d   1       3.395  -1.423  -2.805  0.00  0.00    -0.006 C 
ATOM     10  H   LIG d   1       2.484  -1.524  -2.216  0.00  0.00     0.033 H 
ATOM     11  C   LIG d   1       4.491  -0.876  -1.892  0.00  0.00    -0.037 C 
ATOM     12  C   LIG d   1       5.753  -0.656  -2.731  0.00  0.00     0.016 C 
ATOM     13  H   LIG d   1       6.589  -0.351  -2.100  0.00  0.00     0.038 H 
ATOM     14  C   LIG d   1       5.454   0.433  -3.776  0.00  0.00     0.024 C 
ATOM     15  N   LIG d   1       4.342  -0.053  -4.608  0.00  0.00    -0.285 N 
ATOM     16  C   LIG d   1       3.095  -0.453  -3.946  0.00  0.00     0.021 C 
ATOM     17  C   LIG d   1       4.464  -0.124  -5.948  0.00  0.00     0.302 C 
ATOM     18  O   LIG d   1       5.531   0.124  -6.476  0.00  0.00    -0.253 OA
ATOM     19  N   LIG d   1       3.403  -0.471  -6.704  0.00  0.00    -0.296 N 
ATOM     20  H   LIG d   1       8.828  -3.387  -4.817  0.00  0.00     0.064 H 
ATOM     21  H   LIG d   1       8.142  -1.389  -3.511  0.00  0.00     0.064 H 
ATOM     22  H   LIG d   1       3.111  -3.083  -4.118  0.00  0.00     0.050 H 
ATOM     23  H   LIG d   1       3.675  -3.518  -2.496  0.00  0.00     0.050 H 
ATOM     24  H   LIG d   1       4.700  -1.592  -1.097  0.00  0.00     0.028 H 
ATOM     25  H   LIG d   1       4.170   0.071  -1.458  0.00  0.00     0.028 H 
ATOM     26  H   LIG d   1       6.335   0.604  -4.396  0.00  0.00     0.047 H 
ATOM     27  H   LIG d   1       5.168   1.359  -3.278  0.00  0.00     0.047 H 
ATOM     28  H   LIG d   1       2.597   0.431  -3.549  0.00  0.00     0.047 H 
ATOM     29  H   LIG d   1       2.440  -0.938  -4.670  0.00  0.00     0.047 H 
ATOM     30  H   LIG d   1       2.572  -0.739  -6.280  0.00  0.00     0.150 HD
ENDROOT
BRANCH  19  31
ATOM     31  C   LIG d   1       3.503  -0.442  -8.165  0.00  0.00     0.025 C 
ATOM     32  C   LIG d   1       2.669   0.717  -8.711  0.00  0.00    -0.035 C 
ATOM     33  C   LIG d   1       2.774   0.748 -10.238  0.00  0.00    -0.051 C 
ATOM     34  H   LIG d   1       1.627   0.583  -8.422  0.00  0.00     0.028 H 
ATOM     35  H   LIG d   1       3.042   1.657  -8.303  0.00  0.00     0.028 H 
ATOM     36  C   LIG d   1       2.252  -0.572 -10.811  0.00  0.00    -0.053 C 
ATOM     37  H   LIG d   1       3.817   0.882 -10.527  0.00  0.00     0.027 H 
ATOM     38  H   LIG d   1       2.180   1.574 -10.627  0.00  0.00     0.027 H 
ATOM     39  C   LIG d   1       3.086  -1.731 -10.264  0.00  0.00    -0.051 C 
ATOM     40  H   LIG d   1       2.327  -0.550 -11.897  0.00  0.00     0.026 H 
ATOM     41  H   LIG d   1       1.209  -0.706 -10.521  0.00  0.00     0.026 H 
ATOM     42  C   LIG d   1       2.981  -1.761  -8.738  0.00  0.00    -0.035 C 
ATOM     43  H   LIG d   1       2.714  -2.670 -10.672  0.00  0.00     0.027 H 
ATOM     44  H   LIG d   1       4.129  -1.596 -10.554  0.00  0.00     0.027 H 
ATOM     45  H   LIG d   1       1.938  -1.895  -8.448  0.00  0.00     0.028 H 
ATOM     46  H   LIG d   1       3.575  -2.587  -8.349  0.00  0.00     0.028 H 
ATOM     47  H   LIG d   1       4.546  -0.307  -8.455  0.00  0.00     0.050 H 
ENDBRANCH  19  31
BRANCH   1  48
ATOM     48  N   LIG d   1       7.181  -5.244  -5.726  0.00  0.00    -0.215 N 
ATOM     49  H   LIG d   1       7.372  -6.088  -5.290  0.00  0.00     0.173 HD
BRANCH  48  50
ATOM     50  S   LIG d   1       7.266  -5.127  -7.377  0.00  0.00     0.043 S 
ATOM     51  O   LIG d   1       7.133  -3.739  -7.649  0.00  0.00    -0.155 OA
ATOM     52  O   LIG d   1       8.453  -5.824  -7.729  0.00  0.00    -0.155 OA
BRANCH  50  53
ATOM     53  C   LIG d   1       5.811  -6.025  -7.982  0.00  0.00     0.085 C 
ATOM     54  H   LIG d   1       6.104  -6.679  -8.804  0.00  0.00     0.052 H 
ATOM     55  H   LIG d   1       5.390  -6.623  -7.174  0.00  0.00     0.052 H 
BRANCH  53  56
ATOM     56  C   LIG d   1       4.763  -5.025  -8.475  0.00  0.00    -0.035 C 
ATOM     57  H   LIG d   1       4.411  -4.425  -7.636  0.00  0.00     0.028 H 
ATOM     58  H   LIG d   1       5.209  -4.373  -9.226  0.00  0.00     0.028 H 
BRANCH  56  59
ATOM     59  C   LIG d   1       3.586  -5.782  -9.091  0.00  0.00    -0.064 C 
ATOM     60  H   LIG d   1       3.506  -5.534 -10.150  0.00  0.00     0.023 H 
ATOM     61  H   LIG d   1       3.745  -6.854  -8.980  0.00  0.00     0.023 H 
ATOM     62  H   LIG d   1       2.665  -5.498  -8.582  0.00  0.00     0.023 H 
ENDBRANCH  56  59
ENDBRANCH  53  56
ENDBRANCH  50  53
ENDBRANCH  48  50
ENDBRANCH   1  48
TORSDOF 6
ENDMDL
MODEL 8
REMARK VINA RESULT:      -6.2      3.091      6.490
REMARK  6 active torsions:
REMARK  status: ('A' for Active; 'I' for Inactive)
REMARK    1  A    between atoms: C_1  and  C_2 
REMARK    2  A    between atoms: C_2  and  C_3 
REMARK    3  A    between atoms: C_3  and  S_4 
REMARK    4  A    between atoms: S_4  and  N_7 
REMARK    5  A    between atoms: N_7  and  C_8 
REMARK       I    between atoms: N_22  and  C_24 
REMARK       I    between atoms: C_24  and  N_26 
REMARK    6  A    between atoms: N_26  and  C_27 
ROOT
ATOM      1  C   LIG d   1       3.505  -4.070  -8.878  0.00  0.00     0.112 A 
ATOM      2  C   LIG d   1       2.414  -3.533  -9.504  0.00  0.00    -0.032 A 
ATOM      3  C   LIG d   1       2.490  -2.223  -9.990  0.00  0.00    -0.040 A 
ATOM      4  C   LIG d   1       3.634  -1.501  -9.861  0.00  0.00     0.027 A 
ATOM      5  N   LIG d   1       4.742  -2.057  -9.314  0.00  0.00    -0.310 N 
ATOM      6  C   LIG d   1       4.674  -3.294  -8.760  0.00  0.00     0.274 A 
ATOM      7  O   LIG d   1       5.636  -3.738  -8.153  0.00  0.00    -0.266 OA
ATOM      8  C   LIG d   1       6.051  -1.405  -9.313  0.00  0.00     0.031 C 
ATOM      9  C   LIG d   1       5.952   0.091  -9.551  0.00  0.00    -0.006 C 
ATOM     10  H   LIG d   1       6.946   0.458  -9.809  0.00  0.00     0.033 H 
ATOM     11  C   LIG d   1       5.025   0.368 -10.734  0.00  0.00    -0.037 C 
ATOM     12  C   LIG d   1       3.609  -0.072 -10.349  0.00  0.00     0.016 C 
ATOM     13  H   LIG d   1       2.931   0.024 -11.197  0.00  0.00     0.038 H 
ATOM     14  C   LIG d   1       3.129   0.812  -9.184  0.00  0.00     0.024 C 
ATOM     15  N   LIG d   1       4.067   0.612  -8.068  0.00  0.00    -0.285 N 
ATOM     16  C   LIG d   1       5.497   0.847  -8.306  0.00  0.00     0.021 C 
ATOM     17  C   LIG d   1       3.624   0.228  -6.856  0.00  0.00     0.302 C 
ATOM     18  O   LIG d   1       2.451  -0.051  -6.697  0.00  0.00    -0.253 OA
ATOM     19  N   LIG d   1       4.481   0.151  -5.818  0.00  0.00    -0.296 N 
ATOM     20  H   LIG d   1       1.509  -4.112  -9.624  0.00  0.00     0.064 H 
ATOM     21  H   LIG d   1       1.630  -1.780 -10.469  0.00  0.00     0.064 H 
ATOM     22  H   LIG d   1       6.530  -1.577  -8.350  0.00  0.00     0.050 H 
ATOM     23  H   LIG d   1       6.667  -1.847 -10.095  0.00  0.00     0.050 H 
ATOM     24  H   LIG d   1       5.359  -0.195 -11.604  0.00  0.00     0.028 H 
ATOM     25  H   LIG d   1       5.028   1.435 -10.961  0.00  0.00     0.028 H 
ATOM     26  H   LIG d   1       2.125   0.513  -8.882  0.00  0.00     0.047 H 
ATOM     27  H   LIG d   1       3.128   1.859  -9.486  0.00  0.00     0.047 H 
ATOM     28  H   LIG d   1       5.669   1.914  -8.445  0.00  0.00     0.047 H 
ATOM     29  H   LIG d   1       6.067   0.502  -7.444  0.00  0.00     0.047 H 
ATOM     30  H   LIG d   1       5.430   0.303  -5.960  0.00  0.00     0.150 HD
ENDROOT
BRANCH  19  31
ATOM     31  C   LIG d   1       3.982  -0.160  -4.476  0.00  0.00     0.025 C 
ATOM     32  C   LIG d   1       4.716   0.700  -3.447  0.00  0.00    -0.035 C 
ATOM     33  C   LIG d   1       4.195   0.376  -2.045  0.00  0.00    -0.051 C 
ATOM     34  H   LIG d   1       5.785   0.491  -3.494  0.00  0.00     0.028 H 
ATOM     35  H   LIG d   1       4.543   1.755  -3.663  0.00  0.00     0.028 H 
ATOM     36  C   LIG d   1       4.437  -1.104  -1.741  0.00  0.00    -0.053 C 
ATOM     37  H   LIG d   1       3.126   0.586  -1.998  0.00  0.00     0.027 H 
ATOM     38  H   LIG d   1       4.718   0.989  -1.311  0.00  0.00     0.027 H 
ATOM     39  C   LIG d   1       3.703  -1.964  -2.771  0.00  0.00    -0.051 C 
ATOM     40  H   LIG d   1       4.066  -1.335  -0.743  0.00  0.00     0.026 H 
ATOM     41  H   LIG d   1       5.506  -1.314  -1.788  0.00  0.00     0.026 H 
ATOM     42  C   LIG d   1       4.225  -1.639  -4.172  0.00  0.00    -0.035 C 
ATOM     43  H   LIG d   1       3.877  -3.018  -2.554  0.00  0.00     0.027 H 
ATOM     44  H   LIG d   1       2.634  -1.753  -2.724  0.00  0.00     0.027 H 
ATOM     45  H   LIG d   1       5.294  -1.849  -4.220  0.00  0.00     0.028 H 
ATOM     46  H   LIG d   1       3.702  -2.252  -4.905  0.00  0.00     0.028 H 
ATOM     47  H   LIG d   1       2.913   0.051  -4.429  0.00  0.00     0.050 H 
ENDBRANCH  19  31
BRANCH   1  48
ATOM     48  N   LIG d   1       3.460  -5.371  -8.362  0.00  0.00    -0.215 N 
ATOM     49  H   LIG d   1       3.457  -5.513  -7.404  0.00  0.00     0.173 HD
BRANCH  48  50
ATOM     50  S   LIG d   1       3.411  -6.669  -9.391  0.00  0.00     0.043 S 
ATOM     51  O   LIG d   1       2.028  -6.954  -9.548  0.00  0.00    -0.155 OA
ATOM     52  O   LIG d   1       4.201  -6.279 -10.505  0.00  0.00    -0.155 OA
BRANCH  50  53
ATOM     53  C   LIG d   1       4.227  -8.012  -8.486  0.00  0.00     0.085 C 
ATOM     54  H   LIG d   1       3.564  -8.876  -8.442  0.00  0.00     0.052 H 
ATOM     55  H   LIG d   1       5.150  -8.287  -8.996  0.00  0.00     0.052 H 
BRANCH  53  56
ATOM     56  C   LIG d   1       4.550  -7.546  -7.064  0.00  0.00    -0.035 C 
ATOM     57  H   LIG d   1       4.081  -6.579  -6.884  0.00  0.00     0.028 H 
ATOM     58  H   LIG d   1       4.169  -8.274  -6.348  0.00  0.00     0.028 H 
BRANCH  56  59
ATOM     59  C   LIG d   1       6.065  -7.416  -6.903  0.00  0.00    -0.064 C 
ATOM     60  H   LIG d   1       6.410  -8.102  -6.128  0.00  0.00     0.023 H 
ATOM     61  H   LIG d   1       6.554  -7.659  -7.846  0.00  0.00     0.023 H 
ATOM     62  H   LIG d   1       6.314  -6.393  -6.618  0.00  0.00     0.023 H 
ENDBRANCH  56  59
ENDBRANCH  53  56
ENDBRANCH  50  53
ENDBRANCH  48  50
ENDBRANCH   1  48
TORSDOF 6
ENDMDL
MODEL 9
REMARK VINA RESULT:      -6.2      2.298      5.715
REMARK  6 active torsions:
REMARK  status: ('A' for Active; 'I' for Inactive)
REMARK    1  A    between atoms: C_1  and  C_2 
REMARK    2  A    between atoms: C_2  and  C_3 
REMARK    3  A    between atoms: C_3  and  S_4 
REMARK    4  A    between atoms: S_4  and  N_7 
REMARK    5  A    between atoms: N_7  and  C_8 
REMARK       I    between atoms: N_22  and  C_24 
REMARK       I    between atoms: C_24  and  N_26 
REMARK    6  A    between atoms: N_26  and  C_27 
ROOT
ATOM      1  C   LIG d   1       3.285  -0.675  -6.554  0.00  0.00     0.112 A 
ATOM      2  C   LIG d   1       2.423   0.022  -7.356  0.00  0.00    -0.032 A 
ATOM      3  C   LIG d   1       2.639   0.025  -8.739  0.00  0.00    -0.040 A 
ATOM      4  C   LIG d   1       3.674  -0.669  -9.281  0.00  0.00     0.027 A 
ATOM      5  N   LIG d   1       4.481  -1.426  -8.498  0.00  0.00    -0.310 N 
ATOM      6  C   LIG d   1       4.348  -1.382  -7.148  0.00  0.00     0.274 A 
ATOM      7  O   LIG d   1       5.158  -1.961  -6.442  0.00  0.00    -0.266 OA
ATOM      8  C   LIG d   1       5.491  -2.338  -9.032  0.00  0.00     0.031 C 
ATOM      9  C   LIG d   1       5.857  -2.019 -10.470  0.00  0.00    -0.006 C 
ATOM     10  H   LIG d   1       6.388  -2.878 -10.882  0.00  0.00     0.033 H 
ATOM     11  C   LIG d   1       4.588  -1.808 -11.295  0.00  0.00    -0.037 C 
ATOM     12  C   LIG d   1       3.877  -0.556 -10.773  0.00  0.00     0.016 C 
ATOM     13  H   LIG d   1       2.918  -0.419 -11.274  0.00  0.00     0.038 H 
ATOM     14  C   LIG d   1       4.786   0.658 -11.031  0.00  0.00     0.024 C 
ATOM     15  N   LIG d   1       6.045   0.423 -10.306  0.00  0.00    -0.285 N 
ATOM     16  C   LIG d   1       6.789  -0.814 -10.576  0.00  0.00     0.021 C 
ATOM     17  C   LIG d   1       6.508   1.324  -9.417  0.00  0.00     0.302 C 
ATOM     18  O   LIG d   1       5.838   2.299  -9.135  0.00  0.00    -0.253 OA
ATOM     19  N   LIG d   1       7.713   1.144  -8.840  0.00  0.00    -0.296 N 
ATOM     20  H   LIG d   1       1.589   0.560  -6.929  0.00  0.00     0.064 H 
ATOM     21  H   LIG d   1       1.977   0.587  -9.381  0.00  0.00     0.064 H 
ATOM     22  H   LIG d   1       6.388  -2.271  -8.417  0.00  0.00     0.050 H 
ATOM     23  H   LIG d   1       5.108  -3.357  -8.983  0.00  0.00     0.050 H 
ATOM     24  H   LIG d   1       3.932  -2.672 -11.189  0.00  0.00     0.028 H 
ATOM     25  H   LIG d   1       4.850  -1.671 -12.344  0.00  0.00     0.028 H 
ATOM     26  H   LIG d   1       4.308   1.565 -10.659  0.00  0.00     0.047 H 
ATOM     27  H   LIG d   1       4.985   0.755 -12.097  0.00  0.00     0.047 H 
ATOM     28  H   LIG d   1       7.211  -0.768 -11.580  0.00  0.00     0.047 H 
ATOM     29  H   LIG d   1       7.597  -0.916  -9.852  0.00  0.00     0.047 H 
ATOM     30  H   LIG d   1       8.215   0.331  -9.009  0.00  0.00     0.150 HD
ENDROOT
BRANCH  19  31
ATOM     31  C   LIG d   1       8.264   2.176  -7.958  0.00  0.00     0.025 C 
ATOM     32  C   LIG d   1       9.695   2.502  -8.388  0.00  0.00    -0.035 C 
ATOM     33  C   LIG d   1      10.272   3.580  -7.468  0.00  0.00    -0.051 C 
ATOM     34  H   LIG d   1      10.308   1.603  -8.322  0.00  0.00     0.028 H 
ATOM     35  H   LIG d   1       9.693   2.866  -9.416  0.00  0.00     0.028 H 
ATOM     36  C   LIG d   1      10.275   3.071  -6.025  0.00  0.00    -0.053 C 
ATOM     37  H   LIG d   1       9.659   4.480  -7.533  0.00  0.00     0.027 H 
ATOM     38  H   LIG d   1      11.291   3.813  -7.774  0.00  0.00     0.027 H 
ATOM     39  C   LIG d   1       8.844   2.744  -5.595  0.00  0.00    -0.051 C 
ATOM     40  H   LIG d   1      10.685   3.838  -5.369  0.00  0.00     0.026 H 
ATOM     41  H   LIG d   1      10.888   2.171  -5.959  0.00  0.00     0.026 H 
ATOM     42  C   LIG d   1       8.268   1.666  -6.516  0.00  0.00    -0.035 C 
ATOM     43  H   LIG d   1       8.847   2.380  -4.568  0.00  0.00     0.027 H 
ATOM     44  H   LIG d   1       8.231   3.643  -5.662  0.00  0.00     0.027 H 
ATOM     45  H   LIG d   1       8.881   0.767  -6.451  0.00  0.00     0.028 H 
ATOM     46  H   LIG d   1       7.249   1.434  -6.210  0.00  0.00     0.028 H 
ATOM     47  H   LIG d   1       7.652   3.076  -8.024  0.00  0.00     0.050 H 
ENDBRANCH  19  31
BRANCH   1  48
ATOM     48  N   LIG d   1       3.113  -0.685  -5.165  0.00  0.00    -0.215 N 
ATOM     49  H   LIG d   1       2.698  -1.447  -4.733  0.00  0.00     0.173 HD
BRANCH  48  50
ATOM     50  S   LIG d   1       3.619   0.606  -4.258  0.00  0.00     0.043 S 
ATOM     51  O   LIG d   1       5.028   0.642  -4.435  0.00  0.00    -0.155 OA
ATOM     52  O   LIG d   1       2.806   1.690  -4.686  0.00  0.00    -0.155 OA
BRANCH  50  53
ATOM     53  C   LIG d   1       3.215   0.160  -2.547  0.00  0.00     0.085 C 
ATOM     54  H   LIG d   1       3.164   1.062  -1.938  0.00  0.00     0.052 H 
ATOM     55  H   LIG d   1       2.252  -0.351  -2.522  0.00  0.00     0.052 H 
BRANCH  53  56
ATOM     56  C   LIG d   1       4.298  -0.768  -1.993  0.00  0.00    -0.035 C 
ATOM     57  H   LIG d   1       5.242  -0.566  -2.498  0.00  0.00     0.028 H 
ATOM     58  H   LIG d   1       4.414  -0.593  -0.923  0.00  0.00     0.028 H 
BRANCH  56  59
ATOM     59  C   LIG d   1       3.893  -2.224  -2.230  0.00  0.00    -0.064 C 
ATOM     60  H   LIG d   1       2.851  -2.264  -2.550  0.00  0.00     0.023 H 
ATOM     61  H   LIG d   1       4.528  -2.656  -3.004  0.00  0.00     0.023 H 
ATOM     62  H   LIG d   1       4.011  -2.789  -1.306  0.00  0.00     0.023 H 
ENDBRANCH  56  59
ENDBRANCH  53  56
ENDBRANCH  50  53
ENDBRANCH  48  50
ENDBRANCH   1  48
TORSDOF 6
ENDMDL
