MODEL 1
REMARK VINA RESULT:      -6.1      0.000      0.000
REMARK  3 active torsions:
REMARK  status: ('A' for Active; 'I' for Inactive)
REMARK    1  A    between atoms: C_1  and  O_2 
REMARK    2  A    between atoms: O_2  and  C_3 
REMARK    3  A    between atoms: C_6  and  C_9 
ROOT
ATOM      1  C   LIG d   1       3.379  -0.092  -6.836  0.00  0.00     0.064 A 
ATOM      2  C   LIG d   1       2.726   0.895  -6.171  0.00  0.00     0.104 A 
ATOM      3  O   LIG d   1       2.765   1.013  -4.841  0.00  0.00    -0.462 OA
ATOM      4  C   LIG d   1       3.452   0.172  -4.043  0.00  0.00     0.138 A 
ATOM      5  C   LIG d   1       3.452   0.349  -2.663  0.00  0.00    -0.019 A 
ATOM      6  C   LIG d   1       4.158  -0.518  -1.858  0.00  0.00    -0.058 A 
ATOM      7  C   LIG d   1       4.872  -1.573  -2.407  0.00  0.00    -0.061 A 
ATOM      8  C   LIG d   1       4.884  -1.768  -3.770  0.00  0.00    -0.047 A 
ATOM      9  C   LIG d   1       4.175  -0.897  -4.596  0.00  0.00     0.065 A 
ATOM     10  C   LIG d   1       4.162  -1.070  -6.061  0.00  0.00     0.200 A 
ATOM     11  O   LIG d   1       4.769  -1.976  -6.603  0.00  0.00    -0.286 OA
ATOM     12  H   LIG d   1       2.152   1.613  -6.739  0.00  0.00     0.104 H 
ATOM     13  H   LIG d   1       2.900   1.167  -2.223  0.00  0.00     0.065 H 
ATOM     14  H   LIG d   1       4.154  -0.375  -0.787  0.00  0.00     0.062 H 
ATOM     15  H   LIG d   1       5.419  -2.246  -1.762  0.00  0.00     0.062 H 
ATOM     16  H   LIG d   1       5.441  -2.590  -4.196  0.00  0.00     0.063 H 
ENDROOT
BRANCH   1  17
ATOM     17  C   LIG d   1       3.302  -0.187  -8.314  0.00  0.00    -0.011 A 
ATOM     18  C   LIG d   1       2.262  -0.895  -8.916  0.00  0.00    -0.050 A 
ATOM     19  C   LIG d   1       2.193  -0.982 -10.291  0.00  0.00    -0.019 A 
ATOM     20  H   LIG d   1       1.511  -1.373  -8.305  0.00  0.00     0.062 H 
ATOM     21  C   LIG d   1       3.158  -0.367 -11.075  0.00  0.00     0.120 A 
ATOM     22  H   LIG d   1       1.387  -1.530 -10.756  0.00  0.00     0.065 H 
ATOM     23  C   LIG d   1       4.195   0.338 -10.480  0.00  0.00    -0.019 A 
ATOM     24  C   LIG d   1       4.266   0.434  -9.107  0.00  0.00    -0.050 A 
ATOM     25  H   LIG d   1       4.945   0.816 -11.094  0.00  0.00     0.065 H 
ATOM     26  H   LIG d   1       5.071   0.987  -8.644  0.00  0.00     0.062 H 
BRANCH  21  27
ATOM     27  O   LIG d   1       3.087  -0.455 -12.429  0.00  0.00    -0.495 OA
BRANCH  27  28
ATOM     28  C   LIG d   1       4.323  -0.568 -13.138  0.00  0.00     0.079 C 
ATOM     29  H   LIG d   1       4.943  -1.333 -12.667  0.00  0.00     0.066 H 
ATOM     30  H   LIG d   1       4.125  -0.847 -14.172  0.00  0.00     0.066 H 
ATOM     31  H   LIG d   1       4.846   0.388 -13.113  0.00  0.00     0.066 H 
ENDBRANCH  27  28
ENDBRANCH  21  27
ENDBRANCH   1  17
TORSDOF 3
ENDMDL
MODEL 2
REMARK VINA RESULT:      -6.1      0.826      1.919
REMARK  3 active torsions:
REMARK  status: ('A' for Active; 'I' for Inactive)
REMARK    1  A    between atoms: C_1  and  O_2 
REMARK    2  A    between atoms: O_2  and  C_3 
REMARK    3  A    between atoms: C_6  and  C_9 
ROOT
ATOM      1  C   LIG d   1       3.965  -1.098  -6.915  0.00  0.00     0.064 A 
ATOM      2  C   LIG d   1       4.559  -2.212  -6.414  0.00  0.00     0.104 A 
ATOM      3  O   LIG d   1       4.767  -2.389  -5.107  0.00  0.00    -0.462 OA
ATOM      4  C   LIG d   1       4.410  -1.487  -4.172  0.00  0.00     0.138 A 
ATOM      5  C   LIG d   1       4.656  -1.731  -2.824  0.00  0.00    -0.019 A 
ATOM      6  C   LIG d   1       4.287  -0.801  -1.878  0.00  0.00    -0.058 A 
ATOM      7  C   LIG d   1       3.670   0.384  -2.251  0.00  0.00    -0.061 A 
ATOM      8  C   LIG d   1       3.418   0.647  -3.580  0.00  0.00    -0.047 A 
ATOM      9  C   LIG d   1       3.786  -0.287  -4.547  0.00  0.00     0.065 A 
ATOM     10  C   LIG d   1       3.534  -0.045  -5.980  0.00  0.00     0.200 A 
ATOM     11  O   LIG d   1       2.997   0.976  -6.371  0.00  0.00    -0.286 OA
ATOM     12  H   LIG d   1       4.874  -2.985  -7.099  0.00  0.00     0.104 H 
ATOM     13  H   LIG d   1       5.136  -2.650  -2.521  0.00  0.00     0.065 H 
ATOM     14  H   LIG d   1       4.480  -0.997  -0.832  0.00  0.00     0.062 H 
ATOM     15  H   LIG d   1       3.387   1.105  -1.497  0.00  0.00     0.062 H 
ATOM     16  H   LIG d   1       2.938   1.570  -3.869  0.00  0.00     0.063 H 
ENDROOT
BRANCH   1  17
ATOM     17  C   LIG d   1       3.760  -0.942  -8.376  0.00  0.00    -0.011 A 
ATOM     18  C   LIG d   1       2.512  -1.208  -8.938  0.00  0.00    -0.050 A 
ATOM     19  C   LIG d   1       2.323  -1.063 -10.296  0.00  0.00    -0.019 A 
ATOM     20  H   LIG d   1       1.694  -1.527  -8.309  0.00  0.00     0.062 H 
ATOM     21  C   LIG d   1       3.374  -0.655 -11.104  0.00  0.00     0.120 A 
ATOM     22  H   LIG d   1       1.356  -1.270 -10.731  0.00  0.00     0.065 H 
ATOM     23  C   LIG d   1       4.618  -0.389 -10.549  0.00  0.00    -0.019 A 
ATOM     24  C   LIG d   1       4.811  -0.526  -9.191  0.00  0.00    -0.050 A 
ATOM     25  H   LIG d   1       5.434  -0.070 -11.180  0.00  0.00     0.065 H 
ATOM     26  H   LIG d   1       5.778  -0.314  -8.757  0.00  0.00     0.062 H 
BRANCH  21  27
ATOM     27  O   LIG d   1       3.185  -0.513 -12.442  0.00  0.00    -0.495 OA
BRANCH  27  28
ATOM     28  C   LIG d   1       4.347  -0.574 -13.272  0.00  0.00     0.079 C 
ATOM     29  H   LIG d   1       4.963   0.310 -13.099  0.00  0.00     0.066 H 
ATOM     30  H   LIG d   1       4.920  -1.468 -13.030  0.00  0.00     0.066 H 
ATOM     31  H   LIG d   1       4.046  -0.607 -14.319  0.00  0.00     0.066 H 
ENDBRANCH  27  28
ENDBRANCH  21  27
ENDBRANCH   1  17
TORSDOF 3
ENDMDL
MODEL 3
REMARK VINA RESULT:      -5.7      5.203      7.119
REMARK  3 active torsions:
REMARK  status: ('A' for Active; 'I' for Inactive)
REMARK    1  A    between atoms: C_1  and  O_2 
REMARK    2  A    between atoms: O_2  and  C_3 
REMARK    3  A    between atoms: C_6  and  C_9 
ROOT
ATOM      1  C   LIG d   1       7.645   0.758  -4.190  0.00  0.00     0.064 A 
ATOM      2  C   LIG d   1       7.952  -0.475  -4.670  0.00  0.00     0.104 A 
ATOM      3  O   LIG d   1       7.165  -1.536  -4.479  0.00  0.00    -0.462 OA
ATOM      4  C   LIG d   1       6.003  -1.483  -3.799  0.00  0.00     0.138 A 
ATOM      5  C   LIG d   1       5.227  -2.627  -3.634  0.00  0.00    -0.019 A 
ATOM      6  C   LIG d   1       4.041  -2.559  -2.937  0.00  0.00    -0.058 A 
ATOM      7  C   LIG d   1       3.606  -1.361  -2.391  0.00  0.00    -0.061 A 
ATOM      8  C   LIG d   1       4.358  -0.216  -2.542  0.00  0.00    -0.047 A 
ATOM      9  C   LIG d   1       5.559  -0.271  -3.246  0.00  0.00     0.065 A 
ATOM     10  C   LIG d   1       6.395   0.931  -3.430  0.00  0.00     0.200 A 
ATOM     11  O   LIG d   1       6.068   2.013  -2.976  0.00  0.00    -0.286 OA
ATOM     12  H   LIG d   1       8.868  -0.602  -5.228  0.00  0.00     0.104 H 
ATOM     13  H   LIG d   1       5.555  -3.567  -4.054  0.00  0.00     0.065 H 
ATOM     14  H   LIG d   1       3.443  -3.451  -2.812  0.00  0.00     0.062 H 
ATOM     15  H   LIG d   1       2.674  -1.323  -1.846  0.00  0.00     0.062 H 
ATOM     16  H   LIG d   1       4.018   0.717  -2.117  0.00  0.00     0.063 H 
ENDROOT
BRANCH   1  17
ATOM     17  C   LIG d   1       8.554   1.907  -4.422  0.00  0.00    -0.011 A 
ATOM     18  C   LIG d   1       9.340   2.398  -3.381  0.00  0.00    -0.050 A 
ATOM     19  C   LIG d   1      10.184   3.467  -3.600  0.00  0.00    -0.019 A 
ATOM     20  H   LIG d   1       9.288   1.941  -2.404  0.00  0.00     0.062 H 
ATOM     21  C   LIG d   1      10.249   4.056  -4.855  0.00  0.00     0.120 A 
ATOM     22  H   LIG d   1      10.793   3.847  -2.792  0.00  0.00     0.065 H 
ATOM     23  C   LIG d   1       9.468   3.569  -5.894  0.00  0.00    -0.019 A 
ATOM     24  C   LIG d   1       8.628   2.497  -5.684  0.00  0.00    -0.050 A 
ATOM     25  H   LIG d   1       9.522   4.029  -6.870  0.00  0.00     0.065 H 
ATOM     26  H   LIG d   1       8.023   2.116  -6.494  0.00  0.00     0.062 H 
BRANCH  21  27
ATOM     27  O   LIG d   1      11.081   5.109  -5.067  0.00  0.00    -0.495 OA
BRANCH  27  28
ATOM     28  C   LIG d   1      11.346   5.961  -3.951  0.00  0.00     0.079 C 
ATOM     29  H   LIG d   1      11.312   5.376  -3.031  0.00  0.00     0.066 H 
ATOM     30  H   LIG d   1      12.333   6.408  -4.061  0.00  0.00     0.066 H 
ATOM     31  H   LIG d   1      10.593   6.749  -3.908  0.00  0.00     0.066 H 
ENDBRANCH  27  28
ENDBRANCH  21  27
ENDBRANCH   1  17
TORSDOF 3
ENDMDL
MODEL 4
REMARK VINA RESULT:      -5.6      5.012      6.179
REMARK  3 active torsions:
REMARK  status: ('A' for Active; 'I' for Inactive)
REMARK    1  A    between atoms: C_1  and  O_2 
REMARK    2  A    between atoms: O_2  and  C_3 
REMARK    3  A    between atoms: C_6  and  C_9 
ROOT
ATOM      1  C   LIG d   1       6.674  -2.719  -4.313  0.00  0.00     0.064 A 
ATOM      2  C   LIG d   1       7.493  -1.665  -4.063  0.00  0.00     0.104 A 
ATOM      3  O   LIG d   1       7.056  -0.530  -3.512  0.00  0.00    -0.462 OA
ATOM      4  C   LIG d   1       5.773  -0.327  -3.154  0.00  0.00     0.138 A 
ATOM      5  C   LIG d   1       5.380   0.879  -2.583  0.00  0.00    -0.019 A 
ATOM      6  C   LIG d   1       4.064   1.075  -2.223  0.00  0.00    -0.058 A 
ATOM      7  C   LIG d   1       3.119   0.079  -2.422  0.00  0.00    -0.061 A 
ATOM      8  C   LIG d   1       3.486  -1.123  -2.986  0.00  0.00    -0.047 A 
ATOM      9  C   LIG d   1       4.813  -1.333  -3.354  0.00  0.00     0.065 A 
ATOM     10  C   LIG d   1       5.248  -2.606  -3.961  0.00  0.00     0.200 A 
ATOM     11  O   LIG d   1       4.466  -3.518  -4.162  0.00  0.00    -0.286 OA
ATOM     12  H   LIG d   1       8.539  -1.747  -4.320  0.00  0.00     0.104 H 
ATOM     13  H   LIG d   1       6.106   1.663  -2.423  0.00  0.00     0.065 H 
ATOM     14  H   LIG d   1       3.766   2.014  -1.780  0.00  0.00     0.062 H 
ATOM     15  H   LIG d   1       2.092   0.247  -2.135  0.00  0.00     0.062 H 
ATOM     16  H   LIG d   1       2.749  -1.897  -3.140  0.00  0.00     0.063 H 
ENDROOT
BRANCH   1  17
ATOM     17  C   LIG d   1       7.203  -3.958  -4.933  0.00  0.00    -0.011 A 
ATOM     18  C   LIG d   1       8.220  -4.675  -4.302  0.00  0.00    -0.050 A 
ATOM     19  C   LIG d   1       8.711  -5.827  -4.881  0.00  0.00    -0.019 A 
ATOM     20  H   LIG d   1       8.621  -4.328  -3.362  0.00  0.00     0.062 H 
ATOM     21  C   LIG d   1       8.195  -6.272  -6.090  0.00  0.00     0.120 A 
ATOM     22  H   LIG d   1       9.498  -6.382  -4.393  0.00  0.00     0.065 H 
ATOM     23  C   LIG d   1       7.183  -5.561  -6.720  0.00  0.00    -0.019 A 
ATOM     24  C   LIG d   1       6.684  -4.412  -6.144  0.00  0.00    -0.050 A 
ATOM     25  H   LIG d   1       6.784  -5.910  -7.661  0.00  0.00     0.065 H 
ATOM     26  H   LIG d   1       5.893  -3.861  -6.633  0.00  0.00     0.062 H 
BRANCH  21  27
ATOM     27  O   LIG d   1       8.682  -7.406  -6.657  0.00  0.00    -0.495 OA
BRANCH  27  28
ATOM     28  C   LIG d   1       7.755  -8.218  -7.382  0.00  0.00     0.079 C 
ATOM     29  H   LIG d   1       7.813  -9.246  -7.020  0.00  0.00     0.066 H 
ATOM     30  H   LIG d   1       6.745  -7.837  -7.234  0.00  0.00     0.066 H 
ATOM     31  H   LIG d   1       8.001  -8.192  -8.443  0.00  0.00     0.066 H 
ENDBRANCH  27  28
ENDBRANCH  21  27
ENDBRANCH   1  17
TORSDOF 3
ENDMDL
MODEL 5
REMARK VINA RESULT:      -5.3      4.880      6.072
REMARK  3 active torsions:
REMARK  status: ('A' for Active; 'I' for Inactive)
REMARK    1  A    between atoms: C_1  and  O_2 
REMARK    2  A    between atoms: O_2  and  C_3 
REMARK    3  A    between atoms: C_6  and  C_9 
ROOT
ATOM      1  C   LIG d   1       7.552   0.842  -4.486  0.00  0.00     0.064 A 
ATOM      2  C   LIG d   1       7.010   1.621  -3.515  0.00  0.00     0.104 A 
ATOM      3  O   LIG d   1       6.007   1.206  -2.738  0.00  0.00    -0.462 OA
ATOM      4  C   LIG d   1       5.444  -0.014  -2.843  0.00  0.00     0.138 A 
ATOM      5  C   LIG d   1       4.400  -0.387  -2.003  0.00  0.00    -0.019 A 
ATOM      6  C   LIG d   1       3.833  -1.637  -2.122  0.00  0.00    -0.058 A 
ATOM      7  C   LIG d   1       4.290  -2.535  -3.074  0.00  0.00    -0.061 A 
ATOM      8  C   LIG d   1       5.323  -2.187  -3.917  0.00  0.00    -0.047 A 
ATOM      9  C   LIG d   1       5.905  -0.926  -3.806  0.00  0.00     0.065 A 
ATOM     10  C   LIG d   1       7.013  -0.513  -4.690  0.00  0.00     0.200 A 
ATOM     11  O   LIG d   1       7.459  -1.257  -5.545  0.00  0.00    -0.286 OA
ATOM     12  H   LIG d   1       7.406   2.615  -3.364  0.00  0.00     0.104 H 
ATOM     13  H   LIG d   1       4.034   0.304  -1.257  0.00  0.00     0.065 H 
ATOM     14  H   LIG d   1       3.022  -1.920  -1.465  0.00  0.00     0.062 H 
ATOM     15  H   LIG d   1       3.835  -3.512  -3.155  0.00  0.00     0.062 H 
ATOM     16  H   LIG d   1       5.678  -2.888  -4.658  0.00  0.00     0.063 H 
ENDROOT
BRANCH   1  17
ATOM     17  C   LIG d   1       8.663   1.348  -5.329  0.00  0.00    -0.011 A 
ATOM     18  C   LIG d   1       8.386   2.023  -6.518  0.00  0.00    -0.050 A 
ATOM     19  C   LIG d   1       9.421   2.492  -7.300  0.00  0.00    -0.019 A 
ATOM     20  H   LIG d   1       7.363   2.177  -6.825  0.00  0.00     0.062 H 
ATOM     21  C   LIG d   1      10.736   2.292  -6.906  0.00  0.00     0.120 A 
ATOM     22  H   LIG d   1       9.207   3.014  -8.221  0.00  0.00     0.065 H 
ATOM     23  C   LIG d   1      11.015   1.621  -5.723  0.00  0.00    -0.019 A 
ATOM     24  C   LIG d   1       9.986   1.155  -4.934  0.00  0.00    -0.050 A 
ATOM     25  H   LIG d   1      12.040   1.468  -5.418  0.00  0.00     0.065 H 
ATOM     26  H   LIG d   1      10.203   0.637  -4.011  0.00  0.00     0.062 H 
BRANCH  21  27
ATOM     27  O   LIG d   1      11.753   2.755  -7.679  0.00  0.00    -0.495 OA
BRANCH  27  28
ATOM     28  C   LIG d   1      12.968   3.105  -7.012  0.00  0.00     0.079 C 
ATOM     29  H   LIG d   1      13.524   3.819  -7.620  0.00  0.00     0.066 H 
ATOM     30  H   LIG d   1      12.736   3.552  -6.046  0.00  0.00     0.066 H 
ATOM     31  H   LIG d   1      13.571   2.209  -6.862  0.00  0.00     0.066 H 
ENDBRANCH  27  28
ENDBRANCH  21  27
ENDBRANCH   1  17
TORSDOF 3
ENDMDL
MODEL 6
REMARK VINA RESULT:      -5.3      1.923      1.972
REMARK  3 active torsions:
REMARK  status: ('A' for Active; 'I' for Inactive)
REMARK    1  A    between atoms: C_1  and  O_2 
REMARK    2  A    between atoms: O_2  and  C_3 
REMARK    3  A    between atoms: C_6  and  C_9 
ROOT
ATOM      1  C   LIG d   1       4.180  -1.348  -6.892  0.00  0.00     0.064 A 
ATOM      2  C   LIG d   1       3.686  -0.089  -6.761  0.00  0.00     0.104 A 
ATOM      3  O   LIG d   1       3.510   0.493  -5.572  0.00  0.00    -0.462 OA
ATOM      4  C   LIG d   1       3.804  -0.108  -4.403  0.00  0.00     0.138 A 
ATOM      5  C   LIG d   1       3.596   0.552  -3.196  0.00  0.00    -0.019 A 
ATOM      6  C   LIG d   1       3.900  -0.074  -2.007  0.00  0.00    -0.058 A 
ATOM      7  C   LIG d   1       4.413  -1.362  -1.995  0.00  0.00    -0.061 A 
ATOM      8  C   LIG d   1       4.625  -2.036  -3.178  0.00  0.00    -0.047 A 
ATOM      9  C   LIG d   1       4.323  -1.413  -4.387  0.00  0.00     0.065 A 
ATOM     10  C   LIG d   1       4.535  -2.099  -5.676  0.00  0.00     0.200 A 
ATOM     11  O   LIG d   1       4.982  -3.230  -5.732  0.00  0.00    -0.286 OA
ATOM     12  H   LIG d   1       3.426   0.463  -7.652  0.00  0.00     0.104 H 
ATOM     13  H   LIG d   1       3.198   1.556  -3.192  0.00  0.00     0.065 H 
ATOM     14  H   LIG d   1       3.737   0.445  -1.073  0.00  0.00     0.062 H 
ATOM     15  H   LIG d   1       4.645  -1.841  -1.054  0.00  0.00     0.062 H 
ATOM     16  H   LIG d   1       5.025  -3.039  -3.167  0.00  0.00     0.063 H 
ENDROOT
BRANCH   1  17
ATOM     17  C   LIG d   1       4.353  -1.955  -8.234  0.00  0.00    -0.011 A 
ATOM     18  C   LIG d   1       3.299  -2.646  -8.830  0.00  0.00    -0.050 A 
ATOM     19  C   LIG d   1       3.463  -3.211 -10.077  0.00  0.00    -0.019 A 
ATOM     20  H   LIG d   1       2.355  -2.739  -8.314  0.00  0.00     0.062 H 
ATOM     21  C   LIG d   1       4.677  -3.093 -10.740  0.00  0.00     0.120 A 
ATOM     22  H   LIG d   1       2.646  -3.747 -10.538  0.00  0.00     0.065 H 
ATOM     23  C   LIG d   1       5.729  -2.405 -10.150  0.00  0.00    -0.019 A 
ATOM     24  C   LIG d   1       5.569  -1.834  -8.906  0.00  0.00    -0.050 A 
ATOM     25  H   LIG d   1       6.672  -2.315 -10.668  0.00  0.00     0.065 H 
ATOM     26  H   LIG d   1       6.386  -1.295  -8.449  0.00  0.00     0.062 H 
BRANCH  21  27
ATOM     27  O   LIG d   1       4.835  -3.651 -11.968  0.00  0.00    -0.495 OA
BRANCH  27  28
ATOM     28  C   LIG d   1       5.551  -2.886 -12.940  0.00  0.00     0.079 C 
ATOM     29  H   LIG d   1       5.662  -1.861 -12.586  0.00  0.00     0.066 H 
ATOM     30  H   LIG d   1       6.536  -3.326 -13.095  0.00  0.00     0.066 H 
ATOM     31  H   LIG d   1       5.001  -2.887 -13.881  0.00  0.00     0.066 H 
ENDBRANCH  27  28
ENDBRANCH  21  27
ENDBRANCH   1  17
TORSDOF 3
ENDMDL
MODEL 7
REMARK VINA RESULT:      -5.2      4.998      6.690
REMARK  3 active torsions:
REMARK  status: ('A' for Active; 'I' for Inactive)
REMARK    1  A    between atoms: C_1  and  O_2 
REMARK    2  A    between atoms: O_2  and  C_3 
REMARK    3  A    between atoms: C_6  and  C_9 
ROOT
ATOM      1  C   LIG d   1       6.759  -2.467  -4.210  0.00  0.00     0.064 A 
ATOM      2  C   LIG d   1       5.625  -3.196  -4.371  0.00  0.00     0.104 A 
ATOM      3  O   LIG d   1       4.418  -2.733  -4.036  0.00  0.00    -0.462 OA
ATOM      4  C   LIG d   1       4.215  -1.508  -3.513  0.00  0.00     0.138 A 
ATOM      5  C   LIG d   1       2.932  -1.083  -3.184  0.00  0.00    -0.019 A 
ATOM      6  C   LIG d   1       2.738   0.172  -2.648  0.00  0.00    -0.058 A 
ATOM      7  C   LIG d   1       3.810   1.023  -2.430  0.00  0.00    -0.061 A 
ATOM      8  C   LIG d   1       5.090   0.623  -2.748  0.00  0.00    -0.047 A 
ATOM      9  C   LIG d   1       5.299  -0.643  -3.291  0.00  0.00     0.065 A 
ATOM     10  C   LIG d   1       6.653  -1.111  -3.645  0.00  0.00     0.200 A 
ATOM     11  O   LIG d   1       7.635  -0.410  -3.478  0.00  0.00    -0.286 OA
ATOM     12  H   LIG d   1       5.701  -4.191  -4.787  0.00  0.00     0.104 H 
ATOM     13  H   LIG d   1       2.088  -1.737  -3.348  0.00  0.00     0.065 H 
ATOM     14  H   LIG d   1       1.738   0.495  -2.395  0.00  0.00     0.062 H 
ATOM     15  H   LIG d   1       3.643   2.004  -2.009  0.00  0.00     0.062 H 
ATOM     16  H   LIG d   1       5.924   1.287  -2.578  0.00  0.00     0.063 H 
ENDROOT
BRANCH   1  17
ATOM     17  C   LIG d   1       8.078  -3.026  -4.592  0.00  0.00    -0.011 A 
ATOM     18  C   LIG d   1       8.572  -2.834  -5.882  0.00  0.00    -0.050 A 
ATOM     19  C   LIG d   1       9.799  -3.356  -6.234  0.00  0.00    -0.019 A 
ATOM     20  H   LIG d   1       7.993  -2.278  -6.604  0.00  0.00     0.062 H 
ATOM     21  C   LIG d   1      10.542  -4.072  -5.307  0.00  0.00     0.120 A 
ATOM     22  H   LIG d   1      10.181  -3.208  -7.234  0.00  0.00     0.065 H 
ATOM     23  C   LIG d   1      10.055  -4.264  -4.021  0.00  0.00    -0.019 A 
ATOM     24  C   LIG d   1       8.832  -3.740  -3.661  0.00  0.00    -0.050 A 
ATOM     25  H   LIG d   1      10.636  -4.821  -3.301  0.00  0.00     0.065 H 
ATOM     26  H   LIG d   1       8.454  -3.886  -2.659  0.00  0.00     0.062 H 
BRANCH  21  27
ATOM     27  O   LIG d   1      11.751  -4.584  -5.658  0.00  0.00    -0.495 OA
BRANCH  27  28
ATOM     28  C   LIG d   1      12.866  -3.691  -5.635  0.00  0.00     0.079 C 
ATOM     29  H   LIG d   1      12.588  -2.776  -5.110  0.00  0.00     0.066 H 
ATOM     30  H   LIG d   1      13.701  -4.165  -5.120  0.00  0.00     0.066 H 
ATOM     31  H   LIG d   1      13.160  -3.449  -6.656  0.00  0.00     0.066 H 
ENDBRANCH  27  28
ENDBRANCH  21  27
ENDBRANCH   1  17
TORSDOF 3
ENDMDL
MODEL 8
REMARK VINA RESULT:      -5.1      4.183      7.157
REMARK  3 active torsions:
REMARK  status: ('A' for Active; 'I' for Inactive)
REMARK    1  A    between atoms: C_1  and  O_2 
REMARK    2  A    between atoms: O_2  and  C_3 
REMARK    3  A    between atoms: C_6  and  C_9 
ROOT
ATOM      1  C   LIG d   1       5.510  -4.016  -4.996  0.00  0.00     0.064 A 
ATOM      2  C   LIG d   1       6.865  -4.091  -4.942  0.00  0.00     0.104 A 
ATOM      3  O   LIG d   1       7.544  -5.154  -5.381  0.00  0.00    -0.462 OA
ATOM      4  C   LIG d   1       6.953  -6.240  -5.916  0.00  0.00     0.138 A 
ATOM      5  C   LIG d   1       7.717  -7.317  -6.355  0.00  0.00    -0.019 A 
ATOM      6  C   LIG d   1       7.101  -8.423  -6.899  0.00  0.00    -0.058 A 
ATOM      7  C   LIG d   1       5.720  -8.480  -7.015  0.00  0.00    -0.061 A 
ATOM      8  C   LIG d   1       4.944  -7.426  -6.585  0.00  0.00    -0.047 A 
ATOM      9  C   LIG d   1       5.555  -6.301  -6.034  0.00  0.00     0.065 A 
ATOM     10  C   LIG d   1       4.761  -5.151  -5.562  0.00  0.00     0.200 A 
ATOM     11  O   LIG d   1       3.545  -5.140  -5.637  0.00  0.00    -0.286 OA
ATOM     12  H   LIG d   1       7.415  -3.259  -4.528  0.00  0.00     0.104 H 
ATOM     13  H   LIG d   1       8.794  -7.285  -6.270  0.00  0.00     0.065 H 
ATOM     14  H   LIG d   1       7.701  -9.255  -7.239  0.00  0.00     0.062 H 
ATOM     15  H   LIG d   1       5.251  -9.354  -7.443  0.00  0.00     0.062 H 
ATOM     16  H   LIG d   1       3.869  -7.471  -6.677  0.00  0.00     0.063 H 
ENDROOT
BRANCH   1  17
ATOM     17  C   LIG d   1       4.798  -2.817  -4.490  0.00  0.00    -0.011 A 
ATOM     18  C   LIG d   1       4.293  -2.801  -3.191  0.00  0.00    -0.050 A 
ATOM     19  C   LIG d   1       3.631  -1.685  -2.723  0.00  0.00    -0.019 A 
ATOM     20  H   LIG d   1       4.420  -3.662  -2.552  0.00  0.00     0.062 H 
ATOM     21  C   LIG d   1       3.467  -0.579  -3.545  0.00  0.00     0.120 A 
ATOM     22  H   LIG d   1       3.239  -1.673  -1.717  0.00  0.00     0.065 H 
ATOM     23  C   LIG d   1       3.969  -0.591  -4.839  0.00  0.00    -0.019 A 
ATOM     24  C   LIG d   1       4.637  -1.701  -5.311  0.00  0.00    -0.050 A 
ATOM     25  H   LIG d   1       3.840   0.272  -5.476  0.00  0.00     0.065 H 
ATOM     26  H   LIG d   1       5.032  -1.709  -6.316  0.00  0.00     0.062 H 
BRANCH  21  27
ATOM     27  O   LIG d   1       2.814   0.519  -3.082  0.00  0.00    -0.495 OA
BRANCH  27  28
ATOM     28  C   LIG d   1       3.543   1.747  -3.062  0.00  0.00     0.079 C 
ATOM     29  H   LIG d   1       4.457   1.637  -3.647  0.00  0.00     0.066 H 
ATOM     30  H   LIG d   1       2.931   2.540  -3.490  0.00  0.00     0.066 H 
ATOM     31  H   LIG d   1       3.799   2.002  -2.034  0.00  0.00     0.066 H 
ENDBRANCH  27  28
ENDBRANCH  21  27
ENDBRANCH   1  17
TORSDOF 3
ENDMDL
MODEL 9
REMARK VINA RESULT:      -4.9     11.382     13.435
REMARK  3 active torsions:
REMARK  status: ('A' for Active; 'I' for Inactive)
REMARK    1  A    between atoms: C_1  and  O_2 
REMARK    2  A    between atoms: O_2  and  C_3 
REMARK    3  A    between atoms: C_6  and  C_9 
ROOT
ATOM      1  C   LIG d   1      11.120   6.777   1.161  0.00  0.00     0.064 A 
ATOM      2  C   LIG d   1      10.884   5.990   2.241  0.00  0.00     0.104 A 
ATOM      3  O   LIG d   1      11.096   6.404   3.492  0.00  0.00    -0.462 OA
ATOM      4  C   LIG d   1      11.558   7.632   3.797  0.00  0.00     0.138 A 
ATOM      5  C   LIG d   1      11.759   8.004   5.123  0.00  0.00    -0.019 A 
ATOM      6  C   LIG d   1      12.234   9.263   5.421  0.00  0.00    -0.058 A 
ATOM      7  C   LIG d   1      12.517  10.171   4.412  0.00  0.00    -0.061 A 
ATOM      8  C   LIG d   1      12.327   9.824   3.092  0.00  0.00    -0.047 A 
ATOM      9  C   LIG d   1      11.847   8.554   2.778  0.00  0.00     0.065 A 
ATOM     10  C   LIG d   1      11.629   8.142   1.377  0.00  0.00     0.200 A 
ATOM     11  O   LIG d   1      11.860   8.894   0.447  0.00  0.00    -0.286 OA
ATOM     12  H   LIG d   1      10.509   4.989   2.082  0.00  0.00     0.104 H 
ATOM     13  H   LIG d   1      11.542   7.306   5.918  0.00  0.00     0.065 H 
ATOM     14  H   LIG d   1      12.386   9.545   6.453  0.00  0.00     0.062 H 
ATOM     15  H   LIG d   1      12.890  11.154   4.661  0.00  0.00     0.062 H 
ATOM     16  H   LIG d   1      12.548  10.532   2.308  0.00  0.00     0.063 H 
ENDROOT
BRANCH   1  17
ATOM     17  C   LIG d   1      10.875   6.272  -0.212  0.00  0.00    -0.011 A 
ATOM     18  C   LIG d   1       9.949   6.909  -1.036  0.00  0.00    -0.050 A 
ATOM     19  C   LIG d   1       9.722   6.436  -2.312  0.00  0.00    -0.019 A 
ATOM     20  H   LIG d   1       9.409   7.771  -0.675  0.00  0.00     0.062 H 
ATOM     21  C   LIG d   1      10.415   5.327  -2.776  0.00  0.00     0.120 A 
ATOM     22  H   LIG d   1       9.004   6.930  -2.951  0.00  0.00     0.065 H 
ATOM     23  C   LIG d   1      11.339   4.690  -1.958  0.00  0.00    -0.019 A 
ATOM     24  C   LIG d   1      11.574   5.161  -0.684  0.00  0.00    -0.050 A 
ATOM     25  H   LIG d   1      11.877   3.827  -2.322  0.00  0.00     0.065 H 
ATOM     26  H   LIG d   1      12.296   4.669  -0.049  0.00  0.00     0.062 H 
BRANCH  21  27
ATOM     27  O   LIG d   1      10.189   4.863  -4.033  0.00  0.00    -0.495 OA
BRANCH  27  28
ATOM     28  C   LIG d   1       9.266   5.598  -4.839  0.00  0.00     0.079 C 
ATOM     29  H   LIG d   1       8.527   4.914  -5.260  0.00  0.00     0.066 H 
ATOM     30  H   LIG d   1       8.763   6.345  -4.226  0.00  0.00     0.066 H 
ATOM     31  H   LIG d   1       9.803   6.094  -5.648  0.00  0.00     0.066 H 
ENDBRANCH  27  28
ENDBRANCH  21  27
ENDBRANCH   1  17
TORSDOF 3
ENDMDL
MODEL 10
REMARK VINA RESULT:      -4.8      8.527     11.296
REMARK  3 active torsions:
REMARK  status: ('A' for Active; 'I' for Inactive)
REMARK    1  A    between atoms: C_1  and  O_2 
REMARK    2  A    between atoms: O_2  and  C_3 
REMARK    3  A    between atoms: C_6  and  C_9 
ROOT
ATOM      1  C   LIG d   1      10.281   5.051  -3.748  0.00  0.00     0.064 A 
ATOM      2  C   LIG d   1      10.699   5.738  -4.842  0.00  0.00     0.104 A 
ATOM      3  O   LIG d   1      10.458   5.321  -6.087  0.00  0.00    -0.462 OA
ATOM      4  C   LIG d   1       9.782   4.191  -6.372  0.00  0.00     0.138 A 
ATOM      5  C   LIG d   1       9.563   3.811  -7.692  0.00  0.00    -0.019 A 
ATOM      6  C   LIG d   1       8.871   2.653  -7.970  0.00  0.00    -0.058 A 
ATOM      7  C   LIG d   1       8.385   1.854  -6.945  0.00  0.00    -0.061 A 
ATOM      8  C   LIG d   1       8.590   2.210  -5.630  0.00  0.00    -0.047 A 
ATOM      9  C   LIG d   1       9.289   3.380  -5.337  0.00  0.00     0.065 A 
ATOM     10  C   LIG d   1       9.531   3.798  -3.942  0.00  0.00     0.200 A 
ATOM     11  O   LIG d   1       9.130   3.140  -2.999  0.00  0.00    -0.286 OA
ATOM     12  H   LIG d   1      11.248   6.657  -4.699  0.00  0.00     0.104 H 
ATOM     13  H   LIG d   1       9.936   4.424  -8.499  0.00  0.00     0.065 H 
ATOM     14  H   LIG d   1       8.704   2.363  -8.998  0.00  0.00     0.062 H 
ATOM     15  H   LIG d   1       7.845   0.948  -7.179  0.00  0.00     0.062 H 
ATOM     16  H   LIG d   1       8.212   1.588  -4.834  0.00  0.00     0.063 H 
ENDROOT
BRANCH   1  17
ATOM     17  C   LIG d   1      10.577   5.550  -2.383  0.00  0.00    -0.011 A 
ATOM     18  C   LIG d   1      11.584   4.954  -1.624  0.00  0.00    -0.050 A 
ATOM     19  C   LIG d   1      11.858   5.420  -0.355  0.00  0.00    -0.019 A 
ATOM     20  H   LIG d   1      12.150   4.129  -2.031  0.00  0.00     0.062 H 
ATOM     21  C   LIG d   1      11.130   6.479   0.168  0.00  0.00     0.120 A 
ATOM     22  H   LIG d   1      12.638   4.958   0.232  0.00  0.00     0.065 H 
ATOM     23  C   LIG d   1      10.127   7.075  -0.584  0.00  0.00    -0.019 A 
ATOM     24  C   LIG d   1       9.853   6.618  -1.855  0.00  0.00    -0.050 A 
ATOM     25  H   LIG d   1       9.563   7.900  -0.174  0.00  0.00     0.065 H 
ATOM     26  H   LIG d   1       9.075   7.085  -2.442  0.00  0.00     0.062 H 
BRANCH  21  27
ATOM     27  O   LIG d   1      11.402   6.935   1.419  0.00  0.00    -0.495 OA
BRANCH  27  28
ATOM     28  C   LIG d   1      11.483   8.352   1.590  0.00  0.00     0.079 C 
ATOM     29  H   LIG d   1      12.047   8.786   0.763  0.00  0.00     0.066 H 
ATOM     30  H   LIG d   1      10.478   8.774   1.605  0.00  0.00     0.066 H 
ATOM     31  H   LIG d   1      11.985   8.577   2.530  0.00  0.00     0.066 H 
ENDBRANCH  27  28
ENDBRANCH  21  27
ENDBRANCH   1  17
TORSDOF 3
ENDMDL
