MODEL 1
REMARK VINA RESULT:      -6.7      0.000      0.000
REMARK  7 active torsions:
REMARK  status: ('A' for Active; 'I' for Inactive)
REMARK    1  A    between atoms: C_9  and  C_13 
REMARK    2  A    between atoms: C_10  and  O_12 
REMARK    3  A    between atoms: C_13  and  C_15 
REMARK    4  A    between atoms: C_13  and  C_26 
REMARK    5  A    between atoms: C_15  and  C_16 
REMARK    6  A    between atoms: C_16  and  C_18 
REMARK    7  A    between atoms: C_16  and  O_25 
ROOT
ATOM      1  C   LIG d   1       9.159   0.618  -5.944  0.00  0.00     0.029 C 
ATOM      2  H   LIG d   1       9.266   1.622  -6.356  0.00  0.00     0.041 H 
ENDROOT
BRANCH   1   3
ATOM      3  C   LIG d   1       8.047   0.609  -4.927  0.00  0.00     0.088 A 
ATOM      4  C   LIG d   1       7.393  -0.598  -4.602  0.00  0.00     0.200 A 
ATOM      5  C   LIG d   1       6.313  -0.535  -3.596  0.00  0.00     0.065 A 
ATOM      6  O   LIG d   1       7.707  -1.653  -5.130  0.00  0.00    -0.287 OA
ATOM      7  C   LIG d   1       6.002   0.710  -3.027  0.00  0.00     0.143 A 
ATOM      8  C   LIG d   1       5.611  -1.675  -3.213  0.00  0.00    -0.047 A 
ATOM      9  C   LIG d   1       4.989   0.792  -2.079  0.00  0.00    -0.018 A 
ATOM     10  O   LIG d   1       6.688   1.809  -3.407  0.00  0.00    -0.424 OA
ATOM     11  C   LIG d   1       4.302  -0.343  -1.708  0.00  0.00    -0.058 A 
ATOM     12  H   LIG d   1       4.741   1.745  -1.635  0.00  0.00     0.065 H 
ATOM     13  C   LIG d   1       4.610  -1.574  -2.271  0.00  0.00    -0.061 A 
ATOM     14  H   LIG d   1       3.515  -0.275  -0.971  0.00  0.00     0.062 H 
ATOM     15  H   LIG d   1       4.065  -2.455  -1.967  0.00  0.00     0.062 H 
ATOM     16  C   LIG d   1       7.669   1.762  -4.316  0.00  0.00     0.292 A 
ATOM     17  H   LIG d   1       5.849  -2.634  -3.650  0.00  0.00     0.063 H 
BRANCH  16  18
ATOM     18  O   LIG d   1       8.307   2.906  -4.642  0.00  0.00    -0.480 OA
ATOM     19  H   LIG d   1       8.339   3.556  -3.925  0.00  0.00     0.295 HD
ENDBRANCH  16  18
ENDBRANCH   1   3
BRANCH   1  20
ATOM     20  C   LIG d   1       8.828  -0.363  -7.070  0.00  0.00    -0.011 C 
ATOM     21  H   LIG d   1       9.672  -1.034  -7.228  0.00  0.00     0.030 H 
ATOM     22  H   LIG d   1       7.947  -0.945  -6.798  0.00  0.00     0.030 H 
BRANCH  20  23
ATOM     23  C   LIG d   1       8.548   0.415  -8.358  0.00  0.00     0.081 C 
ATOM     24  H   LIG d   1       8.878  -0.171  -9.215  0.00  0.00     0.064 H 
BRANCH  23  25
ATOM     25  C   LIG d   1       7.069   0.682  -8.472  0.00  0.00    -0.019 A 
ATOM     26  C   LIG d   1       6.621   1.893  -8.966  0.00  0.00    -0.055 A 
ATOM     27  C   LIG d   1       5.265   2.136  -9.074  0.00  0.00    -0.043 A 
ATOM     28  H   LIG d   1       7.332   2.647  -9.270  0.00  0.00     0.062 H 
ATOM     29  C   LIG d   1       4.356   1.172  -8.679  0.00  0.00     0.041 A 
ATOM     30  H   LIG d   1       4.916   3.081  -9.465  0.00  0.00     0.063 H 
ATOM     31  C   LIG d   1       4.804  -0.037  -8.178  0.00  0.00    -0.043 A 
ATOM     32 CL   LIG d   1       2.652   1.480  -8.808  0.00  0.00    -0.084 Cl
ATOM     33  C   LIG d   1       6.160  -0.281  -8.075  0.00  0.00    -0.055 A 
ATOM     34  H   LIG d   1       4.094  -0.791  -7.869  0.00  0.00     0.063 H 
ATOM     35  H   LIG d   1       6.511  -1.226  -7.686  0.00  0.00     0.062 H 
ENDBRANCH  23  25
BRANCH  23  36
ATOM     36  O   LIG d   1       9.256   1.656  -8.328  0.00  0.00    -0.387 OA
ATOM     37  H   LIG d   1       9.578   1.947  -9.192  0.00  0.00     0.210 HD
ENDBRANCH  23  36
ENDBRANCH  20  23
ENDBRANCH   1  20
BRANCH   1  38
ATOM     38  C   LIG d   1      10.449   0.206  -5.282  0.00  0.00    -0.001 A 
ATOM     39  S   LIG d   1      11.607   1.202  -4.358  0.00  0.00    -0.081 SA
ATOM     40  C   LIG d   1      12.787  -0.080  -3.968  0.00  0.00     0.078 A 
ATOM     41  C   LIG d   1      12.232  -1.164  -4.567  0.00  0.00    -0.036 A 
ATOM     42 CL   LIG d   1      14.265   0.033  -3.064  0.00  0.00    -0.076 Cl
ATOM     43  C   LIG d   1      11.033  -1.017  -5.240  0.00  0.00    -0.050 A 
ATOM     44  H   LIG d   1      12.719  -2.127  -4.517  0.00  0.00     0.064 H 
ATOM     45  H   LIG d   1      10.569  -1.863  -5.725  0.00  0.00     0.063 H 
ENDBRANCH   1  38
TORSDOF 7
ENDMDL
MODEL 2
REMARK VINA RESULT:      -6.7      3.691      4.706
REMARK  7 active torsions:
REMARK  status: ('A' for Active; 'I' for Inactive)
REMARK    1  A    between atoms: C_9  and  C_13 
REMARK    2  A    between atoms: C_10  and  O_12 
REMARK    3  A    between atoms: C_13  and  C_15 
REMARK    4  A    between atoms: C_13  and  C_26 
REMARK    5  A    between atoms: C_15  and  C_16 
REMARK    6  A    between atoms: C_16  and  C_18 
REMARK    7  A    between atoms: C_16  and  O_25 
ROOT
ATOM      1  C   LIG d   1       5.584  -3.218  -6.922  0.00  0.00     0.029 C 
ATOM      2  H   LIG d   1       6.130  -2.865  -7.797  0.00  0.00     0.041 H 
ENDROOT
BRANCH   1   3
ATOM      3  C   LIG d   1       5.525  -2.122  -5.890  0.00  0.00     0.088 A 
ATOM      4  C   LIG d   1       4.891  -2.348  -4.650  0.00  0.00     0.200 A 
ATOM      5  C   LIG d   1       4.871  -1.230  -3.685  0.00  0.00     0.065 A 
ATOM      6  O   LIG d   1       4.380  -3.424  -4.386  0.00  0.00    -0.287 OA
ATOM      7  C   LIG d   1       5.478  -0.019  -4.053  0.00  0.00     0.143 A 
ATOM      8  C   LIG d   1       4.267  -1.360  -2.436  0.00  0.00    -0.047 A 
ATOM      9  C   LIG d   1       5.470   1.046  -3.160  0.00  0.00    -0.018 A 
ATOM     10  O   LIG d   1       6.059   0.097  -5.265  0.00  0.00    -0.424 OA
ATOM     11  C   LIG d   1       4.870   0.904  -1.927  0.00  0.00    -0.058 A 
ATOM     12  H   LIG d   1       5.933   1.982  -3.432  0.00  0.00     0.065 H 
ATOM     13  C   LIG d   1       4.270  -0.293  -1.564  0.00  0.00    -0.061 A 
ATOM     14  H   LIG d   1       4.866   1.734  -1.236  0.00  0.00     0.062 H 
ATOM     15  H   LIG d   1       3.808  -0.390  -0.593  0.00  0.00     0.062 H 
ATOM     16  C   LIG d   1       6.084  -0.910  -6.147  0.00  0.00     0.292 A 
ATOM     17  H   LIG d   1       3.800  -2.292  -2.152  0.00  0.00     0.063 H 
BRANCH  16  18
ATOM     18  O   LIG d   1       6.685  -0.714  -7.339  0.00  0.00    -0.480 OA
ATOM     19  H   LIG d   1       6.934  -1.532  -7.793  0.00  0.00     0.295 HD
ENDBRANCH  16  18
ENDBRANCH   1   3
BRANCH   1  20
ATOM     20  C   LIG d   1       4.163  -3.609  -7.332  0.00  0.00    -0.011 C 
ATOM     21  H   LIG d   1       3.997  -4.662  -7.108  0.00  0.00     0.030 H 
ATOM     22  H   LIG d   1       3.445  -3.003  -6.779  0.00  0.00     0.030 H 
BRANCH  20  23
ATOM     23  C   LIG d   1       3.981  -3.372  -8.833  0.00  0.00     0.081 C 
ATOM     24  H   LIG d   1       3.075  -3.874  -9.173  0.00  0.00     0.064 H 
BRANCH  23  25
ATOM     25  C   LIG d   1       3.867  -1.894  -9.098  0.00  0.00    -0.019 A 
ATOM     26  C   LIG d   1       4.666  -1.299 -10.057  0.00  0.00    -0.055 A 
ATOM     27  C   LIG d   1       4.558   0.056 -10.303  0.00  0.00    -0.043 A 
ATOM     28  H   LIG d   1       5.371  -1.896 -10.617  0.00  0.00     0.062 H 
ATOM     29  C   LIG d   1       3.659   0.821  -9.583  0.00  0.00     0.041 A 
ATOM     30  H   LIG d   1       5.179   0.518 -11.056  0.00  0.00     0.063 H 
ATOM     31  C   LIG d   1       2.864   0.227  -8.618  0.00  0.00    -0.043 A 
ATOM     32 CL   LIG d   1       3.528   2.525  -9.887  0.00  0.00    -0.084 Cl
ATOM     33  C   LIG d   1       2.969  -1.130  -8.377  0.00  0.00    -0.055 A 
ATOM     34  H   LIG d   1       2.161   0.823  -8.055  0.00  0.00     0.063 H 
ATOM     35  H   LIG d   1       2.348  -1.594  -7.624  0.00  0.00     0.062 H 
ENDBRANCH  23  25
BRANCH  23  36
ATOM     36  O   LIG d   1       5.109  -3.898  -9.537  0.00  0.00    -0.387 OA
ATOM     37  H   LIG d   1       5.894  -3.336  -9.497  0.00  0.00     0.210 HD
ENDBRANCH  23  36
ENDBRANCH  20  23
ENDBRANCH   1  20
BRANCH   1  38
ATOM     38  C   LIG d   1       6.287  -4.418  -6.341  0.00  0.00    -0.001 A 
ATOM     39  S   LIG d   1       7.835  -4.495  -5.455  0.00  0.00    -0.081 SA
ATOM     40  C   LIG d   1       7.871  -6.255  -5.162  0.00  0.00     0.078 A 
ATOM     41  C   LIG d   1       6.722  -6.662  -5.759  0.00  0.00    -0.036 A 
ATOM     42 CL   LIG d   1       9.070  -7.202  -4.337  0.00  0.00    -0.076 Cl
ATOM     43  C   LIG d   1       5.911  -5.720  -6.362  0.00  0.00    -0.050 A 
ATOM     44  H   LIG d   1       6.446  -7.707  -5.760  0.00  0.00     0.064 H 
ATOM     45  H   LIG d   1       4.991  -6.017  -6.844  0.00  0.00     0.063 H 
ENDBRANCH   1  38
TORSDOF 7
ENDMDL
MODEL 3
REMARK VINA RESULT:      -6.7      3.642      6.147
REMARK  7 active torsions:
REMARK  status: ('A' for Active; 'I' for Inactive)
REMARK    1  A    between atoms: C_9  and  C_13 
REMARK    2  A    between atoms: C_10  and  O_12 
REMARK    3  A    between atoms: C_13  and  C_15 
REMARK    4  A    between atoms: C_13  and  C_26 
REMARK    5  A    between atoms: C_15  and  C_16 
REMARK    6  A    between atoms: C_16  and  C_18 
REMARK    7  A    between atoms: C_16  and  O_25 
ROOT
ATOM      1  C   LIG d   1       8.940   1.386  -4.443  0.00  0.00     0.029 C 
ATOM      2  H   LIG d   1       9.897   0.875  -4.334  0.00  0.00     0.041 H 
ENDROOT
BRANCH   1   3
ATOM      3  C   LIG d   1       7.823   0.443  -4.078  0.00  0.00     0.088 A 
ATOM      4  C   LIG d   1       6.606   0.947  -3.572  0.00  0.00     0.200 A 
ATOM      5  C   LIG d   1       5.553  -0.034  -3.236  0.00  0.00     0.065 A 
ATOM      6  O   LIG d   1       6.430   2.145  -3.417  0.00  0.00    -0.287 OA
ATOM      7  C   LIG d   1       5.822  -1.397  -3.438  0.00  0.00     0.143 A 
ATOM      8  C   LIG d   1       4.320   0.370  -2.729  0.00  0.00    -0.047 A 
ATOM      9  C   LIG d   1       4.846  -2.336  -3.128  0.00  0.00    -0.018 A 
ATOM     10  O   LIG d   1       7.020  -1.778  -3.927  0.00  0.00    -0.424 OA
ATOM     11  C   LIG d   1       3.630  -1.924  -2.628  0.00  0.00    -0.058 A 
ATOM     12  H   LIG d   1       5.041  -3.388  -3.278  0.00  0.00     0.065 H 
ATOM     13  C   LIG d   1       3.365  -0.577  -2.429  0.00  0.00    -0.061 A 
ATOM     14  H   LIG d   1       2.873  -2.657  -2.388  0.00  0.00     0.062 H 
ATOM     15  H   LIG d   1       2.406  -0.269  -2.040  0.00  0.00     0.062 H 
ATOM     16  C   LIG d   1       7.981  -0.897  -4.236  0.00  0.00     0.292 A 
ATOM     17  H   LIG d   1       4.113   1.419  -2.574  0.00  0.00     0.063 H 
BRANCH  16  18
ATOM     18  O   LIG d   1       9.152  -1.359  -4.721  0.00  0.00    -0.480 OA
ATOM     19  H   LIG d   1       9.889  -1.290  -4.098  0.00  0.00     0.295 HD
ENDBRANCH  16  18
ENDBRANCH   1   3
BRANCH   1  20
ATOM     20  C   LIG d   1       8.903   2.603  -3.516  0.00  0.00    -0.011 C 
ATOM     21  H   LIG d   1       8.315   3.395  -3.979  0.00  0.00     0.030 H 
ATOM     22  H   LIG d   1       8.449   2.322  -2.565  0.00  0.00     0.030 H 
BRANCH  20  23
ATOM     23  C   LIG d   1      10.329   3.103  -3.273  0.00  0.00     0.081 C 
ATOM     24  H   LIG d   1      10.872   3.126  -4.217  0.00  0.00     0.064 H 
BRANCH  23  25
ATOM     25  C   LIG d   1      10.281   4.489  -2.685  0.00  0.00    -0.019 A 
ATOM     26  C   LIG d   1       9.651   5.510  -3.371  0.00  0.00    -0.055 A 
ATOM     27  C   LIG d   1       9.604   6.781  -2.830  0.00  0.00    -0.043 A 
ATOM     28  H   LIG d   1       9.193   5.313  -4.329  0.00  0.00     0.062 H 
ATOM     29  C   LIG d   1      10.195   7.034  -1.606  0.00  0.00     0.041 A 
ATOM     30  H   LIG d   1       9.107   7.576  -3.365  0.00  0.00     0.063 H 
ATOM     31  C   LIG d   1      10.831   6.013  -0.922  0.00  0.00    -0.043 A 
ATOM     32 CL   LIG d   1      10.141   8.631  -0.929  0.00  0.00    -0.084 Cl
ATOM     33  C   LIG d   1      10.874   4.742  -1.461  0.00  0.00    -0.055 A 
ATOM     34  H   LIG d   1      11.294   6.210   0.035  0.00  0.00     0.063 H 
ATOM     35  H   LIG d   1      11.370   3.945  -0.927  0.00  0.00     0.062 H 
ENDBRANCH  23  25
BRANCH  23  36
ATOM     36  O   LIG d   1      10.993   2.222  -2.364  0.00  0.00    -0.387 OA
ATOM     37  H   LIG d   1      11.192   2.619  -1.505  0.00  0.00     0.210 HD
ENDBRANCH  23  36
ENDBRANCH  20  23
ENDBRANCH   1  20
BRANCH   1  38
ATOM     38  C   LIG d   1       8.771   1.837  -5.870  0.00  0.00    -0.001 A 
ATOM     39  S   LIG d   1       9.658   3.104  -6.762  0.00  0.00    -0.081 SA
ATOM     40  C   LIG d   1       8.819   2.946  -8.329  0.00  0.00     0.078 A 
ATOM     41  C   LIG d   1       7.925   1.958  -8.070  0.00  0.00    -0.036 A 
ATOM     42 CL   LIG d   1       9.073   3.831  -9.801  0.00  0.00    -0.076 Cl
ATOM     43  C   LIG d   1       7.902   1.390  -6.810  0.00  0.00    -0.050 A 
ATOM     44  H   LIG d   1       7.243   1.620  -8.837  0.00  0.00     0.064 H 
ATOM     45  H   LIG d   1       7.201   0.602  -6.576  0.00  0.00     0.063 H 
ENDBRANCH   1  38
TORSDOF 7
ENDMDL
MODEL 4
REMARK VINA RESULT:      -6.6      3.161      3.639
REMARK  7 active torsions:
REMARK  status: ('A' for Active; 'I' for Inactive)
REMARK    1  A    between atoms: C_9  and  C_13 
REMARK    2  A    between atoms: C_10  and  O_12 
REMARK    3  A    between atoms: C_13  and  C_15 
REMARK    4  A    between atoms: C_13  and  C_26 
REMARK    5  A    between atoms: C_15  and  C_16 
REMARK    6  A    between atoms: C_16  and  C_18 
REMARK    7  A    between atoms: C_16  and  O_25 
ROOT
ATOM      1  C   LIG d   1       8.425  -2.821  -5.230  0.00  0.00     0.029 C 
ATOM      2  H   LIG d   1       9.310  -2.300  -5.597  0.00  0.00     0.041 H 
ENDROOT
BRANCH   1   3
ATOM      3  C   LIG d   1       7.524  -1.842  -4.523  0.00  0.00     0.088 A 
ATOM      4  C   LIG d   1       6.235  -2.237  -4.109  0.00  0.00     0.200 A 
ATOM      5  C   LIG d   1       5.404  -1.228  -3.420  0.00  0.00     0.065 A 
ATOM      6  O   LIG d   1       5.821  -3.368  -4.312  0.00  0.00    -0.287 OA
ATOM      7  C   LIG d   1       5.941   0.053  -3.219  0.00  0.00     0.143 A 
ATOM      8  C   LIG d   1       4.118  -1.527  -2.977  0.00  0.00    -0.047 A 
ATOM      9  C   LIG d   1       5.177   1.018  -2.574  0.00  0.00    -0.018 A 
ATOM     10  O   LIG d   1       7.187   0.332  -3.655  0.00  0.00    -0.424 OA
ATOM     11  C   LIG d   1       3.906   0.710  -2.140  0.00  0.00    -0.058 A 
ATOM     12  H   LIG d   1       5.579   2.008  -2.415  0.00  0.00     0.065 H 
ATOM     13  C   LIG d   1       3.376  -0.556  -2.338  0.00  0.00    -0.061 A 
ATOM     14  H   LIG d   1       3.315   1.463  -1.638  0.00  0.00     0.062 H 
ATOM     15  H   LIG d   1       2.380  -0.784  -1.989  0.00  0.00     0.062 H 
ATOM     16  C   LIG d   1       7.949  -0.575  -4.279  0.00  0.00     0.292 A 
ATOM     17  H   LIG d   1       3.705  -2.513  -3.131  0.00  0.00     0.063 H 
BRANCH  16  18
ATOM     18  O   LIG d   1       9.185  -0.217  -4.683  0.00  0.00    -0.480 OA
ATOM     19  H   LIG d   1       9.754  -0.964  -4.915  0.00  0.00     0.295 HD
ENDBRANCH  16  18
ENDBRANCH   1   3
BRANCH   1  20
ATOM     20  C   LIG d   1       7.676  -3.445  -6.409  0.00  0.00    -0.011 C 
ATOM     21  H   LIG d   1       8.087  -4.431  -6.621  0.00  0.00     0.030 H 
ATOM     22  H   LIG d   1       6.619  -3.538  -6.159  0.00  0.00     0.030 H 
BRANCH  20  23
ATOM     23  C   LIG d   1       7.831  -2.552  -7.643  0.00  0.00     0.081 C 
ATOM     24  H   LIG d   1       7.902  -3.175  -8.535  0.00  0.00     0.064 H 
BRANCH  23  25
ATOM     25  C   LIG d   1       6.637  -1.642  -7.758  0.00  0.00    -0.019 A 
ATOM     26  C   LIG d   1       5.359  -2.166  -7.694  0.00  0.00    -0.055 A 
ATOM     27  C   LIG d   1       4.263  -1.330  -7.795  0.00  0.00    -0.043 A 
ATOM     28  H   LIG d   1       5.219  -3.228  -7.561  0.00  0.00     0.062 H 
ATOM     29  C   LIG d   1       4.444   0.030  -7.969  0.00  0.00     0.041 A 
ATOM     30  H   LIG d   1       3.266  -1.740  -7.739  0.00  0.00     0.063 H 
ATOM     31  C   LIG d   1       5.723   0.554  -8.039  0.00  0.00    -0.043 A 
ATOM     32 CL   LIG d   1       3.068   1.079  -8.102  0.00  0.00    -0.084 Cl
ATOM     33  C   LIG d   1       6.818  -0.282  -7.934  0.00  0.00    -0.055 A 
ATOM     34  H   LIG d   1       5.865   1.616  -8.176  0.00  0.00     0.063 H 
ATOM     35  H   LIG d   1       7.817   0.126  -7.987  0.00  0.00     0.062 H 
ENDBRANCH  23  25
BRANCH  23  36
ATOM     36  O   LIG d   1       9.019  -1.767  -7.516  0.00  0.00    -0.387 OA
ATOM     37  H   LIG d   1       9.455  -1.574  -8.356  0.00  0.00     0.210 HD
ENDBRANCH  23  36
ENDBRANCH  20  23
ENDBRANCH   1  20
BRANCH   1  38
ATOM     38  C   LIG d   1       8.842  -3.905  -4.270  0.00  0.00    -0.001 A 
ATOM     39  S   LIG d   1       8.714  -5.677  -4.450  0.00  0.00    -0.081 SA
ATOM     40  C   LIG d   1       9.431  -6.142  -2.883  0.00  0.00     0.078 A 
ATOM     41  C   LIG d   1       9.708  -4.933  -2.331  0.00  0.00    -0.036 A 
ATOM     42 CL   LIG d   1       9.697  -7.729  -2.230  0.00  0.00    -0.076 Cl
ATOM     43  C   LIG d   1       9.407  -3.787  -3.043  0.00  0.00    -0.050 A 
ATOM     44  H   LIG d   1      10.159  -4.868  -1.351  0.00  0.00     0.064 H 
ATOM     45  H   LIG d   1       9.617  -2.813  -2.628  0.00  0.00     0.063 H 
ENDBRANCH   1  38
TORSDOF 7
ENDMDL
MODEL 5
REMARK VINA RESULT:      -6.6      3.638      6.972
REMARK  7 active torsions:
REMARK  status: ('A' for Active; 'I' for Inactive)
REMARK    1  A    between atoms: C_9  and  C_13 
REMARK    2  A    between atoms: C_10  and  O_12 
REMARK    3  A    between atoms: C_13  and  C_15 
REMARK    4  A    between atoms: C_13  and  C_26 
REMARK    5  A    between atoms: C_15  and  C_16 
REMARK    6  A    between atoms: C_16  and  C_18 
REMARK    7  A    between atoms: C_16  and  O_25 
ROOT
ATOM      1  C   LIG d   1       5.507  -2.984  -7.244  0.00  0.00     0.029 C 
ATOM      2  H   LIG d   1       5.119  -3.995  -7.374  0.00  0.00     0.041 H 
ENDROOT
BRANCH   1   3
ATOM      3  C   LIG d   1       5.188  -2.498  -5.854  0.00  0.00     0.088 A 
ATOM      4  C   LIG d   1       5.521  -1.182  -5.469  0.00  0.00     0.200 A 
ATOM      5  C   LIG d   1       5.178  -0.771  -4.092  0.00  0.00     0.065 A 
ATOM      6  O   LIG d   1       6.070  -0.414  -6.243  0.00  0.00    -0.287 OA
ATOM      7  C   LIG d   1       4.548  -1.704  -3.254  0.00  0.00     0.143 A 
ATOM      8  C   LIG d   1       5.470   0.508  -3.623  0.00  0.00    -0.047 A 
ATOM      9  C   LIG d   1       4.217  -1.338  -1.955  0.00  0.00    -0.018 A 
ATOM     10  O   LIG d   1       4.271  -2.941  -3.719  0.00  0.00    -0.424 OA
ATOM     11  C   LIG d   1       4.510  -0.070  -1.503  0.00  0.00    -0.058 A 
ATOM     12  H   LIG d   1       3.732  -2.048  -1.301  0.00  0.00     0.065 H 
ATOM     13  C   LIG d   1       5.134   0.852  -2.332  0.00  0.00    -0.061 A 
ATOM     14  H   LIG d   1       4.251   0.211  -0.492  0.00  0.00     0.062 H 
ATOM     15  H   LIG d   1       5.353   1.843  -1.964  0.00  0.00     0.062 H 
ATOM     16  C   LIG d   1       4.576  -3.323  -4.965  0.00  0.00     0.292 A 
ATOM     17  H   LIG d   1       5.955   1.226  -4.268  0.00  0.00     0.063 H 
BRANCH  16  18
ATOM     18  O   LIG d   1       4.267  -4.578  -5.353  0.00  0.00    -0.480 OA
ATOM     19  H   LIG d   1       4.668  -4.839  -6.193  0.00  0.00     0.295 HD
ENDBRANCH  16  18
ENDBRANCH   1   3
BRANCH   1  20
ATOM     20  C   LIG d   1       7.023  -2.990  -7.447  0.00  0.00    -0.011 C 
ATOM     21  H   LIG d   1       7.258  -2.631  -8.449  0.00  0.00     0.030 H 
ATOM     22  H   LIG d   1       7.491  -2.337  -6.709  0.00  0.00     0.030 H 
BRANCH  20  23
ATOM     23  C   LIG d   1       7.556  -4.415  -7.279  0.00  0.00     0.081 C 
ATOM     24  H   LIG d   1       8.330  -4.603  -8.022  0.00  0.00     0.064 H 
BRANCH  23  25
ATOM     25  C   LIG d   1       8.134  -4.575  -5.897  0.00  0.00    -0.019 A 
ATOM     26  C   LIG d   1       8.290  -5.836  -5.354  0.00  0.00    -0.055 A 
ATOM     27  C   LIG d   1       8.824  -5.983  -4.088  0.00  0.00    -0.043 A 
ATOM     28  H   LIG d   1       7.997  -6.707  -5.922  0.00  0.00     0.062 H 
ATOM     29  C   LIG d   1       9.194  -4.867  -3.360  0.00  0.00     0.041 A 
ATOM     30  H   LIG d   1       8.950  -6.969  -3.667  0.00  0.00     0.063 H 
ATOM     31  C   LIG d   1       9.033  -3.604  -3.901  0.00  0.00    -0.043 A 
ATOM     32 CL   LIG d   1       9.860  -5.051  -1.767  0.00  0.00    -0.084 Cl
ATOM     33  C   LIG d   1       8.503  -3.459  -5.169  0.00  0.00    -0.055 A 
ATOM     34  H   LIG d   1       9.321  -2.732  -3.333  0.00  0.00     0.063 H 
ATOM     35  H   LIG d   1       8.377  -2.472  -5.592  0.00  0.00     0.062 H 
ENDBRANCH  23  25
BRANCH  23  36
ATOM     36  O   LIG d   1       6.487  -5.346  -7.459  0.00  0.00    -0.387 OA
ATOM     37  H   LIG d   1       6.199  -5.443  -8.377  0.00  0.00     0.210 HD
ENDBRANCH  23  36
ENDBRANCH  20  23
ENDBRANCH   1  20
BRANCH   1  38
ATOM     38  C   LIG d   1       4.869  -2.068  -8.256  0.00  0.00    -0.001 A 
ATOM     39  S   LIG d   1       5.634  -1.151  -9.584  0.00  0.00    -0.081 SA
ATOM     40  C   LIG d   1       4.164  -0.377 -10.236  0.00  0.00     0.078 A 
ATOM     41  C   LIG d   1       3.203  -0.854  -9.405  0.00  0.00    -0.036 A 
ATOM     42 CL   LIG d   1       4.005   0.712 -11.579  0.00  0.00    -0.076 Cl
ATOM     43  C   LIG d   1       3.565  -1.722  -8.391  0.00  0.00    -0.050 A 
ATOM     44  H   LIG d   1       2.170  -0.563  -9.535  0.00  0.00     0.064 H 
ATOM     45  H   LIG d   1       2.820  -2.117  -7.716  0.00  0.00     0.063 H 
ENDBRANCH   1  38
TORSDOF 7
ENDMDL
MODEL 6
REMARK VINA RESULT:      -6.6      3.396      6.424
REMARK  7 active torsions:
REMARK  status: ('A' for Active; 'I' for Inactive)
REMARK    1  A    between atoms: C_9  and  C_13 
REMARK    2  A    between atoms: C_10  and  O_12 
REMARK    3  A    between atoms: C_13  and  C_15 
REMARK    4  A    between atoms: C_13  and  C_26 
REMARK    5  A    between atoms: C_15  and  C_16 
REMARK    6  A    between atoms: C_16  and  C_18 
REMARK    7  A    between atoms: C_16  and  O_25 
ROOT
ATOM      1  C   LIG d   1       5.916  -0.343  -8.426  0.00  0.00     0.029 C 
ATOM      2  H   LIG d   1       6.742  -0.950  -8.797  0.00  0.00     0.041 H 
ENDROOT
BRANCH   1   3
ATOM      3  C   LIG d   1       5.489  -0.851  -7.073  0.00  0.00     0.088 A 
ATOM      4  C   LIG d   1       4.447  -0.209  -6.371  0.00  0.00     0.200 A 
ATOM      5  C   LIG d   1       4.080  -0.759  -5.050  0.00  0.00     0.065 A 
ATOM      6  O   LIG d   1       3.872   0.762  -6.836  0.00  0.00    -0.287 OA
ATOM      7  C   LIG d   1       4.781  -1.878  -4.574  0.00  0.00     0.143 A 
ATOM      8  C   LIG d   1       3.064  -0.191  -4.284  0.00  0.00    -0.047 A 
ATOM      9  C   LIG d   1       4.452  -2.412  -3.334  0.00  0.00    -0.018 A 
ATOM     10  O   LIG d   1       5.764  -2.420  -5.323  0.00  0.00    -0.424 OA
ATOM     11  C   LIG d   1       3.445  -1.841  -2.586  0.00  0.00    -0.058 A 
ATOM     12  H   LIG d   1       4.985  -3.272  -2.957  0.00  0.00     0.065 H 
ATOM     13  C   LIG d   1       2.752  -0.735  -3.057  0.00  0.00    -0.061 A 
ATOM     14  H   LIG d   1       3.192  -2.258  -1.623  0.00  0.00     0.062 H 
ATOM     15  H   LIG d   1       1.963  -0.302  -2.462  0.00  0.00     0.062 H 
ATOM     16  C   LIG d   1       6.105  -1.929  -6.522  0.00  0.00     0.292 A 
ATOM     17  H   LIG d   1       2.524   0.670  -4.650  0.00  0.00     0.063 H 
BRANCH  16  18
ATOM     18  O   LIG d   1       7.099  -2.528  -7.209  0.00  0.00    -0.480 OA
ATOM     19  H   LIG d   1       7.405  -3.358  -6.815  0.00  0.00     0.295 HD
ENDBRANCH  16  18
ENDBRANCH   1   3
BRANCH   1  20
ATOM     20  C   LIG d   1       6.366   1.114  -8.306  0.00  0.00    -0.011 C 
ATOM     21  H   LIG d   1       6.006   1.678  -9.165  0.00  0.00     0.030 H 
ATOM     22  H   LIG d   1       5.959   1.546  -7.391  0.00  0.00     0.030 H 
BRANCH  20  23
ATOM     23  C   LIG d   1       7.895   1.174  -8.262  0.00  0.00     0.081 C 
ATOM     24  H   LIG d   1       8.260   1.757  -9.107  0.00  0.00     0.064 H 
BRANCH  23  25
ATOM     25  C   LIG d   1       8.335   1.823  -6.975  0.00  0.00    -0.019 A 
ATOM     26  C   LIG d   1       7.891   1.326  -5.764  0.00  0.00    -0.055 A 
ATOM     27  C   LIG d   1       8.298   1.919  -4.583  0.00  0.00    -0.043 A 
ATOM     28  H   LIG d   1       7.229   0.473  -5.740  0.00  0.00     0.062 H 
ATOM     29  C   LIG d   1       9.142   3.014  -4.614  0.00  0.00     0.041 A 
ATOM     30  H   LIG d   1       7.955   1.527  -3.637  0.00  0.00     0.063 H 
ATOM     31  C   LIG d   1       9.581   3.515  -5.827  0.00  0.00    -0.043 A 
ATOM     32 CL   LIG d   1       9.648   3.763  -3.132  0.00  0.00    -0.084 Cl
ATOM     33  C   LIG d   1       9.177   2.919  -7.007  0.00  0.00    -0.055 A 
ATOM     34  H   LIG d   1      10.239   4.370  -5.852  0.00  0.00     0.063 H 
ATOM     35  H   LIG d   1       9.520   3.309  -7.954  0.00  0.00     0.062 H 
ENDBRANCH  23  25
BRANCH  23  36
ATOM     36  O   LIG d   1       8.425  -0.151  -8.333  0.00  0.00    -0.387 OA
ATOM     37  H   LIG d   1       9.113  -0.264  -9.003  0.00  0.00     0.210 HD
ENDBRANCH  23  36
ENDBRANCH  20  23
ENDBRANCH   1  20
BRANCH   1  38
ATOM     38  C   LIG d   1       4.756  -0.433  -9.385  0.00  0.00    -0.001 A 
ATOM     39  S   LIG d   1       3.579  -1.757  -9.605  0.00  0.00    -0.081 SA
ATOM     40  C   LIG d   1       2.606  -1.016 -10.905  0.00  0.00     0.078 A 
ATOM     41  C   LIG d   1       3.239   0.170 -11.088  0.00  0.00    -0.036 A 
ATOM     42 CL   LIG d   1       1.215  -1.651 -11.728  0.00  0.00    -0.076 Cl
ATOM     43  C   LIG d   1       4.341   0.469 -10.308  0.00  0.00    -0.050 A 
ATOM     44  H   LIG d   1       2.887   0.871 -11.831  0.00  0.00     0.064 H 
ATOM     45  H   LIG d   1       4.864   1.405 -10.433  0.00  0.00     0.063 H 
ENDBRANCH   1  38
TORSDOF 7
ENDMDL
MODEL 7
REMARK VINA RESULT:      -6.6      3.821      4.787
REMARK  7 active torsions:
REMARK  status: ('A' for Active; 'I' for Inactive)
REMARK    1  A    between atoms: C_9  and  C_13 
REMARK    2  A    between atoms: C_10  and  O_12 
REMARK    3  A    between atoms: C_13  and  C_15 
REMARK    4  A    between atoms: C_13  and  C_26 
REMARK    5  A    between atoms: C_15  and  C_16 
REMARK    6  A    between atoms: C_16  and  C_18 
REMARK    7  A    between atoms: C_16  and  O_25 
ROOT
ATOM      1  C   LIG d   1       6.595  -3.556  -6.314  0.00  0.00     0.029 C 
ATOM      2  H   LIG d   1       7.334  -2.928  -6.812  0.00  0.00     0.041 H 
ENDROOT
BRANCH   1   3
ATOM      3  C   LIG d   1       5.907  -2.762  -5.234  0.00  0.00     0.088 A 
ATOM      4  C   LIG d   1       6.366  -1.470  -4.902  0.00  0.00     0.200 A 
ATOM      5  C   LIG d   1       5.645  -0.747  -3.834  0.00  0.00     0.065 A 
ATOM      6  O   LIG d   1       7.322  -0.970  -5.473  0.00  0.00    -0.287 OA
ATOM      7  C   LIG d   1       4.555  -1.381  -3.218  0.00  0.00     0.143 A 
ATOM      8  C   LIG d   1       6.027   0.532  -3.438  0.00  0.00    -0.047 A 
ATOM      9  C   LIG d   1       3.862  -0.719  -2.211  0.00  0.00    -0.018 A 
ATOM     10  O   LIG d   1       4.194  -2.621  -3.608  0.00  0.00    -0.424 OA
ATOM     11  C   LIG d   1       4.250   0.546  -1.828  0.00  0.00    -0.058 A 
ATOM     12  H   LIG d   1       3.022  -1.197  -1.729  0.00  0.00     0.065 H 
ATOM     13  C   LIG d   1       5.328   1.173  -2.438  0.00  0.00    -0.061 A 
ATOM     14  H   LIG d   1       3.709   1.058  -1.045  0.00  0.00     0.062 H 
ATOM     15  H   LIG d   1       5.617   2.166  -2.130  0.00  0.00     0.062 H 
ATOM     16  C   LIG d   1       4.840  -3.285  -4.575  0.00  0.00     0.292 A 
ATOM     17  H   LIG d   1       6.866   1.020  -3.912  0.00  0.00     0.063 H 
BRANCH  16  18
ATOM     18  O   LIG d   1       4.416  -4.522  -4.908  0.00  0.00    -0.480 OA
ATOM     19  H   LIG d   1       4.400  -4.689  -5.861  0.00  0.00     0.295 HD
ENDBRANCH  16  18
ENDBRANCH   1   3
BRANCH   1  20
ATOM     20  C   LIG d   1       5.560  -4.032  -7.335  0.00  0.00    -0.011 C 
ATOM     21  H   LIG d   1       5.700  -5.095  -7.526  0.00  0.00     0.030 H 
ATOM     22  H   LIG d   1       4.557  -3.863  -6.942  0.00  0.00     0.030 H 
BRANCH  20  23
ATOM     23  C   LIG d   1       5.734  -3.252  -8.640  0.00  0.00     0.081 C 
ATOM     24  H   LIG d   1       5.325  -3.832  -9.467  0.00  0.00     0.064 H 
BRANCH  23  25
ATOM     25  C   LIG d   1       5.007  -1.937  -8.540  0.00  0.00    -0.019 A 
ATOM     26  C   LIG d   1       5.710  -0.750  -8.626  0.00  0.00    -0.055 A 
ATOM     27  C   LIG d   1       5.043   0.457  -8.538  0.00  0.00    -0.043 A 
ATOM     28  H   LIG d   1       6.781  -0.766  -8.766  0.00  0.00     0.062 H 
ATOM     29  C   LIG d   1       3.672   0.478  -8.355  0.00  0.00     0.041 A 
ATOM     30  H   LIG d   1       5.592   1.384  -8.611  0.00  0.00     0.063 H 
ATOM     31  C   LIG d   1       2.969  -0.710  -8.263  0.00  0.00    -0.043 A 
ATOM     32 CL   LIG d   1       2.834   1.994  -8.239  0.00  0.00    -0.084 Cl
ATOM     33  C   LIG d   1       3.637  -1.916  -8.355  0.00  0.00    -0.055 A 
ATOM     34  H   LIG d   1       1.899  -0.695  -8.119  0.00  0.00     0.063 H 
ATOM     35  H   LIG d   1       3.088  -2.844  -8.284  0.00  0.00     0.062 H 
ENDBRANCH  23  25
BRANCH  23  36
ATOM     36  O   LIG d   1       7.124  -3.013  -8.869  0.00  0.00    -0.387 OA
ATOM     37  H   LIG d   1       7.621  -3.799  -9.134  0.00  0.00     0.210 HD
ENDBRANCH  23  36
ENDBRANCH  20  23
ENDBRANCH   1  20
BRANCH   1  38
ATOM     38  C   LIG d   1       7.281  -4.749  -5.701  0.00  0.00    -0.001 A 
ATOM     39  S   LIG d   1       7.080  -6.481  -6.083  0.00  0.00    -0.081 SA
ATOM     40  C   LIG d   1       8.251  -7.137  -4.906  0.00  0.00     0.078 A 
ATOM     41  C   LIG d   1       8.704  -6.009  -4.303  0.00  0.00    -0.036 A 
ATOM     42 CL   LIG d   1       8.690  -8.790  -4.605  0.00  0.00    -0.076 Cl
ATOM     43  C   LIG d   1       8.207  -4.786  -4.712  0.00  0.00    -0.050 A 
ATOM     44  H   LIG d   1       9.444  -6.067  -3.517  0.00  0.00     0.064 H 
ATOM     45  H   LIG d   1       8.551  -3.872  -4.249  0.00  0.00     0.063 H 
ENDBRANCH   1  38
TORSDOF 7
ENDMDL
MODEL 8
REMARK VINA RESULT:      -6.5      5.181      6.546
REMARK  7 active torsions:
REMARK  status: ('A' for Active; 'I' for Inactive)
REMARK    1  A    between atoms: C_9  and  C_13 
REMARK    2  A    between atoms: C_10  and  O_12 
REMARK    3  A    between atoms: C_13  and  C_15 
REMARK    4  A    between atoms: C_13  and  C_26 
REMARK    5  A    between atoms: C_15  and  C_16 
REMARK    6  A    between atoms: C_16  and  C_18 
REMARK    7  A    between atoms: C_16  and  O_25 
ROOT
ATOM      1  C   LIG d   1       5.754  -3.346  -6.446  0.00  0.00     0.029 C 
ATOM      2  H   LIG d   1       5.382  -3.333  -7.471  0.00  0.00     0.041 H 
ENDROOT
BRANCH   1   3
ATOM      3  C   LIG d   1       5.125  -2.218  -5.669  0.00  0.00     0.088 A 
ATOM      4  C   LIG d   1       5.518  -1.969  -4.338  0.00  0.00     0.200 A 
ATOM      5  C   LIG d   1       4.861  -0.847  -3.636  0.00  0.00     0.065 A 
ATOM      6  O   LIG d   1       6.366  -2.652  -3.788  0.00  0.00    -0.287 OA
ATOM      7  C   LIG d   1       3.893  -0.102  -4.327  0.00  0.00     0.143 A 
ATOM      8  C   LIG d   1       5.184  -0.527  -2.319  0.00  0.00    -0.047 A 
ATOM      9  C   LIG d   1       3.262   0.957  -3.685  0.00  0.00    -0.018 A 
ATOM     10  O   LIG d   1       3.586  -0.422  -5.601  0.00  0.00    -0.424 OA
ATOM     11  C   LIG d   1       3.590   1.264  -2.382  0.00  0.00    -0.058 A 
ATOM     12  H   LIG d   1       2.515   1.537  -4.206  0.00  0.00     0.065 H 
ATOM     13  C   LIG d   1       4.547   0.527  -1.699  0.00  0.00    -0.061 A 
ATOM     14  H   LIG d   1       3.098   2.088  -1.886  0.00  0.00     0.062 H 
ATOM     15  H   LIG d   1       4.797   0.783  -0.681  0.00  0.00     0.062 H 
ATOM     16  C   LIG d   1       4.177  -1.435  -6.248  0.00  0.00     0.292 A 
ATOM     17  H   LIG d   1       5.928  -1.100  -1.786  0.00  0.00     0.063 H 
BRANCH  16  18
ATOM     18  O   LIG d   1       3.814  -1.691  -7.522  0.00  0.00    -0.480 OA
ATOM     19  H   LIG d   1       3.535  -0.907  -8.016  0.00  0.00     0.295 HD
ENDBRANCH  16  18
ENDBRANCH   1   3
BRANCH   1  20
ATOM     20  C   LIG d   1       5.395  -4.680  -5.790  0.00  0.00    -0.011 C 
ATOM     21  H   LIG d   1       6.296  -5.279  -5.668  0.00  0.00     0.030 H 
ATOM     22  H   LIG d   1       4.945  -4.496  -4.814  0.00  0.00     0.030 H 
BRANCH  20  23
ATOM     23  C   LIG d   1       4.399  -5.433  -6.676  0.00  0.00     0.081 C 
ATOM     24  H   LIG d   1       4.564  -5.162  -7.719  0.00  0.00     0.064 H 
BRANCH  23  25
ATOM     25  C   LIG d   1       4.597  -6.917  -6.504  0.00  0.00    -0.019 A 
ATOM     26  C   LIG d   1       4.346  -7.774  -7.559  0.00  0.00    -0.055 A 
ATOM     27  C   LIG d   1       4.531  -9.135  -7.402  0.00  0.00    -0.043 A 
ATOM     28  H   LIG d   1       4.008  -7.380  -8.506  0.00  0.00     0.062 H 
ATOM     29  C   LIG d   1       4.959  -9.640  -6.188  0.00  0.00     0.041 A 
ATOM     30  H   LIG d   1       4.340  -9.804  -8.228  0.00  0.00     0.063 H 
ATOM     31  C   LIG d   1       5.204  -8.782  -5.131  0.00  0.00    -0.043 A 
ATOM     32 CL   LIG d   1       5.186 -11.349  -5.989  0.00  0.00    -0.084 Cl
ATOM     33  C   LIG d   1       5.023  -7.421  -5.290  0.00  0.00    -0.055 A 
ATOM     34  H   LIG d   1       5.538  -9.175  -4.182  0.00  0.00     0.063 H 
ATOM     35  H   LIG d   1       5.216  -6.751  -4.464  0.00  0.00     0.062 H 
ENDBRANCH  23  25
BRANCH  23  36
ATOM     36  O   LIG d   1       3.066  -5.082  -6.298  0.00  0.00    -0.387 OA
ATOM     37  H   LIG d   1       2.684  -4.366  -6.823  0.00  0.00     0.210 HD
ENDBRANCH  23  36
ENDBRANCH  20  23
ENDBRANCH   1  20
BRANCH   1  38
ATOM     38  C   LIG d   1       7.251  -3.177  -6.454  0.00  0.00    -0.001 A 
ATOM     39  S   LIG d   1       8.515  -4.323  -5.928  0.00  0.00    -0.081 SA
ATOM     40  C   LIG d   1       9.940  -3.311  -6.289  0.00  0.00     0.078 A 
ATOM     41  C   LIG d   1       9.366  -2.180  -6.771  0.00  0.00    -0.036 A 
ATOM     42 CL   LIG d   1      11.624  -3.675  -6.072  0.00  0.00    -0.076 Cl
ATOM     43  C   LIG d   1       7.988  -2.112  -6.856  0.00  0.00    -0.050 A 
ATOM     44  H   LIG d   1       9.977  -1.346  -7.086  0.00  0.00     0.064 H 
ATOM     45  H   LIG d   1       7.505  -1.224  -7.236  0.00  0.00     0.063 H 
ENDBRANCH   1  38
TORSDOF 7
ENDMDL
MODEL 9
REMARK VINA RESULT:      -6.5      4.868      6.927
REMARK  7 active torsions:
REMARK  status: ('A' for Active; 'I' for Inactive)
REMARK    1  A    between atoms: C_9  and  C_13 
REMARK    2  A    between atoms: C_10  and  O_12 
REMARK    3  A    between atoms: C_13  and  C_15 
REMARK    4  A    between atoms: C_13  and  C_26 
REMARK    5  A    between atoms: C_15  and  C_16 
REMARK    6  A    between atoms: C_16  and  C_18 
REMARK    7  A    between atoms: C_16  and  O_25 
ROOT
ATOM      1  C   LIG d   1       4.506  -2.795  -5.925  0.00  0.00     0.029 C 
ATOM      2  H   LIG d   1       3.486  -2.933  -6.285  0.00  0.00     0.041 H 
ENDROOT
BRANCH   1   3
ATOM      3  C   LIG d   1       5.158  -4.141  -5.739  0.00  0.00     0.088 A 
ATOM      4  C   LIG d   1       6.513  -4.225  -5.357  0.00  0.00     0.200 A 
ATOM      5  C   LIG d   1       7.089  -5.576  -5.192  0.00  0.00     0.065 A 
ATOM      6  O   LIG d   1       7.184  -3.222  -5.169  0.00  0.00    -0.287 OA
ATOM      7  C   LIG d   1       6.263  -6.686  -5.423  0.00  0.00     0.143 A 
ATOM      8  C   LIG d   1       8.419  -5.757  -4.817  0.00  0.00    -0.047 A 
ATOM      9  C   LIG d   1       6.784  -7.966  -5.274  0.00  0.00    -0.018 A 
ATOM     10  O   LIG d   1       4.977  -6.499  -5.787  0.00  0.00    -0.424 OA
ATOM     11  C   LIG d   1       8.101  -8.132  -4.903  0.00  0.00    -0.058 A 
ATOM     12  H   LIG d   1       6.158  -8.828  -5.450  0.00  0.00     0.065 H 
ATOM     13  C   LIG d   1       8.917  -7.034  -4.675  0.00  0.00    -0.061 A 
ATOM     14  H   LIG d   1       8.502  -9.128  -4.789  0.00  0.00     0.062 H 
ATOM     15  H   LIG d   1       9.945  -7.180  -4.380  0.00  0.00     0.062 H 
ATOM     16  C   LIG d   1       4.445  -5.280  -5.938  0.00  0.00     0.292 A 
ATOM     17  H   LIG d   1       9.055  -4.903  -4.639  0.00  0.00     0.063 H 
BRANCH  16  18
ATOM     18  O   LIG d   1       3.150  -5.178  -6.304  0.00  0.00    -0.480 OA
ATOM     19  H   LIG d   1       2.694  -6.028  -6.375  0.00  0.00     0.295 HD
ENDBRANCH  16  18
ENDBRANCH   1   3
BRANCH   1  20
ATOM     20  C   LIG d   1       5.301  -1.979  -6.945  0.00  0.00    -0.011 C 
ATOM     21  H   LIG d   1       5.646  -1.055  -6.482  0.00  0.00     0.030 H 
ATOM     22  H   LIG d   1       6.160  -2.558  -7.284  0.00  0.00     0.030 H 
BRANCH  20  23
ATOM     23  C   LIG d   1       4.407  -1.645  -8.141  0.00  0.00     0.081 C 
ATOM     24  H   LIG d   1       4.883  -0.875  -8.747  0.00  0.00     0.064 H 
BRANCH  23  25
ATOM     25  C   LIG d   1       4.199  -2.884  -8.973  0.00  0.00    -0.019 A 
ATOM     26  C   LIG d   1       2.921  -3.279  -9.319  0.00  0.00    -0.055 A 
ATOM     27  C   LIG d   1       2.731  -4.412 -10.086  0.00  0.00    -0.043 A 
ATOM     28  H   LIG d   1       2.071  -2.698  -8.993  0.00  0.00     0.062 H 
ATOM     29  C   LIG d   1       3.820  -5.158 -10.500  0.00  0.00     0.041 A 
ATOM     30  H   LIG d   1       1.732  -4.717 -10.361  0.00  0.00     0.063 H 
ATOM     31  C   LIG d   1       5.099  -4.766 -10.149  0.00  0.00    -0.043 A 
ATOM     32 CL   LIG d   1       3.581  -6.586 -11.459  0.00  0.00    -0.084 Cl
ATOM     33  C   LIG d   1       5.288  -3.630  -9.386  0.00  0.00    -0.055 A 
ATOM     34  H   LIG d   1       5.950  -5.348 -10.471  0.00  0.00     0.063 H 
ATOM     35  H   LIG d   1       6.287  -3.323  -9.112  0.00  0.00     0.062 H 
ENDBRANCH  23  25
BRANCH  23  36
ATOM     36  O   LIG d   1       3.143  -1.169  -7.672  0.00  0.00    -0.387 OA
ATOM     37  H   LIG d   1       3.005  -0.222  -7.807  0.00  0.00     0.210 HD
ENDBRANCH  23  36
ENDBRANCH  20  23
ENDBRANCH   1  20
BRANCH   1  38
ATOM     38  C   LIG d   1       4.479  -2.064  -4.607  0.00  0.00    -0.001 A 
ATOM     39  S   LIG d   1       4.809  -0.342  -4.270  0.00  0.00    -0.081 SA
ATOM     40  C   LIG d   1       4.547  -0.376  -2.505  0.00  0.00     0.078 A 
ATOM     41  C   LIG d   1       4.239  -1.680  -2.292  0.00  0.00    -0.036 A 
ATOM     42 CL   LIG d   1       4.666   0.922  -1.357  0.00  0.00    -0.076 Cl
ATOM     43  C   LIG d   1       4.203  -2.544  -3.370  0.00  0.00    -0.050 A 
ATOM     44  H   LIG d   1       4.022  -2.037  -1.295  0.00  0.00     0.064 H 
ATOM     45  H   LIG d   1       3.960  -3.587  -3.229  0.00  0.00     0.063 H 
ENDBRANCH   1  38
TORSDOF 7
ENDMDL
