MODEL 1
REMARK VINA RESULT:      -6.0      0.000      0.000
REMARK  8 active torsions:
REMARK  status: ('A' for Active; 'I' for Inactive)
REMARK    1  A    between atoms: C_1  and  C_2 
REMARK    2  A    between atoms: C_2  and  C_3 
REMARK    3  A    between atoms: C_3  and  C_4 
REMARK    4  A    between atoms: C_3  and  C_5 
REMARK    5  A    between atoms: C_3  and  O_21 
REMARK    6  A    between atoms: C_6  and  C_7 
REMARK    7  A    between atoms: C_7  and  N_8 
REMARK    8  A    between atoms: C_13  and  C_15 
ROOT
ATOM      1  N   LIG d   1       5.253  -1.636  -7.580  0.00  0.00    -0.284 N 
ATOM      2  C   LIG d   1       5.358  -2.951  -6.934  0.00  0.00     0.000 C 
ATOM      3  C   LIG d   1       5.034  -4.048  -7.951  0.00  0.00    -0.040 C 
ATOM      4  C   LIG d   1       3.618  -3.836  -8.490  0.00  0.00    -0.050 C 
ATOM      5  C   LIG d   1       3.521  -2.440  -9.114  0.00  0.00    -0.033 C 
ATOM      6  C   LIG d   1       3.888  -1.390  -8.064  0.00  0.00     0.038 C 
ATOM      7  H   LIG d   1       3.191  -1.452  -7.229  0.00  0.00     0.051 H 
ATOM      8  H   LIG d   1       6.372  -3.092  -6.559  0.00  0.00     0.043 H 
ATOM      9  H   LIG d   1       4.654  -3.006  -6.105  0.00  0.00     0.043 H 
ATOM     10  H   LIG d   1       5.748  -4.003  -8.774  0.00  0.00     0.028 H 
ATOM     11  H   LIG d   1       5.098  -5.023  -7.467  0.00  0.00     0.028 H 
ATOM     12  H   LIG d   1       3.398  -4.590  -9.246  0.00  0.00     0.027 H 
ATOM     13  H   LIG d   1       2.900  -3.919  -7.673  0.00  0.00     0.027 H 
ATOM     14  H   LIG d   1       4.210  -2.370  -9.955  0.00  0.00     0.028 H 
ATOM     15  H   LIG d   1       2.502  -2.267  -9.461  0.00  0.00     0.028 H 
ENDROOT
BRANCH   1  16
ATOM     16  C   LIG d   1       5.690  -0.567  -6.673  0.00  0.00     0.061 C 
ATOM     17  H   LIG d   1       5.584   0.397  -7.170  0.00  0.00     0.056 H 
ATOM     18  H   LIG d   1       6.734  -0.724  -6.403  0.00  0.00     0.056 H 
BRANCH  16  19
ATOM     19  C   LIG d   1       4.861  -0.587  -5.456  0.00  0.00    -0.084 C 
ATOM     20  C   LIG d   1       4.200  -0.602  -4.486  0.00  0.00    -0.067 C 
BRANCH  20  21
ATOM     21  C   LIG d   1       3.371  -0.621  -3.270  0.00  0.00     0.123 C 
BRANCH  21  22
ATOM     22  C   LIG d   1       3.446   0.744  -2.581  0.00  0.00    -0.016 C 
ATOM     23  H   LIG d   1       2.546   0.901  -1.988  0.00  0.00     0.030 H 
ATOM     24  H   LIG d   1       3.526   1.528  -3.335  0.00  0.00     0.030 H 
BRANCH  22  25
ATOM     25  C   LIG d   1       4.673   0.788  -1.668  0.00  0.00    -0.062 C 
ATOM     26  H   LIG d   1       4.716   1.753  -1.163  0.00  0.00     0.023 H 
ATOM     27  H   LIG d   1       4.604  -0.008  -0.927  0.00  0.00     0.023 H 
ATOM     28  H   LIG d   1       5.575   0.651  -2.266  0.00  0.00     0.023 H 
ENDBRANCH  22  25
ENDBRANCH  21  22
BRANCH  21  29
ATOM     29  C   LIG d   1       3.886  -1.701  -2.317  0.00  0.00    -0.025 C 
ATOM     30  H   LIG d   1       4.742  -1.318  -1.762  0.00  0.00     0.027 H 
ATOM     31  H   LIG d   1       3.095  -1.978  -1.620  0.00  0.00     0.027 H 
ATOM     32  H   LIG d   1       4.187  -2.577  -2.890  0.00  0.00     0.027 H 
ENDBRANCH  21  29
BRANCH  21  33
ATOM     33  O   LIG d   1       2.015  -0.902  -3.621  0.00  0.00    -0.377 OA
ATOM     34  H   LIG d   1       1.736  -0.508  -4.460  0.00  0.00     0.211 HD
ENDBRANCH  21  33
ENDBRANCH  20  21
ENDBRANCH  16  19
ENDBRANCH   1  16
BRANCH   6  35
ATOM     35  C   LIG d   1       3.814  -0.017  -8.678  0.00  0.00    -0.012 A 
ATOM     36  C   LIG d   1       4.631   0.318  -9.742  0.00  0.00     0.032 A 
ATOM     37  N   LIG d   1       4.567   1.517 -10.289  0.00  0.00    -0.263 NA
ATOM     38  H   LIG d   1       5.326  -0.410 -10.131  0.00  0.00     0.083 H 
ATOM     39  C   LIG d   1       3.738   2.440  -9.843  0.00  0.00     0.028 A 
ATOM     40  C   LIG d   1       2.894   2.178  -8.780  0.00  0.00    -0.043 A 
ATOM     41  H   LIG d   1       3.717   3.411 -10.315  0.00  0.00     0.083 H 
ATOM     42  C   LIG d   1       2.929   0.928  -8.182  0.00  0.00    -0.054 A 
ATOM     43  H   LIG d   1       2.217   2.938  -8.419  0.00  0.00     0.063 H 
ATOM     44  H   LIG d   1       2.281   0.695  -7.350  0.00  0.00     0.062 H 
ENDBRANCH   6  35
TORSDOF 8
ENDMDL
MODEL 2
REMARK VINA RESULT:      -5.9      2.787      6.357
REMARK  8 active torsions:
REMARK  status: ('A' for Active; 'I' for Inactive)
REMARK    1  A    between atoms: C_1  and  C_2 
REMARK    2  A    between atoms: C_2  and  C_3 
REMARK    3  A    between atoms: C_3  and  C_4 
REMARK    4  A    between atoms: C_3  and  C_5 
REMARK    5  A    between atoms: C_3  and  O_21 
REMARK    6  A    between atoms: C_6  and  C_7 
REMARK    7  A    between atoms: C_7  and  N_8 
REMARK    8  A    between atoms: C_13  and  C_15 
ROOT
ATOM      1  N   LIG d   1       4.484  -0.170  -4.505  0.00  0.00    -0.284 N 
ATOM      2  C   LIG d   1       3.175   0.263  -3.999  0.00  0.00     0.000 C 
ATOM      3  C   LIG d   1       3.359   1.467  -3.071  0.00  0.00    -0.040 C 
ATOM      4  C   LIG d   1       4.271   1.074  -1.907  0.00  0.00    -0.050 C 
ATOM      5  C   LIG d   1       5.611   0.580  -2.463  0.00  0.00    -0.033 C 
ATOM      6  C   LIG d   1       5.362  -0.598  -3.408  0.00  0.00     0.038 C 
ATOM      7  H   LIG d   1       4.886  -1.410  -2.858  0.00  0.00     0.051 H 
ATOM      8  H   LIG d   1       2.537   0.545  -4.836  0.00  0.00     0.043 H 
ATOM      9  H   LIG d   1       2.710  -0.552  -3.446  0.00  0.00     0.043 H 
ATOM     10  H   LIG d   1       3.811   2.289  -3.627  0.00  0.00     0.028 H 
ATOM     11  H   LIG d   1       2.388   1.780  -2.683  0.00  0.00     0.028 H 
ATOM     12  H   LIG d   1       4.440   1.940  -1.267  0.00  0.00     0.027 H 
ATOM     13  H   LIG d   1       3.802   0.278  -1.328  0.00  0.00     0.027 H 
ATOM     14  H   LIG d   1       6.098   1.387  -3.009  0.00  0.00     0.028 H 
ATOM     15  H   LIG d   1       6.249   0.257  -1.640  0.00  0.00     0.028 H 
ENDROOT
BRANCH   1  16
ATOM     16  C   LIG d   1       4.335  -1.235  -5.505  0.00  0.00     0.061 C 
ATOM     17  H   LIG d   1       3.601  -1.961  -5.156  0.00  0.00     0.056 H 
ATOM     18  H   LIG d   1       5.294  -1.730  -5.654  0.00  0.00     0.056 H 
BRANCH  16  19
ATOM     19  C   LIG d   1       3.881  -0.651  -6.779  0.00  0.00    -0.084 C 
ATOM     20  C   LIG d   1       3.520  -0.186  -7.794  0.00  0.00    -0.067 C 
BRANCH  20  21
ATOM     21  C   LIG d   1       3.067   0.397  -9.068  0.00  0.00     0.123 C 
BRANCH  21  22
ATOM     22  C   LIG d   1       2.754   1.882  -8.866  0.00  0.00    -0.016 C 
ATOM     23  H   LIG d   1       2.518   2.063  -7.818  0.00  0.00     0.030 H 
ATOM     24  H   LIG d   1       1.901   2.161  -9.484  0.00  0.00     0.030 H 
BRANCH  22  25
ATOM     25  C   LIG d   1       3.970   2.719  -9.267  0.00  0.00    -0.062 C 
ATOM     26  H   LIG d   1       4.530   2.997  -8.373  0.00  0.00     0.023 H 
ATOM     27  H   LIG d   1       4.610   2.137  -9.930  0.00  0.00     0.023 H 
ATOM     28  H   LIG d   1       3.637   3.620  -9.781  0.00  0.00     0.023 H 
ENDBRANCH  22  25
ENDBRANCH  21  22
BRANCH  21  29
ATOM     29  C   LIG d   1       1.806  -0.329  -9.541  0.00  0.00    -0.025 C 
ATOM     30  H   LIG d   1       1.511  -1.067  -8.796  0.00  0.00     0.027 H 
ATOM     31  H   LIG d   1       1.002   0.392  -9.678  0.00  0.00     0.027 H 
ATOM     32  H   LIG d   1       2.010  -0.830 -10.487  0.00  0.00     0.027 H 
ENDBRANCH  21  29
BRANCH  21  33
ATOM     33  O   LIG d   1       4.095   0.257 -10.049  0.00  0.00    -0.377 OA
ATOM     34  H   LIG d   1       4.962   0.573  -9.758  0.00  0.00     0.211 HD
ENDBRANCH  21  33
ENDBRANCH  20  21
ENDBRANCH  16  19
ENDBRANCH   1  16
BRANCH   6  35
ATOM     35  C   LIG d   1       6.674  -1.075  -3.972  0.00  0.00    -0.012 A 
ATOM     36  C   LIG d   1       7.476  -0.215  -4.700  0.00  0.00     0.032 A 
ATOM     37  N   LIG d   1       8.630  -0.624  -5.193  0.00  0.00    -0.263 NA
ATOM     38  H   LIG d   1       7.156   0.802  -4.864  0.00  0.00     0.083 H 
ATOM     39  C   LIG d   1       9.057  -1.860  -5.023  0.00  0.00     0.028 A 
ATOM     40  C   LIG d   1       8.307  -2.777  -4.311  0.00  0.00    -0.043 A 
ATOM     41  H   LIG d   1      10.005  -2.159  -5.445  0.00  0.00     0.083 H 
ATOM     42  C   LIG d   1       7.091  -2.382  -3.773  0.00  0.00    -0.054 A 
ATOM     43  H   LIG d   1       8.663  -3.787  -4.175  0.00  0.00     0.063 H 
ATOM     44  H   LIG d   1       6.484  -3.076  -3.212  0.00  0.00     0.062 H 
ENDBRANCH   6  35
TORSDOF 8
ENDMDL
MODEL 3
REMARK VINA RESULT:      -5.6      4.576      7.028
REMARK  8 active torsions:
REMARK  status: ('A' for Active; 'I' for Inactive)
REMARK    1  A    between atoms: C_1  and  C_2 
REMARK    2  A    between atoms: C_2  and  C_3 
REMARK    3  A    between atoms: C_3  and  C_4 
REMARK    4  A    between atoms: C_3  and  C_5 
REMARK    5  A    between atoms: C_3  and  O_21 
REMARK    6  A    between atoms: C_6  and  C_7 
REMARK    7  A    between atoms: C_7  and  N_8 
REMARK    8  A    between atoms: C_13  and  C_15 
ROOT
ATOM      1  N   LIG d   1       6.337   0.126  -3.392  0.00  0.00    -0.284 N 
ATOM      2  C   LIG d   1       5.461   1.236  -2.995  0.00  0.00     0.000 C 
ATOM      3  C   LIG d   1       4.722   0.867  -1.706  0.00  0.00    -0.040 C 
ATOM      4  C   LIG d   1       3.896  -0.400  -1.942  0.00  0.00    -0.050 C 
ATOM      5  C   LIG d   1       4.826  -1.528  -2.401  0.00  0.00    -0.033 C 
ATOM      6  C   LIG d   1       5.561  -1.090  -3.670  0.00  0.00     0.038 C 
ATOM      7  H   LIG d   1       4.837  -0.886  -4.458  0.00  0.00     0.051 H 
ATOM      8  H   LIG d   1       6.061   2.130  -2.826  0.00  0.00     0.043 H 
ATOM      9  H   LIG d   1       4.736   1.428  -3.785  0.00  0.00     0.043 H 
ATOM     10  H   LIG d   1       5.445   0.688  -0.910  0.00  0.00     0.028 H 
ATOM     11  H   LIG d   1       4.059   1.685  -1.419  0.00  0.00     0.028 H 
ATOM     12  H   LIG d   1       3.402  -0.691  -1.014  0.00  0.00     0.027 H 
ATOM     13  H   LIG d   1       3.147  -0.210  -2.710  0.00  0.00     0.027 H 
ATOM     14  H   LIG d   1       5.551  -1.744  -1.617  0.00  0.00     0.028 H 
ATOM     15  H   LIG d   1       4.238  -2.421  -2.612  0.00  0.00     0.028 H 
ENDROOT
BRANCH   1  16
ATOM     16  C   LIG d   1       7.165   0.497  -4.547  0.00  0.00     0.061 C 
ATOM     17  H   LIG d   1       6.552   1.024  -5.279  0.00  0.00     0.056 H 
ATOM     18  H   LIG d   1       7.579  -0.402  -5.001  0.00  0.00     0.056 H 
BRANCH  16  19
ATOM     19  C   LIG d   1       8.262   1.374  -4.103  0.00  0.00    -0.084 C 
ATOM     20  C   LIG d   1       9.136   2.072  -3.749  0.00  0.00    -0.067 C 
BRANCH  20  21
ATOM     21  C   LIG d   1      10.233   2.947  -3.305  0.00  0.00     0.123 C 
BRANCH  21  22
ATOM     22  C   LIG d   1       9.684   4.347  -3.018  0.00  0.00    -0.016 C 
ATOM     23  H   LIG d   1      10.350   4.863  -2.328  0.00  0.00     0.030 H 
ATOM     24  H   LIG d   1       8.693   4.263  -2.571  0.00  0.00     0.030 H 
BRANCH  22  25
ATOM     25  C   LIG d   1       9.590   5.137  -4.324  0.00  0.00    -0.062 C 
ATOM     26  H   LIG d   1       8.561   5.459  -4.481  0.00  0.00     0.023 H 
ATOM     27  H   LIG d   1      10.241   6.010  -4.269  0.00  0.00     0.023 H 
ATOM     28  H   LIG d   1       9.902   4.503  -5.155  0.00  0.00     0.023 H 
ENDBRANCH  22  25
ENDBRANCH  21  22
BRANCH  21  29
ATOM     29  C   LIG d   1      11.294   3.033  -4.404  0.00  0.00    -0.025 C 
ATOM     30  H   LIG d   1      12.262   2.739  -3.998  0.00  0.00     0.027 H 
ATOM     31  H   LIG d   1      11.025   2.363  -5.221  0.00  0.00     0.027 H 
ATOM     32  H   LIG d   1      11.351   4.055  -4.776  0.00  0.00     0.027 H 
ENDBRANCH  21  29
BRANCH  21  33
ATOM     33  O   LIG d   1      10.819   2.413  -2.117  0.00  0.00    -0.377 OA
ATOM     34  H   LIG d   1      11.266   1.565  -2.246  0.00  0.00     0.211 HD
ENDBRANCH  21  33
ENDBRANCH  20  21
ENDBRANCH  16  19
ENDBRANCH   1  16
BRANCH   6  35
ATOM     35  C   LIG d   1       6.491  -2.188  -4.116  0.00  0.00    -0.012 A 
ATOM     36  C   LIG d   1       6.220  -2.912  -5.262  0.00  0.00     0.032 A 
ATOM     37  N   LIG d   1       7.033  -3.871  -5.661  0.00  0.00    -0.263 NA
ATOM     38  H   LIG d   1       5.335  -2.688  -5.837  0.00  0.00     0.083 H 
ATOM     39  C   LIG d   1       8.122  -4.183  -4.986  0.00  0.00     0.028 A 
ATOM     40  C   LIG d   1       8.455  -3.505  -3.828  0.00  0.00    -0.043 A 
ATOM     41  H   LIG d   1       8.761  -4.977  -5.342  0.00  0.00     0.083 H 
ATOM     42  C   LIG d   1       7.628  -2.487  -3.380  0.00  0.00    -0.054 A 
ATOM     43  H   LIG d   1       9.348  -3.765  -3.280  0.00  0.00     0.063 H 
ATOM     44  H   LIG d   1       7.863  -1.941  -2.479  0.00  0.00     0.062 H 
ENDBRANCH   6  35
TORSDOF 8
ENDMDL
MODEL 4
REMARK VINA RESULT:      -5.3      1.274      3.714
REMARK  8 active torsions:
REMARK  status: ('A' for Active; 'I' for Inactive)
REMARK    1  A    between atoms: C_1  and  C_2 
REMARK    2  A    between atoms: C_2  and  C_3 
REMARK    3  A    between atoms: C_3  and  C_4 
REMARK    4  A    between atoms: C_3  and  C_5 
REMARK    5  A    between atoms: C_3  and  O_21 
REMARK    6  A    between atoms: C_6  and  C_7 
REMARK    7  A    between atoms: C_7  and  N_8 
REMARK    8  A    between atoms: C_13  and  C_15 
ROOT
ATOM      1  N   LIG d   1       4.519   0.016  -8.344  0.00  0.00    -0.284 N 
ATOM      2  C   LIG d   1       4.635   1.460  -8.583  0.00  0.00     0.000 C 
ATOM      3  C   LIG d   1       3.611   1.889  -9.638  0.00  0.00    -0.040 C 
ATOM      4  C   LIG d   1       3.867   1.116 -10.934  0.00  0.00    -0.050 C 
ATOM      5  C   LIG d   1       3.788  -0.387 -10.648  0.00  0.00    -0.033 C 
ATOM      6  C   LIG d   1       4.807  -0.749  -9.565  0.00  0.00     0.038 C 
ATOM      7  H   LIG d   1       5.811  -0.508  -9.915  0.00  0.00     0.051 H 
ATOM      8  H   LIG d   1       4.446   1.999  -7.655  0.00  0.00     0.043 H 
ATOM      9  H   LIG d   1       5.639   1.691  -8.939  0.00  0.00     0.043 H 
ATOM     10  H   LIG d   1       2.605   1.672  -9.277  0.00  0.00     0.028 H 
ATOM     11  H   LIG d   1       3.708   2.958  -9.826  0.00  0.00     0.028 H 
ATOM     12  H   LIG d   1       3.114   1.386 -11.675  0.00  0.00     0.027 H 
ATOM     13  H   LIG d   1       4.859   1.362 -11.316  0.00  0.00     0.027 H 
ATOM     14  H   LIG d   1       2.786  -0.639 -10.303  0.00  0.00     0.028 H 
ATOM     15  H   LIG d   1       4.013  -0.943 -11.558  0.00  0.00     0.028 H 
ENDROOT
BRANCH   1  16
ATOM     16  C   LIG d   1       5.390  -0.407  -7.240  0.00  0.00     0.061 C 
ATOM     17  H   LIG d   1       6.217   0.296  -7.140  0.00  0.00     0.056 H 
ATOM     18  H   LIG d   1       5.782  -1.402  -7.448  0.00  0.00     0.056 H 
BRANCH  16  19
ATOM     19  C   LIG d   1       4.616  -0.435  -5.988  0.00  0.00    -0.084 C 
ATOM     20  C   LIG d   1       3.999  -0.457  -4.990  0.00  0.00    -0.067 C 
BRANCH  20  21
ATOM     21  C   LIG d   1       3.224  -0.485  -3.738  0.00  0.00     0.123 C 
BRANCH  21  22
ATOM     22  C   LIG d   1       3.462   0.813  -2.963  0.00  0.00    -0.016 C 
ATOM     23  H   LIG d   1       2.519   1.166  -2.548  0.00  0.00     0.030 H 
ATOM     24  H   LIG d   1       3.868   1.569  -3.636  0.00  0.00     0.030 H 
BRANCH  22  25
ATOM     25  C   LIG d   1       4.454   0.555  -1.827  0.00  0.00    -0.062 C 
ATOM     26  H   LIG d   1       5.394   1.063  -2.044  0.00  0.00     0.023 H 
ATOM     27  H   LIG d   1       4.043   0.935  -0.892  0.00  0.00     0.023 H 
ATOM     28  H   LIG d   1       4.632  -0.516  -1.738  0.00  0.00     0.023 H 
ENDBRANCH  22  25
ENDBRANCH  21  22
BRANCH  21  29
ATOM     29  C   LIG d   1       3.672  -1.676  -2.887  0.00  0.00    -0.025 C 
ATOM     30  H   LIG d   1       2.861  -1.973  -2.223  0.00  0.00     0.027 H 
ATOM     31  H   LIG d   1       3.933  -2.510  -3.539  0.00  0.00     0.027 H 
ATOM     32  H   LIG d   1       4.541  -1.392  -2.295  0.00  0.00     0.027 H 
ENDBRANCH  21  29
BRANCH  21  33
ATOM     33  O   LIG d   1       1.834  -0.611  -4.040  0.00  0.00    -0.377 OA
ATOM     34  H   LIG d   1       1.593  -1.461  -4.434  0.00  0.00     0.211 HD
ENDBRANCH  21  33
ENDBRANCH  20  21
ENDBRANCH  16  19
ENDBRANCH   1  16
BRANCH   6  35
ATOM     35  C   LIG d   1       4.720  -2.223  -9.266  0.00  0.00    -0.012 A 
ATOM     36  C   LIG d   1       5.813  -3.044  -9.471  0.00  0.00     0.032 A 
ATOM     37  N   LIG d   1       5.746  -4.334  -9.206  0.00  0.00    -0.263 NA
ATOM     38  H   LIG d   1       6.732  -2.624  -9.849  0.00  0.00     0.083 H 
ATOM     39  C   LIG d   1       4.642  -4.892  -8.749  0.00  0.00     0.028 A 
ATOM     40  C   LIG d   1       3.508  -4.135  -8.524  0.00  0.00    -0.043 A 
ATOM     41  H   LIG d   1       4.624  -5.953  -8.547  0.00  0.00     0.083 H 
ATOM     42  C   LIG d   1       3.541  -2.774  -8.786  0.00  0.00    -0.054 A 
ATOM     43  H   LIG d   1       2.607  -4.597  -8.149  0.00  0.00     0.063 H 
ATOM     44  H   LIG d   1       2.671  -2.157  -8.619  0.00  0.00     0.062 H 
ENDBRANCH   6  35
TORSDOF 8
ENDMDL
MODEL 5
REMARK VINA RESULT:      -5.2      3.554      6.073
REMARK  8 active torsions:
REMARK  status: ('A' for Active; 'I' for Inactive)
REMARK    1  A    between atoms: C_1  and  C_2 
REMARK    2  A    between atoms: C_2  and  C_3 
REMARK    3  A    between atoms: C_3  and  C_4 
REMARK    4  A    between atoms: C_3  and  C_5 
REMARK    5  A    between atoms: C_3  and  O_21 
REMARK    6  A    between atoms: C_6  and  C_7 
REMARK    7  A    between atoms: C_7  and  N_8 
REMARK    8  A    between atoms: C_13  and  C_15 
ROOT
ATOM      1  N   LIG d   1       5.650  -1.331  -3.591  0.00  0.00    -0.284 N 
ATOM      2  C   LIG d   1       4.831  -1.756  -2.448  0.00  0.00     0.000 C 
ATOM      3  C   LIG d   1       3.760  -0.700  -2.166  0.00  0.00    -0.040 C 
ATOM      4  C   LIG d   1       4.437   0.638  -1.862  0.00  0.00    -0.050 C 
ATOM      5  C   LIG d   1       5.322   1.035  -3.047  0.00  0.00    -0.033 C 
ATOM      6  C   LIG d   1       6.348  -0.071  -3.304  0.00  0.00     0.038 C 
ATOM      7  H   LIG d   1       6.975  -0.197  -2.422  0.00  0.00     0.051 H 
ATOM      8  H   LIG d   1       4.351  -2.707  -2.679  0.00  0.00     0.043 H 
ATOM      9  H   LIG d   1       5.465  -1.873  -1.570  0.00  0.00     0.043 H 
ATOM     10  H   LIG d   1       3.116  -0.593  -3.039  0.00  0.00     0.028 H 
ATOM     11  H   LIG d   1       3.161  -1.009  -1.308  0.00  0.00     0.028 H 
ATOM     12  H   LIG d   1       3.677   1.404  -1.702  0.00  0.00     0.027 H 
ATOM     13  H   LIG d   1       5.051   0.541  -0.966  0.00  0.00     0.027 H 
ATOM     14  H   LIG d   1       4.703   1.170  -3.934  0.00  0.00     0.028 H 
ATOM     15  H   LIG d   1       5.841   1.966  -2.819  0.00  0.00     0.028 H 
ENDROOT
BRANCH   1  16
ATOM     16  C   LIG d   1       6.600  -2.382  -3.978  0.00  0.00     0.061 C 
ATOM     17  H   LIG d   1       7.027  -2.833  -3.083  0.00  0.00     0.056 H 
ATOM     18  H   LIG d   1       7.396  -1.948  -4.582  0.00  0.00     0.056 H 
BRANCH  16  19
ATOM     19  C   LIG d   1       5.897  -3.414  -4.760  0.00  0.00    -0.084 C 
ATOM     20  C   LIG d   1       5.338  -4.235  -5.384  0.00  0.00    -0.067 C 
BRANCH  20  21
ATOM     21  C   LIG d   1       4.637  -5.266  -6.166  0.00  0.00     0.123 C 
BRANCH  21  22
ATOM     22  C   LIG d   1       4.937  -6.646  -5.576  0.00  0.00    -0.016 C 
ATOM     23  H   LIG d   1       4.272  -6.833  -4.733  0.00  0.00     0.030 H 
ATOM     24  H   LIG d   1       5.972  -6.678  -5.236  0.00  0.00     0.030 H 
BRANCH  22  25
ATOM     25  C   LIG d   1       4.717  -7.718  -6.646  0.00  0.00    -0.062 C 
ATOM     26  H   LIG d   1       5.498  -7.641  -7.402  0.00  0.00     0.023 H 
ATOM     27  H   LIG d   1       4.753  -8.705  -6.184  0.00  0.00     0.023 H 
ATOM     28  H   LIG d   1       3.744  -7.570  -7.113  0.00  0.00     0.023 H 
ENDBRANCH  22  25
ENDBRANCH  21  22
BRANCH  21  29
ATOM     29  C   LIG d   1       5.116  -5.218  -7.619  0.00  0.00    -0.025 C 
ATOM     30  H   LIG d   1       4.683  -4.351  -8.116  0.00  0.00     0.027 H 
ATOM     31  H   LIG d   1       6.203  -5.144  -7.640  0.00  0.00     0.027 H 
ATOM     32  H   LIG d   1       4.805  -6.126  -8.135  0.00  0.00     0.027 H 
ENDBRANCH  21  29
BRANCH  21  33
ATOM     33  O   LIG d   1       3.229  -5.026  -6.121  0.00  0.00    -0.377 OA
ATOM     34  H   LIG d   1       2.993  -4.095  -6.007  0.00  0.00     0.211 HD
ENDBRANCH  21  33
ENDBRANCH  20  21
ENDBRANCH  16  19
ENDBRANCH   1  16
BRANCH   6  35
ATOM     35  C   LIG d   1       7.208   0.306  -4.482  0.00  0.00    -0.012 A 
ATOM     36  C   LIG d   1       8.479   0.815  -4.286  0.00  0.00     0.032 A 
ATOM     37  N   LIG d   1       9.240   1.141  -5.312  0.00  0.00    -0.263 NA
ATOM     38  H   LIG d   1       8.853   0.943  -3.281  0.00  0.00     0.083 H 
ATOM     39  C   LIG d   1       8.823   1.007  -6.555  0.00  0.00     0.028 A 
ATOM     40  C   LIG d   1       7.562   0.509  -6.829  0.00  0.00    -0.043 A 
ATOM     41  H   LIG d   1       9.473   1.289  -7.370  0.00  0.00     0.083 H 
ATOM     42  C   LIG d   1       6.735   0.150  -5.776  0.00  0.00    -0.054 A 
ATOM     43  H   LIG d   1       7.226   0.402  -7.849  0.00  0.00     0.063 H 
ATOM     44  H   LIG d   1       5.745  -0.241  -5.959  0.00  0.00     0.062 H 
ENDBRANCH   6  35
TORSDOF 8
ENDMDL
MODEL 6
REMARK VINA RESULT:      -5.2      2.322      5.725
REMARK  8 active torsions:
REMARK  status: ('A' for Active; 'I' for Inactive)
REMARK    1  A    between atoms: C_1  and  C_2 
REMARK    2  A    between atoms: C_2  and  C_3 
REMARK    3  A    between atoms: C_3  and  C_4 
REMARK    4  A    between atoms: C_3  and  C_5 
REMARK    5  A    between atoms: C_3  and  O_21 
REMARK    6  A    between atoms: C_6  and  C_7 
REMARK    7  A    between atoms: C_7  and  N_8 
REMARK    8  A    between atoms: C_13  and  C_15 
ROOT
ATOM      1  N   LIG d   1       5.172  -1.684  -6.023  0.00  0.00    -0.284 N 
ATOM      2  C   LIG d   1       5.625  -2.782  -6.885  0.00  0.00     0.000 C 
ATOM      3  C   LIG d   1       4.863  -4.061  -6.528  0.00  0.00    -0.040 C 
ATOM      4  C   LIG d   1       5.114  -4.405  -5.058  0.00  0.00    -0.050 C 
ATOM      5  C   LIG d   1       4.679  -3.225  -4.183  0.00  0.00    -0.033 C 
ATOM      6  C   LIG d   1       5.447  -1.971  -4.608  0.00  0.00     0.038 C 
ATOM      7  H   LIG d   1       6.515  -2.136  -4.473  0.00  0.00     0.051 H 
ATOM      8  H   LIG d   1       5.436  -2.527  -7.928  0.00  0.00     0.043 H 
ATOM      9  H   LIG d   1       6.692  -2.944  -6.739  0.00  0.00     0.043 H 
ATOM     10  H   LIG d   1       3.796  -3.905  -6.688  0.00  0.00     0.028 H 
ATOM     11  H   LIG d   1       5.210  -4.880  -7.158  0.00  0.00     0.028 H 
ATOM     12  H   LIG d   1       4.539  -5.291  -4.787  0.00  0.00     0.027 H 
ATOM     13  H   LIG d   1       6.176  -4.599  -4.905  0.00  0.00     0.027 H 
ATOM     14  H   LIG d   1       3.610  -3.056  -4.306  0.00  0.00     0.028 H 
ATOM     15  H   LIG d   1       4.896  -3.447  -3.138  0.00  0.00     0.028 H 
ENDROOT
BRANCH   1  16
ATOM     16  C   LIG d   1       5.781  -0.410  -6.428  0.00  0.00     0.061 C 
ATOM     17  H   LIG d   1       6.804  -0.587  -6.762  0.00  0.00     0.056 H 
ATOM     18  H   LIG d   1       5.789   0.275  -5.581  0.00  0.00     0.056 H 
BRANCH  16  19
ATOM     19  C   LIG d   1       4.999   0.179  -7.529  0.00  0.00    -0.084 C 
ATOM     20  C   LIG d   1       4.376   0.648  -8.405  0.00  0.00    -0.067 C 
BRANCH  20  21
ATOM     21  C   LIG d   1       3.596   1.237  -9.506  0.00  0.00     0.123 C 
BRANCH  21  22
ATOM     22  C   LIG d   1       4.193   0.799 -10.845  0.00  0.00    -0.016 C 
ATOM     23  H   LIG d   1       5.194   0.401 -10.683  0.00  0.00     0.030 H 
ATOM     24  H   LIG d   1       4.248   1.657 -11.517  0.00  0.00     0.030 H 
BRANCH  22  25
ATOM     25  C   LIG d   1       3.308  -0.282 -11.469  0.00  0.00    -0.062 C 
ATOM     26  H   LIG d   1       2.599  -0.645 -10.725  0.00  0.00     0.023 H 
ATOM     27  H   LIG d   1       2.765   0.137 -12.316  0.00  0.00     0.023 H 
ATOM     28  H   LIG d   1       3.932  -1.109 -11.810  0.00  0.00     0.023 H 
ENDBRANCH  22  25
ENDBRANCH  21  22
BRANCH  21  29
ATOM     29  C   LIG d   1       3.641   2.764  -9.403  0.00  0.00    -0.025 C 
ATOM     30  H   LIG d   1       2.723   3.123  -8.937  0.00  0.00     0.027 H 
ATOM     31  H   LIG d   1       4.497   3.061  -8.798  0.00  0.00     0.027 H 
ATOM     32  H   LIG d   1       3.734   3.192 -10.400  0.00  0.00     0.027 H 
ENDBRANCH  21  29
BRANCH  21  33
ATOM     33  O   LIG d   1       2.241   0.794  -9.421  0.00  0.00    -0.377 OA
ATOM     34  H   LIG d   1       1.868   0.506 -10.266  0.00  0.00     0.211 HD
ENDBRANCH  21  33
ENDBRANCH  20  21
ENDBRANCH  16  19
ENDBRANCH   1  16
BRANCH   6  35
ATOM     35  C   LIG d   1       5.008  -0.803  -3.764  0.00  0.00    -0.012 A 
ATOM     36  C   LIG d   1       5.945   0.000  -3.141  0.00  0.00     0.032 A 
ATOM     37  N   LIG d   1       5.568   1.028  -2.404  0.00  0.00    -0.263 NA
ATOM     38  H   LIG d   1       6.996  -0.215  -3.260  0.00  0.00     0.083 H 
ATOM     39  C   LIG d   1       4.296   1.324  -2.226  0.00  0.00     0.028 A 
ATOM     40  C   LIG d   1       3.303   0.563  -2.814  0.00  0.00    -0.043 A 
ATOM     41  H   LIG d   1       4.026   2.171  -1.613  0.00  0.00     0.083 H 
ATOM     42  C   LIG d   1       3.660  -0.523  -3.599  0.00  0.00    -0.054 A 
ATOM     43  H   LIG d   1       2.263   0.810  -2.665  0.00  0.00     0.063 H 
ATOM     44  H   LIG d   1       2.906  -1.135  -4.072  0.00  0.00     0.062 H 
ENDBRANCH   6  35
TORSDOF 8
ENDMDL
MODEL 7
REMARK VINA RESULT:      -5.2      2.093      3.565
REMARK  8 active torsions:
REMARK  status: ('A' for Active; 'I' for Inactive)
REMARK    1  A    between atoms: C_1  and  C_2 
REMARK    2  A    between atoms: C_2  and  C_3 
REMARK    3  A    between atoms: C_3  and  C_4 
REMARK    4  A    between atoms: C_3  and  C_5 
REMARK    5  A    between atoms: C_3  and  O_21 
REMARK    6  A    between atoms: C_6  and  C_7 
REMARK    7  A    between atoms: C_7  and  N_8 
REMARK    8  A    between atoms: C_13  and  C_15 
ROOT
ATOM      1  N   LIG d   1       4.545  -0.194  -8.212  0.00  0.00    -0.284 N 
ATOM      2  C   LIG d   1       3.097  -0.122  -7.974  0.00  0.00     0.000 C 
ATOM      3  C   LIG d   1       2.433   0.674  -9.100  0.00  0.00    -0.040 C 
ATOM      4  C   LIG d   1       3.032   2.082  -9.145  0.00  0.00    -0.050 C 
ATOM      5  C   LIG d   1       4.547   1.978  -9.345  0.00  0.00    -0.033 C 
ATOM      6  C   LIG d   1       5.150   1.145  -8.212  0.00  0.00     0.038 C 
ATOM      7  H   LIG d   1       4.952   1.632  -7.257  0.00  0.00     0.051 H 
ATOM      8  H   LIG d   1       2.683  -1.130  -7.950  0.00  0.00     0.043 H 
ATOM      9  H   LIG d   1       2.909   0.371  -7.022  0.00  0.00     0.043 H 
ATOM     10  H   LIG d   1       2.609   0.173 -10.053  0.00  0.00     0.028 H 
ATOM     11  H   LIG d   1       1.360   0.740  -8.916  0.00  0.00     0.028 H 
ATOM     12  H   LIG d   1       2.592   2.639  -9.973  0.00  0.00     0.027 H 
ATOM     13  H   LIG d   1       2.823   2.597  -8.207  0.00  0.00     0.027 H 
ATOM     14  H   LIG d   1       4.756   1.498 -10.301  0.00  0.00     0.028 H 
ATOM     15  H   LIG d   1       4.984   2.976  -9.334  0.00  0.00     0.028 H 
ENDROOT
BRANCH   1  16
ATOM     16  C   LIG d   1       5.198  -1.066  -7.227  0.00  0.00     0.061 C 
ATOM     17  H   LIG d   1       6.256  -0.813  -7.163  0.00  0.00     0.056 H 
ATOM     18  H   LIG d   1       5.091  -2.106  -7.536  0.00  0.00     0.056 H 
BRANCH  16  19
ATOM     19  C   LIG d   1       4.566  -0.877  -5.910  0.00  0.00    -0.084 C 
ATOM     20  C   LIG d   1       4.063  -0.727  -4.861  0.00  0.00    -0.067 C 
BRANCH  20  21
ATOM     21  C   LIG d   1       3.431  -0.538  -3.545  0.00  0.00     0.123 C 
BRANCH  21  22
ATOM     22  C   LIG d   1       3.702   0.884  -3.048  0.00  0.00    -0.016 C 
ATOM     23  H   LIG d   1       2.756   1.388  -2.858  0.00  0.00     0.030 H 
ATOM     24  H   LIG d   1       4.261   1.433  -3.806  0.00  0.00     0.030 H 
BRANCH  22  25
ATOM     25  C   LIG d   1       4.518   0.826  -1.755  0.00  0.00    -0.062 C 
ATOM     26  H   LIG d   1       4.376   1.750  -1.195  0.00  0.00     0.023 H 
ATOM     27  H   LIG d   1       4.186  -0.020  -1.153  0.00  0.00     0.023 H 
ATOM     28  H   LIG d   1       5.574   0.707  -1.998  0.00  0.00     0.023 H 
ENDBRANCH  22  25
ENDBRANCH  21  22
BRANCH  21  29
ATOM     29  C   LIG d   1       4.014  -1.545  -2.550  0.00  0.00    -0.025 C 
ATOM     30  H   LIG d   1       4.692  -1.031  -1.869  0.00  0.00     0.027 H 
ATOM     31  H   LIG d   1       3.205  -2.003  -1.981  0.00  0.00     0.027 H 
ATOM     32  H   LIG d   1       4.559  -2.317  -3.092  0.00  0.00     0.027 H 
ENDBRANCH  21  29
BRANCH  21  33
ATOM     33  O   LIG d   1       2.022  -0.742  -3.658  0.00  0.00    -0.377 OA
ATOM     34  H   LIG d   1       1.572  -0.859  -2.810  0.00  0.00     0.211 HD
ENDBRANCH  21  33
ENDBRANCH  20  21
ENDBRANCH  16  19
ENDBRANCH   1  16
BRANCH   6  35
ATOM     35  C   LIG d   1       6.638   1.023  -8.414  0.00  0.00    -0.012 A 
ATOM     36  C   LIG d   1       7.512   1.379  -7.405  0.00  0.00     0.032 A 
ATOM     37  N   LIG d   1       8.816   1.270  -7.573  0.00  0.00    -0.263 NA
ATOM     38  H   LIG d   1       7.124   1.747  -6.467  0.00  0.00     0.083 H 
ATOM     39  C   LIG d   1       9.335   0.831  -8.702  0.00  0.00     0.028 A 
ATOM     40  C   LIG d   1       8.523   0.462  -9.758  0.00  0.00    -0.043 A 
ATOM     41  H   LIG d   1      10.408   0.760  -8.804  0.00  0.00     0.083 H 
ATOM     42  C   LIG d   1       7.147   0.558  -9.617  0.00  0.00    -0.054 A 
ATOM     43  H   LIG d   1       8.954   0.103 -10.681  0.00  0.00     0.063 H 
ATOM     44  H   LIG d   1       6.488   0.276 -10.425  0.00  0.00     0.062 H 
ENDBRANCH   6  35
TORSDOF 8
ENDMDL
MODEL 8
REMARK VINA RESULT:      -5.2      2.754      5.984
REMARK  8 active torsions:
REMARK  status: ('A' for Active; 'I' for Inactive)
REMARK    1  A    between atoms: C_1  and  C_2 
REMARK    2  A    between atoms: C_2  and  C_3 
REMARK    3  A    between atoms: C_3  and  C_4 
REMARK    4  A    between atoms: C_3  and  C_5 
REMARK    5  A    between atoms: C_3  and  O_21 
REMARK    6  A    between atoms: C_6  and  C_7 
REMARK    7  A    between atoms: C_7  and  N_8 
REMARK    8  A    between atoms: C_13  and  C_15 
ROOT
ATOM      1  N   LIG d   1       5.723  -1.790  -5.785  0.00  0.00    -0.284 N 
ATOM      2  C   LIG d   1       6.393  -2.264  -7.003  0.00  0.00     0.000 C 
ATOM      3  C   LIG d   1       7.599  -3.127  -6.621  0.00  0.00    -0.040 C 
ATOM      4  C   LIG d   1       8.567  -2.296  -5.775  0.00  0.00    -0.050 C 
ATOM      5  C   LIG d   1       7.831  -1.773  -4.537  0.00  0.00    -0.033 C 
ATOM      6  C   LIG d   1       6.620  -0.950  -4.979  0.00  0.00     0.038 C 
ATOM      7  H   LIG d   1       6.955  -0.102  -5.575  0.00  0.00     0.051 H 
ATOM      8  H   LIG d   1       5.695  -2.858  -7.594  0.00  0.00     0.043 H 
ATOM      9  H   LIG d   1       6.730  -1.410  -7.589  0.00  0.00     0.043 H 
ATOM     10  H   LIG d   1       7.261  -3.990  -6.046  0.00  0.00     0.028 H 
ATOM     11  H   LIG d   1       8.105  -3.466  -7.525  0.00  0.00     0.028 H 
ATOM     12  H   LIG d   1       9.406  -2.918  -5.464  0.00  0.00     0.027 H 
ATOM     13  H   LIG d   1       8.934  -1.454  -6.362  0.00  0.00     0.027 H 
ATOM     14  H   LIG d   1       7.498  -2.614  -3.930  0.00  0.00     0.028 H 
ATOM     15  H   LIG d   1       8.504  -1.145  -3.952  0.00  0.00     0.028 H 
ENDROOT
BRANCH   1  16
ATOM     16  C   LIG d   1       4.483  -1.074  -6.111  0.00  0.00     0.061 C 
ATOM     17  H   LIG d   1       4.177  -0.471  -5.256  0.00  0.00     0.056 H 
ATOM     18  H   LIG d   1       3.700  -1.793  -6.347  0.00  0.00     0.056 H 
BRANCH  16  19
ATOM     19  C   LIG d   1       4.713  -0.198  -7.272  0.00  0.00    -0.084 C 
ATOM     20  C   LIG d   1       4.896   0.500  -8.198  0.00  0.00    -0.067 C 
BRANCH  20  21
ATOM     21  C   LIG d   1       5.127   1.375  -9.359  0.00  0.00     0.123 C 
BRANCH  21  22
ATOM     22  C   LIG d   1       4.235   2.614  -9.248  0.00  0.00    -0.016 C 
ATOM     23  H   LIG d   1       4.245   3.154 -10.194  0.00  0.00     0.030 H 
ATOM     24  H   LIG d   1       4.610   3.262  -8.456  0.00  0.00     0.030 H 
BRANCH  22  25
ATOM     25  C   LIG d   1       2.803   2.185  -8.921  0.00  0.00    -0.062 C 
ATOM     26  H   LIG d   1       2.612   2.337  -7.859  0.00  0.00     0.023 H 
ATOM     27  H   LIG d   1       2.103   2.780  -9.506  0.00  0.00     0.023 H 
ATOM     28  H   LIG d   1       2.676   1.130  -9.165  0.00  0.00     0.023 H 
ENDBRANCH  22  25
ENDBRANCH  21  22
BRANCH  21  29
ATOM     29  C   LIG d   1       4.788   0.617 -10.644  0.00  0.00    -0.025 C 
ATOM     30  H   LIG d   1       4.401  -0.371 -10.392  0.00  0.00     0.027 H 
ATOM     31  H   LIG d   1       4.035   1.171 -11.204  0.00  0.00     0.027 H 
ATOM     32  H   LIG d   1       5.687   0.510 -11.251  0.00  0.00     0.027 H 
ENDBRANCH  21  29
BRANCH  21  33
ATOM     33  O   LIG d   1       6.498   1.776  -9.389  0.00  0.00    -0.377 OA
ATOM     34  H   LIG d   1       6.822   2.131  -8.550  0.00  0.00     0.211 HD
ENDBRANCH  21  33
ENDBRANCH  20  21
ENDBRANCH  16  19
ENDBRANCH   1  16
BRANCH   6  35
ATOM     35  C   LIG d   1       5.882  -0.450  -3.765  0.00  0.00    -0.012 A 
ATOM     36  C   LIG d   1       5.965   0.880  -3.394  0.00  0.00     0.032 A 
ATOM     37  N   LIG d   1       5.317   1.326  -2.335  0.00  0.00    -0.263 NA
ATOM     38  H   LIG d   1       6.564   1.560  -3.980  0.00  0.00     0.083 H 
ATOM     39  C   LIG d   1       4.579   0.530  -1.588  0.00  0.00     0.028 A 
ATOM     40  C   LIG d   1       4.452  -0.812  -1.894  0.00  0.00    -0.043 A 
ATOM     41  H   LIG d   1       4.066   0.931  -0.726  0.00  0.00     0.083 H 
ATOM     42  C   LIG d   1       5.115  -1.317  -3.002  0.00  0.00    -0.054 A 
ATOM     43  H   LIG d   1       3.846  -1.460  -1.278  0.00  0.00     0.063 H 
ATOM     44  H   LIG d   1       5.034  -2.361  -3.266  0.00  0.00     0.062 H 
ENDBRANCH   6  35
TORSDOF 8
ENDMDL
MODEL 9
REMARK VINA RESULT:      -5.1      2.985      6.338
REMARK  8 active torsions:
REMARK  status: ('A' for Active; 'I' for Inactive)
REMARK    1  A    between atoms: C_1  and  C_2 
REMARK    2  A    between atoms: C_2  and  C_3 
REMARK    3  A    between atoms: C_3  and  C_4 
REMARK    4  A    between atoms: C_3  and  C_5 
REMARK    5  A    between atoms: C_3  and  O_21 
REMARK    6  A    between atoms: C_6  and  C_7 
REMARK    7  A    between atoms: C_7  and  N_8 
REMARK    8  A    between atoms: C_13  and  C_15 
ROOT
ATOM      1  N   LIG d   1       7.023  -0.443  -5.397  0.00  0.00    -0.284 N 
ATOM      2  C   LIG d   1       8.126   0.218  -6.107  0.00  0.00     0.000 C 
ATOM      3  C   LIG d   1       9.129   0.770  -5.091  0.00  0.00    -0.040 C 
ATOM      4  C   LIG d   1       8.420   1.767  -4.171  0.00  0.00    -0.050 C 
ATOM      5  C   LIG d   1       7.246   1.067  -3.480  0.00  0.00    -0.033 C 
ATOM      6  C   LIG d   1       6.297   0.506  -4.542  0.00  0.00     0.038 C 
ATOM      7  H   LIG d   1       5.912   1.323  -5.153  0.00  0.00     0.051 H 
ATOM      8  H   LIG d   1       8.625  -0.503  -6.754  0.00  0.00     0.043 H 
ATOM      9  H   LIG d   1       7.732   1.036  -6.709  0.00  0.00     0.043 H 
ATOM     10  H   LIG d   1       9.534  -0.050  -4.497  0.00  0.00     0.028 H 
ATOM     11  H   LIG d   1       9.941   1.274  -5.618  0.00  0.00     0.028 H 
ATOM     12  H   LIG d   1       9.121   2.131  -3.419  0.00  0.00     0.027 H 
ATOM     13  H   LIG d   1       8.049   2.606  -4.759  0.00  0.00     0.027 H 
ATOM     14  H   LIG d   1       7.621   0.252  -2.861  0.00  0.00     0.028 H 
ATOM     15  H   LIG d   1       6.711   1.783  -2.856  0.00  0.00     0.028 H 
ENDROOT
BRANCH   1  16
ATOM     16  C   LIG d   1       6.112  -1.104  -6.339  0.00  0.00     0.061 C 
ATOM     17  H   LIG d   1       5.233  -1.464  -5.804  0.00  0.00     0.056 H 
ATOM     18  H   LIG d   1       6.621  -1.946  -6.807  0.00  0.00     0.056 H 
BRANCH  16  19
ATOM     19  C   LIG d   1       5.696  -0.144  -7.376  0.00  0.00    -0.084 C 
ATOM     20  C   LIG d   1       5.365   0.621  -8.202  0.00  0.00    -0.067 C 
BRANCH  20  21
ATOM     21  C   LIG d   1       4.948   1.580  -9.238  0.00  0.00     0.123 C 
BRANCH  21  22
ATOM     22  C   LIG d   1       3.612   2.211  -8.840  0.00  0.00    -0.016 C 
ATOM     23  H   LIG d   1       3.431   3.094  -9.452  0.00  0.00     0.030 H 
ATOM     24  H   LIG d   1       3.643   2.497  -7.789  0.00  0.00     0.030 H 
BRANCH  22  25
ATOM     25  C   LIG d   1       2.485   1.199  -9.060  0.00  0.00    -0.062 C 
ATOM     26  H   LIG d   1       1.528   1.722  -9.086  0.00  0.00     0.023 H 
ATOM     27  H   LIG d   1       2.641   0.680 -10.006  0.00  0.00     0.023 H 
ATOM     28  H   LIG d   1       2.482   0.477  -8.244  0.00  0.00     0.023 H 
ENDBRANCH  22  25
ENDBRANCH  21  22
BRANCH  21  29
ATOM     29  C   LIG d   1       4.791   0.851 -10.574  0.00  0.00    -0.025 C 
ATOM     30  H   LIG d   1       3.918   1.240 -11.099  0.00  0.00     0.027 H 
ATOM     31  H   LIG d   1       5.681   1.011 -11.182  0.00  0.00     0.027 H 
ATOM     32  H   LIG d   1       4.661  -0.215 -10.393  0.00  0.00     0.027 H 
ENDBRANCH  21  29
BRANCH  21  33
ATOM     33  O   LIG d   1       5.937   2.603  -9.366  0.00  0.00    -0.377 OA
ATOM     34  H   LIG d   1       5.600   3.497  -9.217  0.00  0.00     0.211 HD
ENDBRANCH  21  33
ENDBRANCH  20  21
ENDBRANCH  16  19
ENDBRANCH   1  16
BRANCH   6  35
ATOM     35  C   LIG d   1       5.150  -0.201  -3.868  0.00  0.00    -0.012 A 
ATOM     36  C   LIG d   1       3.845   0.151  -4.158  0.00  0.00     0.032 A 
ATOM     37  N   LIG d   1       2.835  -0.467  -3.576  0.00  0.00    -0.263 NA
ATOM     38  H   LIG d   1       3.650   0.938  -4.871  0.00  0.00     0.083 H 
ATOM     39  C   LIG d   1       3.026  -1.429  -2.695  0.00  0.00     0.028 A 
ATOM     40  C   LIG d   1       4.304  -1.831  -2.352  0.00  0.00    -0.043 A 
ATOM     41  H   LIG d   1       2.175  -1.910  -2.237  0.00  0.00     0.083 H 
ATOM     42  C   LIG d   1       5.390  -1.208  -2.946  0.00  0.00    -0.054 A 
ATOM     43  H   LIG d   1       4.454  -2.620  -1.630  0.00  0.00     0.063 H 
ATOM     44  H   LIG d   1       6.399  -1.501  -2.698  0.00  0.00     0.062 H 
ENDBRANCH   6  35
TORSDOF 8
ENDMDL
MODEL 10
REMARK VINA RESULT:      -5.0      3.762      6.206
REMARK  8 active torsions:
REMARK  status: ('A' for Active; 'I' for Inactive)
REMARK    1  A    between atoms: C_1  and  C_2 
REMARK    2  A    between atoms: C_2  and  C_3 
REMARK    3  A    between atoms: C_3  and  C_4 
REMARK    4  A    between atoms: C_3  and  C_5 
REMARK    5  A    between atoms: C_3  and  O_21 
REMARK    6  A    between atoms: C_6  and  C_7 
REMARK    7  A    between atoms: C_7  and  N_8 
REMARK    8  A    between atoms: C_13  and  C_15 
ROOT
ATOM      1  N   LIG d   1       5.765  -0.637  -3.721  0.00  0.00    -0.284 N 
ATOM      2  C   LIG d   1       5.708   0.634  -2.988  0.00  0.00     0.000 C 
ATOM      3  C   LIG d   1       4.627   0.553  -1.907  0.00  0.00    -0.040 C 
ATOM      4  C   LIG d   1       3.276   0.261  -2.564  0.00  0.00    -0.050 C 
ATOM      5  C   LIG d   1       3.375  -1.043  -3.361  0.00  0.00    -0.033 C 
ATOM      6  C   LIG d   1       4.492  -0.916  -4.400  0.00  0.00     0.038 C 
ATOM      7  H   LIG d   1       4.261  -0.100  -5.085  0.00  0.00     0.051 H 
ATOM      8  H   LIG d   1       6.674   0.827  -2.521  0.00  0.00     0.043 H 
ATOM      9  H   LIG d   1       5.470   1.442  -3.679  0.00  0.00     0.043 H 
ATOM     10  H   LIG d   1       4.872  -0.246  -1.207  0.00  0.00     0.028 H 
ATOM     11  H   LIG d   1       4.575   1.502  -1.372  0.00  0.00     0.028 H 
ATOM     12  H   LIG d   1       2.510   0.160  -1.794  0.00  0.00     0.027 H 
ATOM     13  H   LIG d   1       3.013   1.079  -3.236  0.00  0.00     0.027 H 
ATOM     14  H   LIG d   1       3.600  -1.867  -2.685  0.00  0.00     0.028 H 
ATOM     15  H   LIG d   1       2.429  -1.233  -3.867  0.00  0.00     0.028 H 
ENDROOT
BRANCH   1  16
ATOM     16  C   LIG d   1       6.882  -0.647  -4.674  0.00  0.00     0.061 C 
ATOM     17  H   LIG d   1       7.431   0.292  -4.599  0.00  0.00     0.056 H 
ATOM     18  H   LIG d   1       6.496  -0.762  -5.686  0.00  0.00     0.056 H 
BRANCH  16  19
ATOM     19  C   LIG d   1       7.784  -1.769  -4.361  0.00  0.00    -0.084 C 
ATOM     20  C   LIG d   1       8.502  -2.662  -4.112  0.00  0.00    -0.067 C 
BRANCH  20  21
ATOM     21  C   LIG d   1       9.403  -3.784  -3.801  0.00  0.00     0.123 C 
BRANCH  21  22
ATOM     22  C   LIG d   1      10.739  -3.578  -4.517  0.00  0.00    -0.016 C 
ATOM     23  H   LIG d   1      10.713  -2.641  -5.072  0.00  0.00     0.030 H 
ATOM     24  H   LIG d   1      10.913  -4.405  -5.207  0.00  0.00     0.030 H 
BRANCH  22  25
ATOM     25  C   LIG d   1      11.869  -3.529  -3.486  0.00  0.00    -0.062 C 
ATOM     26  H   LIG d   1      11.452  -3.644  -2.485  0.00  0.00     0.023 H 
ATOM     27  H   LIG d   1      12.575  -4.335  -3.681  0.00  0.00     0.023 H 
ATOM     28  H   LIG d   1      12.383  -2.570  -3.557  0.00  0.00     0.023 H 
ENDBRANCH  22  25
ENDBRANCH  21  22
BRANCH  21  29
ATOM     29  C   LIG d   1       8.768  -5.094  -4.273  0.00  0.00    -0.025 C 
ATOM     30  H   LIG d   1       9.537  -5.736  -4.702  0.00  0.00     0.027 H 
ATOM     31  H   LIG d   1       8.304  -5.599  -3.425  0.00  0.00     0.027 H 
ATOM     32  H   LIG d   1       8.011  -4.880  -5.027  0.00  0.00     0.027 H 
ENDBRANCH  21  29
BRANCH  21  33
ATOM     33  O   LIG d   1       9.623  -3.842  -2.390  0.00  0.00    -0.377 OA
ATOM     34  H   LIG d   1       8.902  -3.470  -1.864  0.00  0.00     0.211 HD
ENDBRANCH  21  33
ENDBRANCH  20  21
ENDBRANCH  16  19
ENDBRANCH   1  16
BRANCH   6  35
ATOM     35  C   LIG d   1       4.607  -2.203  -5.174  0.00  0.00    -0.012 A 
ATOM     36  C   LIG d   1       4.503  -2.202  -6.553  0.00  0.00     0.032 A 
ATOM     37  N   LIG d   1       4.608  -3.325  -7.238  0.00  0.00    -0.263 NA
ATOM     38  H   LIG d   1       4.337  -1.272  -7.074  0.00  0.00     0.083 H 
ATOM     39  C   LIG d   1       4.805  -4.484  -6.642  0.00  0.00     0.028 A 
ATOM     40  C   LIG d   1       4.915  -4.564  -5.266  0.00  0.00    -0.043 A 
ATOM     41  H   LIG d   1       4.882  -5.383  -7.236  0.00  0.00     0.083 H 
ATOM     42  C   LIG d   1       4.814  -3.404  -4.513  0.00  0.00    -0.054 A 
ATOM     43  H   LIG d   1       5.076  -5.516  -4.784  0.00  0.00     0.063 H 
ATOM     44  H   LIG d   1       4.896  -3.435  -3.437  0.00  0.00     0.062 H 
ENDBRANCH   6  35
TORSDOF 8
ENDMDL
