MODEL 1
REMARK VINA RESULT:      -5.6      0.000      0.000
REMARK  2 active torsions:
REMARK  status: ('A' for Active; 'I' for Inactive)
REMARK    1  A    between atoms: C_4  and  C_7 
REMARK    2  A    between atoms: C_7  and  N_18 
ROOT
ATOM      1  C   LIG d   1       2.416   0.576  -4.917  0.00  0.00     0.089 C 
ATOM      2  H   LIG d   1       1.381   0.235  -4.872  0.00  0.00     0.107 H 
ATOM      3  C   LIG d   1       3.042   0.077  -6.152  0.00  0.00     0.121 C 
ATOM      4  N   LIG d   1       3.526  -0.308  -7.105  0.00  0.00    -0.190 NA
ENDROOT
BRANCH   1   5
ATOM      5  C   LIG d   1       3.170   0.051  -3.723  0.00  0.00     0.015 A 
ATOM      6  C   LIG d   1       3.218  -1.309  -3.479  0.00  0.00    -0.052 A 
ATOM      7  C   LIG d   1       3.911  -1.791  -2.384  0.00  0.00    -0.061 A 
ATOM      8  H   LIG d   1       2.719  -1.995  -4.146  0.00  0.00     0.062 H 
ATOM      9  C   LIG d   1       4.556  -0.913  -1.533  0.00  0.00    -0.062 A 
ATOM     10  H   LIG d   1       3.949  -2.853  -2.193  0.00  0.00     0.062 H 
ATOM     11  C   LIG d   1       4.507   0.448  -1.777  0.00  0.00    -0.061 A 
ATOM     12  H   LIG d   1       5.097  -1.289  -0.677  0.00  0.00     0.062 H 
ATOM     13  C   LIG d   1       3.815   0.929  -2.873  0.00  0.00    -0.052 A 
ATOM     14  H   LIG d   1       5.011   1.134  -1.112  0.00  0.00     0.062 H 
ATOM     15  H   LIG d   1       3.777   1.991  -3.062  0.00  0.00     0.062 H 
ENDBRANCH   1   5
BRANCH   1  16
ATOM     16  N   LIG d   1       2.437   2.048  -4.888  0.00  0.00     0.235 N 
ATOM     17  H   LIG d   1       1.765   2.394  -4.206  0.00  0.00     0.201 HD
ATOM     18  H   LIG d   1       3.369   2.380  -4.645  0.00  0.00     0.201 HD
ATOM     19  H   LIG d   1       2.186   2.408  -5.817  0.00  0.00     0.201 HD
ENDBRANCH   1  16
TORSDOF 2
ENDMDL
MODEL 2
REMARK VINA RESULT:      -5.1      2.324      3.508
REMARK  2 active torsions:
REMARK  status: ('A' for Active; 'I' for Inactive)
REMARK    1  A    between atoms: C_4  and  C_7 
REMARK    2  A    between atoms: C_7  and  N_18 
ROOT
ATOM      1  C   LIG d   1       4.699  -2.550  -3.718  0.00  0.00     0.089 C 
ATOM      2  H   LIG d   1       4.441  -3.265  -2.936  0.00  0.00     0.107 H 
ATOM      3  C   LIG d   1       6.148  -2.606  -3.974  0.00  0.00     0.121 C 
ATOM      4  N   LIG d   1       7.266  -2.650  -4.172  0.00  0.00    -0.190 NA
ENDROOT
BRANCH   1   5
ATOM      5  C   LIG d   1       4.322  -1.161  -3.274  0.00  0.00     0.015 A 
ATOM      6  C   LIG d   1       4.813  -0.658  -2.082  0.00  0.00    -0.052 A 
ATOM      7  C   LIG d   1       4.467   0.617  -1.675  0.00  0.00    -0.061 A 
ATOM      8  H   LIG d   1       5.470  -1.260  -1.473  0.00  0.00     0.062 H 
ATOM      9  C   LIG d   1       3.630   1.389  -2.458  0.00  0.00    -0.062 A 
ATOM     10  H   LIG d   1       4.850   1.009  -0.745  0.00  0.00     0.062 H 
ATOM     11  C   LIG d   1       3.139   0.886  -3.649  0.00  0.00    -0.061 A 
ATOM     12  H   LIG d   1       3.359   2.385  -2.140  0.00  0.00     0.062 H 
ATOM     13  C   LIG d   1       3.486  -0.388  -4.057  0.00  0.00    -0.052 A 
ATOM     14  H   LIG d   1       2.484   1.491  -4.261  0.00  0.00     0.062 H 
ATOM     15  H   LIG d   1       3.101  -0.780  -4.986  0.00  0.00     0.062 H 
ENDBRANCH   1   5
BRANCH   1  16
ATOM     16  N   LIG d   1       3.948  -2.883  -4.940  0.00  0.00     0.235 N 
ATOM     17  H   LIG d   1       4.421  -3.628  -5.449  0.00  0.00     0.201 HD
ATOM     18  H   LIG d   1       3.004  -3.182  -4.700  0.00  0.00     0.201 HD
ATOM     19  H   LIG d   1       3.893  -2.051  -5.540  0.00  0.00     0.201 HD
ENDBRANCH   1  16
TORSDOF 2
ENDMDL
MODEL 3
REMARK VINA RESULT:      -5.0      3.294      3.933
REMARK  2 active torsions:
REMARK  status: ('A' for Active; 'I' for Inactive)
REMARK    1  A    between atoms: C_4  and  C_7 
REMARK    2  A    between atoms: C_7  and  N_18 
ROOT
ATOM      1  C   LIG d   1       7.464   0.512  -4.399  0.00  0.00     0.089 C 
ATOM      2  H   LIG d   1       8.133  -0.344  -4.502  0.00  0.00     0.107 H 
ATOM      3  C   LIG d   1       8.211   1.653  -3.846  0.00  0.00     0.121 C 
ATOM      4  N   LIG d   1       8.788   2.534  -3.419  0.00  0.00    -0.190 NA
ENDROOT
BRANCH   1   5
ATOM      5  C   LIG d   1       6.332   0.156  -3.471  0.00  0.00     0.015 A 
ATOM      6  C   LIG d   1       5.999  -1.170  -3.263  0.00  0.00    -0.052 A 
ATOM      7  C   LIG d   1       4.961  -1.496  -2.411  0.00  0.00    -0.061 A 
ATOM      8  H   LIG d   1       6.553  -1.950  -3.762  0.00  0.00     0.062 H 
ATOM      9  C   LIG d   1       4.255  -0.498  -1.767  0.00  0.00    -0.062 A 
ATOM     10  H   LIG d   1       4.700  -2.532  -2.248  0.00  0.00     0.062 H 
ATOM     11  C   LIG d   1       4.588   0.828  -1.975  0.00  0.00    -0.061 A 
ATOM     12  H   LIG d   1       3.443  -0.752  -1.101  0.00  0.00     0.062 H 
ATOM     13  C   LIG d   1       5.627   1.155  -2.827  0.00  0.00    -0.052 A 
ATOM     14  H   LIG d   1       4.036   1.609  -1.472  0.00  0.00     0.062 H 
ATOM     15  H   LIG d   1       5.885   2.190  -2.989  0.00  0.00     0.062 H 
ENDBRANCH   1   5
BRANCH   1  16
ATOM     16  N   LIG d   1       6.912   0.852  -5.721  0.00  0.00     0.235 N 
ATOM     17  H   LIG d   1       6.239   1.612  -5.634  0.00  0.00     0.201 HD
ATOM     18  H   LIG d   1       7.661   1.131  -6.352  0.00  0.00     0.201 HD
ATOM     19  H   LIG d   1       6.437   0.028  -6.110  0.00  0.00     0.201 HD
ENDBRANCH   1  16
TORSDOF 2
ENDMDL
MODEL 4
REMARK VINA RESULT:      -4.9      2.851      3.769
REMARK  2 active torsions:
REMARK  status: ('A' for Active; 'I' for Inactive)
REMARK    1  A    between atoms: C_4  and  C_7 
REMARK    2  A    between atoms: C_7  and  N_18 
ROOT
ATOM      1  C   LIG d   1       6.960  -0.177  -3.321  0.00  0.00     0.089 C 
ATOM      2  H   LIG d   1       7.376   0.365  -2.471  0.00  0.00     0.107 H 
ATOM      3  C   LIG d   1       7.151   0.613  -4.547  0.00  0.00     0.121 C 
ATOM      4  N   LIG d   1       7.299   1.224  -5.495  0.00  0.00    -0.190 NA
ENDROOT
BRANCH   1   5
ATOM      5  C   LIG d   1       5.489  -0.409  -3.097  0.00  0.00     0.015 A 
ATOM      6  C   LIG d   1       4.624   0.667  -3.010  0.00  0.00    -0.052 A 
ATOM      7  C   LIG d   1       3.274   0.453  -2.805  0.00  0.00    -0.061 A 
ATOM      8  H   LIG d   1       5.003   1.673  -3.107  0.00  0.00     0.062 H 
ATOM      9  C   LIG d   1       2.787  -0.835  -2.687  0.00  0.00    -0.062 A 
ATOM     10  H   LIG d   1       2.598   1.293  -2.737  0.00  0.00     0.062 H 
ATOM     11  C   LIG d   1       3.652  -1.911  -2.773  0.00  0.00    -0.061 A 
ATOM     12  H   LIG d   1       1.732  -1.002  -2.527  0.00  0.00     0.062 H 
ATOM     13  C   LIG d   1       5.002  -1.697  -2.979  0.00  0.00    -0.052 A 
ATOM     14  H   LIG d   1       3.272  -2.918  -2.680  0.00  0.00     0.062 H 
ATOM     15  H   LIG d   1       5.677  -2.538  -3.046  0.00  0.00     0.062 H 
ENDBRANCH   1   5
BRANCH   1  16
ATOM     16  N   LIG d   1       7.639  -1.479  -3.437  0.00  0.00     0.235 N 
ATOM     17  H   LIG d   1       8.546  -1.443  -2.977  0.00  0.00     0.201 HD
ATOM     18  H   LIG d   1       7.070  -2.210  -3.011  0.00  0.00     0.201 HD
ATOM     19  H   LIG d   1       7.777  -1.700  -4.431  0.00  0.00     0.201 HD
ENDBRANCH   1  16
TORSDOF 2
ENDMDL
MODEL 5
REMARK VINA RESULT:      -4.8      1.452      2.579
REMARK  2 active torsions:
REMARK  status: ('A' for Active; 'I' for Inactive)
REMARK    1  A    between atoms: C_4  and  C_7 
REMARK    2  A    between atoms: C_7  and  N_18 
ROOT
ATOM      1  C   LIG d   1       4.623  -1.155  -5.907  0.00  0.00     0.089 C 
ATOM      2  H   LIG d   1       5.652  -1.018  -6.243  0.00  0.00     0.107 H 
ATOM      3  C   LIG d   1       3.769  -0.122  -6.513  0.00  0.00     0.121 C 
ATOM      4  N   LIG d   1       3.109   0.676  -6.981  0.00  0.00    -0.190 NA
ENDROOT
BRANCH   1   5
ATOM      5  C   LIG d   1       4.564  -1.040  -4.407  0.00  0.00     0.015 A 
ATOM      6  C   LIG d   1       5.036   0.100  -3.782  0.00  0.00    -0.052 A 
ATOM      7  C   LIG d   1       4.981   0.206  -2.405  0.00  0.00    -0.061 A 
ATOM      8  H   LIG d   1       5.442   0.909  -4.370  0.00  0.00     0.062 H 
ATOM      9  C   LIG d   1       4.455  -0.826  -1.652  0.00  0.00    -0.062 A 
ATOM     10  H   LIG d   1       5.350   1.097  -1.916  0.00  0.00     0.062 H 
ATOM     11  C   LIG d   1       3.984  -1.967  -2.277  0.00  0.00    -0.061 A 
ATOM     12  H   LIG d   1       4.412  -0.744  -0.576  0.00  0.00     0.062 H 
ATOM     13  C   LIG d   1       4.038  -2.072  -3.654  0.00  0.00    -0.052 A 
ATOM     14  H   LIG d   1       3.573  -2.774  -1.688  0.00  0.00     0.062 H 
ATOM     15  H   LIG d   1       3.670  -2.963  -4.141  0.00  0.00     0.062 H 
ENDBRANCH   1   5
BRANCH   1  16
ATOM     16  N   LIG d   1       4.165  -2.498  -6.303  0.00  0.00     0.235 N 
ATOM     17  H   LIG d   1       4.446  -3.183  -5.604  0.00  0.00     0.201 HD
ATOM     18  H   LIG d   1       3.151  -2.508  -6.400  0.00  0.00     0.201 HD
ATOM     19  H   LIG d   1       4.589  -2.747  -7.205  0.00  0.00     0.201 HD
ENDBRANCH   1  16
TORSDOF 2
ENDMDL
MODEL 6
REMARK VINA RESULT:      -4.7      3.547      4.113
REMARK  2 active torsions:
REMARK  status: ('A' for Active; 'I' for Inactive)
REMARK    1  A    between atoms: C_4  and  C_7 
REMARK    2  A    between atoms: C_7  and  N_18 
ROOT
ATOM      1  C   LIG d   1       7.373  -1.062  -4.417  0.00  0.00     0.089 C 
ATOM      2  H   LIG d   1       6.994  -1.086  -5.439  0.00  0.00     0.107 H 
ATOM      3  C   LIG d   1       7.861  -2.400  -4.044  0.00  0.00     0.121 C 
ATOM      4  N   LIG d   1       8.238  -3.433  -3.757  0.00  0.00    -0.190 NA
ENDROOT
BRANCH   1   5
ATOM      5  C   LIG d   1       6.266  -0.653  -3.481  0.00  0.00     0.015 A 
ATOM      6  C   LIG d   1       5.432  -1.611  -2.935  0.00  0.00    -0.052 A 
ATOM      7  C   LIG d   1       4.417  -1.235  -2.075  0.00  0.00    -0.061 A 
ATOM      8  H   LIG d   1       5.577  -2.653  -3.176  0.00  0.00     0.062 H 
ATOM      9  C   LIG d   1       4.235   0.099  -1.761  0.00  0.00    -0.062 A 
ATOM     10  H   LIG d   1       3.765  -1.983  -1.649  0.00  0.00     0.062 H 
ATOM     11  C   LIG d   1       5.069   1.057  -2.308  0.00  0.00    -0.061 A 
ATOM     12  H   LIG d   1       3.442   0.393  -1.090  0.00  0.00     0.062 H 
ATOM     13  C   LIG d   1       6.085   0.681  -3.166  0.00  0.00    -0.052 A 
ATOM     14  H   LIG d   1       4.927   2.100  -2.062  0.00  0.00     0.062 H 
ATOM     15  H   LIG d   1       6.735   1.430  -3.593  0.00  0.00     0.062 H 
ENDBRANCH   1   5
BRANCH   1  16
ATOM     16  N   LIG d   1       8.463  -0.075  -4.331  0.00  0.00     0.235 N 
ATOM     17  H   LIG d   1       8.850  -0.063  -3.389  0.00  0.00     0.201 HD
ATOM     18  H   LIG d   1       9.198  -0.307  -4.998  0.00  0.00     0.201 HD
ATOM     19  H   LIG d   1       8.092   0.857  -4.553  0.00  0.00     0.201 HD
ENDBRANCH   1  16
TORSDOF 2
ENDMDL
MODEL 7
REMARK VINA RESULT:      -4.6      1.347      1.493
REMARK  2 active torsions:
REMARK  status: ('A' for Active; 'I' for Inactive)
REMARK    1  A    between atoms: C_4  and  C_7 
REMARK    2  A    between atoms: C_7  and  N_18 
ROOT
ATOM      1  C   LIG d   1       3.711  -0.416  -5.873  0.00  0.00     0.089 C 
ATOM      2  H   LIG d   1       3.111  -1.276  -6.173  0.00  0.00     0.107 H 
ATOM      3  C   LIG d   1       5.007  -0.457  -6.568  0.00  0.00     0.121 C 
ATOM      4  N   LIG d   1       6.008  -0.489  -7.105  0.00  0.00    -0.190 NA
ENDROOT
BRANCH   1   5
ATOM      5  C   LIG d   1       3.937  -0.455  -4.385  0.00  0.00     0.015 A 
ATOM      6  C   LIG d   1       4.350  -1.628  -3.778  0.00  0.00    -0.052 A 
ATOM      7  C   LIG d   1       4.558  -1.663  -2.412  0.00  0.00    -0.061 A 
ATOM      8  H   LIG d   1       4.514  -2.514  -4.372  0.00  0.00     0.062 H 
ATOM      9  C   LIG d   1       4.355  -0.527  -1.652  0.00  0.00    -0.062 A 
ATOM     10  H   LIG d   1       4.881  -2.579  -1.939  0.00  0.00     0.062 H 
ATOM     11  C   LIG d   1       3.942   0.646  -2.259  0.00  0.00    -0.061 A 
ATOM     12  H   LIG d   1       4.518  -0.554  -0.585  0.00  0.00     0.062 H 
ATOM     13  C   LIG d   1       3.734   0.681  -3.625  0.00  0.00    -0.052 A 
ATOM     14  H   LIG d   1       3.782   1.534  -1.664  0.00  0.00     0.062 H 
ATOM     15  H   LIG d   1       3.411   1.597  -4.097  0.00  0.00     0.062 H 
ENDBRANCH   1   5
BRANCH   1  16
ATOM     16  N   LIG d   1       2.983   0.818  -6.215  0.00  0.00     0.235 N 
ATOM     17  H   LIG d   1       3.318   1.591  -5.643  0.00  0.00     0.201 HD
ATOM     18  H   LIG d   1       3.116   1.042  -7.200  0.00  0.00     0.201 HD
ATOM     19  H   LIG d   1       1.981   0.680  -6.036  0.00  0.00     0.201 HD
ENDBRANCH   1  16
TORSDOF 2
ENDMDL
MODEL 8
REMARK VINA RESULT:      -4.4      2.997      3.900
REMARK  2 active torsions:
REMARK  status: ('A' for Active; 'I' for Inactive)
REMARK    1  A    between atoms: C_4  and  C_7 
REMARK    2  A    between atoms: C_7  and  N_18 
ROOT
ATOM      1  C   LIG d   1       5.287  -3.202  -5.424  0.00  0.00     0.089 C 
ATOM      2  H   LIG d   1       5.451  -2.714  -6.386  0.00  0.00     0.107 H 
ATOM      3  C   LIG d   1       4.502  -4.430  -5.626  0.00  0.00     0.121 C 
ATOM      4  N   LIG d   1       3.896  -5.379  -5.782  0.00  0.00    -0.190 NA
ENDROOT
BRANCH   1   5
ATOM      5  C   LIG d   1       4.534  -2.270  -4.511  0.00  0.00     0.015 A 
ATOM      6  C   LIG d   1       4.337  -2.610  -3.185  0.00  0.00    -0.052 A 
ATOM      7  C   LIG d   1       3.647  -1.754  -2.348  0.00  0.00    -0.061 A 
ATOM      8  H   LIG d   1       4.726  -3.542  -2.804  0.00  0.00     0.062 H 
ATOM      9  C   LIG d   1       3.154  -0.558  -2.834  0.00  0.00    -0.062 A 
ATOM     10  H   LIG d   1       3.492  -2.020  -1.312  0.00  0.00     0.062 H 
ATOM     11  C   LIG d   1       3.351  -0.218  -4.160  0.00  0.00    -0.061 A 
ATOM     12  H   LIG d   1       2.614   0.111  -2.180  0.00  0.00     0.062 H 
ATOM     13  C   LIG d   1       4.042  -1.074  -4.998  0.00  0.00    -0.052 A 
ATOM     14  H   LIG d   1       2.965   0.717  -4.541  0.00  0.00     0.062 H 
ATOM     15  H   LIG d   1       4.195  -0.808  -6.033  0.00  0.00     0.062 H 
ENDBRANCH   1   5
BRANCH   1  16
ATOM     16  N   LIG d   1       6.591  -3.518  -4.818  0.00  0.00     0.235 N 
ATOM     17  H   LIG d   1       6.478  -3.699  -3.822  0.00  0.00     0.201 HD
ATOM     18  H   LIG d   1       6.997  -4.337  -5.268  0.00  0.00     0.201 HD
ATOM     19  H   LIG d   1       7.224  -2.719  -4.943  0.00  0.00     0.201 HD
ENDBRANCH   1  16
TORSDOF 2
ENDMDL
MODEL 9
REMARK VINA RESULT:      -4.3      2.383      3.065
REMARK  2 active torsions:
REMARK  status: ('A' for Active; 'I' for Inactive)
REMARK    1  A    between atoms: C_4  and  C_7 
REMARK    2  A    between atoms: C_7  and  N_18 
ROOT
ATOM      1  C   LIG d   1       3.839  -0.035  -2.538  0.00  0.00     0.089 C 
ATOM      2  H   LIG d   1       3.028  -0.531  -2.002  0.00  0.00     0.107 H 
ATOM      3  C   LIG d   1       3.276   0.794  -3.616  0.00  0.00     0.121 C 
ATOM      4  N   LIG d   1       2.843   1.435  -4.449  0.00  0.00    -0.190 NA
ENDROOT
BRANCH   1   5
ATOM      5  C   LIG d   1       4.757  -1.072  -3.129  0.00  0.00     0.015 A 
ATOM      6  C   LIG d   1       4.231  -2.197  -3.738  0.00  0.00    -0.052 A 
ATOM      7  C   LIG d   1       5.074  -3.148  -4.281  0.00  0.00    -0.061 A 
ATOM      8  H   LIG d   1       3.161  -2.330  -3.793  0.00  0.00     0.062 H 
ATOM      9  C   LIG d   1       6.444  -2.976  -4.216  0.00  0.00    -0.062 A 
ATOM     10  H   LIG d   1       4.663  -4.027  -4.756  0.00  0.00     0.062 H 
ATOM     11  C   LIG d   1       6.970  -1.851  -3.607  0.00  0.00    -0.061 A 
ATOM     12  H   LIG d   1       7.103  -3.719  -4.640  0.00  0.00     0.062 H 
ATOM     13  C   LIG d   1       6.127  -0.900  -3.065  0.00  0.00    -0.052 A 
ATOM     14  H   LIG d   1       8.042  -1.716  -3.555  0.00  0.00     0.062 H 
ATOM     15  H   LIG d   1       6.539  -0.022  -2.589  0.00  0.00     0.062 H 
ENDBRANCH   1   5
BRANCH   1  16
ATOM     16  N   LIG d   1       4.601   0.798  -1.593  0.00  0.00     0.235 N 
ATOM     17  H   LIG d   1       4.005   1.081  -0.817  0.00  0.00     0.201 HD
ATOM     18  H   LIG d   1       5.401   0.279  -1.235  0.00  0.00     0.201 HD
ATOM     19  H   LIG d   1       4.938   1.638  -2.079  0.00  0.00     0.201 HD
ENDBRANCH   1  16
TORSDOF 2
ENDMDL
MODEL 10
REMARK VINA RESULT:      -4.2      2.314      4.259
REMARK  2 active torsions:
REMARK  status: ('A' for Active; 'I' for Inactive)
REMARK    1  A    between atoms: C_4  and  C_7 
REMARK    2  A    between atoms: C_7  and  N_18 
ROOT
ATOM      1  C   LIG d   1       3.278  -1.089  -2.967  0.00  0.00     0.089 C 
ATOM      2  H   LIG d   1       2.224  -1.063  -2.689  0.00  0.00     0.107 H 
ATOM      3  C   LIG d   1       4.019  -0.099  -2.170  0.00  0.00     0.121 C 
ATOM      4  N   LIG d   1       4.592   0.665  -1.554  0.00  0.00    -0.190 NA
ENDROOT
BRANCH   1   5
ATOM      5  C   LIG d   1       3.419  -0.762  -4.431  0.00  0.00     0.015 A 
ATOM      6  C   LIG d   1       2.623   0.213  -5.002  0.00  0.00    -0.052 A 
ATOM      7  C   LIG d   1       2.753   0.513  -6.345  0.00  0.00    -0.061 A 
ATOM      8  H   LIG d   1       1.903   0.744  -4.398  0.00  0.00     0.062 H 
ATOM      9  C   LIG d   1       3.679  -0.162  -7.117  0.00  0.00    -0.062 A 
ATOM     10  H   LIG d   1       2.131   1.275  -6.791  0.00  0.00     0.062 H 
ATOM     11  C   LIG d   1       4.475  -1.138  -6.546  0.00  0.00    -0.061 A 
ATOM     12  H   LIG d   1       3.781   0.072  -8.167  0.00  0.00     0.062 H 
ATOM     13  C   LIG d   1       4.346  -1.437  -5.203  0.00  0.00    -0.052 A 
ATOM     14  H   LIG d   1       5.199  -1.666  -7.151  0.00  0.00     0.062 H 
ATOM     15  H   LIG d   1       4.967  -2.200  -4.758  0.00  0.00     0.062 H 
ENDBRANCH   1   5
BRANCH   1  16
ATOM     16  N   LIG d   1       3.805  -2.443  -2.725  0.00  0.00     0.235 N 
ATOM     17  H   LIG d   1       3.180  -3.138  -3.129  0.00  0.00     0.201 HD
ATOM     18  H   LIG d   1       4.731  -2.538  -3.139  0.00  0.00     0.201 HD
ATOM     19  H   LIG d   1       3.873  -2.603  -1.713  0.00  0.00     0.201 HD
ENDBRANCH   1  16
TORSDOF 2
ENDMDL
