MODEL 1
REMARK VINA RESULT:      -2.6      0.000      0.000
REMARK  1 active torsions:
REMARK  status: ('A' for Active; 'I' for Inactive)
REMARK    1  A    between atoms: C_2  and  C_5 
ROOT
ATOM      1  C   LIG d   1       4.515   0.488  -1.877  0.00  0.00     0.082 A 
ATOM      2  C   LIG d   1       3.234   0.231  -2.673  0.00  0.00     0.137 A 
ATOM      3  H   LIG d   1       2.828  -0.635  -2.381  0.00  0.00     0.070 H 
ATOM      4  O   LIG d   1       3.458   1.446  -1.954  0.00  0.00    -0.364 OA
ATOM      5  H   LIG d   1       4.646  -0.050  -0.938  0.00  0.00     0.059 H 
ATOM      6  H   LIG d   1       5.428   0.693  -2.437  0.00  0.00     0.059 H 
ENDROOT
BRANCH   2   7
ATOM      7  C   LIG d   1       3.319   0.279  -4.177  0.00  0.00     0.151 C 
ATOM      8  O   LIG d   1       2.789   1.178  -4.783  0.00  0.00    -0.298 OA
ATOM      9  H   LIG d   1       3.854  -0.491  -4.712  0.00  0.00     0.105 H 
ENDBRANCH   2   7
TORSDOF 1
ENDMDL
MODEL 2
REMARK VINA RESULT:      -2.6      1.920      2.257
REMARK  1 active torsions:
REMARK  status: ('A' for Active; 'I' for Inactive)
REMARK    1  A    between atoms: C_2  and  C_5 
ROOT
ATOM      1  C   LIG d   1       5.010   1.025  -2.500  0.00  0.00     0.082 A 
ATOM      2  C   LIG d   1       4.337  -0.196  -1.868  0.00  0.00     0.137 A 
ATOM      3  H   LIG d   1       5.000  -0.687  -1.303  0.00  0.00     0.070 H 
ATOM      4  O   LIG d   1       3.801   1.123  -1.745  0.00  0.00    -0.364 OA
ATOM      5  H   LIG d   1       5.928   1.393  -2.040  0.00  0.00     0.059 H 
ATOM      6  H   LIG d   1       4.945   1.138  -3.582  0.00  0.00     0.059 H 
ENDROOT
BRANCH   2   7
ATOM      7  C   LIG d   1       3.627  -1.159  -2.785  0.00  0.00     0.151 C 
ATOM      8  O   LIG d   1       3.599  -2.336  -2.518  0.00  0.00    -0.298 OA
ATOM      9  H   LIG d   1       3.145  -0.796  -3.680  0.00  0.00     0.105 H 
ENDBRANCH   2   7
TORSDOF 1
ENDMDL
MODEL 3
REMARK VINA RESULT:      -2.6      1.902      2.716
REMARK  1 active torsions:
REMARK  status: ('A' for Active; 'I' for Inactive)
REMARK    1  A    between atoms: C_2  and  C_5 
ROOT
ATOM      1  C   LIG d   1       3.836  -2.000  -2.414  0.00  0.00     0.082 A 
ATOM      2  C   LIG d   1       4.145  -0.574  -2.874  0.00  0.00     0.137 A 
ATOM      3  H   LIG d   1       4.849  -0.598  -3.584  0.00  0.00     0.070 H 
ATOM      4  O   LIG d   1       2.817  -1.101  -2.858  0.00  0.00    -0.364 OA
ATOM      5  H   LIG d   1       4.115  -2.819  -3.077  0.00  0.00     0.059 H 
ATOM      6  H   LIG d   1       3.895  -2.214  -1.347  0.00  0.00     0.059 H 
ENDROOT
BRANCH   2   7
ATOM      7  C   LIG d   1       4.511   0.441  -1.820  0.00  0.00     0.151 C 
ATOM      8  O   LIG d   1       5.307   1.312  -2.072  0.00  0.00    -0.298 OA
ATOM      9  H   LIG d   1       4.061   0.387  -0.841  0.00  0.00     0.105 H 
ENDBRANCH   2   7
TORSDOF 1
ENDMDL
MODEL 4
REMARK VINA RESULT:      -2.6      1.798      2.072
REMARK  1 active torsions:
REMARK  status: ('A' for Active; 'I' for Inactive)
REMARK    1  A    between atoms: C_2  and  C_5 
ROOT
ATOM      1  C   LIG d   1       5.916   0.047  -2.945  0.00  0.00     0.082 A 
ATOM      2  C   LIG d   1       4.966   0.986  -2.198  0.00  0.00     0.137 A 
ATOM      3  H   LIG d   1       4.837   0.656  -1.263  0.00  0.00     0.070 H 
ATOM      4  O   LIG d   1       6.137   1.457  -2.868  0.00  0.00    -0.364 OA
ATOM      5  H   LIG d   1       6.560  -0.601  -2.350  0.00  0.00     0.059 H 
ATOM      6  H   LIG d   1       5.580  -0.363  -3.897  0.00  0.00     0.059 H 
ENDROOT
BRANCH   2   7
ATOM      7  C   LIG d   1       3.629   1.282  -2.830  0.00  0.00     0.151 C 
ATOM      8  O   LIG d   1       3.474   2.295  -3.467  0.00  0.00    -0.298 OA
ATOM      9  H   LIG d   1       2.812   0.587  -2.712  0.00  0.00     0.105 H 
ENDBRANCH   2   7
TORSDOF 1
ENDMDL
MODEL 5
REMARK VINA RESULT:      -2.4     10.360     10.647
REMARK  1 active torsions:
REMARK  status: ('A' for Active; 'I' for Inactive)
REMARK    1  A    between atoms: C_2  and  C_5 
ROOT
ATOM      1  C   LIG d   1       4.754  -9.846  -5.611  0.00  0.00     0.082 A 
ATOM      2  C   LIG d   1       4.640  -9.592  -4.107  0.00  0.00     0.137 A 
ATOM      3  H   LIG d   1       5.522  -9.771  -3.670  0.00  0.00     0.070 H 
ATOM      4  O   LIG d   1       4.263  -8.615  -5.079  0.00  0.00    -0.364 OA
ATOM      5  H   LIG d   1       5.751  -9.848  -6.052  0.00  0.00     0.059 H 
ATOM      6  H   LIG d   1       4.035 -10.526  -6.067  0.00  0.00     0.059 H 
ENDROOT
BRANCH   2   7
ATOM      7  C   LIG d   1       3.539 -10.297  -3.356  0.00  0.00     0.151 C 
ATOM      8  O   LIG d   1       2.543  -9.694  -3.040  0.00  0.00    -0.298 OA
ATOM      9  H   LIG d   1       3.644 -11.340  -3.101  0.00  0.00     0.105 H 
ENDBRANCH   2   7
TORSDOF 1
ENDMDL
MODEL 6
REMARK VINA RESULT:      -2.4      9.169     10.120
REMARK  1 active torsions:
REMARK  status: ('A' for Active; 'I' for Inactive)
REMARK    1  A    between atoms: C_2  and  C_5 
ROOT
ATOM      1  C   LIG d   1      10.306   6.270  -1.349  0.00  0.00     0.082 A 
ATOM      2  C   LIG d   1      10.927   6.798  -0.054  0.00  0.00     0.137 A 
ATOM      3  H   LIG d   1      11.790   7.257  -0.261  0.00  0.00     0.070 H 
ATOM      4  O   LIG d   1       9.587   7.109  -0.443  0.00  0.00    -0.364 OA
ATOM      5  H   LIG d   1      10.642   6.708  -2.289  0.00  0.00     0.059 H 
ATOM      6  H   LIG d   1      10.034   5.216  -1.389  0.00  0.00     0.059 H 
ENDROOT
BRANCH   2   7
ATOM      7  C   LIG d   1      11.120   5.824   1.080  0.00  0.00     0.151 C 
ATOM      8  O   LIG d   1      11.160   6.224   2.218  0.00  0.00    -0.298 OA
ATOM      9  H   LIG d   1      11.222   4.770   0.874  0.00  0.00     0.105 H 
ENDBRANCH   2   7
TORSDOF 1
ENDMDL
MODEL 7
REMARK VINA RESULT:      -2.3     12.404     13.168
REMARK  1 active torsions:
REMARK  status: ('A' for Active; 'I' for Inactive)
REMARK    1  A    between atoms: C_2  and  C_5 
ROOT
ATOM      1  C   LIG d   1      10.929   6.606   7.214  0.00  0.00     0.082 A 
ATOM      2  C   LIG d   1      11.781   6.491   5.947  0.00  0.00     0.137 A 
ATOM      3  H   LIG d   1      12.510   7.175   5.973  0.00  0.00     0.070 H 
ATOM      4  O   LIG d   1      11.520   5.373   6.798  0.00  0.00    -0.364 OA
ATOM      5  H   LIG d   1      11.366   7.113   8.074  0.00  0.00     0.059 H 
ATOM      6  H   LIG d   1       9.852   6.720   7.093  0.00  0.00     0.059 H 
ENDROOT
BRANCH   2   7
ATOM      7  C   LIG d   1      11.073   6.542   4.617  0.00  0.00     0.151 C 
ATOM      8  O   LIG d   1      11.455   7.299   3.759  0.00  0.00    -0.298 OA
ATOM      9  H   LIG d   1      10.223   5.902   4.434  0.00  0.00     0.105 H 
ENDBRANCH   2   7
TORSDOF 1
ENDMDL
MODEL 8
REMARK VINA RESULT:      -2.3      2.170      2.416
REMARK  1 active torsions:
REMARK  status: ('A' for Active; 'I' for Inactive)
REMARK    1  A    between atoms: C_2  and  C_5 
ROOT
ATOM      1  C   LIG d   1       3.700   1.191  -2.358  0.00  0.00     0.082 A 
ATOM      2  C   LIG d   1       5.222   1.236  -2.511  0.00  0.00     0.137 A 
ATOM      3  H   LIG d   1       5.521   2.187  -2.589  0.00  0.00     0.070 H 
ATOM      4  O   LIG d   1       4.581   0.546  -1.436  0.00  0.00    -0.364 OA
ATOM      5  H   LIG d   1       3.196   2.099  -2.027  0.00  0.00     0.059 H 
ATOM      6  H   LIG d   1       3.139   0.562  -3.049  0.00  0.00     0.059 H 
ENDROOT
BRANCH   2   7
ATOM      7  C   LIG d   1       5.843   0.408  -3.606  0.00  0.00     0.151 C 
ATOM      8  O   LIG d   1       6.477   0.944  -4.482  0.00  0.00    -0.298 OA
ATOM      9  H   LIG d   1       5.721  -0.664  -3.606  0.00  0.00     0.105 H 
ENDBRANCH   2   7
TORSDOF 1
ENDMDL
MODEL 9
REMARK VINA RESULT:      -2.2     14.396     14.821
REMARK  1 active torsions:
REMARK  status: ('A' for Active; 'I' for Inactive)
REMARK    1  A    between atoms: C_2  and  C_5 
ROOT
ATOM      1  C   LIG d   1      -3.475   7.583 -15.185  0.00  0.00     0.082 A 
ATOM      2  C   LIG d   1      -2.147   7.665 -14.430  0.00  0.00     0.137 A 
ATOM      3  H   LIG d   1      -2.280   8.165 -13.574  0.00  0.00     0.070 H 
ATOM      4  O   LIG d   1      -2.695   6.425 -14.881  0.00  0.00    -0.364 OA
ATOM      5  H   LIG d   1      -4.393   7.741 -14.617  0.00  0.00     0.059 H 
ATOM      6  H   LIG d   1      -3.494   7.926 -16.219  0.00  0.00     0.059 H 
ENDROOT
BRANCH   2   7
ATOM      7  C   LIG d   1      -0.952   8.214 -15.167  0.00  0.00     0.151 C 
ATOM      8  O   LIG d   1       0.163   7.960 -14.783  0.00  0.00    -0.298 OA
ATOM      9  H   LIG d   1      -1.096   8.835 -16.039  0.00  0.00     0.105 H 
ENDBRANCH   2   7
TORSDOF 1
ENDMDL
MODEL 10
REMARK VINA RESULT:      -2.2      2.447      4.067
REMARK  1 active torsions:
REMARK  status: ('A' for Active; 'I' for Inactive)
REMARK    1  A    between atoms: C_2  and  C_5 
ROOT
ATOM      1  C   LIG d   1       2.709  -0.061  -7.723  0.00  0.00     0.082 A 
ATOM      2  C   LIG d   1       3.390  -0.011  -6.354  0.00  0.00     0.137 A 
ATOM      3  H   LIG d   1       3.823  -0.893  -6.164  0.00  0.00     0.070 H 
ATOM      4  O   LIG d   1       3.651   0.955  -7.374  0.00  0.00    -0.364 OA
ATOM      5  H   LIG d   1       3.030  -0.833  -8.422  0.00  0.00     0.059 H 
ATOM      6  H   LIG d   1       1.657   0.219  -7.777  0.00  0.00     0.059 H 
ENDROOT
BRANCH   2   7
ATOM      7  C   LIG d   1       2.562   0.423  -5.171  0.00  0.00     0.151 C 
ATOM      8  O   LIG d   1       2.908   1.368  -4.506  0.00  0.00    -0.298 OA
ATOM      9  H   LIG d   1       1.660  -0.113  -4.920  0.00  0.00     0.105 H 
ENDBRANCH   2   7
TORSDOF 1
ENDMDL
