MODEL 1
REMARK VINA RESULT:      -6.0      0.000      0.000
REMARK  19 active torsions:
REMARK  status: ('A' for Active; 'I' for Inactive)
REMARK    1  A    between atoms: C_1  and  C_2 
REMARK    2  A    between atoms: C_2  and  C_3 
REMARK    3  A    between atoms: C_3  and  C_4 
REMARK    4  A    between atoms: C_4  and  C_5 
REMARK    5  A    between atoms: C_5  and  C_6 
REMARK    6  A    between atoms: C_7  and  C_8 
REMARK    7  A    between atoms: C_8  and  C_9 
REMARK    8  A    between atoms: C_10  and  C_11 
REMARK    9  A    between atoms: C_11  and  C_12 
REMARK   10  A    between atoms: C_13  and  C_14 
REMARK   11  A    between atoms: C_14  and  C_15 
REMARK   12  A    between atoms: C_15  and  C_16 
REMARK   13  A    between atoms: C_16  and  C_17 
REMARK   14  A    between atoms: C_17  and  C_18 
REMARK   15  A    between atoms: C_18  and  C_19 
REMARK   16  A    between atoms: C_19  and  C_20 
REMARK       I    between atoms: C_20  and  N_22 
REMARK   17  A    between atoms: N_22  and  C_23 
REMARK   18  A    between atoms: C_23  and  C_24 
REMARK   19  A    between atoms: C_24  and  O_25 
ROOT
ATOM      1  C   LIG d   1       2.782   1.132  -7.728  0.00  0.00    -0.084 C 
ATOM      2  C   LIG d   1       3.054   1.938  -8.723  0.00  0.00    -0.088 C 
ATOM      3  H   LIG d   1       1.833   1.205  -7.217  0.00  0.00     0.057 H 
ATOM      4  H   LIG d   1       2.384   2.753  -8.957  0.00  0.00     0.057 H 
ENDROOT
BRANCH   1   5
ATOM      5  C   LIG d   1       3.794   0.103  -7.294  0.00  0.00    -0.017 C 
ATOM      6  H   LIG d   1       3.615  -0.830  -7.829  0.00  0.00     0.035 H 
ATOM      7  H   LIG d   1       4.797   0.463  -7.518  0.00  0.00     0.035 H 
BRANCH   5   8
ATOM      8  C   LIG d   1       3.664  -0.136  -5.811  0.00  0.00    -0.084 C 
ATOM      9  C   LIG d   1       2.627   0.328  -5.160  0.00  0.00    -0.084 C 
ATOM     10  H   LIG d   1       1.863   0.881  -5.687  0.00  0.00     0.057 H 
ATOM     11  H   LIG d   1       4.429  -0.690  -5.285  0.00  0.00     0.057 H 
BRANCH   9  12
ATOM     12  C   LIG d   1       2.499   0.089  -3.678  0.00  0.00    -0.017 C 
ATOM     13  H   LIG d   1       1.496   0.364  -3.352  0.00  0.00     0.035 H 
ATOM     14  H   LIG d   1       2.676  -0.964  -3.462  0.00  0.00     0.035 H 
BRANCH  12  15
ATOM     15  C   LIG d   1       3.513   0.929  -2.945  0.00  0.00    -0.084 C 
ATOM     16  C   LIG d   1       4.295   0.379  -2.049  0.00  0.00    -0.088 C 
ATOM     17  H   LIG d   1       4.935   0.997  -1.438  0.00  0.00     0.057 H 
ATOM     18  H   LIG d   1       3.595   1.984  -3.159  0.00  0.00     0.057 H 
BRANCH  16  19
ATOM     19  C   LIG d   1       4.300  -1.117  -1.871  0.00  0.00    -0.035 C 
ATOM     20  H   LIG d   1       4.536  -1.359  -0.834  0.00  0.00     0.031 H 
ATOM     21  H   LIG d   1       3.317  -1.517  -2.122  0.00  0.00     0.031 H 
BRANCH  19  22
ATOM     22  C   LIG d   1       5.353  -1.738  -2.791  0.00  0.00    -0.050 C 
ATOM     23  H   LIG d   1       5.771  -0.966  -3.437  0.00  0.00     0.027 H 
ATOM     24  H   LIG d   1       6.149  -2.176  -2.188  0.00  0.00     0.027 H 
BRANCH  22  25
ATOM     25  C   LIG d   1       4.705  -2.825  -3.649  0.00  0.00    -0.053 C 
ATOM     26  H   LIG d   1       4.440  -3.675  -3.020  0.00  0.00     0.026 H 
ATOM     27  H   LIG d   1       3.807  -2.428  -4.120  0.00  0.00     0.026 H 
BRANCH  25  28
ATOM     28  C   LIG d   1       5.690  -3.278  -4.728  0.00  0.00    -0.056 C 
ATOM     29  H   LIG d   1       5.947  -4.325  -4.570  0.00  0.00     0.026 H 
ATOM     30  H   LIG d   1       5.233  -3.161  -5.711  0.00  0.00     0.026 H 
BRANCH  28  31
ATOM     31  C   LIG d   1       6.958  -2.425  -4.651  0.00  0.00    -0.065 C 
ATOM     32  H   LIG d   1       7.754  -2.998  -4.176  0.00  0.00     0.023 H 
ATOM     33  H   LIG d   1       7.265  -2.139  -5.658  0.00  0.00     0.023 H 
ATOM     34  H   LIG d   1       6.757  -1.527  -4.066  0.00  0.00     0.023 H 
ENDBRANCH  28  31
ENDBRANCH  25  28
ENDBRANCH  22  25
ENDBRANCH  19  22
ENDBRANCH  16  19
ENDBRANCH  12  15
ENDBRANCH   9  12
ENDBRANCH   5   8
ENDBRANCH   1   5
BRANCH   2  35
ATOM     35  C   LIG d   1       4.299   1.728  -9.545  0.00  0.00    -0.035 C 
ATOM     36  H   LIG d   1       4.927   0.976  -9.068  0.00  0.00     0.031 H 
ATOM     37  H   LIG d   1       4.849   2.666  -9.618  0.00  0.00     0.031 H 
BRANCH  35  38
ATOM     38  C   LIG d   1       3.912   1.253 -10.947  0.00  0.00    -0.050 C 
ATOM     39  H   LIG d   1       4.616   1.659 -11.674  0.00  0.00     0.027 H 
ATOM     40  H   LIG d   1       2.906   1.600 -11.184  0.00  0.00     0.027 H 
BRANCH  38  41
ATOM     41  C   LIG d   1       3.950  -0.275 -10.998  0.00  0.00    -0.053 C 
ATOM     42  H   LIG d   1       4.940  -0.603 -11.318  0.00  0.00     0.026 H 
ATOM     43  H   LIG d   1       3.736  -0.677 -10.007  0.00  0.00     0.026 H 
BRANCH  41  44
ATOM     44  C   LIG d   1       2.901  -0.778 -11.991  0.00  0.00    -0.053 C 
ATOM     45  H   LIG d   1       2.807  -0.067 -12.812  0.00  0.00     0.026 H 
ATOM     46  H   LIG d   1       3.206  -1.748 -12.383  0.00  0.00     0.026 H 
BRANCH  44  47
ATOM     47  C   LIG d   1       1.552  -0.917 -11.281  0.00  0.00    -0.045 C 
ATOM     48  H   LIG d   1       1.163   0.074 -11.046  0.00  0.00     0.027 H 
ATOM     49  H   LIG d   1       0.851  -1.438 -11.932  0.00  0.00     0.027 H 
BRANCH  47  50
ATOM     50  C   LIG d   1       1.735  -1.713  -9.987  0.00  0.00     0.024 C 
ATOM     51  H   LIG d   1       2.770  -1.631  -9.655  0.00  0.00     0.036 H 
ATOM     52  H   LIG d   1       1.074  -1.313  -9.219  0.00  0.00     0.036 H 
BRANCH  50  53
ATOM     53  C   LIG d   1       1.400  -3.160 -10.236  0.00  0.00     0.213 C 
ATOM     54  O   LIG d   1       2.288  -3.968 -10.409  0.00  0.00    -0.276 OA
ATOM     55  N   LIG d   1       0.112  -3.558 -10.268  0.00  0.00    -0.313 N 
ATOM     56  H   LIG d   1      -0.598  -2.913 -10.129  0.00  0.00     0.149 HD
BRANCH  55  57
ATOM     57  C   LIG d   1      -0.214  -4.965 -10.510  0.00  0.00     0.035 C 
ATOM     58  H   LIG d   1      -0.229  -5.155 -11.583  0.00  0.00     0.048 H 
ATOM     59  H   LIG d   1       0.538  -5.599 -10.040  0.00  0.00     0.048 H 
BRANCH  57  60
ATOM     60  C   LIG d   1      -1.588  -5.280  -9.917  0.00  0.00     0.060 C 
ATOM     61  H   LIG d   1      -2.125  -4.350  -9.729  0.00  0.00     0.057 H 
ATOM     62  H   LIG d   1      -2.156  -5.892 -10.618  0.00  0.00     0.057 H 
BRANCH  60  63
ATOM     63  O   LIG d   1      -1.425  -5.992  -8.688  0.00  0.00    -0.394 OA
ATOM     64  H   LIG d   1      -0.568  -5.852  -8.263  0.00  0.00     0.209 HD
ENDBRANCH  60  63
ENDBRANCH  57  60
ENDBRANCH  55  57
ENDBRANCH  50  53
ENDBRANCH  47  50
ENDBRANCH  44  47
ENDBRANCH  41  44
ENDBRANCH  38  41
ENDBRANCH  35  38
ENDBRANCH   2  35
TORSDOF 19
ENDMDL
MODEL 2
REMARK VINA RESULT:      -5.8      3.023      6.911
REMARK  19 active torsions:
REMARK  status: ('A' for Active; 'I' for Inactive)
REMARK    1  A    between atoms: C_1  and  C_2 
REMARK    2  A    between atoms: C_2  and  C_3 
REMARK    3  A    between atoms: C_3  and  C_4 
REMARK    4  A    between atoms: C_4  and  C_5 
REMARK    5  A    between atoms: C_5  and  C_6 
REMARK    6  A    between atoms: C_7  and  C_8 
REMARK    7  A    between atoms: C_8  and  C_9 
REMARK    8  A    between atoms: C_10  and  C_11 
REMARK    9  A    between atoms: C_11  and  C_12 
REMARK   10  A    between atoms: C_13  and  C_14 
REMARK   11  A    between atoms: C_14  and  C_15 
REMARK   12  A    between atoms: C_15  and  C_16 
REMARK   13  A    between atoms: C_16  and  C_17 
REMARK   14  A    between atoms: C_17  and  C_18 
REMARK   15  A    between atoms: C_18  and  C_19 
REMARK   16  A    between atoms: C_19  and  C_20 
REMARK       I    between atoms: C_20  and  N_22 
REMARK   17  A    between atoms: N_22  and  C_23 
REMARK   18  A    between atoms: C_23  and  C_24 
REMARK   19  A    between atoms: C_24  and  O_25 
ROOT
ATOM      1  C   LIG d   1       3.338   0.937  -3.855  0.00  0.00    -0.084 C 
ATOM      2  C   LIG d   1       3.531   0.250  -2.758  0.00  0.00    -0.088 C 
ATOM      3  H   LIG d   1       3.936   1.815  -4.055  0.00  0.00     0.057 H 
ATOM      4  H   LIG d   1       4.201   0.624  -1.996  0.00  0.00     0.057 H 
ENDROOT
BRANCH   1   5
ATOM      5  C   LIG d   1       2.282   0.506  -4.839  0.00  0.00    -0.017 C 
ATOM      6  H   LIG d   1       1.697  -0.309  -4.411  0.00  0.00     0.035 H 
ATOM      7  H   LIG d   1       1.625   1.347  -5.058  0.00  0.00     0.035 H 
BRANCH   5   8
ATOM      8  C   LIG d   1       2.940   0.036  -6.110  0.00  0.00    -0.084 C 
ATOM      9  C   LIG d   1       4.189  -0.357  -6.096  0.00  0.00    -0.084 C 
ATOM     10  H   LIG d   1       4.748  -0.345  -5.171  0.00  0.00     0.057 H 
ATOM     11  H   LIG d   1       2.380   0.024  -7.035  0.00  0.00     0.057 H 
BRANCH   9  12
ATOM     12  C   LIG d   1       4.846  -0.826  -7.368  0.00  0.00    -0.017 C 
ATOM     13  H   LIG d   1       4.852  -0.013  -8.095  0.00  0.00     0.035 H 
ATOM     14  H   LIG d   1       5.870  -1.132  -7.158  0.00  0.00     0.035 H 
BRANCH  12  15
ATOM     15  C   LIG d   1       4.077  -1.995  -7.928  0.00  0.00    -0.084 C 
ATOM     16  C   LIG d   1       3.763  -2.023  -9.200  0.00  0.00    -0.088 C 
ATOM     17  H   LIG d   1       3.110  -2.796  -9.578  0.00  0.00     0.057 H 
ATOM     18  H   LIG d   1       3.786  -2.809  -7.282  0.00  0.00     0.057 H 
BRANCH  16  19
ATOM     19  C   LIG d   1       4.312  -0.977 -10.135  0.00  0.00    -0.035 C 
ATOM     20  H   LIG d   1       5.154  -0.472  -9.662  0.00  0.00     0.031 H 
ATOM     21  H   LIG d   1       4.646  -1.453 -11.058  0.00  0.00     0.031 H 
BRANCH  19  22
ATOM     22  C   LIG d   1       3.220   0.045 -10.456  0.00  0.00    -0.050 C 
ATOM     23  H   LIG d   1       2.619  -0.315 -11.292  0.00  0.00     0.027 H 
ATOM     24  H   LIG d   1       2.582   0.181  -9.583  0.00  0.00     0.027 H 
BRANCH  22  25
ATOM     25  C   LIG d   1       3.863   1.381 -10.831  0.00  0.00    -0.053 C 
ATOM     26  H   LIG d   1       4.795   1.198 -11.365  0.00  0.00     0.026 H 
ATOM     27  H   LIG d   1       3.184   1.945 -11.469  0.00  0.00     0.026 H 
BRANCH  25  28
ATOM     28  C   LIG d   1       4.153   2.181  -9.560  0.00  0.00    -0.056 C 
ATOM     29  H   LIG d   1       4.932   1.680  -8.985  0.00  0.00     0.026 H 
ATOM     30  H   LIG d   1       4.488   3.183  -9.829  0.00  0.00     0.026 H 
BRANCH  28  31
ATOM     31  C   LIG d   1       2.880   2.279  -8.717  0.00  0.00    -0.065 C 
ATOM     32  H   LIG d   1       3.143   2.268  -7.659  0.00  0.00     0.023 H 
ATOM     33  H   LIG d   1       2.358   3.205  -8.954  0.00  0.00     0.023 H 
ATOM     34  H   LIG d   1       2.232   1.430  -8.939  0.00  0.00     0.023 H 
ENDBRANCH  28  31
ENDBRANCH  25  28
ENDBRANCH  22  25
ENDBRANCH  19  22
ENDBRANCH  16  19
ENDBRANCH  12  15
ENDBRANCH   9  12
ENDBRANCH   5   8
ENDBRANCH   1   5
BRANCH   2  35
ATOM     35  C   LIG d   1       2.822  -1.064  -2.556  0.00  0.00    -0.035 C 
ATOM     36  H   LIG d   1       2.133  -1.235  -3.384  0.00  0.00     0.031 H 
ATOM     37  H   LIG d   1       2.264  -1.037  -1.620  0.00  0.00     0.031 H 
BRANCH  35  38
ATOM     38  C   LIG d   1       3.848  -2.197  -2.505  0.00  0.00    -0.050 C 
ATOM     39  H   LIG d   1       3.644  -2.908  -3.306  0.00  0.00     0.027 H 
ATOM     40  H   LIG d   1       3.780  -2.706  -1.543  0.00  0.00     0.027 H 
BRANCH  38  41
ATOM     41  C   LIG d   1       5.255  -1.621  -2.679  0.00  0.00    -0.053 C 
ATOM     42  H   LIG d   1       5.184  -0.568  -2.955  0.00  0.00     0.026 H 
ATOM     43  H   LIG d   1       5.804  -1.716  -1.743  0.00  0.00     0.026 H 
BRANCH  41  44
ATOM     44  C   LIG d   1       5.987  -2.388  -3.782  0.00  0.00    -0.053 C 
ATOM     45  H   LIG d   1       6.356  -1.685  -4.529  0.00  0.00     0.026 H 
ATOM     46  H   LIG d   1       6.826  -2.934  -3.350  0.00  0.00     0.026 H 
BRANCH  44  47
ATOM     47  C   LIG d   1       5.023  -3.374  -4.444  0.00  0.00    -0.045 C 
ATOM     48  H   LIG d   1       4.519  -3.961  -3.675  0.00  0.00     0.027 H 
ATOM     49  H   LIG d   1       4.283  -2.825  -5.025  0.00  0.00     0.027 H 
BRANCH  47  50
ATOM     50  C   LIG d   1       5.805  -4.310  -5.368  0.00  0.00     0.024 C 
ATOM     51  H   LIG d   1       6.031  -3.793  -6.301  0.00  0.00     0.036 H 
ATOM     52  H   LIG d   1       6.734  -4.607  -4.882  0.00  0.00     0.036 H 
BRANCH  50  53
ATOM     53  C   LIG d   1       4.977  -5.534  -5.660  0.00  0.00     0.213 C 
ATOM     54  O   LIG d   1       3.891  -5.672  -5.137  0.00  0.00    -0.276 OA
ATOM     55  N   LIG d   1       5.443  -6.477  -6.504  0.00  0.00    -0.313 N 
ATOM     56  H   LIG d   1       6.309  -6.367  -6.922  0.00  0.00     0.149 HD
BRANCH  55  57
ATOM     57  C   LIG d   1       4.637  -7.668  -6.787  0.00  0.00     0.035 C 
ATOM     58  H   LIG d   1       3.583  -7.439  -6.633  0.00  0.00     0.048 H 
ATOM     59  H   LIG d   1       4.795  -7.975  -7.821  0.00  0.00     0.048 H 
BRANCH  57  60
ATOM     60  C   LIG d   1       5.056  -8.802  -5.850  0.00  0.00     0.060 C 
ATOM     61  H   LIG d   1       4.961  -9.756  -6.368  0.00  0.00     0.057 H 
ATOM     62  H   LIG d   1       6.092  -8.656  -5.543  0.00  0.00     0.057 H 
BRANCH  60  63
ATOM     63  O   LIG d   1       4.213  -8.801  -4.695  0.00  0.00    -0.394 OA
ATOM     64  H   LIG d   1       4.496  -8.189  -4.002  0.00  0.00     0.209 HD
ENDBRANCH  60  63
ENDBRANCH  57  60
ENDBRANCH  55  57
ENDBRANCH  50  53
ENDBRANCH  47  50
ENDBRANCH  44  47
ENDBRANCH  41  44
ENDBRANCH  38  41
ENDBRANCH  35  38
ENDBRANCH   2  35
TORSDOF 19
ENDMDL
MODEL 3
REMARK VINA RESULT:      -5.7      4.506      6.835
REMARK  19 active torsions:
REMARK  status: ('A' for Active; 'I' for Inactive)
REMARK    1  A    between atoms: C_1  and  C_2 
REMARK    2  A    between atoms: C_2  and  C_3 
REMARK    3  A    between atoms: C_3  and  C_4 
REMARK    4  A    between atoms: C_4  and  C_5 
REMARK    5  A    between atoms: C_5  and  C_6 
REMARK    6  A    between atoms: C_7  and  C_8 
REMARK    7  A    between atoms: C_8  and  C_9 
REMARK    8  A    between atoms: C_10  and  C_11 
REMARK    9  A    between atoms: C_11  and  C_12 
REMARK   10  A    between atoms: C_13  and  C_14 
REMARK   11  A    between atoms: C_14  and  C_15 
REMARK   12  A    between atoms: C_15  and  C_16 
REMARK   13  A    between atoms: C_16  and  C_17 
REMARK   14  A    between atoms: C_17  and  C_18 
REMARK   15  A    between atoms: C_18  and  C_19 
REMARK   16  A    between atoms: C_19  and  C_20 
REMARK       I    between atoms: C_20  and  N_22 
REMARK   17  A    between atoms: N_22  and  C_23 
REMARK   18  A    between atoms: C_23  and  C_24 
REMARK   19  A    between atoms: C_24  and  O_25 
ROOT
ATOM      1  C   LIG d   1       2.427  -0.094  -8.258  0.00  0.00    -0.084 C 
ATOM      2  C   LIG d   1       2.392   0.861  -9.153  0.00  0.00    -0.088 C 
ATOM      3  H   LIG d   1       1.989  -1.056  -8.478  0.00  0.00     0.057 H 
ATOM      4  H   LIG d   1       1.821   0.730 -10.061  0.00  0.00     0.057 H 
ENDROOT
BRANCH   1   5
ATOM      5  C   LIG d   1       3.079   0.150  -6.922  0.00  0.00    -0.017 C 
ATOM      6  H   LIG d   1       3.646   1.081  -6.957  0.00  0.00     0.035 H 
ATOM      7  H   LIG d   1       2.312   0.222  -6.151  0.00  0.00     0.035 H 
BRANCH   5   8
ATOM      8  C   LIG d   1       4.009  -0.991  -6.600  0.00  0.00    -0.084 C 
ATOM      9  C   LIG d   1       5.200  -0.749  -6.112  0.00  0.00    -0.084 C 
ATOM     10  H   LIG d   1       5.515   0.270  -5.938  0.00  0.00     0.057 H 
ATOM     11  H   LIG d   1       3.693  -2.010  -6.773  0.00  0.00     0.057 H 
BRANCH   9  12
ATOM     12  C   LIG d   1       6.129  -1.891  -5.791  0.00  0.00    -0.017 C 
ATOM     13  H   LIG d   1       5.554  -2.814  -5.708  0.00  0.00     0.035 H 
ATOM     14  H   LIG d   1       6.869  -1.993  -6.584  0.00  0.00     0.035 H 
BRANCH  12  15
ATOM     15  C   LIG d   1       6.828  -1.617  -4.484  0.00  0.00    -0.084 C 
ATOM     16  C   LIG d   1       6.200  -1.813  -3.351  0.00  0.00    -0.088 C 
ATOM     17  H   LIG d   1       6.653  -1.504  -2.421  0.00  0.00     0.057 H 
ATOM     18  H   LIG d   1       7.847  -1.259  -4.482  0.00  0.00     0.057 H 
BRANCH  16  19
ATOM     19  C   LIG d   1       4.844  -2.471  -3.345  0.00  0.00    -0.035 C 
ATOM     20  H   LIG d   1       4.373  -2.340  -4.319  0.00  0.00     0.031 H 
ATOM     21  H   LIG d   1       4.958  -3.536  -3.137  0.00  0.00     0.031 H 
BRANCH  19  22
ATOM     22  C   LIG d   1       3.970  -1.831  -2.265  0.00  0.00    -0.050 C 
ATOM     23  H   LIG d   1       3.491  -2.612  -1.676  0.00  0.00     0.027 H 
ATOM     24  H   LIG d   1       4.591  -1.215  -1.615  0.00  0.00     0.027 H 
BRANCH  22  25
ATOM     25  C   LIG d   1       2.899  -0.960  -2.924  0.00  0.00    -0.053 C 
ATOM     26  H   LIG d   1       2.643  -1.374  -3.899  0.00  0.00     0.026 H 
ATOM     27  H   LIG d   1       2.010  -0.940  -2.294  0.00  0.00     0.026 H 
BRANCH  25  28
ATOM     28  C   LIG d   1       3.434   0.462  -3.099  0.00  0.00    -0.056 C 
ATOM     29  H   LIG d   1       4.089   0.499  -3.969  0.00  0.00     0.026 H 
ATOM     30  H   LIG d   1       2.601   1.149  -3.242  0.00  0.00     0.026 H 
BRANCH  28  31
ATOM     31  C   LIG d   1       4.221   0.867  -1.851  0.00  0.00    -0.065 C 
ATOM     32  H   LIG d   1       4.819   0.023  -1.508  0.00  0.00     0.023 H 
ATOM     33  H   LIG d   1       4.876   1.704  -2.091  0.00  0.00     0.023 H 
ATOM     34  H   LIG d   1       3.526   1.164  -1.064  0.00  0.00     0.023 H 
ENDBRANCH  28  31
ENDBRANCH  25  28
ENDBRANCH  22  25
ENDBRANCH  19  22
ENDBRANCH  16  19
ENDBRANCH  12  15
ENDBRANCH   9  12
ENDBRANCH   5   8
ENDBRANCH   1   5
BRANCH   2  35
ATOM     35  C   LIG d   1       3.149   2.143  -8.919  0.00  0.00    -0.035 C 
ATOM     36  H   LIG d   1       3.422   2.216  -7.866  0.00  0.00     0.031 H 
ATOM     37  H   LIG d   1       2.520   2.991  -9.190  0.00  0.00     0.031 H 
BRANCH  35  38
ATOM     38  C   LIG d   1       4.415   2.153  -9.776  0.00  0.00    -0.050 C 
ATOM     39  H   LIG d   1       4.502   3.114 -10.283  0.00  0.00     0.027 H 
ATOM     40  H   LIG d   1       4.359   1.356 -10.517  0.00  0.00     0.027 H 
BRANCH  38  41
ATOM     41  C   LIG d   1       5.638   1.935  -8.883  0.00  0.00    -0.053 C 
ATOM     42  H   LIG d   1       6.265   2.827  -8.902  0.00  0.00     0.026 H 
ATOM     43  H   LIG d   1       5.312   1.741  -7.862  0.00  0.00     0.026 H 
BRANCH  41  44
ATOM     44  C   LIG d   1       6.439   0.738  -9.400  0.00  0.00    -0.053 C 
ATOM     45  H   LIG d   1       5.811  -0.153  -9.386  0.00  0.00     0.026 H 
ATOM     46  H   LIG d   1       6.770   0.934 -10.419  0.00  0.00     0.026 H 
BRANCH  44  47
ATOM     47  C   LIG d   1       7.658   0.515  -8.502  0.00  0.00    -0.045 C 
ATOM     48  H   LIG d   1       7.461  -0.313  -7.821  0.00  0.00     0.027 H 
ATOM     49  H   LIG d   1       8.526   0.279  -9.119  0.00  0.00     0.027 H 
BRANCH  47  50
ATOM     50  C   LIG d   1       7.937   1.784  -7.694  0.00  0.00     0.024 C 
ATOM     51  H   LIG d   1       8.749   2.342  -8.163  0.00  0.00     0.036 H 
ATOM     52  H   LIG d   1       7.040   2.402  -7.668  0.00  0.00     0.036 H 
BRANCH  50  53
ATOM     53  C   LIG d   1       8.331   1.409  -6.290  0.00  0.00     0.213 C 
ATOM     54  O   LIG d   1       9.108   0.497  -6.100  0.00  0.00    -0.276 OA
ATOM     55  N   LIG d   1       7.821   2.087  -5.242  0.00  0.00    -0.313 N 
ATOM     56  H   LIG d   1       7.201   2.816  -5.393  0.00  0.00     0.149 HD
BRANCH  55  57
ATOM     57  C   LIG d   1       8.204   1.722  -3.876  0.00  0.00     0.035 C 
ATOM     58  H   LIG d   1       7.386   1.953  -3.195  0.00  0.00     0.048 H 
ATOM     59  H   LIG d   1       8.422   0.655  -3.833  0.00  0.00     0.048 H 
BRANCH  57  60
ATOM     60  C   LIG d   1       9.448   2.512  -3.467  0.00  0.00     0.060 C 
ATOM     61  H   LIG d   1       9.555   3.383  -4.114  0.00  0.00     0.057 H 
ATOM     62  H   LIG d   1       9.348   2.839  -2.432  0.00  0.00     0.057 H 
BRANCH  60  63
ATOM     63  O   LIG d   1      10.604   1.681  -3.594  0.00  0.00    -0.394 OA
ATOM     64  H   LIG d   1      10.944   1.614  -4.497  0.00  0.00     0.209 HD
ENDBRANCH  60  63
ENDBRANCH  57  60
ENDBRANCH  55  57
ENDBRANCH  50  53
ENDBRANCH  47  50
ENDBRANCH  44  47
ENDBRANCH  41  44
ENDBRANCH  38  41
ENDBRANCH  35  38
ENDBRANCH   2  35
TORSDOF 19
ENDMDL
MODEL 4
REMARK VINA RESULT:      -5.7      1.630      2.171
REMARK  19 active torsions:
REMARK  status: ('A' for Active; 'I' for Inactive)
REMARK    1  A    between atoms: C_1  and  C_2 
REMARK    2  A    between atoms: C_2  and  C_3 
REMARK    3  A    between atoms: C_3  and  C_4 
REMARK    4  A    between atoms: C_4  and  C_5 
REMARK    5  A    between atoms: C_5  and  C_6 
REMARK    6  A    between atoms: C_7  and  C_8 
REMARK    7  A    between atoms: C_8  and  C_9 
REMARK    8  A    between atoms: C_10  and  C_11 
REMARK    9  A    between atoms: C_11  and  C_12 
REMARK   10  A    between atoms: C_13  and  C_14 
REMARK   11  A    between atoms: C_14  and  C_15 
REMARK   12  A    between atoms: C_15  and  C_16 
REMARK   13  A    between atoms: C_16  and  C_17 
REMARK   14  A    between atoms: C_17  and  C_18 
REMARK   15  A    between atoms: C_18  and  C_19 
REMARK   16  A    between atoms: C_19  and  C_20 
REMARK       I    between atoms: C_20  and  N_22 
REMARK   17  A    between atoms: N_22  and  C_23 
REMARK   18  A    between atoms: C_23  and  C_24 
REMARK   19  A    between atoms: C_24  and  O_25 
ROOT
ATOM      1  C   LIG d   1       2.795   1.254  -7.814  0.00  0.00    -0.084 C 
ATOM      2  C   LIG d   1       3.242   1.944  -8.833  0.00  0.00    -0.088 C 
ATOM      3  H   LIG d   1       1.905   1.576  -7.293  0.00  0.00     0.057 H 
ATOM      4  H   LIG d   1       2.797   2.897  -9.077  0.00  0.00     0.057 H 
ENDROOT
BRANCH   1   5
ATOM      5  C   LIG d   1       3.520   0.010  -7.369  0.00  0.00    -0.017 C 
ATOM      6  H   LIG d   1       2.981  -0.871  -7.719  0.00  0.00     0.035 H 
ATOM      7  H   LIG d   1       4.527   0.009  -7.787  0.00  0.00     0.035 H 
BRANCH   5   8
ATOM      8  C   LIG d   1       3.599  -0.014  -5.865  0.00  0.00    -0.084 C 
ATOM      9  C   LIG d   1       2.581   0.390  -5.147  0.00  0.00    -0.084 C 
ATOM     10  H   LIG d   1       1.683   0.741  -5.635  0.00  0.00     0.057 H 
ATOM     11  H   LIG d   1       4.498  -0.366  -5.377  0.00  0.00     0.057 H 
BRANCH   9  12
ATOM     12  C   LIG d   1       2.661   0.365  -3.643  0.00  0.00    -0.017 C 
ATOM     13  H   LIG d   1       3.535   0.930  -3.317  0.00  0.00     0.035 H 
ATOM     14  H   LIG d   1       1.761   0.811  -3.223  0.00  0.00     0.035 H 
BRANCH  12  15
ATOM     15  C   LIG d   1       2.782  -1.062  -3.171  0.00  0.00    -0.084 C 
ATOM     16  C   LIG d   1       3.812  -1.427  -2.449  0.00  0.00    -0.088 C 
ATOM     17  H   LIG d   1       3.964  -2.470  -2.213  0.00  0.00     0.057 H 
ATOM     18  H   LIG d   1       2.020  -1.781  -3.428  0.00  0.00     0.057 H 
BRANCH  16  19
ATOM     19  C   LIG d   1       4.787  -0.393  -1.947  0.00  0.00    -0.035 C 
ATOM     20  H   LIG d   1       4.293   0.578  -1.900  0.00  0.00     0.031 H 
ATOM     21  H   LIG d   1       5.134  -0.673  -0.952  0.00  0.00     0.031 H 
BRANCH  19  22
ATOM     22  C   LIG d   1       5.981  -0.311  -2.900  0.00  0.00    -0.050 C 
ATOM     23  H   LIG d   1       5.672   0.168  -3.829  0.00  0.00     0.027 H 
ATOM     24  H   LIG d   1       6.776   0.273  -2.436  0.00  0.00     0.027 H 
BRANCH  22  25
ATOM     25  C   LIG d   1       6.493  -1.721  -3.200  0.00  0.00    -0.053 C 
ATOM     26  H   LIG d   1       7.454  -1.871  -2.709  0.00  0.00     0.026 H 
ATOM     27  H   LIG d   1       5.777  -2.454  -2.828  0.00  0.00     0.026 H 
BRANCH  25  28
ATOM     28  C   LIG d   1       6.660  -1.893  -4.711  0.00  0.00    -0.056 C 
ATOM     29  H   LIG d   1       6.373  -0.970  -5.215  0.00  0.00     0.026 H 
ATOM     30  H   LIG d   1       7.701  -2.122  -4.938  0.00  0.00     0.026 H 
BRANCH  28  31
ATOM     31  C   LIG d   1       5.768  -3.037  -5.195  0.00  0.00    -0.065 C 
ATOM     32  H   LIG d   1       5.149  -2.690  -6.023  0.00  0.00     0.023 H 
ATOM     33  H   LIG d   1       6.391  -3.866  -5.530  0.00  0.00     0.023 H 
ATOM     34  H   LIG d   1       5.128  -3.371  -4.378  0.00  0.00     0.023 H 
ENDBRANCH  28  31
ENDBRANCH  25  28
ENDBRANCH  22  25
ENDBRANCH  19  22
ENDBRANCH  16  19
ENDBRANCH  12  15
ENDBRANCH   9  12
ENDBRANCH   5   8
ENDBRANCH   1   5
BRANCH   2  35
ATOM     35  C   LIG d   1       4.377   1.408  -9.666  0.00  0.00    -0.035 C 
ATOM     36  H   LIG d   1       4.785   0.515  -9.194  0.00  0.00     0.031 H 
ATOM     37  H   LIG d   1       5.158   2.165  -9.746  0.00  0.00     0.031 H 
BRANCH  35  38
ATOM     38  C   LIG d   1       3.864   1.056 -11.064  0.00  0.00    -0.050 C 
ATOM     39  H   LIG d   1       4.610   1.339 -11.806  0.00  0.00     0.027 H 
ATOM     40  H   LIG d   1       2.937   1.596 -11.257  0.00  0.00     0.027 H 
BRANCH  38  41
ATOM     41  C   LIG d   1       3.605  -0.449 -11.149  0.00  0.00    -0.053 C 
ATOM     42  H   LIG d   1       4.070  -0.847 -12.051  0.00  0.00     0.026 H 
ATOM     43  H   LIG d   1       4.029  -0.941 -10.274  0.00  0.00     0.026 H 
BRANCH  41  44
ATOM     44  C   LIG d   1       2.098  -0.705 -11.198  0.00  0.00    -0.053 C 
ATOM     45  H   LIG d   1       1.566   0.245 -11.134  0.00  0.00     0.026 H 
ATOM     46  H   LIG d   1       1.843  -1.202 -12.133  0.00  0.00     0.026 H 
BRANCH  44  47
ATOM     47  C   LIG d   1       1.692  -1.594 -10.021  0.00  0.00    -0.045 C 
ATOM     48  H   LIG d   1       2.527  -1.676  -9.323  0.00  0.00     0.027 H 
ATOM     49  H   LIG d   1       0.835  -1.155  -9.511  0.00  0.00     0.027 H 
BRANCH  47  50
ATOM     50  C   LIG d   1       1.322  -2.986 -10.536  0.00  0.00     0.024 C 
ATOM     51  H   LIG d   1       0.401  -3.317 -10.055  0.00  0.00     0.036 H 
ATOM     52  H   LIG d   1       1.174  -2.947 -11.615  0.00  0.00     0.036 H 
BRANCH  50  53
ATOM     53  C   LIG d   1       2.431  -3.953 -10.215  0.00  0.00     0.213 C 
ATOM     54  O   LIG d   1       3.423  -3.993 -10.913  0.00  0.00    -0.276 OA
ATOM     55  N   LIG d   1       2.323  -4.775  -9.152  0.00  0.00    -0.313 N 
ATOM     56  H   LIG d   1       1.531  -4.743  -8.594  0.00  0.00     0.149 HD
BRANCH  55  57
ATOM     57  C   LIG d   1       3.402  -5.715  -8.841  0.00  0.00     0.035 C 
ATOM     58  H   LIG d   1       2.991  -6.720  -8.740  0.00  0.00     0.048 H 
ATOM     59  H   LIG d   1       4.139  -5.702  -9.644  0.00  0.00     0.048 H 
BRANCH  57  60
ATOM     60  C   LIG d   1       4.072  -5.305  -7.528  0.00  0.00     0.060 C 
ATOM     61  H   LIG d   1       4.794  -6.068  -7.234  0.00  0.00     0.057 H 
ATOM     62  H   LIG d   1       4.585  -4.353  -7.663  0.00  0.00     0.057 H 
BRANCH  60  63
ATOM     63  O   LIG d   1       3.080  -5.172  -6.508  0.00  0.00    -0.394 OA
ATOM     64  H   LIG d   1       2.293  -5.714  -6.651  0.00  0.00     0.209 HD
ENDBRANCH  60  63
ENDBRANCH  57  60
ENDBRANCH  55  57
ENDBRANCH  50  53
ENDBRANCH  47  50
ENDBRANCH  44  47
ENDBRANCH  41  44
ENDBRANCH  38  41
ENDBRANCH  35  38
ENDBRANCH   2  35
TORSDOF 19
ENDMDL
MODEL 5
REMARK VINA RESULT:      -5.6      2.863      3.867
REMARK  19 active torsions:
REMARK  status: ('A' for Active; 'I' for Inactive)
REMARK    1  A    between atoms: C_1  and  C_2 
REMARK    2  A    between atoms: C_2  and  C_3 
REMARK    3  A    between atoms: C_3  and  C_4 
REMARK    4  A    between atoms: C_4  and  C_5 
REMARK    5  A    between atoms: C_5  and  C_6 
REMARK    6  A    between atoms: C_7  and  C_8 
REMARK    7  A    between atoms: C_8  and  C_9 
REMARK    8  A    between atoms: C_10  and  C_11 
REMARK    9  A    between atoms: C_11  and  C_12 
REMARK   10  A    between atoms: C_13  and  C_14 
REMARK   11  A    between atoms: C_14  and  C_15 
REMARK   12  A    between atoms: C_15  and  C_16 
REMARK   13  A    between atoms: C_16  and  C_17 
REMARK   14  A    between atoms: C_17  and  C_18 
REMARK   15  A    between atoms: C_18  and  C_19 
REMARK   16  A    between atoms: C_19  and  C_20 
REMARK       I    between atoms: C_20  and  N_22 
REMARK   17  A    between atoms: N_22  and  C_23 
REMARK   18  A    between atoms: C_23  and  C_24 
REMARK   19  A    between atoms: C_24  and  O_25 
ROOT
ATOM      1  C   LIG d   1       2.497  -0.210  -8.116  0.00  0.00    -0.084 C 
ATOM      2  C   LIG d   1       2.450   0.794  -8.954  0.00  0.00    -0.088 C 
ATOM      3  H   LIG d   1       2.264  -1.209  -8.456  0.00  0.00     0.057 H 
ATOM      4  H   LIG d   1       2.064   0.648  -9.952  0.00  0.00     0.057 H 
ENDROOT
BRANCH   1   5
ATOM      5  C   LIG d   1       2.874   0.026  -6.676  0.00  0.00    -0.017 C 
ATOM      6  H   LIG d   1       3.125   1.077  -6.534  0.00  0.00     0.035 H 
ATOM      7  H   LIG d   1       2.035  -0.238  -6.033  0.00  0.00     0.035 H 
BRANCH   5   8
ATOM      8  C   LIG d   1       4.066  -0.827  -6.322  0.00  0.00    -0.084 C 
ATOM      9  C   LIG d   1       5.212  -0.263  -6.031  0.00  0.00    -0.084 C 
ATOM     10  H   LIG d   1       5.302   0.813  -6.043  0.00  0.00     0.057 H 
ATOM     11  H   LIG d   1       3.974  -1.903  -6.309  0.00  0.00     0.057 H 
BRANCH   9  12
ATOM     12  C   LIG d   1       6.402  -1.117  -5.677  0.00  0.00    -0.017 C 
ATOM     13  H   LIG d   1       6.063  -2.115  -5.400  0.00  0.00     0.035 H 
ATOM     14  H   LIG d   1       7.069  -1.184  -6.535  0.00  0.00     0.035 H 
BRANCH  12  15
ATOM     15  C   LIG d   1       7.137  -0.496  -4.517  0.00  0.00    -0.084 C 
ATOM     16  C   LIG d   1       6.816  -0.820  -3.289  0.00  0.00    -0.088 C 
ATOM     17  H   LIG d   1       7.255  -0.289  -2.457  0.00  0.00     0.057 H 
ATOM     18  H   LIG d   1       7.929   0.216  -4.698  0.00  0.00     0.057 H 
BRANCH  16  19
ATOM     19  C   LIG d   1       5.833  -1.934  -3.036  0.00  0.00    -0.035 C 
ATOM     20  H   LIG d   1       5.376  -2.237  -3.979  0.00  0.00     0.031 H 
ATOM     21  H   LIG d   1       6.353  -2.785  -2.595  0.00  0.00     0.031 H 
BRANCH  19  22
ATOM     22  C   LIG d   1       4.746  -1.448  -2.076  0.00  0.00    -0.050 C 
ATOM     23  H   LIG d   1       4.775  -2.044  -1.163  0.00  0.00     0.027 H 
ATOM     24  H   LIG d   1       4.920  -0.400  -1.831  0.00  0.00     0.027 H 
BRANCH  22  25
ATOM     25  C   LIG d   1       3.375  -1.596  -2.738  0.00  0.00    -0.053 C 
ATOM     26  H   LIG d   1       3.488  -2.101  -3.698  0.00  0.00     0.026 H 
ATOM     27  H   LIG d   1       2.722  -2.184  -2.093  0.00  0.00     0.026 H 
BRANCH  25  28
ATOM     28  C   LIG d   1       2.763  -0.213  -2.960  0.00  0.00    -0.056 C 
ATOM     29  H   LIG d   1       2.686  -0.016  -4.029  0.00  0.00     0.026 H 
ATOM     30  H   LIG d   1       1.770  -0.178  -2.512  0.00  0.00     0.026 H 
BRANCH  28  31
ATOM     31  C   LIG d   1       3.652   0.848  -2.308  0.00  0.00    -0.065 C 
ATOM     32  H   LIG d   1       4.695   0.540  -2.378  0.00  0.00     0.023 H 
ATOM     33  H   LIG d   1       3.518   1.800  -2.822  0.00  0.00     0.023 H 
ATOM     34  H   LIG d   1       3.375   0.960  -1.259  0.00  0.00     0.023 H 
ENDBRANCH  28  31
ENDBRANCH  25  28
ENDBRANCH  22  25
ENDBRANCH  19  22
ENDBRANCH  16  19
ENDBRANCH  12  15
ENDBRANCH   9  12
ENDBRANCH   5   8
ENDBRANCH   1   5
BRANCH   2  35
ATOM     35  C   LIG d   1       2.938   2.155  -8.528  0.00  0.00    -0.035 C 
ATOM     36  H   LIG d   1       3.323   2.100  -7.510  0.00  0.00     0.031 H 
ATOM     37  H   LIG d   1       2.112   2.865  -8.565  0.00  0.00     0.031 H 
BRANCH  35  38
ATOM     38  C   LIG d   1       4.051   2.618  -9.469  0.00  0.00    -0.050 C 
ATOM     39  H   LIG d   1       4.727   3.283  -8.932  0.00  0.00     0.027 H 
ATOM     40  H   LIG d   1       3.614   3.150 -10.314  0.00  0.00     0.027 H 
BRANCH  38  41
ATOM     41  C   LIG d   1       4.828   1.402  -9.978  0.00  0.00    -0.053 C 
ATOM     42  H   LIG d   1       4.245   0.498  -9.799  0.00  0.00     0.026 H 
ATOM     43  H   LIG d   1       5.011   1.510 -11.047  0.00  0.00     0.026 H 
BRANCH  41  44
ATOM     44  C   LIG d   1       6.163   1.303  -9.238  0.00  0.00    -0.053 C 
ATOM     45  H   LIG d   1       6.856   2.044  -9.637  0.00  0.00     0.026 H 
ATOM     46  H   LIG d   1       6.005   1.489  -8.176  0.00  0.00     0.026 H 
BRANCH  44  47
ATOM     47  C   LIG d   1       6.750  -0.097  -9.429  0.00  0.00    -0.045 C 
ATOM     48  H   LIG d   1       7.499  -0.072 -10.221  0.00  0.00     0.027 H 
ATOM     49  H   LIG d   1       7.214  -0.426  -8.500  0.00  0.00     0.027 H 
BRANCH  47  50
ATOM     50  C   LIG d   1       5.634  -1.070  -9.815  0.00  0.00     0.024 C 
ATOM     51  H   LIG d   1       4.672  -0.659  -9.506  0.00  0.00     0.036 H 
ATOM     52  H   LIG d   1       5.637  -1.217 -10.895  0.00  0.00     0.036 H 
BRANCH  50  53
ATOM     53  C   LIG d   1       5.859  -2.391  -9.127  0.00  0.00     0.213 C 
ATOM     54  O   LIG d   1       6.981  -2.727  -8.810  0.00  0.00    -0.276 OA
ATOM     55  N   LIG d   1       4.814  -3.201  -8.864  0.00  0.00    -0.313 N 
ATOM     56  H   LIG d   1       3.918  -2.933  -9.117  0.00  0.00     0.149 HD
BRANCH  55  57
ATOM     57  C   LIG d   1       5.034  -4.486  -8.196  0.00  0.00     0.035 C 
ATOM     58  H   LIG d   1       5.352  -5.227  -8.929  0.00  0.00     0.048 H 
ATOM     59  H   LIG d   1       5.806  -4.373  -7.435  0.00  0.00     0.048 H 
BRANCH  57  60
ATOM     60  C   LIG d   1       3.733  -4.947  -7.536  0.00  0.00     0.060 C 
ATOM     61  H   LIG d   1       2.883  -4.579  -8.111  0.00  0.00     0.057 H 
ATOM     62  H   LIG d   1       3.706  -6.036  -7.505  0.00  0.00     0.057 H 
BRANCH  60  63
ATOM     63  O   LIG d   1       3.665  -4.431  -6.205  0.00  0.00    -0.394 OA
ATOM     64  H   LIG d   1       3.005  -4.864  -5.647  0.00  0.00     0.209 HD
ENDBRANCH  60  63
ENDBRANCH  57  60
ENDBRANCH  55  57
ENDBRANCH  50  53
ENDBRANCH  47  50
ENDBRANCH  44  47
ENDBRANCH  41  44
ENDBRANCH  38  41
ENDBRANCH  35  38
ENDBRANCH   2  35
TORSDOF 19
ENDMDL
MODEL 6
REMARK VINA RESULT:      -5.5      4.095      5.732
REMARK  19 active torsions:
REMARK  status: ('A' for Active; 'I' for Inactive)
REMARK    1  A    between atoms: C_1  and  C_2 
REMARK    2  A    between atoms: C_2  and  C_3 
REMARK    3  A    between atoms: C_3  and  C_4 
REMARK    4  A    between atoms: C_4  and  C_5 
REMARK    5  A    between atoms: C_5  and  C_6 
REMARK    6  A    between atoms: C_7  and  C_8 
REMARK    7  A    between atoms: C_8  and  C_9 
REMARK    8  A    between atoms: C_10  and  C_11 
REMARK    9  A    between atoms: C_11  and  C_12 
REMARK   10  A    between atoms: C_13  and  C_14 
REMARK   11  A    between atoms: C_14  and  C_15 
REMARK   12  A    between atoms: C_15  and  C_16 
REMARK   13  A    between atoms: C_16  and  C_17 
REMARK   14  A    between atoms: C_17  and  C_18 
REMARK   15  A    between atoms: C_18  and  C_19 
REMARK   16  A    between atoms: C_19  and  C_20 
REMARK       I    between atoms: C_20  and  N_22 
REMARK   17  A    between atoms: N_22  and  C_23 
REMARK   18  A    between atoms: C_23  and  C_24 
REMARK   19  A    between atoms: C_24  and  O_25 
ROOT
ATOM      1  C   LIG d   1       2.533  -0.265  -7.999  0.00  0.00    -0.084 C 
ATOM      2  C   LIG d   1       2.519   0.130  -9.247  0.00  0.00    -0.088 C 
ATOM      3  H   LIG d   1       2.269  -1.283  -7.751  0.00  0.00     0.057 H 
ATOM      4  H   LIG d   1       2.130  -0.522 -10.016  0.00  0.00     0.057 H 
ENDROOT
BRANCH   1   5
ATOM      5  C   LIG d   1       2.915   0.701  -6.907  0.00  0.00    -0.017 C 
ATOM      6  H   LIG d   1       3.852   1.194  -7.169  0.00  0.00     0.035 H 
ATOM      7  H   LIG d   1       2.131   1.450  -6.793  0.00  0.00     0.035 H 
BRANCH   5   8
ATOM      8  C   LIG d   1       3.088  -0.048  -5.611  0.00  0.00    -0.084 C 
ATOM      9  C   LIG d   1       2.343   0.253  -4.576  0.00  0.00    -0.084 C 
ATOM     10  H   LIG d   1       1.605   1.037  -4.652  0.00  0.00     0.057 H 
ATOM     11  H   LIG d   1       3.826  -0.833  -5.535  0.00  0.00     0.057 H 
BRANCH   9  12
ATOM     12  C   LIG d   1       2.517  -0.497  -3.280  0.00  0.00    -0.017 C 
ATOM     13  H   LIG d   1       1.547  -0.613  -2.796  0.00  0.00     0.035 H 
ATOM     14  H   LIG d   1       2.944  -1.478  -3.481  0.00  0.00     0.035 H 
BRANCH  12  15
ATOM     15  C   LIG d   1       3.440   0.276  -2.373  0.00  0.00    -0.084 C 
ATOM     16  C   LIG d   1       4.529  -0.287  -1.913  0.00  0.00    -0.088 C 
ATOM     17  H   LIG d   1       5.127   0.219  -1.170  0.00  0.00     0.057 H 
ATOM     18  H   LIG d   1       3.204   1.295  -2.103  0.00  0.00     0.057 H 
BRANCH  16  19
ATOM     19  C   LIG d   1       4.949  -1.643  -2.421  0.00  0.00    -0.035 C 
ATOM     20  H   LIG d   1       5.152  -2.301  -1.576  0.00  0.00     0.031 H 
ATOM     21  H   LIG d   1       4.148  -2.067  -3.027  0.00  0.00     0.031 H 
BRANCH  19  22
ATOM     22  C   LIG d   1       6.212  -1.502  -3.272  0.00  0.00    -0.050 C 
ATOM     23  H   LIG d   1       6.185  -0.553  -3.808  0.00  0.00     0.027 H 
ATOM     24  H   LIG d   1       7.090  -1.528  -2.625  0.00  0.00     0.027 H 
BRANCH  22  25
ATOM     25  C   LIG d   1       6.284  -2.653  -4.276  0.00  0.00    -0.053 C 
ATOM     26  H   LIG d   1       6.748  -2.302  -5.198  0.00  0.00     0.026 H 
ATOM     27  H   LIG d   1       6.878  -3.464  -3.856  0.00  0.00     0.026 H 
BRANCH  25  28
ATOM     28  C   LIG d   1       4.872  -3.157  -4.576  0.00  0.00    -0.056 C 
ATOM     29  H   LIG d   1       4.712  -4.110  -4.073  0.00  0.00     0.026 H 
ATOM     30  H   LIG d   1       4.142  -2.431  -4.219  0.00  0.00     0.026 H 
BRANCH  28  31
ATOM     31  C   LIG d   1       4.708  -3.343  -6.086  0.00  0.00    -0.065 C 
ATOM     32  H   LIG d   1       3.918  -4.070  -6.279  0.00  0.00     0.023 H 
ATOM     33  H   LIG d   1       4.444  -2.389  -6.543  0.00  0.00     0.023 H 
ATOM     34  H   LIG d   1       5.645  -3.703  -6.512  0.00  0.00     0.023 H 
ENDBRANCH  28  31
ENDBRANCH  25  28
ENDBRANCH  22  25
ENDBRANCH  19  22
ENDBRANCH  16  19
ENDBRANCH  12  15
ENDBRANCH   9  12
ENDBRANCH   5   8
ENDBRANCH   1   5
BRANCH   2  35
ATOM     35  C   LIG d   1       3.048   1.492  -9.613  0.00  0.00    -0.035 C 
ATOM     36  H   LIG d   1       3.314   2.035  -8.705  0.00  0.00     0.031 H 
ATOM     37  H   LIG d   1       2.282   2.047 -10.155  0.00  0.00     0.031 H 
BRANCH  35  38
ATOM     38  C   LIG d   1       4.288   1.340 -10.496  0.00  0.00    -0.050 C 
ATOM     39  H   LIG d   1       4.441   2.255 -11.068  0.00  0.00     0.027 H 
ATOM     40  H   LIG d   1       4.146   0.503 -11.180  0.00  0.00     0.027 H 
BRANCH  38  41
ATOM     41  C   LIG d   1       5.512   1.077  -9.617  0.00  0.00    -0.053 C 
ATOM     42  H   LIG d   1       6.241   1.875  -9.762  0.00  0.00     0.026 H 
ATOM     43  H   LIG d   1       5.209   1.048  -8.571  0.00  0.00     0.026 H 
BRANCH  41  44
ATOM     44  C   LIG d   1       6.140  -0.263 -10.004  0.00  0.00    -0.053 C 
ATOM     45  H   LIG d   1       5.357  -0.954 -10.316  0.00  0.00     0.026 H 
ATOM     46  H   LIG d   1       6.841  -0.113 -10.825  0.00  0.00     0.026 H 
BRANCH  44  47
ATOM     47  C   LIG d   1       6.883  -0.845  -8.800  0.00  0.00    -0.045 C 
ATOM     48  H   LIG d   1       6.755  -1.928  -8.784  0.00  0.00     0.027 H 
ATOM     49  H   LIG d   1       7.944  -0.606  -8.877  0.00  0.00     0.027 H 
BRANCH  47  50
ATOM     50  C   LIG d   1       6.316  -0.246  -7.512  0.00  0.00     0.024 C 
ATOM     51  H   LIG d   1       5.669   0.596  -7.758  0.00  0.00     0.036 H 
ATOM     52  H   LIG d   1       5.739  -1.004  -6.982  0.00  0.00     0.036 H 
BRANCH  50  53
ATOM     53  C   LIG d   1       7.447   0.228  -6.638  0.00  0.00     0.213 C 
ATOM     54  O   LIG d   1       8.387  -0.506  -6.409  0.00  0.00    -0.276 OA
ATOM     55  N   LIG d   1       7.417   1.467  -6.108  0.00  0.00    -0.313 N 
ATOM     56  H   LIG d   1       6.667   2.053  -6.291  0.00  0.00     0.149 HD
BRANCH  55  57
ATOM     57  C   LIG d   1       8.517   1.927  -5.258  0.00  0.00     0.035 C 
ATOM     58  H   LIG d   1       9.429   1.394  -5.523  0.00  0.00     0.048 H 
ATOM     59  H   LIG d   1       8.666   2.997  -5.403  0.00  0.00     0.048 H 
BRANCH  57  60
ATOM     60  C   LIG d   1       8.176   1.656  -3.791  0.00  0.00     0.060 C 
ATOM     61  H   LIG d   1       8.365   0.607  -3.562  0.00  0.00     0.057 H 
ATOM     62  H   LIG d   1       8.794   2.286  -3.151  0.00  0.00     0.057 H 
BRANCH  60  63
ATOM     63  O   LIG d   1       6.796   1.951  -3.560  0.00  0.00    -0.394 OA
ATOM     64  H   LIG d   1       6.647   2.674  -2.935  0.00  0.00     0.209 HD
ENDBRANCH  60  63
ENDBRANCH  57  60
ENDBRANCH  55  57
ENDBRANCH  50  53
ENDBRANCH  47  50
ENDBRANCH  44  47
ENDBRANCH  41  44
ENDBRANCH  38  41
ENDBRANCH  35  38
ENDBRANCH   2  35
TORSDOF 19
ENDMDL
MODEL 7
REMARK VINA RESULT:      -5.5      4.407      8.421
REMARK  19 active torsions:
REMARK  status: ('A' for Active; 'I' for Inactive)
REMARK    1  A    between atoms: C_1  and  C_2 
REMARK    2  A    between atoms: C_2  and  C_3 
REMARK    3  A    between atoms: C_3  and  C_4 
REMARK    4  A    between atoms: C_4  and  C_5 
REMARK    5  A    between atoms: C_5  and  C_6 
REMARK    6  A    between atoms: C_7  and  C_8 
REMARK    7  A    between atoms: C_8  and  C_9 
REMARK    8  A    between atoms: C_10  and  C_11 
REMARK    9  A    between atoms: C_11  and  C_12 
REMARK   10  A    between atoms: C_13  and  C_14 
REMARK   11  A    between atoms: C_14  and  C_15 
REMARK   12  A    between atoms: C_15  and  C_16 
REMARK   13  A    between atoms: C_16  and  C_17 
REMARK   14  A    between atoms: C_17  and  C_18 
REMARK   15  A    between atoms: C_18  and  C_19 
REMARK   16  A    between atoms: C_19  and  C_20 
REMARK       I    between atoms: C_20  and  N_22 
REMARK   17  A    between atoms: N_22  and  C_23 
REMARK   18  A    between atoms: C_23  and  C_24 
REMARK   19  A    between atoms: C_24  and  O_25 
ROOT
ATOM      1  C   LIG d   1       4.636  -2.407  -4.771  0.00  0.00    -0.084 C 
ATOM      2  C   LIG d   1       4.555  -2.668  -3.491  0.00  0.00    -0.088 C 
ATOM      3  H   LIG d   1       5.203  -3.058  -5.421  0.00  0.00     0.057 H 
ATOM      4  H   LIG d   1       5.151  -3.461  -3.062  0.00  0.00     0.057 H 
ENDROOT
BRANCH   1   5
ATOM      5  C   LIG d   1       3.938  -1.198  -5.339  0.00  0.00    -0.017 C 
ATOM      6  H   LIG d   1       3.134  -1.520  -6.001  0.00  0.00     0.035 H 
ATOM      7  H   LIG d   1       3.523  -0.603  -4.526  0.00  0.00     0.035 H 
BRANCH   5   8
ATOM      8  C   LIG d   1       4.926  -0.367  -6.117  0.00  0.00    -0.084 C 
ATOM      9  C   LIG d   1       5.611  -0.906  -7.094  0.00  0.00    -0.084 C 
ATOM     10  H   LIG d   1       5.468  -1.947  -7.343  0.00  0.00     0.057 H 
ATOM     11  H   LIG d   1       5.068   0.675  -5.868  0.00  0.00     0.057 H 
BRANCH   9  12
ATOM     12  C   LIG d   1       6.599  -0.073  -7.870  0.00  0.00    -0.017 C 
ATOM     13  H   LIG d   1       6.538   0.964  -7.540  0.00  0.00     0.035 H 
ATOM     14  H   LIG d   1       7.606  -0.451  -7.701  0.00  0.00     0.035 H 
BRANCH  12  15
ATOM     15  C   LIG d   1       6.273  -0.151  -9.340  0.00  0.00    -0.084 C 
ATOM     16  C   LIG d   1       5.620   0.826  -9.919  0.00  0.00    -0.088 C 
ATOM     17  H   LIG d   1       5.280   0.719 -10.938  0.00  0.00     0.057 H 
ATOM     18  H   LIG d   1       6.579  -1.012  -9.916  0.00  0.00     0.057 H 
BRANCH  16  19
ATOM     19  C   LIG d   1       5.341   2.099  -9.162  0.00  0.00    -0.035 C 
ATOM     20  H   LIG d   1       5.516   1.935  -8.098  0.00  0.00     0.031 H 
ATOM     21  H   LIG d   1       6.002   2.888  -9.522  0.00  0.00     0.031 H 
BRANCH  19  22
ATOM     22  C   LIG d   1       3.885   2.515  -9.380  0.00  0.00    -0.050 C 
ATOM     23  H   LIG d   1       3.774   3.577  -9.162  0.00  0.00     0.027 H 
ATOM     24  H   LIG d   1       3.605   2.326 -10.416  0.00  0.00     0.027 H 
BRANCH  22  25
ATOM     25  C   LIG d   1       2.978   1.706  -8.451  0.00  0.00    -0.053 C 
ATOM     26  H   LIG d   1       3.589   1.146  -7.743  0.00  0.00     0.026 H 
ATOM     27  H   LIG d   1       2.321   2.384  -7.906  0.00  0.00     0.026 H 
BRANCH  25  28
ATOM     28  C   LIG d   1       2.136   0.734  -9.279  0.00  0.00    -0.056 C 
ATOM     29  H   LIG d   1       1.079   0.974  -9.156  0.00  0.00     0.026 H 
ATOM     30  H   LIG d   1       2.408   0.821 -10.330  0.00  0.00     0.026 H 
BRANCH  28  31
ATOM     31  C   LIG d   1       2.393  -0.696  -8.802  0.00  0.00    -0.065 C 
ATOM     32  H   LIG d   1       1.446  -1.230  -8.725  0.00  0.00     0.023 H 
ATOM     33  H   LIG d   1       3.041  -1.206  -9.515  0.00  0.00     0.023 H 
ATOM     34  H   LIG d   1       2.877  -0.672  -7.825  0.00  0.00     0.023 H 
ENDBRANCH  28  31
ENDBRANCH  25  28
ENDBRANCH  22  25
ENDBRANCH  19  22
ENDBRANCH  16  19
ENDBRANCH  12  15
ENDBRANCH   9  12
ENDBRANCH   5   8
ENDBRANCH   1   5
BRANCH   2  35
ATOM     35  C   LIG d   1       3.629  -1.865  -2.614  0.00  0.00    -0.035 C 
ATOM     36  H   LIG d   1       3.085  -2.536  -1.950  0.00  0.00     0.031 H 
ATOM     37  H   LIG d   1       2.921  -1.319  -3.238  0.00  0.00     0.031 H 
BRANCH  35  38
ATOM     38  C   LIG d   1       4.444  -0.874  -1.781  0.00  0.00    -0.050 C 
ATOM     39  H   LIG d   1       5.501  -0.978  -2.026  0.00  0.00     0.027 H 
ATOM     40  H   LIG d   1       4.295  -1.082  -0.721  0.00  0.00     0.027 H 
BRANCH  38  41
ATOM     41  C   LIG d   1       3.985   0.552  -2.091  0.00  0.00    -0.053 C 
ATOM     42  H   LIG d   1       3.174   0.522  -2.819  0.00  0.00     0.026 H 
ATOM     43  H   LIG d   1       3.635   1.027  -1.175  0.00  0.00     0.026 H 
BRANCH  41  44
ATOM     44  C   LIG d   1       5.156   1.351  -2.666  0.00  0.00    -0.053 C 
ATOM     45  H   LIG d   1       4.854   1.812  -3.606  0.00  0.00     0.026 H 
ATOM     46  H   LIG d   1       5.451   2.126  -1.959  0.00  0.00     0.026 H 
BRANCH  44  47
ATOM     47  C   LIG d   1       6.339   0.413  -2.916  0.00  0.00    -0.045 C 
ATOM     48  H   LIG d   1       6.746   0.079  -1.961  0.00  0.00     0.027 H 
ATOM     49  H   LIG d   1       6.004  -0.450  -3.491  0.00  0.00     0.027 H 
BRANCH  47  50
ATOM     50  C   LIG d   1       7.423   1.157  -3.699  0.00  0.00     0.024 C 
ATOM     51  H   LIG d   1       6.957   1.901  -4.346  0.00  0.00     0.036 H 
ATOM     52  H   LIG d   1       8.098   1.654  -3.002  0.00  0.00     0.036 H 
BRANCH  50  53
ATOM     53  C   LIG d   1       8.199   0.176  -4.538  0.00  0.00     0.213 C 
ATOM     54  O   LIG d   1       9.008   0.577  -5.349  0.00  0.00    -0.276 OA
ATOM     55  N   LIG d   1       7.995  -1.148  -4.389  0.00  0.00    -0.313 N 
ATOM     56  H   LIG d   1       7.350  -1.469  -3.742  0.00  0.00     0.149 HD
BRANCH  55  57
ATOM     57  C   LIG d   1       8.750  -2.102  -5.206  0.00  0.00     0.035 C 
ATOM     58  H   LIG d   1       8.096  -2.920  -5.507  0.00  0.00     0.048 H 
ATOM     59  H   LIG d   1       9.133  -1.597  -6.093  0.00  0.00     0.048 H 
BRANCH  57  60
ATOM     60  C   LIG d   1       9.919  -2.657  -4.392  0.00  0.00     0.060 C 
ATOM     61  H   LIG d   1       9.612  -2.783  -3.354  0.00  0.00     0.057 H 
ATOM     62  H   LIG d   1      10.223  -3.621  -4.801  0.00  0.00     0.057 H 
BRANCH  60  63
ATOM     63  O   LIG d   1      11.019  -1.747  -4.455  0.00  0.00    -0.394 OA
ATOM     64  H   LIG d   1      10.767  -0.818  -4.365  0.00  0.00     0.209 HD
ENDBRANCH  60  63
ENDBRANCH  57  60
ENDBRANCH  55  57
ENDBRANCH  50  53
ENDBRANCH  47  50
ENDBRANCH  44  47
ENDBRANCH  41  44
ENDBRANCH  38  41
ENDBRANCH  35  38
ENDBRANCH   2  35
TORSDOF 19
ENDMDL
MODEL 8
REMARK VINA RESULT:      -5.4      2.918      6.529
REMARK  19 active torsions:
REMARK  status: ('A' for Active; 'I' for Inactive)
REMARK    1  A    between atoms: C_1  and  C_2 
REMARK    2  A    between atoms: C_2  and  C_3 
REMARK    3  A    between atoms: C_3  and  C_4 
REMARK    4  A    between atoms: C_4  and  C_5 
REMARK    5  A    between atoms: C_5  and  C_6 
REMARK    6  A    between atoms: C_7  and  C_8 
REMARK    7  A    between atoms: C_8  and  C_9 
REMARK    8  A    between atoms: C_10  and  C_11 
REMARK    9  A    between atoms: C_11  and  C_12 
REMARK   10  A    between atoms: C_13  and  C_14 
REMARK   11  A    between atoms: C_14  and  C_15 
REMARK   12  A    between atoms: C_15  and  C_16 
REMARK   13  A    between atoms: C_16  and  C_17 
REMARK   14  A    between atoms: C_17  and  C_18 
REMARK   15  A    between atoms: C_18  and  C_19 
REMARK   16  A    between atoms: C_19  and  C_20 
REMARK       I    between atoms: C_20  and  N_22 
REMARK   17  A    between atoms: N_22  and  C_23 
REMARK   18  A    between atoms: C_23  and  C_24 
REMARK   19  A    between atoms: C_24  and  O_25 
ROOT
ATOM      1  C   LIG d   1       3.637   0.929  -2.333  0.00  0.00    -0.084 C 
ATOM      2  C   LIG d   1       4.933   1.102  -2.258  0.00  0.00    -0.088 C 
ATOM      3  H   LIG d   1       2.969   1.750  -2.116  0.00  0.00     0.057 H 
ATOM      4  H   LIG d   1       5.333   2.025  -1.863  0.00  0.00     0.057 H 
ENDROOT
BRANCH   1   5
ATOM      5  C   LIG d   1       3.077  -0.415  -2.722  0.00  0.00    -0.017 C 
ATOM      6  H   LIG d   1       3.759  -1.201  -2.396  0.00  0.00     0.035 H 
ATOM      7  H   LIG d   1       2.107  -0.555  -2.246  0.00  0.00     0.035 H 
BRANCH   5   8
ATOM      8  C   LIG d   1       2.918  -0.479  -4.219  0.00  0.00    -0.084 C 
ATOM      9  C   LIG d   1       2.709   0.617  -4.904  0.00  0.00    -0.084 C 
ATOM     10  H   LIG d   1       2.653   1.569  -4.396  0.00  0.00     0.057 H 
ATOM     11  H   LIG d   1       2.975  -1.431  -4.728  0.00  0.00     0.057 H 
BRANCH   9  12
ATOM     12  C   LIG d   1       2.549   0.552  -6.401  0.00  0.00    -0.017 C 
ATOM     13  H   LIG d   1       1.525   0.268  -6.644  0.00  0.00     0.035 H 
ATOM     14  H   LIG d   1       2.769   1.527  -6.834  0.00  0.00     0.035 H 
BRANCH  12  15
ATOM     15  C   LIG d   1       3.501  -0.473  -6.963  0.00  0.00    -0.084 C 
ATOM     16  C   LIG d   1       3.303  -0.963  -8.162  0.00  0.00    -0.088 C 
ATOM     17  H   LIG d   1       3.910  -1.783  -8.518  0.00  0.00     0.057 H 
ATOM     18  H   LIG d   1       4.346  -0.803  -6.377  0.00  0.00     0.057 H 
BRANCH  16  19
ATOM     19  C   LIG d   1       2.229  -0.383  -9.045  0.00  0.00    -0.035 C 
ATOM     20  H   LIG d   1       1.335  -1.004  -8.985  0.00  0.00     0.031 H 
ATOM     21  H   LIG d   1       1.992   0.628  -8.713  0.00  0.00     0.031 H 
BRANCH  19  22
ATOM     22  C   LIG d   1       2.724  -0.342 -10.492  0.00  0.00    -0.050 C 
ATOM     23  H   LIG d   1       2.971  -1.351 -10.820  0.00  0.00     0.027 H 
ATOM     24  H   LIG d   1       1.941   0.067 -11.132  0.00  0.00     0.027 H 
BRANCH  22  25
ATOM     25  C   LIG d   1       3.969   0.542 -10.581  0.00  0.00    -0.053 C 
ATOM     26  H   LIG d   1       4.704   0.210  -9.847  0.00  0.00     0.026 H 
ATOM     27  H   LIG d   1       4.396   0.468 -11.581  0.00  0.00     0.026 H 
BRANCH  25  28
ATOM     28  C   LIG d   1       3.585   1.995 -10.296  0.00  0.00    -0.056 C 
ATOM     29  H   LIG d   1       3.683   2.582 -11.209  0.00  0.00     0.026 H 
ATOM     30  H   LIG d   1       2.554   2.037  -9.946  0.00  0.00     0.026 H 
BRANCH  28  31
ATOM     31  C   LIG d   1       4.512   2.565  -9.221  0.00  0.00    -0.065 C 
ATOM     32  H   LIG d   1       5.235   1.806  -8.924  0.00  0.00     0.023 H 
ATOM     33  H   LIG d   1       5.038   3.433  -9.618  0.00  0.00     0.023 H 
ATOM     34  H   LIG d   1       3.922   2.865  -8.354  0.00  0.00     0.023 H 
ENDBRANCH  28  31
ENDBRANCH  25  28
ENDBRANCH  22  25
ENDBRANCH  19  22
ENDBRANCH  16  19
ENDBRANCH  12  15
ENDBRANCH   9  12
ENDBRANCH   5   8
ENDBRANCH   1   5
BRANCH   2  35
ATOM     35  C   LIG d   1       5.867   0.015  -2.723  0.00  0.00    -0.035 C 
ATOM     36  H   LIG d   1       5.293  -0.881  -2.959  0.00  0.00     0.031 H 
ATOM     37  H   LIG d   1       6.584  -0.211  -1.933  0.00  0.00     0.031 H 
BRANCH  35  38
ATOM     38  C   LIG d   1       6.615   0.483  -3.972  0.00  0.00    -0.050 C 
ATOM     39  H   LIG d   1       7.646   0.719  -3.710  0.00  0.00     0.027 H 
ATOM     40  H   LIG d   1       6.130   1.374  -4.374  0.00  0.00     0.027 H 
BRANCH  38  41
ATOM     41  C   LIG d   1       6.596  -0.626  -5.025  0.00  0.00    -0.053 C 
ATOM     42  H   LIG d   1       5.772  -0.454  -5.719  0.00  0.00     0.026 H 
ATOM     43  H   LIG d   1       7.538  -0.623  -5.573  0.00  0.00     0.026 H 
BRANCH  41  44
ATOM     44  C   LIG d   1       6.409  -1.979  -4.337  0.00  0.00    -0.053 C 
ATOM     45  H   LIG d   1       7.352  -2.291  -3.885  0.00  0.00     0.026 H 
ATOM     46  H   LIG d   1       5.647  -1.892  -3.563  0.00  0.00     0.026 H 
BRANCH  44  47
ATOM     47  C   LIG d   1       5.971  -3.020  -5.369  0.00  0.00    -0.045 C 
ATOM     48  H   LIG d   1       5.801  -2.531  -6.328  0.00  0.00     0.027 H 
ATOM     49  H   LIG d   1       6.751  -3.774  -5.479  0.00  0.00     0.027 H 
BRANCH  47  50
ATOM     50  C   LIG d   1       4.677  -3.689  -4.902  0.00  0.00     0.024 C 
ATOM     51  H   LIG d   1       4.712  -3.833  -3.821  0.00  0.00     0.036 H 
ATOM     52  H   LIG d   1       3.828  -3.055  -5.156  0.00  0.00     0.036 H 
BRANCH  50  53
ATOM     53  C   LIG d   1       4.528  -5.025  -5.581  0.00  0.00     0.213 C 
ATOM     54  O   LIG d   1       3.481  -5.320  -6.119  0.00  0.00    -0.276 OA
ATOM     55  N   LIG d   1       5.558  -5.895  -5.592  0.00  0.00    -0.313 N 
ATOM     56  H   LIG d   1       6.395  -5.659  -5.163  0.00  0.00     0.149 HD
BRANCH  55  57
ATOM     57  C   LIG d   1       5.413  -7.194  -6.252  0.00  0.00     0.035 C 
ATOM     58  H   LIG d   1       5.913  -7.960  -5.661  0.00  0.00     0.048 H 
ATOM     59  H   LIG d   1       4.355  -7.439  -6.344  0.00  0.00     0.048 H 
BRANCH  57  60
ATOM     60  C   LIG d   1       6.044  -7.132  -7.645  0.00  0.00     0.060 C 
ATOM     61  H   LIG d   1       6.981  -6.577  -7.595  0.00  0.00     0.057 H 
ATOM     62  H   LIG d   1       6.239  -8.143  -8.002  0.00  0.00     0.057 H 
BRANCH  60  63
ATOM     63  O   LIG d   1       5.149  -6.474  -8.544  0.00  0.00    -0.394 OA
ATOM     64  H   LIG d   1       4.410  -7.024  -8.837  0.00  0.00     0.209 HD
ENDBRANCH  60  63
ENDBRANCH  57  60
ENDBRANCH  55  57
ENDBRANCH  50  53
ENDBRANCH  47  50
ENDBRANCH  44  47
ENDBRANCH  41  44
ENDBRANCH  38  41
ENDBRANCH  35  38
ENDBRANCH   2  35
TORSDOF 19
ENDMDL
MODEL 9
REMARK VINA RESULT:      -5.4      1.136      2.398
REMARK  19 active torsions:
REMARK  status: ('A' for Active; 'I' for Inactive)
REMARK    1  A    between atoms: C_1  and  C_2 
REMARK    2  A    between atoms: C_2  and  C_3 
REMARK    3  A    between atoms: C_3  and  C_4 
REMARK    4  A    between atoms: C_4  and  C_5 
REMARK    5  A    between atoms: C_5  and  C_6 
REMARK    6  A    between atoms: C_7  and  C_8 
REMARK    7  A    between atoms: C_8  and  C_9 
REMARK    8  A    between atoms: C_10  and  C_11 
REMARK    9  A    between atoms: C_11  and  C_12 
REMARK   10  A    between atoms: C_13  and  C_14 
REMARK   11  A    between atoms: C_14  and  C_15 
REMARK   12  A    between atoms: C_15  and  C_16 
REMARK   13  A    between atoms: C_16  and  C_17 
REMARK   14  A    between atoms: C_17  and  C_18 
REMARK   15  A    between atoms: C_18  and  C_19 
REMARK   16  A    between atoms: C_19  and  C_20 
REMARK       I    between atoms: C_20  and  N_22 
REMARK   17  A    between atoms: N_22  and  C_23 
REMARK   18  A    between atoms: C_23  and  C_24 
REMARK   19  A    between atoms: C_24  and  O_25 
ROOT
ATOM      1  C   LIG d   1       3.267   2.083  -8.332  0.00  0.00    -0.084 C 
ATOM      2  C   LIG d   1       3.777   2.330  -9.512  0.00  0.00    -0.088 C 
ATOM      3  H   LIG d   1       3.336   2.824  -7.548  0.00  0.00     0.057 H 
ATOM      4  H   LIG d   1       4.371   3.218  -9.670  0.00  0.00     0.057 H 
ENDROOT
BRANCH   1   5
ATOM      5  C   LIG d   1       2.583   0.767  -8.066  0.00  0.00    -0.017 C 
ATOM      6  H   LIG d   1       1.533   0.944  -7.830  0.00  0.00     0.035 H 
ATOM      7  H   LIG d   1       2.654   0.136  -8.951  0.00  0.00     0.035 H 
BRANCH   5   8
ATOM      8  C   LIG d   1       3.250   0.080  -6.902  0.00  0.00    -0.084 C 
ATOM      9  C   LIG d   1       4.502  -0.294  -6.992  0.00  0.00    -0.084 C 
ATOM     10  H   LIG d   1       5.057  -0.108  -7.900  0.00  0.00     0.057 H 
ATOM     11  H   LIG d   1       2.694  -0.105  -5.994  0.00  0.00     0.057 H 
BRANCH   9  12
ATOM     12  C   LIG d   1       5.168  -0.981  -5.828  0.00  0.00    -0.017 C 
ATOM     13  H   LIG d   1       6.244  -1.023  -5.999  0.00  0.00     0.035 H 
ATOM     14  H   LIG d   1       4.966  -0.426  -4.913  0.00  0.00     0.035 H 
BRANCH  12  15
ATOM     15  C   LIG d   1       4.626  -2.381  -5.695  0.00  0.00    -0.084 C 
ATOM     16  C   LIG d   1       4.671  -2.994  -4.538  0.00  0.00    -0.088 C 
ATOM     17  H   LIG d   1       4.396  -4.037  -4.467  0.00  0.00     0.057 H 
ATOM     18  H   LIG d   1       4.200  -2.879  -6.554  0.00  0.00     0.057 H 
BRANCH  16  19
ATOM     19  C   LIG d   1       5.106  -2.245  -3.305  0.00  0.00    -0.035 C 
ATOM     20  H   LIG d   1       5.838  -2.840  -2.758  0.00  0.00     0.031 H 
ATOM     21  H   LIG d   1       5.554  -1.295  -3.596  0.00  0.00     0.031 H 
BRANCH  19  22
ATOM     22  C   LIG d   1       3.892  -1.984  -2.411  0.00  0.00    -0.050 C 
ATOM     23  H   LIG d   1       3.080  -2.654  -2.696  0.00  0.00     0.027 H 
ATOM     24  H   LIG d   1       4.162  -2.163  -1.370  0.00  0.00     0.027 H 
BRANCH  22  25
ATOM     25  C   LIG d   1       3.437  -0.533  -2.578  0.00  0.00    -0.053 C 
ATOM     26  H   LIG d   1       3.469  -0.262  -3.633  0.00  0.00     0.026 H 
ATOM     27  H   LIG d   1       2.418  -0.428  -2.207  0.00  0.00     0.026 H 
BRANCH  25  28
ATOM     28  C   LIG d   1       4.366   0.388  -1.787  0.00  0.00    -0.056 C 
ATOM     29  H   LIG d   1       3.788   0.937  -1.044  0.00  0.00     0.026 H 
ATOM     30  H   LIG d   1       5.128  -0.208  -1.285  0.00  0.00     0.026 H 
BRANCH  28  31
ATOM     31  C   LIG d   1       5.039   1.375  -2.742  0.00  0.00    -0.065 C 
ATOM     32  H   LIG d   1       4.668   1.212  -3.754  0.00  0.00     0.023 H 
ATOM     33  H   LIG d   1       4.811   2.395  -2.430  0.00  0.00     0.023 H 
ATOM     34  H   LIG d   1       6.119   1.223  -2.722  0.00  0.00     0.023 H 
ENDBRANCH  28  31
ENDBRANCH  25  28
ENDBRANCH  22  25
ENDBRANCH  19  22
ENDBRANCH  16  19
ENDBRANCH  12  15
ENDBRANCH   9  12
ENDBRANCH   5   8
ENDBRANCH   1   5
BRANCH   2  35
ATOM     35  C   LIG d   1       3.533   1.375 -10.653  0.00  0.00    -0.035 C 
ATOM     36  H   LIG d   1       3.495   1.931 -11.590  0.00  0.00     0.031 H 
ATOM     37  H   LIG d   1       2.585   0.859 -10.499  0.00  0.00     0.031 H 
BRANCH  35  38
ATOM     38  C   LIG d   1       4.667   0.351 -10.714  0.00  0.00    -0.050 C 
ATOM     39  H   LIG d   1       5.287   0.443  -9.823  0.00  0.00     0.027 H 
ATOM     40  H   LIG d   1       5.275   0.535 -11.601  0.00  0.00     0.027 H 
BRANCH  38  41
ATOM     41  C   LIG d   1       4.078  -1.059 -10.784  0.00  0.00    -0.053 C 
ATOM     42  H   LIG d   1       4.649  -1.656 -11.496  0.00  0.00     0.026 H 
ATOM     43  H   LIG d   1       4.128  -1.523  -9.799  0.00  0.00     0.026 H 
BRANCH  41  44
ATOM     44  C   LIG d   1       2.620  -0.981 -11.238  0.00  0.00    -0.053 C 
ATOM     45  H   LIG d   1       2.249   0.034 -11.097  0.00  0.00     0.026 H 
ATOM     46  H   LIG d   1       2.551  -1.250 -12.292  0.00  0.00     0.026 H 
BRANCH  44  47
ATOM     47  C   LIG d   1       1.775  -1.951 -10.409  0.00  0.00    -0.045 C 
ATOM     48  H   LIG d   1       1.597  -1.525  -9.422  0.00  0.00     0.027 H 
ATOM     49  H   LIG d   1       0.821  -2.121 -10.909  0.00  0.00     0.027 H 
BRANCH  47  50
ATOM     50  C   LIG d   1       2.518  -3.280 -10.263  0.00  0.00     0.024 C 
ATOM     51  H   LIG d   1       3.420  -3.260 -10.876  0.00  0.00     0.036 H 
ATOM     52  H   LIG d   1       2.791  -3.431  -9.219  0.00  0.00     0.036 H 
BRANCH  50  53
ATOM     53  C   LIG d   1       1.628  -4.407 -10.719  0.00  0.00     0.213 C 
ATOM     54  O   LIG d   1       1.675  -4.792 -11.868  0.00  0.00    -0.276 OA
ATOM     55  N   LIG d   1       0.777  -4.987  -9.849  0.00  0.00    -0.313 N 
ATOM     56  H   LIG d   1       0.739  -4.680  -8.930  0.00  0.00     0.149 HD
BRANCH  55  57
ATOM     57  C   LIG d   1      -0.090  -6.082 -10.292  0.00  0.00     0.035 C 
ATOM     58  H   LIG d   1      -0.171  -6.064 -11.378  0.00  0.00     0.048 H 
ATOM     59  H   LIG d   1       0.336  -7.034  -9.975  0.00  0.00     0.048 H 
BRANCH  57  60
ATOM     60  C   LIG d   1      -1.479  -5.915  -9.673  0.00  0.00     0.060 C 
ATOM     61  H   LIG d   1      -1.817  -4.887  -9.810  0.00  0.00     0.057 H 
ATOM     62  H   LIG d   1      -2.178  -6.595 -10.160  0.00  0.00     0.057 H 
BRANCH  60  63
ATOM     63  O   LIG d   1      -1.418  -6.214  -8.277  0.00  0.00    -0.394 OA
ATOM     64  H   LIG d   1      -1.634  -5.465  -7.704  0.00  0.00     0.209 HD
ENDBRANCH  60  63
ENDBRANCH  57  60
ENDBRANCH  55  57
ENDBRANCH  50  53
ENDBRANCH  47  50
ENDBRANCH  44  47
ENDBRANCH  41  44
ENDBRANCH  38  41
ENDBRANCH  35  38
ENDBRANCH   2  35
TORSDOF 19
ENDMDL
MODEL 10
REMARK VINA RESULT:      -5.4      5.578      9.434
REMARK  19 active torsions:
REMARK  status: ('A' for Active; 'I' for Inactive)
REMARK    1  A    between atoms: C_1  and  C_2 
REMARK    2  A    between atoms: C_2  and  C_3 
REMARK    3  A    between atoms: C_3  and  C_4 
REMARK    4  A    between atoms: C_4  and  C_5 
REMARK    5  A    between atoms: C_5  and  C_6 
REMARK    6  A    between atoms: C_7  and  C_8 
REMARK    7  A    between atoms: C_8  and  C_9 
REMARK    8  A    between atoms: C_10  and  C_11 
REMARK    9  A    between atoms: C_11  and  C_12 
REMARK   10  A    between atoms: C_13  and  C_14 
REMARK   11  A    between atoms: C_14  and  C_15 
REMARK   12  A    between atoms: C_15  and  C_16 
REMARK   13  A    between atoms: C_16  and  C_17 
REMARK   14  A    between atoms: C_17  and  C_18 
REMARK   15  A    between atoms: C_18  and  C_19 
REMARK   16  A    between atoms: C_19  and  C_20 
REMARK       I    between atoms: C_20  and  N_22 
REMARK   17  A    between atoms: N_22  and  C_23 
REMARK   18  A    between atoms: C_23  and  C_24 
REMARK   19  A    between atoms: C_24  and  O_25 
ROOT
ATOM      1  C   LIG d   1       3.015  -1.340  -2.736  0.00  0.00    -0.084 C 
ATOM      2  C   LIG d   1       4.028  -2.169  -2.735  0.00  0.00    -0.088 C 
ATOM      3  H   LIG d   1       2.005  -1.722  -2.704  0.00  0.00     0.057 H 
ATOM      4  H   LIG d   1       3.857  -3.232  -2.825  0.00  0.00     0.057 H 
ENDROOT
BRANCH   1   5
ATOM      5  C   LIG d   1       3.257   0.147  -2.781  0.00  0.00    -0.017 C 
ATOM      6  H   LIG d   1       2.692   0.632  -1.985  0.00  0.00     0.035 H 
ATOM      7  H   LIG d   1       4.320   0.346  -2.645  0.00  0.00     0.035 H 
BRANCH   5   8
ATOM      8  C   LIG d   1       2.811   0.688  -4.115  0.00  0.00    -0.084 C 
ATOM      9  C   LIG d   1       3.171   0.086  -5.221  0.00  0.00    -0.084 C 
ATOM     10  H   LIG d   1       3.788  -0.800  -5.177  0.00  0.00     0.057 H 
ATOM     11  H   LIG d   1       2.194   1.574  -4.159  0.00  0.00     0.057 H 
BRANCH   9  12
ATOM     12  C   LIG d   1       2.725   0.629  -6.554  0.00  0.00    -0.017 C 
ATOM     13  H   LIG d   1       1.672   0.906  -6.499  0.00  0.00     0.035 H 
ATOM     14  H   LIG d   1       3.318   1.506  -6.808  0.00  0.00     0.035 H 
BRANCH  12  15
ATOM     15  C   LIG d   1       2.911  -0.427  -7.613  0.00  0.00    -0.084 C 
ATOM     16  C   LIG d   1       2.776  -0.116  -8.879  0.00  0.00    -0.088 C 
ATOM     17  H   LIG d   1       2.788  -0.892  -9.631  0.00  0.00     0.057 H 
ATOM     18  H   LIG d   1       3.156  -1.439  -7.329  0.00  0.00     0.057 H 
BRANCH  16  19
ATOM     19  C   LIG d   1       2.602   1.324  -9.287  0.00  0.00    -0.035 C 
ATOM     20  H   LIG d   1       1.695   1.426  -9.882  0.00  0.00     0.031 H 
ATOM     21  H   LIG d   1       2.525   1.947  -8.396  0.00  0.00     0.031 H 
BRANCH  19  22
ATOM     22  C   LIG d   1       3.809   1.769 -10.116  0.00  0.00    -0.050 C 
ATOM     23  H   LIG d   1       4.207   0.915 -10.665  0.00  0.00     0.027 H 
ATOM     24  H   LIG d   1       3.500   2.541 -10.821  0.00  0.00     0.027 H 
BRANCH  22  25
ATOM     25  C   LIG d   1       4.889   2.327  -9.189  0.00  0.00    -0.053 C 
ATOM     26  H   LIG d   1       5.137   3.345  -9.491  0.00  0.00     0.026 H 
ATOM     27  H   LIG d   1       4.519   2.334  -8.164  0.00  0.00     0.026 H 
BRANCH  25  28
ATOM     28  C   LIG d   1       6.139   1.451  -9.275  0.00  0.00    -0.056 C 
ATOM     29  H   LIG d   1       6.017   0.721 -10.076  0.00  0.00     0.026 H 
ATOM     30  H   LIG d   1       7.008   2.075  -9.483  0.00  0.00     0.026 H 
BRANCH  28  31
ATOM     31  C   LIG d   1       6.343   0.721  -7.947  0.00  0.00    -0.065 C 
ATOM     32  H   LIG d   1       6.430   1.449  -7.141  0.00  0.00     0.023 H 
ATOM     33  H   LIG d   1       5.490   0.068  -7.757  0.00  0.00     0.023 H 
ATOM     34  H   LIG d   1       7.253   0.122  -7.996  0.00  0.00     0.023 H 
ENDBRANCH  28  31
ENDBRANCH  25  28
ENDBRANCH  22  25
ENDBRANCH  19  22
ENDBRANCH  16  19
ENDBRANCH  12  15
ENDBRANCH   9  12
ENDBRANCH   5   8
ENDBRANCH   1   5
BRANCH   2  35
ATOM     35  C   LIG d   1       5.434  -1.641  -2.607  0.00  0.00    -0.035 C 
ATOM     36  H   LIG d   1       5.944  -2.160  -1.796  0.00  0.00     0.031 H 
ATOM     37  H   LIG d   1       5.403  -0.573  -2.392  0.00  0.00     0.031 H 
BRANCH  35  38
ATOM     38  C   LIG d   1       6.190  -1.875  -3.916  0.00  0.00    -0.050 C 
ATOM     39  H   LIG d   1       5.497  -1.800  -4.754  0.00  0.00     0.027 H 
ATOM     40  H   LIG d   1       6.638  -2.869  -3.904  0.00  0.00     0.027 H 
BRANCH  38  41
ATOM     41  C   LIG d   1       7.289  -0.822  -4.067  0.00  0.00    -0.053 C 
ATOM     42  H   LIG d   1       8.044  -0.972  -3.295  0.00  0.00     0.026 H 
ATOM     43  H   LIG d   1       7.750  -0.917  -5.050  0.00  0.00     0.026 H 
BRANCH  41  44
ATOM     44  C   LIG d   1       6.681   0.574  -3.921  0.00  0.00    -0.053 C 
ATOM     45  H   LIG d   1       6.119   0.822  -4.822  0.00  0.00     0.026 H 
ATOM     46  H   LIG d   1       6.013   0.592  -3.060  0.00  0.00     0.026 H 
BRANCH  44  47
ATOM     47  C   LIG d   1       7.798   1.599  -3.721  0.00  0.00    -0.045 C 
ATOM     48  H   LIG d   1       7.439   2.410  -3.086  0.00  0.00     0.027 H 
ATOM     49  H   LIG d   1       8.653   1.117  -3.246  0.00  0.00     0.027 H 
BRANCH  47  50
ATOM     50  C   LIG d   1       8.221   2.166  -5.078  0.00  0.00     0.024 C 
ATOM     51  H   LIG d   1       8.681   1.376  -5.673  0.00  0.00     0.036 H 
ATOM     52  H   LIG d   1       7.345   2.551  -5.600  0.00  0.00     0.036 H 
BRANCH  50  53
ATOM     53  C   LIG d   1       9.213   3.280  -4.870  0.00  0.00     0.213 C 
ATOM     54  O   LIG d   1       9.876   3.684  -5.803  0.00  0.00    -0.276 OA
ATOM     55  N   LIG d   1       9.364   3.830  -3.649  0.00  0.00    -0.313 N 
ATOM     56  H   LIG d   1       8.833   3.508  -2.904  0.00  0.00     0.149 HD
BRANCH  55  57
ATOM     57  C   LIG d   1      10.329   4.913  -3.447  0.00  0.00     0.035 C 
ATOM     58  H   LIG d   1      10.628   5.318  -4.413  0.00  0.00     0.048 H 
ATOM     59  H   LIG d   1       9.871   5.701  -2.849  0.00  0.00     0.048 H 
BRANCH  57  60
ATOM     60  C   LIG d   1      11.559   4.371  -2.718  0.00  0.00     0.060 C 
ATOM     61  H   LIG d   1      12.131   3.733  -3.393  0.00  0.00     0.057 H 
ATOM     62  H   LIG d   1      12.183   5.202  -2.388  0.00  0.00     0.057 H 
BRANCH  60  63
ATOM     63  O   LIG d   1      11.143   3.609  -1.583  0.00  0.00    -0.394 OA
ATOM     64  H   LIG d   1      10.822   2.723  -1.799  0.00  0.00     0.209 HD
ENDBRANCH  60  63
ENDBRANCH  57  60
ENDBRANCH  55  57
ENDBRANCH  50  53
ENDBRANCH  47  50
ENDBRANCH  44  47
ENDBRANCH  41  44
ENDBRANCH  38  41
ENDBRANCH  35  38
ENDBRANCH   2  35
TORSDOF 19
ENDMDL
