MODEL 1
REMARK VINA RESULT:      -5.6      0.000      0.000
REMARK  10 active torsions:
REMARK  status: ('A' for Active; 'I' for Inactive)
REMARK    1  A    between atoms: C_1  and  C_2 
REMARK    2  A    between atoms: C_6  and  C_22 
REMARK    3  A    between atoms: C_7  and  C_11 
REMARK    4  A    between atoms: C_11  and  C_12 
REMARK       I    between atoms: C_12  and  N_14 
REMARK    5  A    between atoms: N_14  and  C_15 
REMARK    6  A    between atoms: C_15  and  C_17 
REMARK    7  A    between atoms: C_15  and  C_20 
REMARK    8  A    between atoms: C_17  and  S_18 
REMARK    9  A    between atoms: S_18  and  C_19 
REMARK   10  A    between atoms: C_25  and  C_28 
ROOT
ATOM      1  C   UNK d   0       9.788   7.724  -4.904  0.00  0.00    -0.036 A 
ATOM      2  C   UNK d   0       9.717   6.911  -5.998  0.00  0.00    -0.015 A 
ATOM      3  C   UNK d   0       9.685   5.527  -5.848  0.00  0.00     0.143 A 
ATOM      4  C   UNK d   0       9.725   4.959  -4.565  0.00  0.00     0.064 A 
ATOM      5  C   UNK d   0       9.690   3.503  -4.428  0.00  0.00    -0.026 A 
ATOM      6  C   UNK d   0       9.618   2.753  -5.559  0.00  0.00     0.049 A 
ATOM      7  C   UNK d   0       9.586   3.388  -6.817  0.00  0.00     0.341 A 
ATOM      8  O   UNK d   0       9.527   2.706  -7.825  0.00  0.00    -0.245 OA
ATOM      9  O   UNK d   0       9.613   4.724  -6.934  0.00  0.00    -0.422 OA
ATOM     10  C   UNK d   0       9.799   5.791  -3.434  0.00  0.00     0.146 A 
ATOM     11  C   UNK d   0       9.830   7.180  -3.616  0.00  0.00     0.027 A 
ATOM     12  C   UNK d   0       9.907   7.750  -2.266  0.00  0.00    -0.005 A 
ATOM     13  C   UNK d   0       9.915   6.710  -1.421  0.00  0.00     0.096 A 
ATOM     14  O   UNK d   0       9.852   5.557  -2.110  0.00  0.00    -0.462 OA
ATOM     15  H   UNK d   0       9.685   7.345  -6.986  0.00  0.00     0.066 H 
ATOM     16  H   UNK d   0       9.965   6.787  -0.345  0.00  0.00     0.103 H 
ENDROOT
BRANCH   6  17
ATOM     17  C   UNK d   0       9.579   1.249  -5.469  0.00  0.00     0.056 C 
ATOM     18  H   UNK d   0       9.967   0.820  -6.393  0.00  0.00     0.041 H 
ATOM     19  H   UNK d   0      10.192   0.919  -4.630  0.00  0.00     0.041 H 
BRANCH  17  20
ATOM     20  C   UNK d   0       8.158   0.795  -5.261  0.00  0.00     0.218 C 
ATOM     21  O   UNK d   0       7.319   1.023  -6.107  0.00  0.00    -0.275 OA
ATOM     22  N   UNK d   1       7.818   0.136  -4.136  0.00  0.00    -0.306 N 
ATOM     23  H   UNK d   1       8.488  -0.045  -3.459  0.00  0.00     0.149 HD
BRANCH  22  24
ATOM     24  C   UNK d   1       6.435  -0.304  -3.934  0.00  0.00     0.071 C 
ATOM     25  H   UNK d   1       5.901  -0.271  -4.883  0.00  0.00     0.057 H 
BRANCH  24  26
ATOM     26  C   UNK d   1       6.430  -1.737  -3.396  0.00  0.00     0.017 C 
ATOM     27  H   UNK d   1       7.419  -2.177  -3.527  0.00  0.00     0.040 H 
ATOM     28  H   UNK d   1       6.174  -1.726  -2.337  0.00  0.00     0.040 H 
BRANCH  26  29
ATOM     29  S   UNK d   1       5.206  -2.720  -4.306  0.00  0.00    -0.162 SA
BRANCH  29  30
ATOM     30  C   UNK d   1       4.779  -1.680  -5.728  0.00  0.00    -0.018 C 
ATOM     31  H   UNK d   1       5.376  -1.978  -6.590  0.00  0.00     0.034 H 
ATOM     32  H   UNK d   1       3.721  -1.799  -5.961  0.00  0.00     0.034 H 
ATOM     33  H   UNK d   1       4.983  -0.636  -5.489  0.00  0.00     0.034 H 
ENDBRANCH  29  30
ENDBRANCH  26  29
ENDBRANCH  24  26
BRANCH  24  34
ATOM     34  C   UNK d   1       5.757   0.606  -2.942  0.00  0.00     0.063 C 
ATOM     35  O   UNK d   1       5.886   1.804  -3.036  0.00  0.00    -0.548 OA
ATOM     36  O   UNK d   1       5.010   0.086  -1.956  0.00  0.00    -0.548 OA
ENDBRANCH  24  34
ENDBRANCH  22  24
ENDBRANCH  17  20
ENDBRANCH   6  17
BRANCH   5  37
ATOM     37  C   UNK d   0       9.732   2.852  -3.070  0.00  0.00    -0.038 C 
ATOM     38  H   UNK d   0       8.920   2.128  -2.989  0.00  0.00     0.028 H 
ATOM     39  H   UNK d   0      10.687   2.342  -2.941  0.00  0.00     0.028 H 
ATOM     40  H   UNK d   0       9.618   3.612  -2.298  0.00  0.00     0.028 H 
ENDBRANCH   5  37
BRANCH   1  41
ATOM     41  C   UNK d   0       9.822   9.221  -5.084  0.00  0.00    -0.039 C 
ATOM     42  H   UNK d   0      10.825   9.590  -4.864  0.00  0.00     0.028 H 
ATOM     43  H   UNK d   0       9.560   9.469  -6.111  0.00  0.00     0.028 H 
ATOM     44  H   UNK d   0       9.107   9.684  -4.404  0.00  0.00     0.028 H 
ENDBRANCH   1  41
BRANCH  12  45
ATOM     45  C   UNK d   0       9.964   9.212  -1.902  0.00  0.00    -0.036 C 
ATOM     46  H   UNK d   0      10.947   9.610  -2.154  0.00  0.00     0.028 H 
ATOM     47  H   UNK d   0       9.200   9.755  -2.458  0.00  0.00     0.028 H 
ATOM     48  H   UNK d   0       9.788   9.327  -0.833  0.00  0.00     0.028 H 
ENDBRANCH  12  45
TORSDOF 10
ENDMDL
MODEL 2
REMARK VINA RESULT:      -5.6      5.832     10.252
REMARK  10 active torsions:
REMARK  status: ('A' for Active; 'I' for Inactive)
REMARK    1  A    between atoms: C_1  and  C_2 
REMARK    2  A    between atoms: C_6  and  C_22 
REMARK    3  A    between atoms: C_7  and  C_11 
REMARK    4  A    between atoms: C_11  and  C_12 
REMARK       I    between atoms: C_12  and  N_14 
REMARK    5  A    between atoms: N_14  and  C_15 
REMARK    6  A    between atoms: C_15  and  C_17 
REMARK    7  A    between atoms: C_15  and  C_20 
REMARK    8  A    between atoms: C_17  and  S_18 
REMARK    9  A    between atoms: S_18  and  C_19 
REMARK   10  A    between atoms: C_25  and  C_28 
ROOT
ATOM      1  C   UNK d   0       4.147  -0.835 -13.797  0.00  0.00    -0.036 A 
ATOM      2  C   UNK d   0       4.845  -0.073 -12.905  0.00  0.00    -0.015 A 
ATOM      3  C   UNK d   0       4.357   0.132 -11.617  0.00  0.00     0.143 A 
ATOM      4  C   UNK d   0       3.139  -0.448 -11.228  0.00  0.00     0.064 A 
ATOM      5  C   UNK d   0       2.643  -0.221  -9.871  0.00  0.00    -0.026 A 
ATOM      6  C   UNK d   0       3.389   0.547  -9.034  0.00  0.00     0.049 A 
ATOM      7  C   UNK d   0       4.601   1.104  -9.491  0.00  0.00     0.341 A 
ATOM      8  O   UNK d   0       5.259   1.796  -8.734  0.00  0.00    -0.245 OA
ATOM      9  O   UNK d   0       5.051   0.886 -10.736  0.00  0.00    -0.422 OA
ATOM     10  C   UNK d   0       2.415  -1.233 -12.142  0.00  0.00     0.146 A 
ATOM     11  C   UNK d   0       2.932  -1.421 -13.431  0.00  0.00     0.027 A 
ATOM     12  C   UNK d   0       1.957  -2.272 -14.123  0.00  0.00    -0.005 A 
ATOM     13  C   UNK d   0       0.979  -2.515 -13.239  0.00  0.00     0.096 A 
ATOM     14  O   UNK d   0       1.251  -1.903 -12.073  0.00  0.00    -0.462 OA
ATOM     15  H   UNK d   0       5.783   0.374 -13.201  0.00  0.00     0.066 H 
ATOM     16  H   UNK d   0       0.103  -3.116 -13.434  0.00  0.00     0.103 H 
ENDROOT
BRANCH   6  17
ATOM     17  C   UNK d   0       2.919   0.809  -7.626  0.00  0.00     0.056 C 
ATOM     18  H   UNK d   0       3.126   1.845  -7.361  0.00  0.00     0.041 H 
ATOM     19  H   UNK d   0       1.847   0.624  -7.560  0.00  0.00     0.041 H 
BRANCH  17  20
ATOM     20  C   UNK d   0       3.646  -0.107  -6.676  0.00  0.00     0.218 C 
ATOM     21  O   UNK d   0       4.076  -1.171  -7.069  0.00  0.00    -0.275 OA
ATOM     22  N   UNK d   1       3.819   0.256  -5.390  0.00  0.00    -0.306 N 
ATOM     23  H   UNK d   1       3.475   1.106  -5.075  0.00  0.00     0.149 HD
BRANCH  22  24
ATOM     24  C   UNK d   1       4.526  -0.635  -4.466  0.00  0.00     0.071 C 
ATOM     25  H   UNK d   1       5.055  -1.400  -5.032  0.00  0.00     0.057 H 
BRANCH  24  26
ATOM     26  C   UNK d   1       5.530   0.176  -3.643  0.00  0.00     0.017 C 
ATOM     27  H   UNK d   1       5.135   1.179  -3.476  0.00  0.00     0.040 H 
ATOM     28  H   UNK d   1       5.693  -0.315  -2.684  0.00  0.00     0.040 H 
BRANCH  26  29
ATOM     29  S   UNK d   1       7.101   0.285  -4.543  0.00  0.00    -0.162 SA
BRANCH  29  30
ATOM     30  C   UNK d   1       7.930   1.718  -3.804  0.00  0.00    -0.018 C 
ATOM     31  H   UNK d   1       8.203   2.425  -4.587  0.00  0.00     0.034 H 
ATOM     32  H   UNK d   1       7.259   2.203  -3.095  0.00  0.00     0.034 H 
ATOM     33  H   UNK d   1       8.830   1.389  -3.284  0.00  0.00     0.034 H 
ENDBRANCH  29  30
ENDBRANCH  26  29
ENDBRANCH  24  26
BRANCH  24  34
ATOM     34  C   UNK d   1       3.532  -1.291  -3.541  0.00  0.00     0.063 C 
ATOM     35  O   UNK d   1       2.541  -0.692  -3.197  0.00  0.00    -0.548 OA
ATOM     36  O   UNK d   1       3.748  -2.541  -3.101  0.00  0.00    -0.548 OA
ENDBRANCH  24  34
ENDBRANCH  22  24
ENDBRANCH  17  20
ENDBRANCH   6  17
BRANCH   5  37
ATOM     37  C   UNK d   0       1.340  -0.824  -9.412  0.00  0.00    -0.038 C 
ATOM     38  H   UNK d   0       1.268  -1.851  -9.772  0.00  0.00     0.028 H 
ATOM     39  H   UNK d   0       1.303  -0.818  -8.322  0.00  0.00     0.028 H 
ATOM     40  H   UNK d   0       0.510  -0.241  -9.807  0.00  0.00     0.028 H 
ENDBRANCH   5  37
BRANCH   1  41
ATOM     41  C   UNK d   0       4.690  -1.046 -15.187  0.00  0.00    -0.039 C 
ATOM     42  H   UNK d   0       4.784  -0.084 -15.691  0.00  0.00     0.028 H 
ATOM     43  H   UNK d   0       5.668  -1.522 -15.127  0.00  0.00     0.028 H 
ATOM     44  H   UNK d   0       4.009  -1.685 -15.750  0.00  0.00     0.028 H 
ENDBRANCH   1  41
BRANCH  12  45
ATOM     45  C   UNK d   0       2.037  -2.771 -15.543  0.00  0.00    -0.036 C 
ATOM     46  H   UNK d   0       2.161  -3.854 -15.541  0.00  0.00     0.028 H 
ATOM     47  H   UNK d   0       1.120  -2.513 -16.072  0.00  0.00     0.028 H 
ATOM     48  H   UNK d   0       2.888  -2.309 -16.043  0.00  0.00     0.028 H 
ENDBRANCH  12  45
TORSDOF 10
ENDMDL
MODEL 3
REMARK VINA RESULT:      -5.4      6.109      9.820
REMARK  10 active torsions:
REMARK  status: ('A' for Active; 'I' for Inactive)
REMARK    1  A    between atoms: C_1  and  C_2 
REMARK    2  A    between atoms: C_6  and  C_22 
REMARK    3  A    between atoms: C_7  and  C_11 
REMARK    4  A    between atoms: C_11  and  C_12 
REMARK       I    between atoms: C_12  and  N_14 
REMARK    5  A    between atoms: N_14  and  C_15 
REMARK    6  A    between atoms: C_15  and  C_17 
REMARK    7  A    between atoms: C_15  and  C_20 
REMARK    8  A    between atoms: C_17  and  S_18 
REMARK    9  A    between atoms: S_18  and  C_19 
REMARK   10  A    between atoms: C_25  and  C_28 
ROOT
ATOM      1  C   UNK d   0       1.420  -1.218 -11.815  0.00  0.00    -0.036 A 
ATOM      2  C   UNK d   0       1.292  -0.816 -10.517  0.00  0.00    -0.015 A 
ATOM      3  C   UNK d   0       2.414  -0.469  -9.770  0.00  0.00     0.143 A 
ATOM      4  C   UNK d   0       3.691  -0.532 -10.353  0.00  0.00     0.064 A 
ATOM      5  C   UNK d   0       4.858  -0.163  -9.552  0.00  0.00    -0.026 A 
ATOM      6  C   UNK d   0       4.658   0.230  -8.266  0.00  0.00     0.049 A 
ATOM      7  C   UNK d   0       3.349   0.265  -7.743  0.00  0.00     0.341 A 
ATOM      8  O   UNK d   0       3.182   0.613  -6.587  0.00  0.00    -0.245 OA
ATOM      9  O   UNK d   0       2.283  -0.070  -8.485  0.00  0.00    -0.422 OA
ATOM     10  C   UNK d   0       3.830  -0.946 -11.689  0.00  0.00     0.146 A 
ATOM     11  C   UNK d   0       2.682  -1.288 -12.415  0.00  0.00     0.027 A 
ATOM     12  C   UNK d   0       3.161  -1.669 -13.749  0.00  0.00    -0.005 A 
ATOM     13  C   UNK d   0       4.494  -1.532 -13.720  0.00  0.00     0.096 A 
ATOM     14  O   UNK d   0       4.886  -1.106 -12.506  0.00  0.00    -0.462 OA
ATOM     15  H   UNK d   0       0.312  -0.766 -10.067  0.00  0.00     0.066 H 
ATOM     16  H   UNK d   0       5.156  -1.733 -14.550  0.00  0.00     0.103 H 
ENDROOT
BRANCH   6  17
ATOM     17  C   UNK d   0       5.830   0.619  -7.402  0.00  0.00     0.056 C 
ATOM     18  H   UNK d   0       6.700   0.802  -8.032  0.00  0.00     0.041 H 
ATOM     19  H   UNK d   0       5.587   1.524  -6.846  0.00  0.00     0.041 H 
BRANCH  17  20
ATOM     20  C   UNK d   0       6.134  -0.498  -6.438  0.00  0.00     0.218 C 
ATOM     21  O   UNK d   0       6.978  -1.325  -6.714  0.00  0.00    -0.275 OA
ATOM     22  N   UNK d   1       5.470  -0.578  -5.268  0.00  0.00    -0.306 N 
ATOM     23  H   UNK d   1       4.794   0.082  -5.048  0.00  0.00     0.149 HD
BRANCH  22  24
ATOM     24  C   UNK d   1       5.765  -1.665  -4.331  0.00  0.00     0.071 C 
ATOM     25  H   UNK d   1       6.656  -2.198  -4.662  0.00  0.00     0.057 H 
BRANCH  24  26
ATOM     26  C   UNK d   1       6.009  -1.082  -2.936  0.00  0.00     0.017 C 
ATOM     27  H   UNK d   1       5.372  -1.594  -2.214  0.00  0.00     0.040 H 
ATOM     28  H   UNK d   1       7.054  -1.221  -2.663  0.00  0.00     0.040 H 
BRANCH  26  29
ATOM     29  S   UNK d   1       5.615   0.688  -2.943  0.00  0.00    -0.162 SA
BRANCH  29  30
ATOM     30  C   UNK d   1       3.917   0.762  -2.312  0.00  0.00    -0.018 C 
ATOM     31  H   UNK d   1       3.634   1.802  -2.149  0.00  0.00     0.034 H 
ATOM     32  H   UNK d   1       3.239   0.311  -3.035  0.00  0.00     0.034 H 
ATOM     33  H   UNK d   1       3.856   0.218  -1.369  0.00  0.00     0.034 H 
ENDBRANCH  29  30
ENDBRANCH  26  29
ENDBRANCH  24  26
BRANCH  24  34
ATOM     34  C   UNK d   1       4.598  -2.617  -4.281  0.00  0.00     0.063 C 
ATOM     35  O   UNK d   1       3.930  -2.701  -3.277  0.00  0.00    -0.548 OA
ATOM     36  O   UNK d   1       4.299  -3.370  -5.351  0.00  0.00    -0.548 OA
ENDBRANCH  24  34
ENDBRANCH  22  24
ENDBRANCH  17  20
ENDBRANCH   6  17
BRANCH   5  37
ATOM     37  C   UNK d   0       6.246  -0.216 -10.137  0.00  0.00    -0.038 C 
ATOM     38  H   UNK d   0       6.953  -0.526  -9.367  0.00  0.00     0.028 H 
ATOM     39  H   UNK d   0       6.266  -0.932 -10.959  0.00  0.00     0.028 H 
ATOM     40  H   UNK d   0       6.522   0.771 -10.508  0.00  0.00     0.028 H 
ENDBRANCH   5  37
BRANCH   1  41
ATOM     41  C   UNK d   0       0.194  -1.590 -12.609  0.00  0.00    -0.039 C 
ATOM     42  H   UNK d   0       0.295  -2.612 -12.976  0.00  0.00     0.028 H 
ATOM     43  H   UNK d   0      -0.687  -1.518 -11.973  0.00  0.00     0.028 H 
ATOM     44  H   UNK d   0       0.088  -0.909 -13.454  0.00  0.00     0.028 H 
ENDBRANCH   1  41
BRANCH  12  45
ATOM     45  C   UNK d   0       2.323  -2.123 -14.916  0.00  0.00    -0.036 C 
ATOM     46  H   UNK d   0       2.975  -2.490 -15.710  0.00  0.00     0.028 H 
ATOM     47  H   UNK d   0       1.657  -2.924 -14.596  0.00  0.00     0.028 H 
ATOM     48  H   UNK d   0       1.734  -1.285 -15.288  0.00  0.00     0.028 H 
ENDBRANCH  12  45
TORSDOF 10
ENDMDL
MODEL 4
REMARK VINA RESULT:      -5.4      1.616      3.432
REMARK  10 active torsions:
REMARK  status: ('A' for Active; 'I' for Inactive)
REMARK    1  A    between atoms: C_1  and  C_2 
REMARK    2  A    between atoms: C_6  and  C_22 
REMARK    3  A    between atoms: C_7  and  C_11 
REMARK    4  A    between atoms: C_11  and  C_12 
REMARK       I    between atoms: C_12  and  N_14 
REMARK    5  A    between atoms: N_14  and  C_15 
REMARK    6  A    between atoms: C_15  and  C_17 
REMARK    7  A    between atoms: C_15  and  C_20 
REMARK    8  A    between atoms: C_17  and  S_18 
REMARK    9  A    between atoms: S_18  and  C_19 
REMARK   10  A    between atoms: C_25  and  C_28 
ROOT
ATOM      1  C   UNK d   0       9.728   7.457  -6.352  0.00  0.00    -0.036 A 
ATOM      2  C   UNK d   0       9.559   6.756  -5.192  0.00  0.00    -0.015 A 
ATOM      3  C   UNK d   0       9.503   5.365  -5.209  0.00  0.00     0.143 A 
ATOM      4  C   UNK d   0       9.620   4.673  -6.426  0.00  0.00     0.064 A 
ATOM      5  C   UNK d   0       9.558   3.212  -6.423  0.00  0.00    -0.026 A 
ATOM      6  C   UNK d   0       9.390   2.577  -5.233  0.00  0.00     0.049 A 
ATOM      7  C   UNK d   0       9.275   3.334  -4.049  0.00  0.00     0.341 A 
ATOM      8  O   UNK d   0       9.119   2.755  -2.988  0.00  0.00    -0.245 OA
ATOM      9  O   UNK d   0       9.338   4.674  -4.059  0.00  0.00    -0.422 OA
ATOM     10  C   UNK d   0       9.792   5.389  -7.623  0.00  0.00     0.146 A 
ATOM     11  C   UNK d   0       9.845   6.788  -7.574  0.00  0.00     0.027 A 
ATOM     12  C   UNK d   0      10.029   7.222  -8.964  0.00  0.00    -0.005 A 
ATOM     13  C   UNK d   0      10.070   6.104  -9.702  0.00  0.00     0.096 A 
ATOM     14  O   UNK d   0       9.931   5.025  -8.911  0.00  0.00    -0.462 OA
ATOM     15  H   UNK d   0       9.470   7.285  -4.255  0.00  0.00     0.066 H 
ATOM     16  H   UNK d   0      10.197   6.073 -10.774  0.00  0.00     0.103 H 
ENDROOT
BRANCH   6  17
ATOM     17  C   UNK d   0       9.321   1.072  -5.180  0.00  0.00     0.056 C 
ATOM     18  H   UNK d   0       9.714   0.658  -6.108  0.00  0.00     0.041 H 
ATOM     19  H   UNK d   0       9.914   0.710  -4.341  0.00  0.00     0.041 H 
BRANCH  17  20
ATOM     20  C   UNK d   0       7.887   0.643  -5.006  0.00  0.00     0.218 C 
ATOM     21  O   UNK d   0       7.100   0.770  -5.920  0.00  0.00    -0.275 OA
ATOM     22  N   UNK d   1       7.479   0.117  -3.834  0.00  0.00    -0.306 N 
ATOM     23  H   UNK d   1       8.108   0.016  -3.102  0.00  0.00     0.149 HD
BRANCH  22  24
ATOM     24  C   UNK d   1       6.085  -0.300  -3.664  0.00  0.00     0.071 C 
ATOM     25  H   UNK d   1       5.571  -0.251  -4.624  0.00  0.00     0.057 H 
BRANCH  24  26
ATOM     26  C   UNK d   1       6.043  -1.736  -3.136  0.00  0.00     0.017 C 
ATOM     27  H   UNK d   1       7.047  -2.162  -3.164  0.00  0.00     0.040 H 
ATOM     28  H   UNK d   1       5.677  -1.734  -2.110  0.00  0.00     0.040 H 
BRANCH  26  29
ATOM     29  S   UNK d   1       4.935  -2.730  -4.173  0.00  0.00    -0.162 SA
BRANCH  29  30
ATOM     30  C   UNK d   1       5.765  -2.773  -5.785  0.00  0.00    -0.018 C 
ATOM     31  H   UNK d   1       6.695  -3.336  -5.700  0.00  0.00     0.034 H 
ATOM     32  H   UNK d   1       5.116  -3.254  -6.516  0.00  0.00     0.034 H 
ATOM     33  H   UNK d   1       5.985  -1.756  -6.108  0.00  0.00     0.034 H 
ENDBRANCH  29  30
ENDBRANCH  26  29
ENDBRANCH  24  26
BRANCH  24  34
ATOM     34  C   UNK d   1       5.402   0.616  -2.681  0.00  0.00     0.063 C 
ATOM     35  O   UNK d   1       5.500   1.814  -2.803  0.00  0.00    -0.548 OA
ATOM     36  O   UNK d   1       4.685   0.101  -1.670  0.00  0.00    -0.548 OA
ENDBRANCH  24  34
ENDBRANCH  22  24
ENDBRANCH  17  20
ENDBRANCH   6  17
BRANCH   5  37
ATOM     37  C   UNK d   0       9.679   2.429  -7.706  0.00  0.00    -0.038 C 
ATOM     38  H   UNK d   0      10.056   3.080  -8.494  0.00  0.00     0.028 H 
ATOM     39  H   UNK d   0      10.369   1.598  -7.560  0.00  0.00     0.028 H 
ATOM     40  H   UNK d   0       8.700   2.043  -7.990  0.00  0.00     0.028 H 
ENDBRANCH   5  37
BRANCH   1  41
ATOM     41  C   UNK d   0       9.787   8.962  -6.315  0.00  0.00    -0.039 C 
ATOM     42  H   UNK d   0      10.010   9.342  -7.312  0.00  0.00     0.028 H 
ATOM     43  H   UNK d   0       8.827   9.356  -5.982  0.00  0.00     0.028 H 
ATOM     44  H   UNK d   0      10.568   9.278  -5.623  0.00  0.00     0.028 H 
ENDBRANCH   1  41
BRANCH  12  45
ATOM     45  C   UNK d   0      10.148   8.639  -9.462  0.00  0.00    -0.036 C 
ATOM     46  H   UNK d   0      10.178   8.640 -10.552  0.00  0.00     0.028 H 
ATOM     47  H   UNK d   0       9.289   9.217  -9.123  0.00  0.00     0.028 H 
ATOM     48  H   UNK d   0      11.064   9.086  -9.073  0.00  0.00     0.028 H 
ENDBRANCH  12  45
TORSDOF 10
ENDMDL
MODEL 5
REMARK VINA RESULT:      -5.4      6.480     10.773
REMARK  10 active torsions:
REMARK  status: ('A' for Active; 'I' for Inactive)
REMARK    1  A    between atoms: C_1  and  C_2 
REMARK    2  A    between atoms: C_6  and  C_22 
REMARK    3  A    between atoms: C_7  and  C_11 
REMARK    4  A    between atoms: C_11  and  C_12 
REMARK       I    between atoms: C_12  and  N_14 
REMARK    5  A    between atoms: N_14  and  C_15 
REMARK    6  A    between atoms: C_15  and  C_17 
REMARK    7  A    between atoms: C_15  and  C_20 
REMARK    8  A    between atoms: C_17  and  S_18 
REMARK    9  A    between atoms: S_18  and  C_19 
REMARK   10  A    between atoms: C_25  and  C_28 
ROOT
ATOM      1  C   UNK d   0       0.665  -2.500 -12.035  0.00  0.00    -0.036 A 
ATOM      2  C   UNK d   0       0.916  -1.208 -11.672  0.00  0.00    -0.015 A 
ATOM      3  C   UNK d   0       1.752  -0.926 -10.595  0.00  0.00     0.143 A 
ATOM      4  C   UNK d   0       2.344  -1.975  -9.873  0.00  0.00     0.064 A 
ATOM      5  C   UNK d   0       3.219  -1.659  -8.745  0.00  0.00    -0.026 A 
ATOM      6  C   UNK d   0       3.427  -0.351  -8.439  0.00  0.00     0.049 A 
ATOM      7  C   UNK d   0       2.797   0.653  -9.203  0.00  0.00     0.341 A 
ATOM      8  O   UNK d   0       2.986   1.822  -8.916  0.00  0.00    -0.245 OA
ATOM      9  O   UNK d   0       2.000   0.354 -10.239  0.00  0.00    -0.422 OA
ATOM     10  C   UNK d   0       2.088  -3.308 -10.241  0.00  0.00     0.146 A 
ATOM     11  C   UNK d   0       1.243  -3.560 -11.329  0.00  0.00     0.027 A 
ATOM     12  C   UNK d   0       1.184  -5.021 -11.449  0.00  0.00    -0.005 A 
ATOM     13  C   UNK d   0       1.961  -5.508 -10.472  0.00  0.00     0.096 A 
ATOM     14  O   UNK d   0       2.493  -4.498  -9.761  0.00  0.00    -0.462 OA
ATOM     15  H   UNK d   0       0.463  -0.399 -12.226  0.00  0.00     0.066 H 
ATOM     16  H   UNK d   0       2.135  -6.557 -10.283  0.00  0.00     0.103 H 
ENDROOT
BRANCH   6  17
ATOM     17  C   UNK d   0       4.321   0.024  -7.285  0.00  0.00     0.056 C 
ATOM     18  H   UNK d   0       5.114  -0.717  -7.185  0.00  0.00     0.041 H 
ATOM     19  H   UNK d   0       4.761   1.003  -7.469  0.00  0.00     0.041 H 
BRANCH  17  20
ATOM     20  C   UNK d   0       3.510   0.067  -6.016  0.00  0.00     0.218 C 
ATOM     21  O   UNK d   0       2.317   0.281  -6.066  0.00  0.00    -0.275 OA
ATOM     22  N   UNK d   1       4.110  -0.132  -4.826  0.00  0.00    -0.306 N 
ATOM     23  H   UNK d   1       5.064  -0.302  -4.786  0.00  0.00     0.149 HD
BRANCH  22  24
ATOM     24  C   UNK d   1       3.322  -0.090  -3.592  0.00  0.00     0.071 C 
ATOM     25  H   UNK d   1       2.260  -0.079  -3.839  0.00  0.00     0.057 H 
BRANCH  24  26
ATOM     26  C   UNK d   1       3.635  -1.325  -2.744  0.00  0.00     0.017 C 
ATOM     27  H   UNK d   1       4.091  -1.013  -1.804  0.00  0.00     0.040 H 
ATOM     28  H   UNK d   1       2.713  -1.868  -2.539  0.00  0.00     0.040 H 
BRANCH  26  29
ATOM     29  S   UNK d   1       4.784  -2.401  -3.645  0.00  0.00    -0.162 SA
BRANCH  29  30
ATOM     30  C   UNK d   1       6.423  -1.809  -3.146  0.00  0.00    -0.018 C 
ATOM     31  H   UNK d   1       7.126  -2.642  -3.142  0.00  0.00     0.034 H 
ATOM     32  H   UNK d   1       6.765  -1.049  -3.848  0.00  0.00     0.034 H 
ATOM     33  H   UNK d   1       6.365  -1.379  -2.146  0.00  0.00     0.034 H 
ENDBRANCH  29  30
ENDBRANCH  26  29
ENDBRANCH  24  26
BRANCH  24  34
ATOM     34  C   UNK d   1       3.670   1.154  -2.815  0.00  0.00     0.063 C 
ATOM     35  O   UNK d   1       3.981   1.072  -1.651  0.00  0.00    -0.548 OA
ATOM     36  O   UNK d   1       3.636   2.354  -3.418  0.00  0.00    -0.548 OA
ENDBRANCH  24  34
ENDBRANCH  22  24
ENDBRANCH  17  20
ENDBRANCH   6  17
BRANCH   5  37
ATOM     37  C   UNK d   0       3.874  -2.754  -7.943  0.00  0.00    -0.038 C 
ATOM     38  H   UNK d   0       4.054  -2.402  -6.927  0.00  0.00     0.028 H 
ATOM     39  H   UNK d   0       3.219  -3.625  -7.915  0.00  0.00     0.028 H 
ATOM     40  H   UNK d   0       4.822  -3.026  -8.406  0.00  0.00     0.028 H 
ENDBRANCH   5  37
BRANCH   1  41
ATOM     41  C   UNK d   0      -0.243  -2.787 -13.203  0.00  0.00    -0.039 C 
ATOM     42  H   UNK d   0      -0.636  -1.849 -13.597  0.00  0.00     0.028 H 
ATOM     43  H   UNK d   0       0.319  -3.300 -13.983  0.00  0.00     0.028 H 
ATOM     44  H   UNK d   0      -1.069  -3.418 -12.875  0.00  0.00     0.028 H 
ENDBRANCH   1  41
BRANCH  12  45
ATOM     45  C   UNK d   0       0.407  -5.816 -12.467  0.00  0.00    -0.036 C 
ATOM     46  H   UNK d   0      -0.430  -6.314 -11.977  0.00  0.00     0.028 H 
ATOM     47  H   UNK d   0       0.028  -5.146 -13.239  0.00  0.00     0.028 H 
ATOM     48  H   UNK d   0       1.059  -6.563 -12.921  0.00  0.00     0.028 H 
ENDBRANCH  12  45
TORSDOF 10
ENDMDL
MODEL 6
REMARK VINA RESULT:      -5.3      3.614      7.098
REMARK  10 active torsions:
REMARK  status: ('A' for Active; 'I' for Inactive)
REMARK    1  A    between atoms: C_1  and  C_2 
REMARK    2  A    between atoms: C_6  and  C_22 
REMARK    3  A    between atoms: C_7  and  C_11 
REMARK    4  A    between atoms: C_11  and  C_12 
REMARK       I    between atoms: C_12  and  N_14 
REMARK    5  A    between atoms: N_14  and  C_15 
REMARK    6  A    between atoms: C_15  and  C_17 
REMARK    7  A    between atoms: C_15  and  C_20 
REMARK    8  A    between atoms: C_17  and  S_18 
REMARK    9  A    between atoms: S_18  and  C_19 
REMARK   10  A    between atoms: C_25  and  C_28 
ROOT
ATOM      1  C   UNK d   0       5.716  -1.807  -3.952  0.00  0.00    -0.036 A 
ATOM      2  C   UNK d   0       6.908  -2.105  -4.545  0.00  0.00    -0.015 A 
ATOM      3  C   UNK d   0       7.882  -1.123  -4.709  0.00  0.00     0.143 A 
ATOM      4  C   UNK d   0       7.640   0.186  -4.260  0.00  0.00     0.064 A 
ATOM      5  C   UNK d   0       8.675   1.203  -4.441  0.00  0.00    -0.026 A 
ATOM      6  C   UNK d   0       9.839   0.837  -5.039  0.00  0.00     0.049 A 
ATOM      7  C   UNK d   0      10.014  -0.493  -5.470  0.00  0.00     0.341 A 
ATOM      8  O   UNK d   0      11.060  -0.809  -6.010  0.00  0.00    -0.245 OA
ATOM      9  O   UNK d   0       9.062  -1.422  -5.296  0.00  0.00    -0.422 OA
ATOM     10  C   UNK d   0       6.414   0.500  -3.649  0.00  0.00     0.146 A 
ATOM     11  C   UNK d   0       5.454  -0.510  -3.499  0.00  0.00     0.027 A 
ATOM     12  C   UNK d   0       4.312   0.131  -2.837  0.00  0.00    -0.005 A 
ATOM     13  C   UNK d   0       4.658   1.412  -2.652  0.00  0.00     0.096 A 
ATOM     14  O   UNK d   0       5.896   1.628  -3.130  0.00  0.00    -0.462 OA
ATOM     15  H   UNK d   0       7.098  -3.110  -4.890  0.00  0.00     0.066 H 
ATOM     16  H   UNK d   0       4.035   2.162  -2.185  0.00  0.00     0.103 H 
ENDROOT
BRANCH   6  17
ATOM     17  C   UNK d   0      10.935   1.852  -5.246  0.00  0.00     0.056 C 
ATOM     18  H   UNK d   0      10.767   2.706  -4.591  0.00  0.00     0.041 H 
ATOM     19  H   UNK d   0      11.898   1.399  -5.014  0.00  0.00     0.041 H 
BRANCH  17  20
ATOM     20  C   UNK d   0      10.928   2.310  -6.682  0.00  0.00     0.218 C 
ATOM     21  O   UNK d   0      11.963   2.338  -7.314  0.00  0.00    -0.275 OA
ATOM     22  N   UNK d   1       9.773   2.689  -7.263  0.00  0.00    -0.306 N 
ATOM     23  H   UNK d   1       8.946   2.667  -6.757  0.00  0.00     0.149 HD
BRANCH  22  24
ATOM     24  C   UNK d   1       9.767   3.135  -8.658  0.00  0.00     0.071 C 
ATOM     25  H   UNK d   1      10.785   3.132  -9.045  0.00  0.00     0.057 H 
BRANCH  24  26
ATOM     26  C   UNK d   1       8.902   2.187  -9.493  0.00  0.00     0.017 C 
ATOM     27  H   UNK d   1       8.348   2.760 -10.236  0.00  0.00     0.040 H 
ATOM     28  H   UNK d   1       9.542   1.462  -9.996  0.00  0.00     0.040 H 
BRANCH  26  29
ATOM     29  S   UNK d   1       7.738   1.317  -8.407  0.00  0.00    -0.162 SA
BRANCH  29  30
ATOM     30  C   UNK d   1       6.110   1.885  -8.967  0.00  0.00    -0.018 C 
ATOM     31  H   UNK d   1       6.133   2.051 -10.044  0.00  0.00     0.034 H 
ATOM     32  H   UNK d   1       5.360   1.129  -8.732  0.00  0.00     0.034 H 
ATOM     33  H   UNK d   1       5.857   2.816  -8.461  0.00  0.00     0.034 H 
ENDBRANCH  29  30
ENDBRANCH  26  29
ENDBRANCH  24  26
BRANCH  24  34
ATOM     34  C   UNK d   1       9.202   4.530  -8.737  0.00  0.00     0.063 C 
ATOM     35  O   UNK d   1       9.590   5.383  -7.975  0.00  0.00    -0.548 OA
ATOM     36  O   UNK d   1       8.267   4.825  -9.656  0.00  0.00    -0.548 OA
ENDBRANCH  24  34
ENDBRANCH  22  24
ENDBRANCH  17  20
ENDBRANCH   6  17
BRANCH   5  37
ATOM     37  C   UNK d   0       8.457   2.620  -3.975  0.00  0.00    -0.038 C 
ATOM     38  H   UNK d   0       8.451   2.647  -2.885  0.00  0.00     0.028 H 
ATOM     39  H   UNK d   0       9.262   3.253  -4.350  0.00  0.00     0.028 H 
ATOM     40  H   UNK d   0       7.502   2.985  -4.353  0.00  0.00     0.028 H 
ENDBRANCH   5  37
BRANCH   1  41
ATOM     41  C   UNK d   0       4.674  -2.882  -3.783  0.00  0.00    -0.039 C 
ATOM     42  H   UNK d   0       4.969  -3.766  -4.349  0.00  0.00     0.028 H 
ATOM     43  H   UNK d   0       4.584  -3.140  -2.728  0.00  0.00     0.028 H 
ATOM     44  H   UNK d   0       3.714  -2.519  -4.151  0.00  0.00     0.028 H 
ENDBRANCH   1  41
BRANCH  12  45
ATOM     45  C   UNK d   0       3.010  -0.519  -2.445  0.00  0.00    -0.036 C 
ATOM     46  H   UNK d   0       2.881  -1.442  -3.010  0.00  0.00     0.028 H 
ATOM     47  H   UNK d   0       3.023  -0.746  -1.379  0.00  0.00     0.028 H 
ATOM     48  H   UNK d   0       2.184   0.159  -2.663  0.00  0.00     0.028 H 
ENDBRANCH  12  45
TORSDOF 10
ENDMDL
MODEL 7
REMARK VINA RESULT:      -5.3      6.123     10.454
REMARK  10 active torsions:
REMARK  status: ('A' for Active; 'I' for Inactive)
REMARK    1  A    between atoms: C_1  and  C_2 
REMARK    2  A    between atoms: C_6  and  C_22 
REMARK    3  A    between atoms: C_7  and  C_11 
REMARK    4  A    between atoms: C_11  and  C_12 
REMARK       I    between atoms: C_12  and  N_14 
REMARK    5  A    between atoms: N_14  and  C_15 
REMARK    6  A    between atoms: C_15  and  C_17 
REMARK    7  A    between atoms: C_15  and  C_20 
REMARK    8  A    between atoms: C_17  and  S_18 
REMARK    9  A    between atoms: S_18  and  C_19 
REMARK   10  A    between atoms: C_25  and  C_28 
ROOT
ATOM      1  C   UNK d   0       3.933  -1.344 -13.924  0.00  0.00    -0.036 A 
ATOM      2  C   UNK d   0       4.692  -0.471 -13.199  0.00  0.00    -0.015 A 
ATOM      3  C   UNK d   0       4.245   0.003 -11.969  0.00  0.00     0.143 A 
ATOM      4  C   UNK d   0       3.003  -0.418 -11.465  0.00  0.00     0.064 A 
ATOM      5  C   UNK d   0       2.550   0.091 -10.171  0.00  0.00    -0.026 A 
ATOM      6  C   UNK d   0       3.357   0.956  -9.502  0.00  0.00     0.049 A 
ATOM      7  C   UNK d   0       4.589   1.341 -10.068  0.00  0.00     0.341 A 
ATOM      8  O   UNK d   0       5.302   2.122  -9.463  0.00  0.00    -0.245 OA
ATOM      9  O   UNK d   0       5.000   0.866 -11.253  0.00  0.00    -0.422 OA
ATOM     10  C   UNK d   0       2.215  -1.316 -12.207  0.00  0.00     0.146 A 
ATOM     11  C   UNK d   0       2.693  -1.775 -13.441  0.00  0.00     0.027 A 
ATOM     12  C   UNK d   0       1.656  -2.680 -13.950  0.00  0.00    -0.005 A 
ATOM     13  C   UNK d   0       0.685  -2.692 -13.026  0.00  0.00     0.096 A 
ATOM     14  O   UNK d   0       1.016  -1.889 -12.000  0.00  0.00    -0.462 OA
ATOM     15  H   UNK d   0       5.648  -0.147 -13.583  0.00  0.00     0.066 H 
ATOM     16  H   UNK d   0      -0.229  -3.264 -13.095  0.00  0.00     0.103 H 
ENDROOT
BRANCH   6  17
ATOM     17  C   UNK d   0       2.933   1.507  -8.164  0.00  0.00     0.056 C 
ATOM     18  H   UNK d   0       3.440   2.454  -7.985  0.00  0.00     0.041 H 
ATOM     19  H   UNK d   0       1.855   1.665  -8.162  0.00  0.00     0.041 H 
BRANCH  17  20
ATOM     20  C   UNK d   0       3.299   0.528  -7.080  0.00  0.00     0.218 C 
ATOM     21  O   UNK d   0       2.473   0.197  -6.255  0.00  0.00    -0.275 OA
ATOM     22  N   UNK d   1       4.546   0.019  -7.024  0.00  0.00    -0.306 N 
ATOM     23  H   UNK d   1       5.208   0.284  -7.682  0.00  0.00     0.149 HD
BRANCH  22  24
ATOM     24  C   UNK d   1       4.903  -0.932  -5.969  0.00  0.00     0.071 C 
ATOM     25  H   UNK d   1       4.002  -1.248  -5.444  0.00  0.00     0.057 H 
BRANCH  24  26
ATOM     26  C   UNK d   1       5.583  -2.154  -6.593  0.00  0.00     0.017 C 
ATOM     27  H   UNK d   1       6.515  -1.847  -7.068  0.00  0.00     0.040 H 
ATOM     28  H   UNK d   1       5.795  -2.887  -5.815  0.00  0.00     0.040 H 
BRANCH  26  29
ATOM     29  S   UNK d   1       4.484  -2.889  -7.834  0.00  0.00    -0.162 SA
BRANCH  29  30
ATOM     30  C   UNK d   1       5.323  -2.567  -9.409  0.00  0.00    -0.018 C 
ATOM     31  H   UNK d   1       4.613  -2.674 -10.228  0.00  0.00     0.034 H 
ATOM     32  H   UNK d   1       5.724  -1.554  -9.406  0.00  0.00     0.034 H 
ATOM     33  H   UNK d   1       6.138  -3.279  -9.539  0.00  0.00     0.034 H 
ENDBRANCH  29  30
ENDBRANCH  26  29
ENDBRANCH  24  26
BRANCH  24  34
ATOM     34  C   UNK d   1       5.848  -0.274  -4.997  0.00  0.00     0.063 C 
ATOM     35  O   UNK d   1       5.454   0.613  -4.278  0.00  0.00    -0.548 OA
ATOM     36  O   UNK d   1       7.128  -0.674  -4.929  0.00  0.00    -0.548 OA
ENDBRANCH  24  34
ENDBRANCH  22  24
ENDBRANCH  17  20
ENDBRANCH   6  17
BRANCH   5  37
ATOM     37  C   UNK d   0       1.225  -0.335  -9.593  0.00  0.00    -0.038 C 
ATOM     38  H   UNK d   0       1.383  -1.139  -8.874  0.00  0.00     0.028 H 
ATOM     39  H   UNK d   0       0.759   0.514  -9.091  0.00  0.00     0.028 H 
ATOM     40  H   UNK d   0       0.574  -0.685 -10.393  0.00  0.00     0.028 H 
ENDBRANCH   5  37
BRANCH   1  41
ATOM     41  C   UNK d   0       4.433  -1.847 -15.254  0.00  0.00    -0.039 C 
ATOM     42  H   UNK d   0       3.995  -1.251 -16.055  0.00  0.00     0.028 H 
ATOM     43  H   UNK d   0       5.518  -1.763 -15.289  0.00  0.00     0.028 H 
ATOM     44  H   UNK d   0       4.145  -2.891 -15.379  0.00  0.00     0.028 H 
ENDBRANCH   1  41
BRANCH  12  45
ATOM     45  C   UNK d   0       1.677  -3.442 -15.250  0.00  0.00    -0.036 C 
ATOM     46  H   UNK d   0       1.432  -4.488 -15.062  0.00  0.00     0.028 H 
ATOM     47  H   UNK d   0       0.943  -3.016 -15.934  0.00  0.00     0.028 H 
ATOM     48  H   UNK d   0       2.670  -3.376 -15.694  0.00  0.00     0.028 H 
ENDBRANCH  12  45
TORSDOF 10
ENDMDL
MODEL 8
REMARK VINA RESULT:      -5.1      6.786      8.659
REMARK  10 active torsions:
REMARK  status: ('A' for Active; 'I' for Inactive)
REMARK    1  A    between atoms: C_1  and  C_2 
REMARK    2  A    between atoms: C_6  and  C_22 
REMARK    3  A    between atoms: C_7  and  C_11 
REMARK    4  A    between atoms: C_11  and  C_12 
REMARK       I    between atoms: C_12  and  N_14 
REMARK    5  A    between atoms: N_14  and  C_15 
REMARK    6  A    between atoms: C_15  and  C_17 
REMARK    7  A    between atoms: C_15  and  C_20 
REMARK    8  A    between atoms: C_17  and  S_18 
REMARK    9  A    between atoms: S_18  and  C_19 
REMARK   10  A    between atoms: C_25  and  C_28 
ROOT
ATOM      1  C   UNK d   0       6.302  -1.394  -4.642  0.00  0.00    -0.036 A 
ATOM      2  C   UNK d   0       6.937  -1.232  -5.839  0.00  0.00    -0.015 A 
ATOM      3  C   UNK d   0       6.279  -0.638  -6.914  0.00  0.00     0.143 A 
ATOM      4  C   UNK d   0       4.952  -0.202  -6.769  0.00  0.00     0.064 A 
ATOM      5  C   UNK d   0       4.278   0.419  -7.909  0.00  0.00    -0.026 A 
ATOM      6  C   UNK d   0       4.970   0.551  -9.071  0.00  0.00     0.049 A 
ATOM      7  C   UNK d   0       6.298   0.085  -9.150  0.00  0.00     0.341 A 
ATOM      8  O   UNK d   0       6.907   0.203 -10.198  0.00  0.00    -0.245 OA
ATOM      9  O   UNK d   0       6.911  -0.478  -8.098  0.00  0.00    -0.422 OA
ATOM     10  C   UNK d   0       4.292  -0.366  -5.539  0.00  0.00     0.146 A 
ATOM     11  C   UNK d   0       4.981  -0.967  -4.476  0.00  0.00     0.027 A 
ATOM     12  C   UNK d   0       4.031  -0.989  -3.357  0.00  0.00    -0.005 A 
ATOM     13  C   UNK d   0       2.903  -0.428  -3.814  0.00  0.00     0.096 A 
ATOM     14  O   UNK d   0       3.058  -0.062  -5.098  0.00  0.00    -0.462 OA
ATOM     15  H   UNK d   0       7.957  -1.565  -5.954  0.00  0.00     0.066 H 
ATOM     16  H   UNK d   0       2.001  -0.289  -3.235  0.00  0.00     0.103 H 
ENDROOT
BRANCH   6  17
ATOM     17  C   UNK d   0       4.317   1.184 -10.273  0.00  0.00     0.056 C 
ATOM     18  H   UNK d   0       3.439   1.746  -9.955  0.00  0.00     0.041 H 
ATOM     19  H   UNK d   0       5.024   1.858 -10.758  0.00  0.00     0.041 H 
BRANCH  17  20
ATOM     20  C   UNK d   0       3.901   0.109 -11.243  0.00  0.00     0.218 C 
ATOM     21  O   UNK d   0       4.288   0.145 -12.392  0.00  0.00    -0.275 OA
ATOM     22  N   UNK d   1       3.098  -0.894 -10.834  0.00  0.00    -0.306 N 
ATOM     23  H   UNK d   1       2.788  -0.922  -9.915  0.00  0.00     0.149 HD
BRANCH  22  24
ATOM     24  C   UNK d   1       2.694  -1.939 -11.777  0.00  0.00     0.071 C 
ATOM     25  H   UNK d   1       2.907  -1.613 -12.794  0.00  0.00     0.057 H 
BRANCH  24  26
ATOM     26  C   UNK d   1       3.472  -3.223 -11.479  0.00  0.00     0.017 C 
ATOM     27  H   UNK d   1       3.922  -3.153 -10.489  0.00  0.00     0.040 H 
ATOM     28  H   UNK d   1       2.792  -4.074 -11.511  0.00  0.00     0.040 H 
BRANCH  26  29
ATOM     29  S   UNK d   1       4.775  -3.442 -12.722  0.00  0.00    -0.162 SA
BRANCH  29  30
ATOM     30  C   UNK d   1       6.273  -2.840 -11.897  0.00  0.00    -0.018 C 
ATOM     31  H   UNK d   1       6.692  -2.009 -12.465  0.00  0.00     0.034 H 
ATOM     32  H   UNK d   1       6.024  -2.503 -10.891  0.00  0.00     0.034 H 
ATOM     33  H   UNK d   1       7.004  -3.646 -11.839  0.00  0.00     0.034 H 
ENDBRANCH  29  30
ENDBRANCH  26  29
ENDBRANCH  24  26
BRANCH  24  34
ATOM     34  C   UNK d   1       1.217  -2.202 -11.632  0.00  0.00     0.063 C 
ATOM     35  O   UNK d   1       0.426  -1.610 -12.327  0.00  0.00    -0.548 OA
ATOM     36  O   UNK d   1       0.779  -3.096 -10.729  0.00  0.00    -0.548 OA
ENDBRANCH  24  34
ENDBRANCH  22  24
ENDBRANCH  17  20
ENDBRANCH   6  17
BRANCH   5  37
ATOM     37  C   UNK d   0       2.855   0.902  -7.797  0.00  0.00    -0.038 C 
ATOM     38  H   UNK d   0       2.746   1.841  -8.341  0.00  0.00     0.028 H 
ATOM     39  H   UNK d   0       2.184   0.156  -8.224  0.00  0.00     0.028 H 
ATOM     40  H   UNK d   0       2.604   1.058  -6.748  0.00  0.00     0.028 H 
ENDBRANCH   5  37
BRANCH   1  41
ATOM     41  C   UNK d   0       7.029  -2.038  -3.490  0.00  0.00    -0.039 C 
ATOM     42  H   UNK d   0       6.374  -2.764  -3.007  0.00  0.00     0.028 H 
ATOM     43  H   UNK d   0       7.921  -2.542  -3.859  0.00  0.00     0.028 H 
ATOM     44  H   UNK d   0       7.317  -1.273  -2.769  0.00  0.00     0.028 H 
ENDBRANCH   1  41
BRANCH  12  45
ATOM     45  C   UNK d   0       4.275  -1.534  -1.973  0.00  0.00    -0.036 C 
ATOM     46  H   UNK d   0       3.319  -1.729  -1.486  0.00  0.00     0.028 H 
ATOM     47  H   UNK d   0       4.842  -2.461  -2.042  0.00  0.00     0.028 H 
ATOM     48  H   UNK d   0       4.838  -0.805  -1.390  0.00  0.00     0.028 H 
ENDBRANCH  12  45
TORSDOF 10
ENDMDL
MODEL 9
REMARK VINA RESULT:      -5.1      1.857      2.978
REMARK  10 active torsions:
REMARK  status: ('A' for Active; 'I' for Inactive)
REMARK    1  A    between atoms: C_1  and  C_2 
REMARK    2  A    between atoms: C_6  and  C_22 
REMARK    3  A    between atoms: C_7  and  C_11 
REMARK    4  A    between atoms: C_11  and  C_12 
REMARK       I    between atoms: C_12  and  N_14 
REMARK    5  A    between atoms: N_14  and  C_15 
REMARK    6  A    between atoms: C_15  and  C_17 
REMARK    7  A    between atoms: C_15  and  C_20 
REMARK    8  A    between atoms: C_17  and  S_18 
REMARK    9  A    between atoms: S_18  and  C_19 
REMARK   10  A    between atoms: C_25  and  C_28 
ROOT
ATOM      1  C   UNK d   0       9.929   5.724  -8.012  0.00  0.00    -0.036 A 
ATOM      2  C   UNK d   0       9.473   4.470  -8.298  0.00  0.00    -0.015 A 
ATOM      3  C   UNK d   0       9.212   3.562  -7.275  0.00  0.00     0.143 A 
ATOM      4  C   UNK d   0       9.418   3.936  -5.937  0.00  0.00     0.064 A 
ATOM      5  C   UNK d   0       9.138   2.969  -4.876  0.00  0.00    -0.026 A 
ATOM      6  C   UNK d   0       8.685   1.738  -5.231  0.00  0.00     0.049 A 
ATOM      7  C   UNK d   0       8.506   1.427  -6.594  0.00  0.00     0.341 A 
ATOM      8  O   UNK d   0       8.105   0.318  -6.902  0.00  0.00    -0.245 OA
ATOM      9  O   UNK d   0       8.759   2.321  -7.561  0.00  0.00    -0.422 OA
ATOM     10  C   UNK d   0       9.888   5.227  -5.636  0.00  0.00     0.146 A 
ATOM     11  C   UNK d   0      10.141   6.117  -6.687  0.00  0.00     0.027 A 
ATOM     12  C   UNK d   0      10.611   7.353  -6.049  0.00  0.00    -0.005 A 
ATOM     13  C   UNK d   0      10.603   7.118  -4.730  0.00  0.00     0.096 A 
ATOM     14  O   UNK d   0      10.177   5.866  -4.488  0.00  0.00    -0.462 OA
ATOM     15  H   UNK d   0       9.313   4.180  -9.326  0.00  0.00     0.066 H 
ATOM     16  H   UNK d   0      10.895   7.830  -3.972  0.00  0.00     0.103 H 
ENDROOT
BRANCH   6  17
ATOM     17  C   UNK d   0       8.383   0.708  -4.173  0.00  0.00     0.056 C 
ATOM     18  H   UNK d   0       8.855  -0.237  -4.441  0.00  0.00     0.041 H 
ATOM     19  H   UNK d   0       8.771   1.049  -3.213  0.00  0.00     0.041 H 
BRANCH  17  20
ATOM     20  C   UNK d   0       6.892   0.515  -4.072  0.00  0.00     0.218 C 
ATOM     21  O   UNK d   0       6.193   1.405  -3.636  0.00  0.00    -0.275 OA
ATOM     22  N   UNK d   1       6.335  -0.647  -4.467  0.00  0.00    -0.306 N 
ATOM     23  H   UNK d   1       6.894  -1.360  -4.814  0.00  0.00     0.149 HD
BRANCH  22  24
ATOM     24  C   UNK d   1       4.886  -0.835  -4.368  0.00  0.00     0.071 C 
ATOM     25  H   UNK d   1       4.417   0.101  -4.066  0.00  0.00     0.057 H 
BRANCH  24  26
ATOM     26  C   UNK d   1       4.334  -1.265  -5.730  0.00  0.00     0.017 C 
ATOM     27  H   UNK d   1       5.159  -1.391  -6.432  0.00  0.00     0.040 H 
ATOM     28  H   UNK d   1       3.800  -2.210  -5.623  0.00  0.00     0.040 H 
BRANCH  26  29
ATOM     29  S   UNK d   1       3.198   0.005  -6.351  0.00  0.00    -0.162 SA
BRANCH  29  30
ATOM     30  C   UNK d   1       2.468   0.712  -4.849  0.00  0.00    -0.018 C 
ATOM     31  H   UNK d   1       2.312  -0.078  -4.114  0.00  0.00     0.034 H 
ATOM     32  H   UNK d   1       3.141   1.464  -4.436  0.00  0.00     0.034 H 
ATOM     33  H   UNK d   1       1.512   1.175  -5.093  0.00  0.00     0.034 H 
ENDBRANCH  29  30
ENDBRANCH  26  29
ENDBRANCH  24  26
BRANCH  24  34
ATOM     34  C   UNK d   1       4.585  -1.902  -3.346  0.00  0.00     0.063 C 
ATOM     35  O   UNK d   1       4.326  -3.026  -3.704  0.00  0.00    -0.548 OA
ATOM     36  O   UNK d   1       4.607  -1.602  -2.037  0.00  0.00    -0.548 OA
ENDBRANCH  24  34
ENDBRANCH  22  24
ENDBRANCH  17  20
ENDBRANCH   6  17
BRANCH   5  37
ATOM     37  C   UNK d   0       9.345   3.329  -3.427  0.00  0.00    -0.038 C 
ATOM     38  H   UNK d   0       8.416   3.170  -2.877  0.00  0.00     0.028 H 
ATOM     39  H   UNK d   0      10.128   2.698  -3.005  0.00  0.00     0.028 H 
ATOM     40  H   UNK d   0       9.639   4.375  -3.350  0.00  0.00     0.028 H 
ENDBRANCH   5  37
BRANCH   1  41
ATOM     41  C   UNK d   0      10.206   6.694  -9.133  0.00  0.00    -0.039 C 
ATOM     42  H   UNK d   0       9.262   7.057  -9.541  0.00  0.00     0.028 H 
ATOM     43  H   UNK d   0      10.785   7.534  -8.752  0.00  0.00     0.028 H 
ATOM     44  H   UNK d   0      10.771   6.190  -9.917  0.00  0.00     0.028 H 
ENDBRANCH   1  41
BRANCH  12  45
ATOM     45  C   UNK d   0      11.020   8.629  -6.738  0.00  0.00    -0.036 C 
ATOM     46  H   UNK d   0      11.874   8.434  -7.387  0.00  0.00     0.028 H 
ATOM     47  H   UNK d   0      10.189   9.002  -7.337  0.00  0.00     0.028 H 
ATOM     48  H   UNK d   0      11.294   9.374  -5.991  0.00  0.00     0.028 H 
ENDBRANCH  12  45
TORSDOF 10
ENDMDL
