MODEL 1
REMARK VINA RESULT:      -6.0      0.000      0.000
REMARK  6 active torsions:
REMARK  status: ('A' for Active; 'I' for Inactive)
REMARK    1  A    between atoms: C_1  and  N_54 
REMARK    2  A    between atoms: C_2  and  N_54 
REMARK    3  A    between atoms: C_3  and  C_4 
REMARK    4  A    between atoms: C_3  and  N_54 
REMARK       I    between atoms: C_4  and  N_6 
REMARK    5  A    between atoms: N_6  and  C_7 
REMARK       I    between atoms: N_21  and  C_23 
REMARK    6  A    between atoms: C_23  and  C_25 
ROOT
ATOM      1  C   LIG d   1       7.668   1.548  -4.664  0.00  0.00     0.099 C 
ATOM      2  C   LIG d   1       7.080   1.405  -3.437  0.00  0.00    -0.034 C 
ATOM      3  C   LIG d   1       6.357   0.238  -3.166  0.00  0.00    -0.040 C 
ATOM      4  C   LIG d   1       6.256  -0.745  -4.099  0.00  0.00     0.027 C 
ATOM      5  N   LIG d   1       6.913  -0.646  -5.280  0.00  0.00    -0.310 N 
ATOM      6  C   LIG d   1       7.544   0.509  -5.607  0.00  0.00     0.273 C 
ATOM      7  O   LIG d   1       8.012   0.647  -6.726  0.00  0.00    -0.266 OA
ATOM      8  C   LIG d   1       7.008  -1.749  -6.236  0.00  0.00     0.031 C 
ATOM      9  C   LIG d   1       5.908  -2.778  -6.042  0.00  0.00    -0.006 C 
ATOM     10  H   LIG d   1       6.189  -3.681  -6.584  0.00  0.00     0.033 H 
ATOM     11  C   LIG d   1       5.797  -3.146  -4.562  0.00  0.00    -0.037 C 
ATOM     12  C   LIG d   1       5.340  -1.907  -3.787  0.00  0.00     0.016 C 
ATOM     13  H   LIG d   1       5.334  -2.102  -2.714  0.00  0.00     0.038 H 
ATOM     14  C   LIG d   1       3.928  -1.530  -4.265  0.00  0.00     0.023 C 
ATOM     15  N   LIG d   1       4.012  -1.258  -5.709  0.00  0.00    -0.296 N 
ATOM     16  C   LIG d   1       4.572  -2.293  -6.586  0.00  0.00     0.019 C 
ATOM     17  C   LIG d   1       3.582  -0.085  -6.215  0.00  0.00     0.248 C 
ATOM     18  O   LIG d   1       3.217   0.802  -5.468  0.00  0.00    -0.270 OA
ATOM     19  H   LIG d   1       7.171   2.180  -2.691  0.00  0.00     0.064 H 
ATOM     20  H   LIG d   1       5.876   0.117  -2.207  0.00  0.00     0.064 H 
ATOM     21  H   LIG d   1       6.940  -1.347  -7.247  0.00  0.00     0.050 H 
ATOM     22  H   LIG d   1       7.974  -2.238  -6.116  0.00  0.00     0.050 H 
ATOM     23  H   LIG d   1       5.067  -3.945  -4.437  0.00  0.00     0.028 H 
ATOM     24  H   LIG d   1       6.768  -3.473  -4.191  0.00  0.00     0.028 H 
ATOM     25  H   LIG d   1       3.583  -0.640  -3.739  0.00  0.00     0.047 H 
ATOM     26  H   LIG d   1       3.241  -2.357  -4.083  0.00  0.00     0.047 H 
ATOM     27  H   LIG d   1       4.717  -1.880  -7.585  0.00  0.00     0.047 H 
ATOM     28  H   LIG d   1       3.879  -3.132  -6.643  0.00  0.00     0.047 H 
ENDROOT
BRANCH   1  29
ATOM     29  N   LIG d   1       8.379   2.714  -4.980  0.00  0.00    -0.277 N 
ATOM     30  C   LIG d   1       9.662   2.847  -4.589  0.00  0.00     0.263 C 
ATOM     31  O   LIG d   1      10.174   2.001  -3.887  0.00  0.00    -0.270 OA
ATOM     32  H   LIG d   1       7.948   3.424  -5.481  0.00  0.00     0.155 HD
BRANCH  30  33
ATOM     33  C   LIG d   1      10.460   4.049  -5.024  0.00  0.00     0.046 C 
ATOM     34  H   LIG d   1      11.035   3.801  -5.917  0.00  0.00     0.091 H 
ATOM     35  H   LIG d   1      11.141   4.343  -4.223  0.00  0.00     0.091 H 
BRANCH  33  36
ATOM     36  N   LIG d   1       9.531   5.164  -5.301  0.00  0.00     0.237 N 
ATOM     37  H   LIG d   1       8.581   4.787  -5.406  0.00  0.00     0.203 HD
BRANCH  36  38
ATOM     38  C   LIG d   1       9.918   5.847  -6.552  0.00  0.00    -0.043 C 
ATOM     39  H   LIG d   1      10.821   6.429  -6.371  0.00  0.00     0.078 H 
ATOM     40  H   LIG d   1       9.120   6.509  -6.889  0.00  0.00     0.078 H 
ATOM     41  H   LIG d   1      10.116   5.098  -7.319  0.00  0.00     0.078 H 
ENDBRANCH  36  38
BRANCH  36  42
ATOM     42  C   LIG d   1       9.544   6.124  -4.176  0.00  0.00    -0.043 C 
ATOM     43  H   LIG d   1       8.517   6.392  -3.928  0.00  0.00     0.078 H 
ATOM     44  H   LIG d   1      10.015   5.652  -3.314  0.00  0.00     0.078 H 
ATOM     45  H   LIG d   1      10.099   7.022  -4.447  0.00  0.00     0.078 H 
ENDBRANCH  36  42
ENDBRANCH  33  36
ENDBRANCH  30  33
ENDBRANCH   1  29
BRANCH  17  46
ATOM     46  C   LIG d   1       3.554   0.123  -7.678  0.00  0.00     0.055 A 
ATOM     47  C   LIG d   1       4.657   0.665  -8.339  0.00  0.00     0.040 A 
ATOM     48  N   LIG d   1       4.633   0.846  -9.643  0.00  0.00    -0.263 NA
ATOM     49  H   LIG d   1       5.538   0.934  -7.777  0.00  0.00     0.084 H 
ATOM     50  C   LIG d   1       3.577   0.538 -10.371  0.00  0.00     0.028 A 
ATOM     51  C   LIG d   1       2.442   0.001  -9.790  0.00  0.00    -0.043 A 
ATOM     52  H   LIG d   1       3.599   0.706 -11.437  0.00  0.00     0.083 H 
ATOM     53  C   LIG d   1       2.418  -0.215  -8.424  0.00  0.00    -0.047 A 
ATOM     54  H   LIG d   1       1.584  -0.247 -10.397  0.00  0.00     0.063 H 
ATOM     55  H   LIG d   1       1.544  -0.631  -7.945  0.00  0.00     0.063 H 
ENDBRANCH  17  46
TORSDOF 6
ENDMDL
MODEL 2
REMARK VINA RESULT:      -6.0      1.959      6.500
REMARK  6 active torsions:
REMARK  status: ('A' for Active; 'I' for Inactive)
REMARK    1  A    between atoms: C_1  and  N_54 
REMARK    2  A    between atoms: C_2  and  N_54 
REMARK    3  A    between atoms: C_3  and  C_4 
REMARK    4  A    between atoms: C_3  and  N_54 
REMARK       I    between atoms: C_4  and  N_6 
REMARK    5  A    between atoms: N_6  and  C_7 
REMARK       I    between atoms: N_21  and  C_23 
REMARK    6  A    between atoms: C_23  and  C_25 
ROOT
ATOM      1  C   LIG d   1       4.552  -1.901  -7.491  0.00  0.00     0.099 C 
ATOM      2  C   LIG d   1       4.677  -3.119  -6.881  0.00  0.00    -0.034 C 
ATOM      3  C   LIG d   1       4.635  -3.182  -5.484  0.00  0.00    -0.040 C 
ATOM      4  C   LIG d   1       4.456  -2.055  -4.746  0.00  0.00     0.027 C 
ATOM      5  N   LIG d   1       4.239  -0.862  -5.349  0.00  0.00    -0.310 N 
ATOM      6  C   LIG d   1       4.365  -0.753  -6.695  0.00  0.00     0.273 C 
ATOM      7  O   LIG d   1       4.311   0.347  -7.222  0.00  0.00    -0.266 OA
ATOM      8  C   LIG d   1       3.842   0.342  -4.619  0.00  0.00     0.031 C 
ATOM      9  C   LIG d   1       4.201   0.269  -3.146  0.00  0.00    -0.006 C 
ATOM     10  H   LIG d   1       3.649   1.050  -2.623  0.00  0.00     0.033 H 
ATOM     11  C   LIG d   1       3.757  -1.074  -2.569  0.00  0.00    -0.037 C 
ATOM     12  C   LIG d   1       4.568  -2.184  -3.243  0.00  0.00     0.016 C 
ATOM     13  H   LIG d   1       4.219  -3.167  -2.924  0.00  0.00     0.038 H 
ATOM     14  C   LIG d   1       6.047  -2.000  -2.867  0.00  0.00     0.023 C 
ATOM     15  N   LIG d   1       6.458  -0.670  -3.346  0.00  0.00    -0.296 N 
ATOM     16  C   LIG d   1       5.687   0.501  -2.911  0.00  0.00     0.019 C 
ATOM     17  C   LIG d   1       7.520  -0.530  -4.163  0.00  0.00     0.248 C 
ATOM     18  O   LIG d   1       8.086  -1.514  -4.598  0.00  0.00    -0.270 OA
ATOM     19  H   LIG d   1       4.807  -4.016  -7.467  0.00  0.00     0.064 H 
ATOM     20  H   LIG d   1       4.747  -4.135  -4.988  0.00  0.00     0.064 H 
ATOM     21  H   LIG d   1       4.340   1.204  -5.062  0.00  0.00     0.050 H 
ATOM     22  H   LIG d   1       2.764   0.472  -4.714  0.00  0.00     0.050 H 
ATOM     23  H   LIG d   1       3.939  -1.090  -1.495  0.00  0.00     0.028 H 
ATOM     24  H   LIG d   1       2.695  -1.225  -2.765  0.00  0.00     0.028 H 
ATOM     25  H   LIG d   1       6.651  -2.769  -3.348  0.00  0.00     0.047 H 
ATOM     26  H   LIG d   1       6.166  -2.058  -1.785  0.00  0.00     0.047 H 
ATOM     27  H   LIG d   1       6.010   1.376  -3.475  0.00  0.00     0.047 H 
ATOM     28  H   LIG d   1       5.862   0.675  -1.849  0.00  0.00     0.047 H 
ENDROOT
BRANCH   1  29
ATOM     29  N   LIG d   1       4.613  -1.795  -8.888  0.00  0.00    -0.277 N 
ATOM     30  C   LIG d   1       3.477  -1.764  -9.612  0.00  0.00     0.263 C 
ATOM     31  O   LIG d   1       2.405  -1.918  -9.065  0.00  0.00    -0.270 OA
ATOM     32  H   LIG d   1       5.474  -1.744  -9.333  0.00  0.00     0.155 HD
BRANCH  30  33
ATOM     33  C   LIG d   1       3.539  -1.538 -11.100  0.00  0.00     0.046 C 
ATOM     34  H   LIG d   1       2.561  -1.219 -11.461  0.00  0.00     0.091 H 
ATOM     35  H   LIG d   1       3.825  -2.465 -11.597  0.00  0.00     0.091 H 
BRANCH  33  36
ATOM     36  N   LIG d   1       4.556  -0.504 -11.383  0.00  0.00     0.237 N 
ATOM     37  H   LIG d   1       5.346  -0.629 -10.739  0.00  0.00     0.203 HD
BRANCH  36  38
ATOM     38  C   LIG d   1       3.980   0.842 -11.182  0.00  0.00    -0.043 C 
ATOM     39  H   LIG d   1       3.323   0.818 -10.313  0.00  0.00     0.078 H 
ATOM     40  H   LIG d   1       3.411   1.148 -12.060  0.00  0.00     0.078 H 
ATOM     41  H   LIG d   1       4.789   1.551 -11.006  0.00  0.00     0.078 H 
ENDBRANCH  36  38
BRANCH  36  42
ATOM     42  C   LIG d   1       5.044  -0.642 -12.772  0.00  0.00    -0.043 C 
ATOM     43  H   LIG d   1       5.545  -1.605 -12.877  0.00  0.00     0.078 H 
ATOM     44  H   LIG d   1       4.192  -0.601 -13.451  0.00  0.00     0.078 H 
ATOM     45  H   LIG d   1       5.742   0.159 -13.013  0.00  0.00     0.078 H 
ENDBRANCH  36  42
ENDBRANCH  33  36
ENDBRANCH  30  33
ENDBRANCH   1  29
BRANCH  17  46
ATOM     46  C   LIG d   1       7.998   0.820  -4.531  0.00  0.00     0.055 A 
ATOM     47  C   LIG d   1       7.831   1.303  -5.830  0.00  0.00     0.040 A 
ATOM     48  N   LIG d   1       8.252   2.507  -6.155  0.00  0.00    -0.263 NA
ATOM     49  H   LIG d   1       7.349   0.685  -6.572  0.00  0.00     0.084 H 
ATOM     50  C   LIG d   1       8.852   3.295  -5.284  0.00  0.00     0.028 A 
ATOM     51  C   LIG d   1       9.060   2.889  -3.979  0.00  0.00    -0.043 A 
ATOM     52  H   LIG d   1       9.185   4.274  -5.595  0.00  0.00     0.083 H 
ATOM     53  C   LIG d   1       8.631   1.634  -3.583  0.00  0.00    -0.047 A 
ATOM     54  H   LIG d   1       9.552   3.543  -3.275  0.00  0.00     0.063 H 
ATOM     55  H   LIG d   1       8.781   1.291  -2.570  0.00  0.00     0.063 H 
ENDBRANCH  17  46
TORSDOF 6
ENDMDL
MODEL 3
REMARK VINA RESULT:      -5.8      1.830      2.196
REMARK  6 active torsions:
REMARK  status: ('A' for Active; 'I' for Inactive)
REMARK    1  A    between atoms: C_1  and  N_54 
REMARK    2  A    between atoms: C_2  and  N_54 
REMARK    3  A    between atoms: C_3  and  C_4 
REMARK    4  A    between atoms: C_3  and  N_54 
REMARK       I    between atoms: C_4  and  N_6 
REMARK    5  A    between atoms: N_6  and  C_7 
REMARK       I    between atoms: N_21  and  C_23 
REMARK    6  A    between atoms: C_23  and  C_25 
ROOT
ATOM      1  C   LIG d   1       7.821   1.047  -4.073  0.00  0.00     0.099 C 
ATOM      2  C   LIG d   1       6.909   1.844  -3.438  0.00  0.00    -0.034 C 
ATOM      3  C   LIG d   1       5.716   1.275  -2.981  0.00  0.00    -0.040 C 
ATOM      4  C   LIG d   1       5.475  -0.052  -3.149  0.00  0.00     0.027 C 
ATOM      5  N   LIG d   1       6.415  -0.861  -3.693  0.00  0.00    -0.310 N 
ATOM      6  C   LIG d   1       7.540  -0.325  -4.228  0.00  0.00     0.273 C 
ATOM      7  O   LIG d   1       8.317  -1.037  -4.844  0.00  0.00    -0.266 OA
ATOM      8  C   LIG d   1       6.298  -2.320  -3.716  0.00  0.00     0.031 C 
ATOM      9  C   LIG d   1       4.860  -2.786  -3.570  0.00  0.00    -0.006 C 
ATOM     10  H   LIG d   1       4.872  -3.848  -3.324  0.00  0.00     0.033 H 
ATOM     11  C   LIG d   1       4.192  -2.051  -2.408  0.00  0.00    -0.037 C 
ATOM     12  C   LIG d   1       4.106  -0.564  -2.760  0.00  0.00     0.016 C 
ATOM     13  H   LIG d   1       3.716   0.011  -1.919  0.00  0.00     0.038 H 
ATOM     14  C   LIG d   1       3.184  -0.408  -3.981  0.00  0.00     0.023 C 
ATOM     15  N   LIG d   1       3.779  -1.184  -5.080  0.00  0.00    -0.296 N 
ATOM     16  C   LIG d   1       4.069  -2.606  -4.858  0.00  0.00     0.019 C 
ATOM     17  C   LIG d   1       4.049  -0.604  -6.266  0.00  0.00     0.248 C 
ATOM     18  O   LIG d   1       3.901   0.595  -6.404  0.00  0.00    -0.270 OA
ATOM     19  H   LIG d   1       7.106   2.896  -3.294  0.00  0.00     0.064 H 
ATOM     20  H   LIG d   1       4.980   1.895  -2.491  0.00  0.00     0.064 H 
ATOM     21  H   LIG d   1       6.695  -2.691  -4.661  0.00  0.00     0.050 H 
ATOM     22  H   LIG d   1       6.888  -2.734  -2.900  0.00  0.00     0.050 H 
ATOM     23  H   LIG d   1       3.189  -2.448  -2.251  0.00  0.00     0.028 H 
ATOM     24  H   LIG d   1       4.785  -2.180  -1.502  0.00  0.00     0.028 H 
ATOM     25  H   LIG d   1       3.117   0.643  -4.263  0.00  0.00     0.047 H 
ATOM     26  H   LIG d   1       2.191  -0.793  -3.749  0.00  0.00     0.047 H 
ATOM     27  H   LIG d   1       4.651  -2.991  -5.696  0.00  0.00     0.047 H 
ATOM     28  H   LIG d   1       3.133  -3.159  -4.787  0.00  0.00     0.047 H 
ENDROOT
BRANCH   1  29
ATOM     29  N   LIG d   1       9.017   1.587  -4.567  0.00  0.00    -0.277 N 
ATOM     30  C   LIG d   1       9.037   2.187  -5.773  0.00  0.00     0.263 C 
ATOM     31  O   LIG d   1       8.045   2.181  -6.471  0.00  0.00    -0.270 OA
ATOM     32  H   LIG d   1       9.830   1.529  -4.040  0.00  0.00     0.155 HD
BRANCH  30  33
ATOM     33  C   LIG d   1      10.293   2.866  -6.255  0.00  0.00     0.046 C 
ATOM     34  H   LIG d   1      10.838   2.195  -6.920  0.00  0.00     0.091 H 
ATOM     35  H   LIG d   1      10.921   3.118  -5.400  0.00  0.00     0.091 H 
BRANCH  33  36
ATOM     36  N   LIG d   1       9.922   4.108  -6.964  0.00  0.00     0.237 N 
ATOM     37  H   LIG d   1       8.998   3.982  -7.396  0.00  0.00     0.203 HD
BRANCH  36  38
ATOM     38  C   LIG d   1      10.910   4.401  -8.023  0.00  0.00    -0.043 C 
ATOM     39  H   LIG d   1      11.335   3.463  -8.378  0.00  0.00     0.078 H 
ATOM     40  H   LIG d   1      11.706   5.038  -7.636  0.00  0.00     0.078 H 
ATOM     41  H   LIG d   1      10.407   4.907  -8.847  0.00  0.00     0.078 H 
ENDBRANCH  36  38
BRANCH  36  42
ATOM     42  C   LIG d   1       9.855   5.235  -6.009  0.00  0.00    -0.043 C 
ATOM     43  H   LIG d   1       9.230   6.022  -6.433  0.00  0.00     0.078 H 
ATOM     44  H   LIG d   1       9.413   4.882  -5.077  0.00  0.00     0.078 H 
ATOM     45  H   LIG d   1      10.852   5.629  -5.813  0.00  0.00     0.078 H 
ENDBRANCH  36  42
ENDBRANCH  33  36
ENDBRANCH  30  33
ENDBRANCH   1  29
BRANCH  17  46
ATOM     46  C   LIG d   1       4.525  -1.424  -7.400  0.00  0.00     0.055 A 
ATOM     47  C   LIG d   1       5.881  -1.723  -7.540  0.00  0.00     0.040 A 
ATOM     48  N   LIG d   1       6.304  -2.458  -8.547  0.00  0.00    -0.263 NA
ATOM     49  H   LIG d   1       6.588  -1.351  -6.814  0.00  0.00     0.084 H 
ATOM     50  C   LIG d   1       5.479  -2.929  -9.462  0.00  0.00     0.028 A 
ATOM     51  C   LIG d   1       4.121  -2.673  -9.397  0.00  0.00    -0.043 A 
ATOM     52  H   LIG d   1       5.869  -3.524 -10.273  0.00  0.00     0.083 H 
ATOM     53  C   LIG d   1       3.624  -1.911  -8.355  0.00  0.00    -0.047 A 
ATOM     54  H   LIG d   1       3.455  -3.064 -10.152  0.00  0.00     0.063 H 
ATOM     55  H   LIG d   1       2.568  -1.695  -8.281  0.00  0.00     0.063 H 
ENDBRANCH  17  46
TORSDOF 6
ENDMDL
MODEL 4
REMARK VINA RESULT:      -5.8      3.253      6.372
REMARK  6 active torsions:
REMARK  status: ('A' for Active; 'I' for Inactive)
REMARK    1  A    between atoms: C_1  and  N_54 
REMARK    2  A    between atoms: C_2  and  N_54 
REMARK    3  A    between atoms: C_3  and  C_4 
REMARK    4  A    between atoms: C_3  and  N_54 
REMARK       I    between atoms: C_4  and  N_6 
REMARK    5  A    between atoms: N_6  and  C_7 
REMARK       I    between atoms: N_21  and  C_23 
REMARK    6  A    between atoms: C_23  and  C_25 
ROOT
ATOM      1  C   LIG d   1       3.182   0.188  -6.780  0.00  0.00     0.099 C 
ATOM      2  C   LIG d   1       2.212  -0.012  -5.836  0.00  0.00    -0.034 C 
ATOM      3  C   LIG d   1       2.595  -0.228  -4.508  0.00  0.00    -0.040 C 
ATOM      4  C   LIG d   1       3.908  -0.222  -4.158  0.00  0.00     0.027 C 
ATOM      5  N   LIG d   1       4.865   0.067  -5.073  0.00  0.00    -0.310 N 
ATOM      6  C   LIG d   1       4.533   0.190  -6.381  0.00  0.00     0.273 C 
ATOM      7  O   LIG d   1       5.412   0.307  -7.221  0.00  0.00    -0.266 OA
ATOM      8  C   LIG d   1       6.268   0.286  -4.719  0.00  0.00     0.031 C 
ATOM      9  C   LIG d   1       6.631  -0.339  -3.383  0.00  0.00    -0.006 C 
ATOM     10  H   LIG d   1       7.582   0.084  -3.059  0.00  0.00     0.033 H 
ATOM     11  C   LIG d   1       5.582   0.031  -2.335  0.00  0.00    -0.037 C 
ATOM     12  C   LIG d   1       4.249  -0.607  -2.736  0.00  0.00     0.016 C 
ATOM     13  H   LIG d   1       3.451  -0.294  -2.062  0.00  0.00     0.038 H 
ATOM     14  C   LIG d   1       4.411  -2.135  -2.692  0.00  0.00     0.023 C 
ATOM     15  N   LIG d   1       5.481  -2.490  -3.638  0.00  0.00    -0.296 N 
ATOM     16  C   LIG d   1       6.792  -1.848  -3.486  0.00  0.00     0.019 C 
ATOM     17  C   LIG d   1       5.262  -3.386  -4.621  0.00  0.00     0.248 C 
ATOM     18  O   LIG d   1       4.146  -3.831  -4.799  0.00  0.00    -0.270 OA
ATOM     19  H   LIG d   1       1.168  -0.003  -6.112  0.00  0.00     0.064 H 
ATOM     20  H   LIG d   1       1.841  -0.401  -3.755  0.00  0.00     0.064 H 
ATOM     21  H   LIG d   1       6.899  -0.147  -5.494  0.00  0.00     0.050 H 
ATOM     22  H   LIG d   1       6.456   1.358  -4.670  0.00  0.00     0.050 H 
ATOM     23  H   LIG d   1       5.889  -0.346  -1.360  0.00  0.00     0.028 H 
ATOM     24  H   LIG d   1       5.471   1.115  -2.292  0.00  0.00     0.028 H 
ATOM     25  H   LIG d   1       3.479  -2.616  -2.988  0.00  0.00     0.047 H 
ATOM     26  H   LIG d   1       4.686  -2.451  -1.685  0.00  0.00     0.047 H 
ATOM     27  H   LIG d   1       7.414  -2.087  -4.350  0.00  0.00     0.047 H 
ATOM     28  H   LIG d   1       7.275  -2.222  -2.584  0.00  0.00     0.047 H 
ENDROOT
BRANCH   1  29
ATOM     29  N   LIG d   1       2.837   0.384  -8.125  0.00  0.00    -0.277 N 
ATOM     30  C   LIG d   1       2.718  -0.675  -8.950  0.00  0.00     0.263 C 
ATOM     31  O   LIG d   1       2.997  -1.788  -8.555  0.00  0.00    -0.270 OA
ATOM     32  H   LIG d   1       2.684   1.281  -8.461  0.00  0.00     0.155 HD
BRANCH  30  33
ATOM     33  C   LIG d   1       2.239  -0.476 -10.365  0.00  0.00     0.046 C 
ATOM     34  H   LIG d   1       1.892   0.549 -10.492  0.00  0.00     0.091 H 
ATOM     35  H   LIG d   1       1.419  -1.165 -10.571  0.00  0.00     0.091 H 
BRANCH  33  36
ATOM     36  N   LIG d   1       3.355  -0.763 -11.290  0.00  0.00     0.237 N 
ATOM     37  H   LIG d   1       3.956  -1.485 -10.875  0.00  0.00     0.203 HD
BRANCH  36  38
ATOM     38  C   LIG d   1       4.155   0.459 -11.512  0.00  0.00    -0.043 C 
ATOM     39  H   LIG d   1       4.474   0.488 -12.553  0.00  0.00     0.078 H 
ATOM     40  H   LIG d   1       5.031   0.464 -10.863  0.00  0.00     0.078 H 
ATOM     41  H   LIG d   1       3.538   1.331 -11.296  0.00  0.00     0.078 H 
ENDBRANCH  36  38
BRANCH  36  42
ATOM     42  C   LIG d   1       2.827  -1.262 -12.579  0.00  0.00    -0.043 C 
ATOM     43  H   LIG d   1       3.060  -0.538 -13.360  0.00  0.00     0.078 H 
ATOM     44  H   LIG d   1       3.305  -2.214 -12.811  0.00  0.00     0.078 H 
ATOM     45  H   LIG d   1       1.748  -1.401 -12.521  0.00  0.00     0.078 H 
ENDBRANCH  36  42
ENDBRANCH  33  36
ENDBRANCH  30  33
ENDBRANCH   1  29
BRANCH  17  46
ATOM     46  C   LIG d   1       6.380  -3.827  -5.481  0.00  0.00     0.055 A 
ATOM     47  C   LIG d   1       6.644  -3.180  -6.689  0.00  0.00     0.040 A 
ATOM     48  N   LIG d   1       7.643  -3.570  -7.453  0.00  0.00    -0.263 NA
ATOM     49  H   LIG d   1       6.027  -2.350  -6.997  0.00  0.00     0.084 H 
ATOM     50  C   LIG d   1       8.421  -4.583  -7.121  0.00  0.00     0.028 A 
ATOM     51  C   LIG d   1       8.221  -5.280  -5.943  0.00  0.00    -0.043 A 
ATOM     52  H   LIG d   1       9.226  -4.872  -7.779  0.00  0.00     0.083 H 
ATOM     53  C   LIG d   1       7.189  -4.906  -5.102  0.00  0.00    -0.047 A 
ATOM     54  H   LIG d   1       8.865  -6.107  -5.682  0.00  0.00     0.063 H 
ATOM     55  H   LIG d   1       7.010  -5.433  -4.176  0.00  0.00     0.063 H 
ENDBRANCH  17  46
TORSDOF 6
ENDMDL
MODEL 5
REMARK VINA RESULT:      -5.8      2.623      3.903
REMARK  6 active torsions:
REMARK  status: ('A' for Active; 'I' for Inactive)
REMARK    1  A    between atoms: C_1  and  N_54 
REMARK    2  A    between atoms: C_2  and  N_54 
REMARK    3  A    between atoms: C_3  and  C_4 
REMARK    4  A    between atoms: C_3  and  N_54 
REMARK       I    between atoms: C_4  and  N_6 
REMARK    5  A    between atoms: N_6  and  C_7 
REMARK       I    between atoms: N_21  and  C_23 
REMARK    6  A    between atoms: C_23  and  C_25 
ROOT
ATOM      1  C   LIG d   1       9.427   1.050  -5.710  0.00  0.00     0.099 C 
ATOM      2  C   LIG d   1      10.377   0.113  -5.412  0.00  0.00    -0.034 C 
ATOM      3  C   LIG d   1      10.114  -1.232  -5.698  0.00  0.00    -0.040 C 
ATOM      4  C   LIG d   1       8.942  -1.598  -6.278  0.00  0.00     0.027 C 
ATOM      5  N   LIG d   1       8.038  -0.663  -6.659  0.00  0.00    -0.310 N 
ATOM      6  C   LIG d   1       8.223   0.635  -6.313  0.00  0.00     0.273 C 
ATOM      7  O   LIG d   1       7.342   1.452  -6.531  0.00  0.00    -0.266 OA
ATOM      8  C   LIG d   1       6.857  -0.974  -7.465  0.00  0.00     0.031 C 
ATOM      9  C   LIG d   1       6.471  -2.441  -7.381  0.00  0.00    -0.006 C 
ATOM     10  H   LIG d   1       5.776  -2.655  -8.193  0.00  0.00     0.033 H 
ATOM     11  C   LIG d   1       7.707  -3.315  -7.589  0.00  0.00    -0.037 C 
ATOM     12  C   LIG d   1       8.671  -3.078  -6.423  0.00  0.00     0.016 C 
ATOM     13  H   LIG d   1       9.606  -3.617  -6.578  0.00  0.00     0.038 H 
ATOM     14  C   LIG d   1       7.992  -3.557  -5.128  0.00  0.00     0.023 C 
ATOM     15  N   LIG d   1       6.755  -2.777  -4.968  0.00  0.00    -0.296 N 
ATOM     16  C   LIG d   1       5.781  -2.773  -6.065  0.00  0.00     0.019 C 
ATOM     17  C   LIG d   1       6.521  -2.082  -3.837  0.00  0.00     0.248 C 
ATOM     18  O   LIG d   1       7.379  -2.010  -2.979  0.00  0.00    -0.270 OA
ATOM     19  H   LIG d   1      11.314   0.405  -4.962  0.00  0.00     0.064 H 
ATOM     20  H   LIG d   1      10.850  -1.984  -5.455  0.00  0.00     0.064 H 
ATOM     21  H   LIG d   1       6.021  -0.369  -7.115  0.00  0.00     0.050 H 
ATOM     22  H   LIG d   1       7.063  -0.722  -8.504  0.00  0.00     0.050 H 
ATOM     23  H   LIG d   1       7.414  -4.365  -7.613  0.00  0.00     0.028 H 
ATOM     24  H   LIG d   1       8.193  -3.047  -8.526  0.00  0.00     0.028 H 
ATOM     25  H   LIG d   1       8.652  -3.386  -4.278  0.00  0.00     0.047 H 
ATOM     26  H   LIG d   1       7.754  -4.619  -5.204  0.00  0.00     0.047 H 
ATOM     27  H   LIG d   1       5.011  -2.028  -5.863  0.00  0.00     0.047 H 
ATOM     28  H   LIG d   1       5.316  -3.756  -6.140  0.00  0.00     0.047 H 
ENDROOT
BRANCH   1  29
ATOM     29  N   LIG d   1       9.645   2.403  -5.415  0.00  0.00    -0.277 N 
ATOM     30  C   LIG d   1       9.322   2.888  -4.200  0.00  0.00     0.263 C 
ATOM     31  O   LIG d   1       8.761   2.178  -3.392  0.00  0.00    -0.270 OA
ATOM     32  H   LIG d   1      10.027   2.990  -6.086  0.00  0.00     0.155 HD
BRANCH  30  33
ATOM     33  C   LIG d   1       9.659   4.313  -3.844  0.00  0.00     0.046 C 
ATOM     34  H   LIG d   1       8.739   4.889  -3.737  0.00  0.00     0.091 H 
ATOM     35  H   LIG d   1      10.271   4.750  -4.634  0.00  0.00     0.091 H 
BRANCH  33  36
ATOM     36  N   LIG d   1      10.424   4.321  -2.580  0.00  0.00     0.237 N 
ATOM     37  H   LIG d   1      10.086   3.558  -1.981  0.00  0.00     0.203 HD
BRANCH  36  38
ATOM     38  C   LIG d   1      10.228   5.606  -1.878  0.00  0.00    -0.043 C 
ATOM     39  H   LIG d   1      11.090   6.245  -2.064  0.00  0.00     0.078 H 
ATOM     40  H   LIG d   1      10.121   5.442  -0.805  0.00  0.00     0.078 H 
ATOM     41  H   LIG d   1       9.329   6.087  -2.263  0.00  0.00     0.078 H 
ENDBRANCH  36  38
BRANCH  36  42
ATOM     42  C   LIG d   1      11.862   4.112  -2.858  0.00  0.00    -0.043 C 
ATOM     43  H   LIG d   1      12.006   3.099  -3.234  0.00  0.00     0.078 H 
ATOM     44  H   LIG d   1      12.183   4.829  -3.614  0.00  0.00     0.078 H 
ATOM     45  H   LIG d   1      12.450   4.250  -1.951  0.00  0.00     0.078 H 
ENDBRANCH  36  42
ENDBRANCH  33  36
ENDBRANCH  30  33
ENDBRANCH   1  29
BRANCH  17  46
ATOM     46  C   LIG d   1       5.220  -1.409  -3.638  0.00  0.00     0.055 A 
ATOM     47  C   LIG d   1       4.988  -0.141  -4.171  0.00  0.00     0.040 A 
ATOM     48  N   LIG d   1       3.827   0.456  -3.999  0.00  0.00    -0.263 NA
ATOM     49  H   LIG d   1       5.766   0.353  -4.735  0.00  0.00     0.084 H 
ATOM     50  C   LIG d   1       2.849  -0.105  -3.314  0.00  0.00     0.028 A 
ATOM     51  C   LIG d   1       3.002  -1.358  -2.748  0.00  0.00    -0.043 A 
ATOM     52  H   LIG d   1       1.915   0.422  -3.193  0.00  0.00     0.083 H 
ATOM     53  C   LIG d   1       4.200  -2.031  -2.906  0.00  0.00    -0.047 A 
ATOM     54  H   LIG d   1       2.194  -1.807  -2.190  0.00  0.00     0.063 H 
ATOM     55  H   LIG d   1       4.347  -3.010  -2.474  0.00  0.00     0.063 H 
ENDBRANCH  17  46
TORSDOF 6
ENDMDL
MODEL 6
REMARK VINA RESULT:      -5.7      3.012      8.730
REMARK  6 active torsions:
REMARK  status: ('A' for Active; 'I' for Inactive)
REMARK    1  A    between atoms: C_1  and  N_54 
REMARK    2  A    between atoms: C_2  and  N_54 
REMARK    3  A    between atoms: C_3  and  C_4 
REMARK    4  A    between atoms: C_3  and  N_54 
REMARK       I    between atoms: C_4  and  N_6 
REMARK    5  A    between atoms: N_6  and  C_7 
REMARK       I    between atoms: N_21  and  C_23 
REMARK    6  A    between atoms: C_23  and  C_25 
ROOT
ATOM      1  C   LIG d   1       8.520   2.526  -4.756  0.00  0.00     0.099 C 
ATOM      2  C   LIG d   1       8.632   2.634  -6.115  0.00  0.00    -0.034 C 
ATOM      3  C   LIG d   1       9.788   3.208  -6.655  0.00  0.00    -0.040 C 
ATOM      4  C   LIG d   1      10.791   3.635  -5.843  0.00  0.00     0.027 C 
ATOM      5  N   LIG d   1      10.724   3.445  -4.503  0.00  0.00    -0.310 N 
ATOM      6  C   LIG d   1       9.580   2.977  -3.945  0.00  0.00     0.273 C 
ATOM      7  O   LIG d   1       9.470   2.942  -2.729  0.00  0.00    -0.266 OA
ATOM      8  C   LIG d   1      11.849   3.697  -3.603  0.00  0.00     0.031 C 
ATOM      9  C   LIG d   1      12.867   4.650  -4.203  0.00  0.00    -0.006 C 
ATOM     10  H   LIG d   1      13.783   4.580  -3.617  0.00  0.00     0.033 H 
ATOM     11  C   LIG d   1      13.200   4.221  -5.632  0.00  0.00    -0.037 C 
ATOM     12  C   LIG d   1      11.941   4.373  -6.490  0.00  0.00     0.016 C 
ATOM     13  H   LIG d   1      12.111   3.993  -7.498  0.00  0.00     0.038 H 
ATOM     14  C   LIG d   1      11.568   5.864  -6.543  0.00  0.00     0.023 C 
ATOM     15  N   LIG d   1      11.329   6.305  -5.159  0.00  0.00    -0.296 N 
ATOM     16  C   LIG d   1      12.387   6.094  -4.164  0.00  0.00     0.019 C 
ATOM     17  C   LIG d   1      10.166   6.891  -4.813  0.00  0.00     0.248 C 
ATOM     18  O   LIG d   1       9.260   6.966  -5.621  0.00  0.00    -0.270 OA
ATOM     19  H   LIG d   1       7.841   2.283  -6.760  0.00  0.00     0.064 H 
ATOM     20  H   LIG d   1       9.884   3.312  -7.725  0.00  0.00     0.064 H 
ATOM     21  H   LIG d   1      11.470   4.124  -2.675  0.00  0.00     0.050 H 
ATOM     22  H   LIG d   1      12.340   2.751  -3.379  0.00  0.00     0.050 H 
ATOM     23  H   LIG d   1      13.992   4.856  -6.030  0.00  0.00     0.028 H 
ATOM     24  H   LIG d   1      13.523   3.181  -5.637  0.00  0.00     0.028 H 
ATOM     25  H   LIG d   1      10.664   6.000  -7.136  0.00  0.00     0.047 H 
ATOM     26  H   LIG d   1      12.387   6.437  -6.979  0.00  0.00     0.047 H 
ATOM     27  H   LIG d   1      11.998   6.318  -3.170  0.00  0.00     0.047 H 
ATOM     28  H   LIG d   1      13.223   6.759  -4.379  0.00  0.00     0.047 H 
ENDROOT
BRANCH   1  29
ATOM     29  N   LIG d   1       7.366   1.979  -4.178  0.00  0.00    -0.277 N 
ATOM     30  C   LIG d   1       7.272   0.648  -3.991  0.00  0.00     0.263 C 
ATOM     31  O   LIG d   1       8.145  -0.087  -4.405  0.00  0.00    -0.270 OA
ATOM     32  H   LIG d   1       6.635   2.559  -3.913  0.00  0.00     0.155 HD
BRANCH  30  33
ATOM     33  C   LIG d   1       6.081   0.071  -3.270  0.00  0.00     0.046 C 
ATOM     34  H   LIG d   1       6.195   0.227  -2.197  0.00  0.00     0.091 H 
ATOM     35  H   LIG d   1       6.013  -0.997  -3.477  0.00  0.00     0.091 H 
BRANCH  33  36
ATOM     36  N   LIG d   1       4.857   0.737  -3.762  0.00  0.00     0.237 N 
ATOM     37  H   LIG d   1       5.125   1.558  -4.318  0.00  0.00     0.203 HD
BRANCH  36  38
ATOM     38  C   LIG d   1       4.029   1.180  -2.621  0.00  0.00    -0.043 C 
ATOM     39  H   LIG d   1       3.544   2.121  -2.882  0.00  0.00     0.078 H 
ATOM     40  H   LIG d   1       4.647   1.324  -1.734  0.00  0.00     0.078 H 
ATOM     41  H   LIG d   1       3.271   0.424  -2.418  0.00  0.00     0.078 H 
ENDBRANCH  36  38
BRANCH  36  42
ATOM     42  C   LIG d   1       4.085  -0.191  -4.616  0.00  0.00    -0.043 C 
ATOM     43  H   LIG d   1       3.864  -1.094  -4.047  0.00  0.00     0.078 H 
ATOM     44  H   LIG d   1       3.153   0.292  -4.909  0.00  0.00     0.078 H 
ATOM     45  H   LIG d   1       4.656  -0.453  -5.507  0.00  0.00     0.078 H 
ENDBRANCH  36  42
ENDBRANCH  33  36
ENDBRANCH  30  33
ENDBRANCH   1  29
BRANCH  17  46
ATOM     46  C   LIG d   1       9.991   7.443  -3.453  0.00  0.00     0.055 A 
ATOM     47  C   LIG d   1       9.474   6.652  -2.427  0.00  0.00     0.040 A 
ATOM     48  N   LIG d   1       9.323   7.143  -1.214  0.00  0.00    -0.263 NA
ATOM     49  H   LIG d   1       9.200   5.627  -2.628  0.00  0.00     0.084 H 
ATOM     50  C   LIG d   1       9.639   8.390  -0.923  0.00  0.00     0.028 A 
ATOM     51  C   LIG d   1      10.151   9.240  -1.886  0.00  0.00    -0.043 A 
ATOM     52  H   LIG d   1       9.495   8.752   0.084  0.00  0.00     0.083 H 
ATOM     53  C   LIG d   1      10.335   8.772  -3.174  0.00  0.00    -0.047 A 
ATOM     54  H   LIG d   1      10.405  10.259  -1.635  0.00  0.00     0.063 H 
ATOM     55  H   LIG d   1      10.733   9.415  -3.946  0.00  0.00     0.063 H 
ENDBRANCH  17  46
TORSDOF 6
ENDMDL
MODEL 7
REMARK VINA RESULT:      -5.7      3.947      9.044
REMARK  6 active torsions:
REMARK  status: ('A' for Active; 'I' for Inactive)
REMARK    1  A    between atoms: C_1  and  N_54 
REMARK    2  A    between atoms: C_2  and  N_54 
REMARK    3  A    between atoms: C_3  and  C_4 
REMARK    4  A    between atoms: C_3  and  N_54 
REMARK       I    between atoms: C_4  and  N_6 
REMARK    5  A    between atoms: N_6  and  C_7 
REMARK       I    between atoms: N_21  and  C_23 
REMARK    6  A    between atoms: C_23  and  C_25 
ROOT
ATOM      1  C   LIG d   1       1.697  -2.267 -10.203  0.00  0.00     0.099 C 
ATOM      2  C   LIG d   1       1.488  -1.005 -10.688  0.00  0.00    -0.034 C 
ATOM      3  C   LIG d   1       2.572  -0.123 -10.767  0.00  0.00    -0.040 C 
ATOM      4  C   LIG d   1       3.814  -0.519 -10.384  0.00  0.00     0.027 C 
ATOM      5  N   LIG d   1       4.041  -1.796  -9.992  0.00  0.00    -0.310 N 
ATOM      6  C   LIG d   1       2.998  -2.644  -9.817  0.00  0.00     0.273 C 
ATOM      7  O   LIG d   1       3.188  -3.746  -9.328  0.00  0.00    -0.266 OA
ATOM      8  C   LIG d   1       5.382  -2.335  -9.763  0.00  0.00     0.031 C 
ATOM      9  C   LIG d   1       6.405  -1.245  -9.495  0.00  0.00    -0.006 C 
ATOM     10  H   LIG d   1       7.398  -1.679  -9.605  0.00  0.00     0.033 H 
ATOM     11  C   LIG d   1       6.268  -0.137 -10.540  0.00  0.00    -0.037 C 
ATOM     12  C   LIG d   1       4.902   0.531 -10.362  0.00  0.00     0.016 C 
ATOM     13  H   LIG d   1       4.726   1.269 -11.145  0.00  0.00     0.038 H 
ATOM     14  C   LIG d   1       4.869   1.207  -8.981  0.00  0.00     0.023 C 
ATOM     15  N   LIG d   1       5.087   0.156  -7.973  0.00  0.00    -0.296 N 
ATOM     16  C   LIG d   1       6.284  -0.685  -8.085  0.00  0.00     0.019 C 
ATOM     17  C   LIG d   1       4.207  -0.028  -6.970  0.00  0.00     0.248 C 
ATOM     18  O   LIG d   1       3.169   0.604  -6.947  0.00  0.00    -0.270 OA
ATOM     19  H   LIG d   1       0.503  -0.694 -11.003  0.00  0.00     0.064 H 
ATOM     20  H   LIG d   1       2.419   0.881 -11.134  0.00  0.00     0.064 H 
ATOM     21  H   LIG d   1       5.351  -3.008  -8.906  0.00  0.00     0.050 H 
ATOM     22  H   LIG d   1       5.690  -2.900 -10.642  0.00  0.00     0.050 H 
ATOM     23  H   LIG d   1       7.056   0.601 -10.397  0.00  0.00     0.028 H 
ATOM     24  H   LIG d   1       6.339  -0.564 -11.540  0.00  0.00     0.028 H 
ATOM     25  H   LIG d   1       3.900   1.679  -8.821  0.00  0.00     0.047 H 
ATOM     26  H   LIG d   1       5.660   1.954  -8.914  0.00  0.00     0.047 H 
ATOM     27  H   LIG d   1       6.215  -1.509  -7.374  0.00  0.00     0.047 H 
ATOM     28  H   LIG d   1       7.167  -0.088  -7.857  0.00  0.00     0.047 H 
ENDROOT
BRANCH   1  29
ATOM     29  N   LIG d   1       0.630  -3.169 -10.086  0.00  0.00    -0.277 N 
ATOM     30  C   LIG d   1       0.354  -4.019 -11.095  0.00  0.00     0.263 C 
ATOM     31  O   LIG d   1       0.968  -3.943 -12.139  0.00  0.00    -0.270 OA
ATOM     32  H   LIG d   1       0.092  -3.182  -9.279  0.00  0.00     0.155 HD
BRANCH  30  33
ATOM     33  C   LIG d   1      -0.719  -5.064 -10.926  0.00  0.00     0.046 C 
ATOM     34  H   LIG d   1      -0.517  -5.652 -10.031  0.00  0.00     0.091 H 
ATOM     35  H   LIG d   1      -0.728  -5.720 -11.798  0.00  0.00     0.091 H 
BRANCH  33  36
ATOM     36  N   LIG d   1      -2.029  -4.388 -10.817  0.00  0.00     0.237 N 
ATOM     37  H   LIG d   1      -1.890  -3.457 -10.407  0.00  0.00     0.203 HD
BRANCH  36  38
ATOM     38  C   LIG d   1      -2.929  -5.168  -9.943  0.00  0.00    -0.043 C 
ATOM     39  H   LIG d   1      -3.854  -5.372 -10.481  0.00  0.00     0.078 H 
ATOM     40  H   LIG d   1      -3.153  -4.612  -9.032  0.00  0.00     0.078 H 
ATOM     41  H   LIG d   1      -2.444  -6.109  -9.684  0.00  0.00     0.078 H 
ENDBRANCH  36  38
BRANCH  36  42
ATOM     42  C   LIG d   1      -2.633  -4.238 -12.159  0.00  0.00    -0.043 C 
ATOM     43  H   LIG d   1      -2.873  -3.187 -12.322  0.00  0.00     0.078 H 
ATOM     44  H   LIG d   1      -1.914  -4.567 -12.909  0.00  0.00     0.078 H 
ATOM     45  H   LIG d   1      -3.541  -4.835 -12.237  0.00  0.00     0.078 H 
ENDBRANCH  36  42
ENDBRANCH  33  36
ENDBRANCH  30  33
ENDBRANCH   1  29
BRANCH  17  46
ATOM     46  C   LIG d   1       4.503  -1.000  -5.895  0.00  0.00     0.055 A 
ATOM     47  C   LIG d   1       4.272  -2.363  -6.087  0.00  0.00     0.040 A 
ATOM     48  N   LIG d   1       4.542  -3.228  -5.131  0.00  0.00    -0.263 NA
ATOM     49  H   LIG d   1       3.875  -2.710  -7.028  0.00  0.00     0.084 H 
ATOM     50  C   LIG d   1       5.024  -2.849  -3.963  0.00  0.00     0.028 A 
ATOM     51  C   LIG d   1       5.274  -1.516  -3.693  0.00  0.00    -0.043 A 
ATOM     52  H   LIG d   1       5.226  -3.592  -3.207  0.00  0.00     0.083 H 
ATOM     53  C   LIG d   1       5.015  -0.567  -4.665  0.00  0.00    -0.047 A 
ATOM     54  H   LIG d   1       5.669  -1.219  -2.732  0.00  0.00     0.063 H 
ATOM     55  H   LIG d   1       5.201   0.481  -4.480  0.00  0.00     0.063 H 
ENDBRANCH  17  46
TORSDOF 6
ENDMDL
MODEL 8
REMARK VINA RESULT:      -5.6      3.614      6.472
REMARK  6 active torsions:
REMARK  status: ('A' for Active; 'I' for Inactive)
REMARK    1  A    between atoms: C_1  and  N_54 
REMARK    2  A    between atoms: C_2  and  N_54 
REMARK    3  A    between atoms: C_3  and  C_4 
REMARK    4  A    between atoms: C_3  and  N_54 
REMARK       I    between atoms: C_4  and  N_6 
REMARK    5  A    between atoms: N_6  and  C_7 
REMARK       I    between atoms: N_21  and  C_23 
REMARK    6  A    between atoms: C_23  and  C_25 
ROOT
ATOM      1  C   LIG d   1       7.679  -3.894  -5.091  0.00  0.00     0.099 C 
ATOM      2  C   LIG d   1       8.457  -2.989  -4.423  0.00  0.00    -0.034 C 
ATOM      3  C   LIG d   1       7.836  -2.019  -3.628  0.00  0.00    -0.040 C 
ATOM      4  C   LIG d   1       6.482  -1.988  -3.509  0.00  0.00     0.027 C 
ATOM      5  N   LIG d   1       5.715  -2.938  -4.096  0.00  0.00    -0.310 N 
ATOM      6  C   LIG d   1       6.279  -3.833  -4.944  0.00  0.00     0.273 C 
ATOM      7  O   LIG d   1       5.570  -4.595  -5.580  0.00  0.00    -0.266 OA
ATOM      8  C   LIG d   1       4.281  -3.076  -3.842  0.00  0.00     0.031 C 
ATOM      9  C   LIG d   1       3.662  -1.794  -3.311  0.00  0.00    -0.006 C 
ATOM     10  H   LIG d   1       2.685  -2.037  -2.895  0.00  0.00     0.033 H 
ATOM     11  C   LIG d   1       4.520  -1.234  -2.177  0.00  0.00    -0.037 C 
ATOM     12  C   LIG d   1       5.879  -0.826  -2.753  0.00  0.00     0.016 C 
ATOM     13  H   LIG d   1       6.554  -0.503  -1.960  0.00  0.00     0.038 H 
ATOM     14  C   LIG d   1       5.655   0.319  -3.756  0.00  0.00     0.023 C 
ATOM     15  N   LIG d   1       4.759  -0.189  -4.807  0.00  0.00    -0.296 N 
ATOM     16  C   LIG d   1       3.466  -0.760  -4.411  0.00  0.00     0.019 C 
ATOM     17  C   LIG d   1       5.116  -0.130  -6.105  0.00  0.00     0.248 C 
ATOM     18  O   LIG d   1       6.229   0.249  -6.412  0.00  0.00    -0.270 OA
ATOM     19  H   LIG d   1       9.533  -3.022  -4.507  0.00  0.00     0.064 H 
ATOM     20  H   LIG d   1       8.436  -1.290  -3.106  0.00  0.00     0.064 H 
ATOM     21  H   LIG d   1       3.782  -3.351  -4.771  0.00  0.00     0.050 H 
ATOM     22  H   LIG d   1       4.127  -3.870  -3.112  0.00  0.00     0.050 H 
ATOM     23  H   LIG d   1       4.031  -0.363  -1.743  0.00  0.00     0.028 H 
ATOM     24  H   LIG d   1       4.661  -1.998  -1.412  0.00  0.00     0.028 H 
ATOM     25  H   LIG d   1       6.607   0.620  -4.194  0.00  0.00     0.047 H 
ATOM     26  H   LIG d   1       5.193   1.169  -3.253  0.00  0.00     0.047 H 
ATOM     27  H   LIG d   1       3.000  -1.235  -5.275  0.00  0.00     0.047 H 
ATOM     28  H   LIG d   1       2.816   0.035  -4.046  0.00  0.00     0.047 H 
ENDROOT
BRANCH   1  29
ATOM     29  N   LIG d   1       8.265  -4.864  -5.916  0.00  0.00    -0.277 N 
ATOM     30  C   LIG d   1       8.698  -6.026  -5.387  0.00  0.00     0.263 C 
ATOM     31  O   LIG d   1       8.664  -6.196  -4.186  0.00  0.00    -0.270 OA
ATOM     32  H   LIG d   1       8.360  -4.700  -6.867  0.00  0.00     0.155 HD
BRANCH  30  33
ATOM     33  C   LIG d   1       9.225  -7.113  -6.287  0.00  0.00     0.046 C 
ATOM     34  H   LIG d   1      10.298  -6.981  -6.428  0.00  0.00     0.091 H 
ATOM     35  H   LIG d   1       8.721  -7.061  -7.253  0.00  0.00     0.091 H 
BRANCH  33  36
ATOM     36  N   LIG d   1       8.943  -8.424  -5.666  0.00  0.00     0.237 N 
ATOM     37  H   LIG d   1       8.821  -8.295  -4.654  0.00  0.00     0.203 HD
BRANCH  36  38
ATOM     38  C   LIG d   1      10.071  -9.348  -5.900  0.00  0.00    -0.043 C 
ATOM     39  H   LIG d   1      10.641  -8.999  -6.761  0.00  0.00     0.078 H 
ATOM     40  H   LIG d   1       9.706 -10.357  -6.092  0.00  0.00     0.078 H 
ATOM     41  H   LIG d   1      10.713  -9.355  -5.019  0.00  0.00     0.078 H 
ENDBRANCH  36  38
BRANCH  36  42
ATOM     42  C   LIG d   1       7.699  -8.993  -6.229  0.00  0.00    -0.043 C 
ATOM     43  H   LIG d   1       6.856  -8.683  -5.611  0.00  0.00     0.078 H 
ATOM     44  H   LIG d   1       7.565  -8.614  -7.243  0.00  0.00     0.078 H 
ATOM     45  H   LIG d   1       7.752 -10.081  -6.251  0.00  0.00     0.078 H 
ENDBRANCH  36  42
ENDBRANCH  33  36
ENDBRANCH  30  33
ENDBRANCH   1  29
BRANCH  17  46
ATOM     46  C   LIG d   1       4.154  -0.525  -7.156  0.00  0.00     0.055 A 
ATOM     47  C   LIG d   1       4.169  -1.817  -7.682  0.00  0.00     0.040 A 
ATOM     48  N   LIG d   1       3.308  -2.170  -8.615  0.00  0.00    -0.263 NA
ATOM     49  H   LIG d   1       4.888  -2.534  -7.318  0.00  0.00     0.084 H 
ATOM     50  C   LIG d   1       2.415  -1.326  -9.094  0.00  0.00     0.028 A 
ATOM     51  C   LIG d   1       2.340  -0.025  -8.629  0.00  0.00    -0.043 A 
ATOM     52  H   LIG d   1       1.731  -1.656  -9.861  0.00  0.00     0.083 H 
ATOM     53  C   LIG d   1       3.217   0.394  -7.645  0.00  0.00    -0.047 A 
ATOM     54  H   LIG d   1       1.603   0.656  -9.030  0.00  0.00     0.063 H 
ATOM     55  H   LIG d   1       3.180   1.404  -7.264  0.00  0.00     0.063 H 
ENDBRANCH  17  46
TORSDOF 6
ENDMDL
MODEL 9
REMARK VINA RESULT:      -5.6      2.242      2.978
REMARK  6 active torsions:
REMARK  status: ('A' for Active; 'I' for Inactive)
REMARK    1  A    between atoms: C_1  and  N_54 
REMARK    2  A    between atoms: C_2  and  N_54 
REMARK    3  A    between atoms: C_3  and  C_4 
REMARK    4  A    between atoms: C_3  and  N_54 
REMARK       I    between atoms: C_4  and  N_6 
REMARK    5  A    between atoms: N_6  and  C_7 
REMARK       I    between atoms: N_21  and  C_23 
REMARK    6  A    between atoms: C_23  and  C_25 
ROOT
ATOM      1  C   LIG d   1       8.368   0.921  -4.315  0.00  0.00     0.099 C 
ATOM      2  C   LIG d   1       7.515   1.837  -3.764  0.00  0.00    -0.034 C 
ATOM      3  C   LIG d   1       6.281   1.400  -3.269  0.00  0.00    -0.040 C 
ATOM      4  C   LIG d   1       5.944   0.084  -3.319  0.00  0.00     0.027 C 
ATOM      5  N   LIG d   1       6.824  -0.837  -3.779  0.00  0.00    -0.310 N 
ATOM      6  C   LIG d   1       7.987  -0.435  -4.349  0.00  0.00     0.273 C 
ATOM      7  O   LIG d   1       8.712  -1.254  -4.890  0.00  0.00    -0.266 OA
ATOM      8  C   LIG d   1       6.600  -2.279  -3.672  0.00  0.00     0.031 C 
ATOM      9  C   LIG d   1       5.132  -2.624  -3.498  0.00  0.00    -0.006 C 
ATOM     10  H   LIG d   1       5.065  -3.657  -3.158  0.00  0.00     0.033 H 
ATOM     11  C   LIG d   1       4.515  -1.741  -2.414  0.00  0.00    -0.037 C 
ATOM     12  C   LIG d   1       4.540  -0.289  -2.899  0.00  0.00     0.016 C 
ATOM     13  H   LIG d   1       4.191   0.387  -2.118  0.00  0.00     0.038 H 
ATOM     14  C   LIG d   1       3.637  -0.177  -4.139  0.00  0.00     0.023 C 
ATOM     15  N   LIG d   1       4.176  -1.091  -5.158  0.00  0.00    -0.296 N 
ATOM     16  C   LIG d   1       4.360  -2.504  -4.805  0.00  0.00     0.019 C 
ATOM     17  C   LIG d   1       4.492  -0.642  -6.388  0.00  0.00     0.248 C 
ATOM     18  O   LIG d   1       4.433   0.547  -6.635  0.00  0.00    -0.270 OA
ATOM     19  H   LIG d   1       7.788   2.880  -3.713  0.00  0.00     0.064 H 
ATOM     20  H   LIG d   1       5.592   2.114  -2.844  0.00  0.00     0.064 H 
ATOM     21  H   LIG d   1       6.972  -2.762  -4.575  0.00  0.00     0.050 H 
ATOM     22  H   LIG d   1       7.156  -2.660  -2.816  0.00  0.00     0.050 H 
ATOM     23  H   LIG d   1       3.486  -2.048  -2.232  0.00  0.00     0.028 H 
ATOM     24  H   LIG d   1       5.094  -1.830  -1.495  0.00  0.00     0.028 H 
ATOM     25  H   LIG d   1       3.648   0.846  -4.515  0.00  0.00     0.047 H 
ATOM     26  H   LIG d   1       2.617  -0.466  -3.883  0.00  0.00     0.047 H 
ATOM     27  H   LIG d   1       4.915  -3.005  -5.599  0.00  0.00     0.047 H 
ATOM     28  H   LIG d   1       3.386  -2.979  -4.694  0.00  0.00     0.047 H 
ENDROOT
BRANCH   1  29
ATOM     29  N   LIG d   1       9.602   1.326  -4.843  0.00  0.00    -0.277 N 
ATOM     30  C   LIG d   1      10.476   2.002  -4.072  0.00  0.00     0.263 C 
ATOM     31  O   LIG d   1      10.160   2.341  -2.950  0.00  0.00    -0.270 OA
ATOM     32  H   LIG d   1       9.827   1.119  -5.764  0.00  0.00     0.155 HD
BRANCH  30  33
ATOM     33  C   LIG d   1      11.845   2.339  -4.603  0.00  0.00     0.046 C 
ATOM     34  H   LIG d   1      11.864   3.380  -4.928  0.00  0.00     0.091 H 
ATOM     35  H   LIG d   1      12.077   1.691  -5.449  0.00  0.00     0.091 H 
BRANCH  33  36
ATOM     36  N   LIG d   1      12.840   2.113  -3.534  0.00  0.00     0.237 N 
ATOM     37  H   LIG d   1      12.368   2.165  -2.623  0.00  0.00     0.203 HD
BRANCH  36  38
ATOM     38  C   LIG d   1      13.890   3.151  -3.592  0.00  0.00    -0.043 C 
ATOM     39  H   LIG d   1      13.796   3.695  -4.531  0.00  0.00     0.078 H 
ATOM     40  H   LIG d   1      14.879   2.697  -3.532  0.00  0.00     0.078 H 
ATOM     41  H   LIG d   1      13.754   3.839  -2.758  0.00  0.00     0.078 H 
ENDBRANCH  36  38
BRANCH  36  42
ATOM     42  C   LIG d   1      13.446   0.772  -3.684  0.00  0.00    -0.043 C 
ATOM     43  H   LIG d   1      12.699   0.017  -3.441  0.00  0.00     0.078 H 
ATOM     44  H   LIG d   1      13.769   0.644  -4.717  0.00  0.00     0.078 H 
ATOM     45  H   LIG d   1      14.303   0.664  -3.019  0.00  0.00     0.078 H 
ENDBRANCH  36  42
ENDBRANCH  33  36
ENDBRANCH  30  33
ENDBRANCH   1  29
BRANCH  17  46
ATOM     46  C   LIG d   1       4.911  -1.594  -7.438  0.00  0.00     0.055 A 
ATOM     47  C   LIG d   1       3.967  -2.178  -8.284  0.00  0.00     0.040 A 
ATOM     48  N   LIG d   1       4.341  -3.023  -9.223  0.00  0.00    -0.263 NA
ATOM     49  H   LIG d   1       2.923  -1.931  -8.171  0.00  0.00     0.084 H 
ATOM     50  C   LIG d   1       5.605  -3.359  -9.396  0.00  0.00     0.028 A 
ATOM     51  C   LIG d   1       6.600  -2.829  -8.594  0.00  0.00    -0.043 A 
ATOM     52  H   LIG d   1       5.867  -4.058 -10.175  0.00  0.00     0.083 H 
ATOM     53  C   LIG d   1       6.261  -1.932  -7.597  0.00  0.00    -0.047 A 
ATOM     54  H   LIG d   1       7.632  -3.112  -8.745  0.00  0.00     0.063 H 
ATOM     55  H   LIG d   1       7.018  -1.504  -6.956  0.00  0.00     0.063 H 
ENDBRANCH  17  46
TORSDOF 6
ENDMDL
