MODEL 1
REMARK VINA RESULT:      -6.2      0.000      0.000
REMARK  4 active torsions:
REMARK  status: ('A' for Active; 'I' for Inactive)
REMARK    1  A    between atoms: C_1  and  C_2 
REMARK    2  A    between atoms: C_13  and  C_15 
REMARK    3  A    between atoms: C_20  and  C_27 
REMARK    4  A    between atoms: C_23  and  O_26 
ROOT
ATOM      1  C   LIG d   1       5.653  -1.051  -3.510  0.00  0.00    -0.021 C 
ATOM      2  C   LIG d   1       7.109  -1.429  -3.314  0.00  0.00    -0.046 C 
ATOM      3  C   LIG d   1       7.499  -2.345  -4.485  0.00  0.00    -0.049 C 
ATOM      4  C   LIG d   1       6.603  -3.579  -4.562  0.00  0.00    -0.029 C 
ATOM      5  H   LIG d   1       6.778  -4.186  -3.674  0.00  0.00     0.031 H 
ATOM      6  C   LIG d   1       5.116  -3.201  -4.606  0.00  0.00    -0.031 C 
ATOM      7  H   LIG d   1       4.895  -2.644  -5.516  0.00  0.00     0.031 H 
ATOM      8  C   LIG d   1       4.818  -2.368  -3.372  0.00  0.00    -0.032 C 
ATOM      9  H   LIG d   1       5.093  -2.915  -2.471  0.00  0.00     0.031 H 
ATOM     10  C   LIG d   1       3.390  -1.820  -3.267  0.00  0.00    -0.049 C 
ATOM     11  C   LIG d   1       3.555  -0.605  -2.312  0.00  0.00    -0.044 C 
ATOM     12  C   LIG d   1       5.043  -0.133  -2.455  0.00  0.00     0.004 C 
ATOM     13  H   LIG d   1       5.554  -0.262  -1.501  0.00  0.00     0.037 H 
ATOM     14  C   LIG d   1       4.293  -4.493  -4.562  0.00  0.00    -0.031 C 
ATOM     15  C   LIG d   1       4.717  -5.388  -5.690  0.00  0.00    -0.084 C 
ATOM     16  C   LIG d   1       5.903  -5.345  -6.221  0.00  0.00    -0.065 C 
ATOM     17  C   LIG d   1       6.981  -4.398  -5.784  0.00  0.00    -0.008 C 
ATOM     18  C   LIG d   1       8.268  -5.183  -5.513  0.00  0.00    -0.041 C 
ATOM     19  C   LIG d   1       8.627  -6.012  -6.748  0.00  0.00    -0.026 C 
ATOM     20  C   LIG d   1       7.523  -7.037  -7.018  0.00  0.00     0.059 C 
ATOM     21  H   LIG d   1       7.376  -7.655  -6.132  0.00  0.00     0.060 H 
ATOM     22  C   LIG d   1       6.219  -6.307  -7.353  0.00  0.00    -0.005 C 
ATOM     23  H   LIG d   1       7.231  -1.960  -2.371  0.00  0.00     0.027 H 
ATOM     24  H   LIG d   1       7.729  -0.533  -3.321  0.00  0.00     0.027 H 
ATOM     25  H   LIG d   1       8.533  -2.665  -4.357  0.00  0.00     0.027 H 
ATOM     26  H   LIG d   1       7.413  -1.785  -5.417  0.00  0.00     0.027 H 
ATOM     27  H   LIG d   1       3.028  -1.497  -4.243  0.00  0.00     0.027 H 
ATOM     28  H   LIG d   1       2.723  -2.565  -2.836  0.00  0.00     0.027 H 
ATOM     29  H   LIG d   1       2.896   0.205  -2.622  0.00  0.00     0.027 H 
ATOM     30  H   LIG d   1       3.327  -0.902  -1.289  0.00  0.00     0.027 H 
ATOM     31  H   LIG d   1       3.235  -4.255  -4.663  0.00  0.00     0.031 H 
ATOM     32  H   LIG d   1       4.463  -5.001  -3.612  0.00  0.00     0.031 H 
ATOM     33  H   LIG d   1       4.004  -6.100  -6.079  0.00  0.00     0.057 H 
ATOM     34  H   LIG d   1       9.078  -4.487  -5.293  0.00  0.00     0.027 H 
ATOM     35  H   LIG d   1       8.116  -5.846  -4.661  0.00  0.00     0.027 H 
ATOM     36  H   LIG d   1       9.569  -6.532  -6.574  0.00  0.00     0.029 H 
ATOM     37  H   LIG d   1       8.729  -5.354  -7.610  0.00  0.00     0.029 H 
ATOM     38  H   LIG d   1       6.339  -5.752  -8.285  0.00  0.00     0.034 H 
ATOM     39  H   LIG d   1       5.410  -7.030  -7.459  0.00  0.00     0.034 H 
ENDROOT
BRANCH   1  40
ATOM     40  C   LIG d   1       5.455  -0.446  -4.901  0.00  0.00    -0.059 C 
ATOM     41  H   LIG d   1       5.959   0.519  -4.952  0.00  0.00     0.024 H 
ATOM     42  H   LIG d   1       5.875  -1.116  -5.652  0.00  0.00     0.024 H 
ATOM     43  H   LIG d   1       4.390  -0.310  -5.090  0.00  0.00     0.024 H 
ENDBRANCH   1  40
BRANCH  12  44
ATOM     44  C   LIG d   1       5.123   1.303  -2.903  0.00  0.00     0.045 C 
ATOM     45  O   LIG d   1       6.200   1.828  -3.062  0.00  0.00    -0.549 OA
ATOM     46  O   LIG d   1       3.998   2.000  -3.127  0.00  0.00    -0.549 OA
ENDBRANCH  12  44
BRANCH  17  47
ATOM     47  C   LIG d   1       7.264  -3.434  -6.937  0.00  0.00    -0.056 C 
ATOM     48  H   LIG d   1       7.675  -2.504  -6.542  0.00  0.00     0.024 H 
ATOM     49  H   LIG d   1       7.981  -3.887  -7.622  0.00  0.00     0.024 H 
ATOM     50  H   LIG d   1       6.336  -3.222  -7.470  0.00  0.00     0.024 H 
ENDBRANCH  17  47
BRANCH  20  51
ATOM     51  O   LIG d   1       7.903  -7.866  -8.119  0.00  0.00    -0.392 OA
ATOM     52  H   LIG d   1       8.828  -7.770  -8.381  0.00  0.00     0.210 HD
ENDBRANCH  20  51
TORSDOF 4
ENDMDL
MODEL 2
REMARK VINA RESULT:      -6.2      1.046      6.953
REMARK  4 active torsions:
REMARK  status: ('A' for Active; 'I' for Inactive)
REMARK    1  A    between atoms: C_1  and  C_2 
REMARK    2  A    between atoms: C_13  and  C_15 
REMARK    3  A    between atoms: C_20  and  C_27 
REMARK    4  A    between atoms: C_23  and  O_26 
ROOT
ATOM      1  C   LIG d   1       6.342  -5.248  -6.336  0.00  0.00    -0.021 C 
ATOM      2  C   LIG d   1       4.988  -5.446  -5.683  0.00  0.00    -0.046 C 
ATOM      3  C   LIG d   1       4.495  -4.061  -5.235  0.00  0.00    -0.049 C 
ATOM      4  C   LIG d   1       5.483  -3.388  -4.286  0.00  0.00    -0.029 C 
ATOM      5  H   LIG d   1       5.527  -3.970  -3.366  0.00  0.00     0.031 H 
ATOM      6  C   LIG d   1       6.895  -3.324  -4.886  0.00  0.00    -0.031 C 
ATOM      7  H   LIG d   1       6.898  -2.695  -5.777  0.00  0.00     0.031 H 
ATOM      8  C   LIG d   1       7.316  -4.743  -5.220  0.00  0.00    -0.032 C 
ATOM      9  H   LIG d   1       7.258  -5.373  -4.333  0.00  0.00     0.031 H 
ATOM     10  C   LIG d   1       8.678  -4.890  -5.908  0.00  0.00    -0.049 C 
ATOM     11  C   LIG d   1       8.560  -6.265  -6.621  0.00  0.00    -0.044 C 
ATOM     12  C   LIG d   1       7.030  -6.503  -6.865  0.00  0.00     0.004 C 
ATOM     13  H   LIG d   1       6.707  -7.377  -6.301  0.00  0.00     0.037 H 
ATOM     14  C   LIG d   1       7.839  -2.745  -3.827  0.00  0.00    -0.031 C 
ATOM     15  C   LIG d   1       7.319  -1.411  -3.376  0.00  0.00    -0.084 C 
ATOM     16  C   LIG d   1       6.060  -1.088  -3.427  0.00  0.00    -0.065 C 
ATOM     17  C   LIG d   1       4.984  -1.993  -3.948  0.00  0.00    -0.008 C 
ATOM     18  C   LIG d   1       3.850  -2.077  -2.923  0.00  0.00    -0.041 C 
ATOM     19  C   LIG d   1       3.368  -0.664  -2.583  0.00  0.00    -0.026 C 
ATOM     20  C   LIG d   1       4.505   0.125  -1.932  0.00  0.00     0.059 C 
ATOM     21  H   LIG d   1       4.865  -0.413  -1.055  0.00  0.00     0.060 H 
ATOM     22  C   LIG d   1       5.651   0.290  -2.935  0.00  0.00    -0.005 C 
ATOM     23  H   LIG d   1       5.085  -6.103  -4.819  0.00  0.00     0.027 H 
ATOM     24  H   LIG d   1       4.288  -5.875  -6.401  0.00  0.00     0.027 H 
ATOM     25  H   LIG d   1       3.536  -4.172  -4.728  0.00  0.00     0.027 H 
ATOM     26  H   LIG d   1       4.362  -3.431  -6.115  0.00  0.00     0.027 H 
ATOM     27  H   LIG d   1       8.832  -4.091  -6.633  0.00  0.00     0.027 H 
ATOM     28  H   LIG d   1       9.482  -4.901  -5.173  0.00  0.00     0.027 H 
ATOM     29  H   LIG d   1       9.071  -6.232  -7.583  0.00  0.00     0.027 H 
ATOM     30  H   LIG d   1       8.990  -7.048  -5.996  0.00  0.00     0.027 H 
ATOM     31  H   LIG d   1       8.834  -2.623  -4.253  0.00  0.00     0.031 H 
ATOM     32  H   LIG d   1       7.888  -3.423  -2.974  0.00  0.00     0.031 H 
ATOM     33  H   LIG d   1       8.022  -0.687  -2.992  0.00  0.00     0.057 H 
ATOM     34  H   LIG d   1       3.023  -2.652  -3.341  0.00  0.00     0.027 H 
ATOM     35  H   LIG d   1       4.212  -2.565  -2.018  0.00  0.00     0.027 H 
ATOM     36  H   LIG d   1       2.526  -0.725  -1.892  0.00  0.00     0.029 H 
ATOM     37  H   LIG d   1       3.052  -0.159  -3.496  0.00  0.00     0.029 H 
ATOM     38  H   LIG d   1       5.317   0.897  -3.777  0.00  0.00     0.034 H 
ATOM     39  H   LIG d   1       6.498   0.774  -2.448  0.00  0.00     0.034 H 
ENDROOT
BRANCH   1  40
ATOM     40  C   LIG d   1       6.234  -4.205  -7.451  0.00  0.00    -0.059 C 
ATOM     41  H   LIG d   1       6.166  -3.210  -7.012  0.00  0.00     0.024 H 
ATOM     42  H   LIG d   1       7.116  -4.262  -8.089  0.00  0.00     0.024 H 
ATOM     43  H   LIG d   1       5.343  -4.401  -8.046  0.00  0.00     0.024 H 
ENDBRANCH   1  40
BRANCH  12  44
ATOM     44  C   LIG d   1       6.730  -6.684  -8.331  0.00  0.00     0.045 C 
ATOM     45  O   LIG d   1       7.581  -6.448  -9.156  0.00  0.00    -0.549 OA
ATOM     46  O   LIG d   1       5.517  -7.107  -8.720  0.00  0.00    -0.549 OA
ENDBRANCH  12  44
BRANCH  17  47
ATOM     47  C   LIG d   1       4.410  -1.370  -5.221  0.00  0.00    -0.056 C 
ATOM     48  H   LIG d   1       5.227  -1.053  -5.871  0.00  0.00     0.024 H 
ATOM     49  H   LIG d   1       3.796  -2.105  -5.741  0.00  0.00     0.024 H 
ATOM     50  H   LIG d   1       3.799  -0.505  -4.959  0.00  0.00     0.024 H 
ENDBRANCH  17  47
BRANCH  20  51
ATOM     51  O   LIG d   1       4.026   1.413  -1.539  0.00  0.00    -0.392 OA
ATOM     52  H   LIG d   1       4.115   1.592  -0.593  0.00  0.00     0.210 HD
ENDBRANCH  20  51
TORSDOF 4
ENDMDL
MODEL 3
REMARK VINA RESULT:      -6.1      2.047      2.297
REMARK  4 active torsions:
REMARK  status: ('A' for Active; 'I' for Inactive)
REMARK    1  A    between atoms: C_1  and  C_2 
REMARK    2  A    between atoms: C_13  and  C_15 
REMARK    3  A    between atoms: C_20  and  C_27 
REMARK    4  A    between atoms: C_23  and  O_26 
ROOT
ATOM      1  C   LIG d   1       5.061  -0.745  -4.121  0.00  0.00    -0.021 C 
ATOM      2  C   LIG d   1       6.232  -0.458  -5.040  0.00  0.00    -0.046 C 
ATOM      3  C   LIG d   1       5.933  -1.144  -6.382  0.00  0.00    -0.049 C 
ATOM      4  C   LIG d   1       5.707  -2.644  -6.213  0.00  0.00    -0.029 C 
ATOM      5  H   LIG d   1       6.641  -3.097  -5.880  0.00  0.00     0.031 H 
ATOM      6  C   LIG d   1       4.624  -2.942  -5.167  0.00  0.00    -0.031 C 
ATOM      7  H   LIG d   1       3.661  -2.555  -5.500  0.00  0.00     0.031 H 
ATOM      8  C   LIG d   1       5.051  -2.289  -3.865  0.00  0.00    -0.032 C 
ATOM      9  H   LIG d   1       6.038  -2.645  -3.570  0.00  0.00     0.031 H 
ATOM     10  C   LIG d   1       4.058  -2.405  -2.703  0.00  0.00    -0.049 C 
ATOM     11  C   LIG d   1       4.457  -1.216  -1.786  0.00  0.00    -0.044 C 
ATOM     12  C   LIG d   1       5.139  -0.154  -2.716  0.00  0.00     0.004 C 
ATOM     13  H   LIG d   1       6.179  -0.029  -2.417  0.00  0.00     0.037 H 
ATOM     14  C   LIG d   1       4.547  -4.461  -4.978  0.00  0.00    -0.031 C 
ATOM     15  C   LIG d   1       4.292  -5.113  -6.306  0.00  0.00    -0.084 C 
ATOM     16  C   LIG d   1       4.645  -4.577  -7.436  0.00  0.00    -0.065 C 
ATOM     17  C   LIG d   1       5.332  -3.249  -7.555  0.00  0.00    -0.008 C 
ATOM     18  C   LIG d   1       6.580  -3.399  -8.429  0.00  0.00    -0.041 C 
ATOM     19  C   LIG d   1       6.189  -4.022  -9.771  0.00  0.00    -0.026 C 
ATOM     20  C   LIG d   1       5.628  -5.428  -9.542  0.00  0.00     0.059 C 
ATOM     21  H   LIG d   1       6.362  -6.028  -9.004  0.00  0.00     0.060 H 
ATOM     22  C   LIG d   1       4.341  -5.336  -8.717  0.00  0.00    -0.005 C 
ATOM     23  H   LIG d   1       7.149  -0.863  -4.612  0.00  0.00     0.027 H 
ATOM     24  H   LIG d   1       6.334   0.618  -5.187  0.00  0.00     0.027 H 
ATOM     25  H   LIG d   1       6.774  -0.986  -7.057  0.00  0.00     0.027 H 
ATOM     26  H   LIG d   1       5.039  -0.696  -6.817  0.00  0.00     0.027 H 
ATOM     27  H   LIG d   1       3.033  -2.292  -3.059  0.00  0.00     0.027 H 
ATOM     28  H   LIG d   1       4.181  -3.355  -2.184  0.00  0.00     0.027 H 
ATOM     29  H   LIG d   1       3.567  -0.774  -1.339  0.00  0.00     0.027 H 
ATOM     30  H   LIG d   1       5.136  -1.558  -1.006  0.00  0.00     0.027 H 
ATOM     31  H   LIG d   1       3.736  -4.702  -4.291  0.00  0.00     0.031 H 
ATOM     32  H   LIG d   1       5.490  -4.825  -4.569  0.00  0.00     0.031 H 
ATOM     33  H   LIG d   1       3.793  -6.070  -6.322  0.00  0.00     0.057 H 
ATOM     34  H   LIG d   1       7.025  -2.419  -8.600  0.00  0.00     0.027 H 
ATOM     35  H   LIG d   1       7.302  -4.044  -7.926  0.00  0.00     0.027 H 
ATOM     36  H   LIG d   1       7.068  -4.083 -10.413  0.00  0.00     0.029 H 
ATOM     37  H   LIG d   1       5.431  -3.404 -10.251  0.00  0.00     0.029 H 
ATOM     38  H   LIG d   1       3.578  -4.804  -9.287  0.00  0.00     0.034 H 
ATOM     39  H   LIG d   1       3.987  -6.338  -8.476  0.00  0.00     0.034 H 
ENDROOT
BRANCH   1  40
ATOM     40  C   LIG d   1       3.755  -0.315  -4.793  0.00  0.00    -0.059 C 
ATOM     41  H   LIG d   1       3.846  -0.434  -5.872  0.00  0.00     0.024 H 
ATOM     42  H   LIG d   1       2.936  -0.935  -4.427  0.00  0.00     0.024 H 
ATOM     43  H   LIG d   1       3.552   0.729  -4.558  0.00  0.00     0.024 H 
ENDBRANCH   1  40
BRANCH  12  44
ATOM     44  C   LIG d   1       4.416   1.167  -2.665  0.00  0.00     0.045 C 
ATOM     45  O   LIG d   1       4.885   2.135  -3.216  0.00  0.00    -0.549 OA
ATOM     46  O   LIG d   1       3.250   1.269  -2.007  0.00  0.00    -0.549 OA
ENDBRANCH  12  44
BRANCH  17  47
ATOM     47  C   LIG d   1       4.384  -2.283  -8.267  0.00  0.00    -0.056 C 
ATOM     48  H   LIG d   1       3.816  -1.720  -7.527  0.00  0.00     0.024 H 
ATOM     49  H   LIG d   1       4.963  -1.595  -8.883  0.00  0.00     0.024 H 
ATOM     50  H   LIG d   1       3.698  -2.848  -8.900  0.00  0.00     0.024 H 
ENDBRANCH  17  47
BRANCH  20  51
ATOM     51  O   LIG d   1       5.344  -6.038 -10.803  0.00  0.00    -0.392 OA
ATOM     52  H   LIG d   1       4.412  -6.258 -10.932  0.00  0.00     0.210 HD
ENDBRANCH  20  51
TORSDOF 4
ENDMDL
MODEL 4
REMARK VINA RESULT:      -6.0      3.830      7.227
REMARK  4 active torsions:
REMARK  status: ('A' for Active; 'I' for Inactive)
REMARK    1  A    between atoms: C_1  and  C_2 
REMARK    2  A    between atoms: C_13  and  C_15 
REMARK    3  A    between atoms: C_20  and  C_27 
REMARK    4  A    between atoms: C_23  and  O_26 
ROOT
ATOM      1  C   LIG d   1       4.144  -1.821  -9.168  0.00  0.00    -0.021 C 
ATOM      2  C   LIG d   1       5.588  -1.626  -8.746  0.00  0.00    -0.046 C 
ATOM      3  C   LIG d   1       5.608  -1.575  -7.210  0.00  0.00    -0.049 C 
ATOM      4  C   LIG d   1       4.709  -0.466  -6.669  0.00  0.00    -0.029 C 
ATOM      5  H   LIG d   1       5.125   0.494  -6.977  0.00  0.00     0.031 H 
ATOM      6  C   LIG d   1       3.279  -0.573  -7.217  0.00  0.00    -0.031 C 
ATOM      7  H   LIG d   1       2.812  -1.496  -6.875  0.00  0.00     0.031 H 
ATOM      8  C   LIG d   1       3.365  -0.535  -8.733  0.00  0.00    -0.032 C 
ATOM      9  H   LIG d   1       3.881   0.367  -9.060  0.00  0.00     0.031 H 
ATOM     10  C   LIG d   1       2.038  -0.710  -9.480  0.00  0.00    -0.049 C 
ATOM     11  C   LIG d   1       2.491  -1.209 -10.879  0.00  0.00    -0.044 C 
ATOM     12  C   LIG d   1       3.880  -1.904 -10.669  0.00  0.00     0.004 C 
ATOM     13  H   LIG d   1       4.645  -1.353 -11.217  0.00  0.00     0.037 H 
ATOM     14  C   LIG d   1       2.484   0.639  -6.720  0.00  0.00    -0.031 C 
ATOM     15  C   LIG d   1       2.549   0.691  -5.221  0.00  0.00    -0.084 C 
ATOM     16  C   LIG d   1       3.530   0.184  -4.536  0.00  0.00    -0.065 C 
ATOM     17  C   LIG d   1       4.703  -0.521  -5.151  0.00  0.00    -0.008 C 
ATOM     18  C   LIG d   1       6.001   0.077  -4.600  0.00  0.00    -0.041 C 
ATOM     19  C   LIG d   1       5.973   0.026  -3.070  0.00  0.00    -0.026 C 
ATOM     20  C   LIG d   1       4.823   0.889  -2.548  0.00  0.00     0.059 C 
ATOM     21  H   LIG d   1       4.930   1.905  -2.927  0.00  0.00     0.060 H 
ATOM     22  C   LIG d   1       3.490   0.305  -3.022  0.00  0.00    -0.005 C 
ATOM     23  H   LIG d   1       5.970  -0.690  -9.154  0.00  0.00     0.027 H 
ATOM     24  H   LIG d   1       6.193  -2.461  -9.098  0.00  0.00     0.027 H 
ATOM     25  H   LIG d   1       6.629  -1.400  -6.874  0.00  0.00     0.027 H 
ATOM     26  H   LIG d   1       5.263  -2.533  -6.820  0.00  0.00     0.027 H 
ATOM     27  H   LIG d   1       1.412  -1.455  -8.987  0.00  0.00     0.027 H 
ATOM     28  H   LIG d   1       1.512   0.242  -9.558  0.00  0.00     0.027 H 
ATOM     29  H   LIG d   1       1.783  -1.945 -11.261  0.00  0.00     0.027 H 
ATOM     30  H   LIG d   1       2.565  -0.370 -11.569  0.00  0.00     0.027 H 
ATOM     31  H   LIG d   1       1.446   0.550  -7.037  0.00  0.00     0.031 H 
ATOM     32  H   LIG d   1       2.915   1.552  -7.134  0.00  0.00     0.031 H 
ATOM     33  H   LIG d   1       1.743   1.172  -4.687  0.00  0.00     0.057 H 
ATOM     34  H   LIG d   1       6.851  -0.499  -4.967  0.00  0.00     0.027 H 
ATOM     35  H   LIG d   1       6.093   1.112  -4.928  0.00  0.00     0.027 H 
ATOM     36  H   LIG d   1       6.918   0.404  -2.678  0.00  0.00     0.029 H 
ATOM     37  H   LIG d   1       5.832  -1.004  -2.744  0.00  0.00     0.029 H 
ATOM     38  H   LIG d   1       3.343  -0.681  -2.578  0.00  0.00     0.034 H 
ATOM     39  H   LIG d   1       2.674   0.965  -2.727  0.00  0.00     0.034 H 
ENDROOT
BRANCH   1  40
ATOM     40  C   LIG d   1       3.560  -3.052  -8.470  0.00  0.00    -0.059 C 
ATOM     41  H   LIG d   1       4.319  -3.832  -8.414  0.00  0.00     0.024 H 
ATOM     42  H   LIG d   1       3.241  -2.781  -7.463  0.00  0.00     0.024 H 
ATOM     43  H   LIG d   1       2.704  -3.418  -9.036  0.00  0.00     0.024 H 
ENDBRANCH   1  40
BRANCH  12  44
ATOM     44  C   LIG d   1       3.849  -3.343 -11.115  0.00  0.00     0.045 C 
ATOM     45  O   LIG d   1       2.793  -3.875 -11.364  0.00  0.00    -0.549 OA
ATOM     46  O   LIG d   1       4.993  -4.034 -11.235  0.00  0.00    -0.549 OA
ENDBRANCH  12  44
BRANCH  17  47
ATOM     47  C   LIG d   1       4.654  -1.989  -4.726  0.00  0.00    -0.056 C 
ATOM     48  H   LIG d   1       5.440  -2.183  -3.996  0.00  0.00     0.024 H 
ATOM     49  H   LIG d   1       3.683  -2.206  -4.282  0.00  0.00     0.024 H 
ATOM     50  H   LIG d   1       4.805  -2.625  -5.599  0.00  0.00     0.024 H 
ENDBRANCH  17  47
BRANCH  20  51
ATOM     51  O   LIG d   1       4.854   0.908  -1.118  0.00  0.00    -0.392 OA
ATOM     52  H   LIG d   1       4.553   1.741  -0.731  0.00  0.00     0.210 HD
ENDBRANCH  20  51
TORSDOF 4
ENDMDL
MODEL 5
REMARK VINA RESULT:      -6.0      4.308      5.470
REMARK  4 active torsions:
REMARK  status: ('A' for Active; 'I' for Inactive)
REMARK    1  A    between atoms: C_1  and  C_2 
REMARK    2  A    between atoms: C_13  and  C_15 
REMARK    3  A    between atoms: C_20  and  C_27 
REMARK    4  A    between atoms: C_23  and  O_26 
ROOT
ATOM      1  C   LIG d   1       4.333  -1.087  -5.086  0.00  0.00    -0.021 C 
ATOM      2  C   LIG d   1       4.668  -2.376  -5.811  0.00  0.00    -0.046 C 
ATOM      3  C   LIG d   1       5.122  -1.993  -7.229  0.00  0.00    -0.049 C 
ATOM      4  C   LIG d   1       4.053  -1.192  -7.968  0.00  0.00    -0.029 C 
ATOM      5  H   LIG d   1       3.189  -1.838  -8.127  0.00  0.00     0.031 H 
ATOM      6  C   LIG d   1       3.600   0.033  -7.164  0.00  0.00    -0.031 C 
ATOM      7  H   LIG d   1       4.428   0.731  -7.041  0.00  0.00     0.031 H 
ATOM      8  C   LIG d   1       3.100  -0.460  -5.818  0.00  0.00    -0.032 C 
ATOM      9  H   LIG d   1       2.308  -1.196  -5.955  0.00  0.00     0.031 H 
ATOM     10  C   LIG d   1       2.671   0.627  -4.826  0.00  0.00    -0.049 C 
ATOM     11  C   LIG d   1       2.793  -0.089  -3.453  0.00  0.00    -0.044 C 
ATOM     12  C   LIG d   1       3.855  -1.226  -3.643  0.00  0.00     0.004 C 
ATOM     13  H   LIG d   1       3.378  -2.193  -3.495  0.00  0.00     0.037 H 
ATOM     14  C   LIG d   1       2.450   0.706  -7.922  0.00  0.00    -0.031 C 
ATOM     15  C   LIG d   1       2.903   1.037  -9.314  0.00  0.00    -0.084 C 
ATOM     16  C   LIG d   1       3.841   0.381  -9.928  0.00  0.00    -0.065 C 
ATOM     17  C   LIG d   1       4.591  -0.770  -9.325  0.00  0.00    -0.008 C 
ATOM     18  C   LIG d   1       4.564  -1.957 -10.292  0.00  0.00    -0.041 C 
ATOM     19  C   LIG d   1       5.095  -1.512 -11.657  0.00  0.00    -0.026 C 
ATOM     20  C   LIG d   1       4.178  -0.435 -12.240  0.00  0.00     0.059 C 
ATOM     21  H   LIG d   1       3.159  -0.818 -12.297  0.00  0.00     0.060 H 
ATOM     22  C   LIG d   1       4.209   0.804 -11.341  0.00  0.00    -0.005 C 
ATOM     23  H   LIG d   1       3.786  -3.013  -5.864  0.00  0.00     0.027 H 
ATOM     24  H   LIG d   1       5.473  -2.897  -5.292  0.00  0.00     0.027 H 
ATOM     25  H   LIG d   1       5.338  -2.901  -7.791  0.00  0.00     0.027 H 
ATOM     26  H   LIG d   1       6.030  -1.392  -7.160  0.00  0.00     0.027 H 
ATOM     27  H   LIG d   1       3.344   1.483  -4.877  0.00  0.00     0.027 H 
ATOM     28  H   LIG d   1       1.643   0.936  -5.014  0.00  0.00     0.027 H 
ATOM     29  H   LIG d   1       3.154   0.610  -2.698  0.00  0.00     0.027 H 
ATOM     30  H   LIG d   1       1.826  -0.493  -3.155  0.00  0.00     0.027 H 
ATOM     31  H   LIG d   1       2.158   1.620  -7.406  0.00  0.00     0.031 H 
ATOM     32  H   LIG d   1       1.598   0.026  -7.968  0.00  0.00     0.031 H 
ATOM     33  H   LIG d   1       2.426   1.859  -9.828  0.00  0.00     0.057 H 
ATOM     34  H   LIG d   1       5.191  -2.759  -9.902  0.00  0.00     0.027 H 
ATOM     35  H   LIG d   1       3.540  -2.316 -10.400  0.00  0.00     0.027 H 
ATOM     36  H   LIG d   1       5.124  -2.368 -12.331  0.00  0.00     0.029 H 
ATOM     37  H   LIG d   1       6.101  -1.108 -11.540  0.00  0.00     0.029 H 
ATOM     38  H   LIG d   1       5.210   1.236 -11.347  0.00  0.00     0.034 H 
ATOM     39  H   LIG d   1       3.490   1.539 -11.704  0.00  0.00     0.034 H 
ENDROOT
BRANCH   1  40
ATOM     40  C   LIG d   1       5.525  -0.130  -5.149  0.00  0.00    -0.059 C 
ATOM     41  H   LIG d   1       6.397  -0.606  -4.700  0.00  0.00     0.024 H 
ATOM     42  H   LIG d   1       5.739   0.117  -6.188  0.00  0.00     0.024 H 
ATOM     43  H   LIG d   1       5.288   0.782  -4.601  0.00  0.00     0.024 H 
ENDBRANCH   1  40
BRANCH  12  44
ATOM     44  C   LIG d   1       5.013  -1.061  -2.692  0.00  0.00     0.045 C 
ATOM     45  O   LIG d   1       5.043  -0.120  -1.934  0.00  0.00    -0.549 OA
ATOM     46  O   LIG d   1       6.010  -1.958  -2.687  0.00  0.00    -0.549 OA
ENDBRANCH  12  44
BRANCH  17  47
ATOM     47  C   LIG d   1       6.050  -0.351  -9.151  0.00  0.00    -0.056 C 
ATOM     48  H   LIG d   1       6.637  -1.205  -8.811  0.00  0.00     0.024 H 
ATOM     49  H   LIG d   1       6.443   0.004 -10.104  0.00  0.00     0.024 H 
ATOM     50  H   LIG d   1       6.113   0.449  -8.412  0.00  0.00     0.024 H 
ENDBRANCH  17  47
BRANCH  20  51
ATOM     51  O   LIG d   1       4.629  -0.085 -13.551  0.00  0.00    -0.392 OA
ATOM     52  H   LIG d   1       3.923   0.200 -14.146  0.00  0.00     0.210 HD
ENDBRANCH  20  51
TORSDOF 4
ENDMDL
MODEL 6
REMARK VINA RESULT:      -5.9      9.606     12.012
REMARK  4 active torsions:
REMARK  status: ('A' for Active; 'I' for Inactive)
REMARK    1  A    between atoms: C_1  and  C_2 
REMARK    2  A    between atoms: C_13  and  C_15 
REMARK    3  A    between atoms: C_20  and  C_27 
REMARK    4  A    between atoms: C_23  and  O_26 
ROOT
ATOM      1  C   LIG d   1      10.011   7.318  -6.549  0.00  0.00    -0.021 C 
ATOM      2  C   LIG d   1       9.385   8.395  -5.684  0.00  0.00    -0.046 C 
ATOM      3  C   LIG d   1      10.056   8.313  -4.304  0.00  0.00    -0.049 C 
ATOM      4  C   LIG d   1       9.901   6.929  -3.679  0.00  0.00    -0.029 C 
ATOM      5  H   LIG d   1       8.843   6.761  -3.475  0.00  0.00     0.031 H 
ATOM      6  C   LIG d   1      10.394   5.821  -4.620  0.00  0.00    -0.031 C 
ATOM      7  H   LIG d   1      11.465   5.924  -4.795  0.00  0.00     0.031 H 
ATOM      8  C   LIG d   1       9.617   5.941  -5.918  0.00  0.00    -0.032 C 
ATOM      9  H   LIG d   1       8.546   5.889  -5.724  0.00  0.00     0.031 H 
ATOM     10  C   LIG d   1      10.020   4.965  -7.029  0.00  0.00    -0.049 C 
ATOM     11  C   LIG d   1       9.526   5.681  -8.316  0.00  0.00    -0.044 C 
ATOM     12  C   LIG d   1       9.493   7.212  -7.981  0.00  0.00     0.004 C 
ATOM     13  H   LIG d   1       8.466   7.571  -8.038  0.00  0.00     0.037 H 
ATOM     14  C   LIG d   1      10.093   4.468  -3.965  0.00  0.00    -0.031 C 
ATOM     15  C   LIG d   1      10.726   4.425  -2.605  0.00  0.00    -0.084 C 
ATOM     16  C   LIG d   1      10.966   5.491  -1.902  0.00  0.00    -0.065 C 
ATOM     17  C   LIG d   1      10.655   6.885  -2.362  0.00  0.00    -0.008 C 
ATOM     18  C   LIG d   1       9.858   7.613  -1.276  0.00  0.00    -0.041 C 
ATOM     19  C   LIG d   1      10.625   7.548   0.047  0.00  0.00    -0.026 C 
ATOM     20  C   LIG d   1      10.762   6.090   0.491  0.00  0.00     0.059 C 
ATOM     21  H   LIG d   1       9.774   5.637   0.562  0.00  0.00     0.060 H 
ATOM     22  C   LIG d   1      11.603   5.322  -0.533  0.00  0.00    -0.005 C 
ATOM     23  H   LIG d   1       8.314   8.217  -5.586  0.00  0.00     0.027 H 
ATOM     24  H   LIG d   1       9.561   9.375  -6.125  0.00  0.00     0.027 H 
ATOM     25  H   LIG d   1       9.604   9.053  -3.644  0.00  0.00     0.027 H 
ATOM     26  H   LIG d   1      11.118   8.536  -4.413  0.00  0.00     0.027 H 
ATOM     27  H   LIG d   1      11.101   4.831  -7.052  0.00  0.00     0.027 H 
ATOM     28  H   LIG d   1       9.517   4.006  -6.901  0.00  0.00     0.027 H 
ATOM     29  H   LIG d   1      10.230   5.513  -9.131  0.00  0.00     0.027 H 
ATOM     30  H   LIG d   1       8.539   5.313  -8.594  0.00  0.00     0.027 H 
ATOM     31  H   LIG d   1      10.498   3.666  -4.582  0.00  0.00     0.031 H 
ATOM     32  H   LIG d   1       9.013   4.343  -3.869  0.00  0.00     0.031 H 
ATOM     33  H   LIG d   1      10.993   3.464  -2.192  0.00  0.00     0.057 H 
ATOM     34  H   LIG d   1       9.718   8.655  -1.564  0.00  0.00     0.027 H 
ATOM     35  H   LIG d   1       8.885   7.135  -1.156  0.00  0.00     0.027 H 
ATOM     36  H   LIG d   1      10.082   8.109   0.808  0.00  0.00     0.029 H 
ATOM     37  H   LIG d   1      11.615   7.982  -0.086  0.00  0.00     0.029 H 
ATOM     38  H   LIG d   1      12.618   5.721  -0.548  0.00  0.00     0.034 H 
ATOM     39  H   LIG d   1      11.630   4.265  -0.267  0.00  0.00     0.034 H 
ENDROOT
BRANCH   1  40
ATOM     40  C   LIG d   1      11.532   7.477  -6.558  0.00  0.00    -0.059 C 
ATOM     41  H   LIG d   1      11.889   7.498  -7.587  0.00  0.00     0.024 H 
ATOM     42  H   LIG d   1      11.804   8.407  -6.059  0.00  0.00     0.024 H 
ATOM     43  H   LIG d   1      11.988   6.637  -6.033  0.00  0.00     0.024 H 
ENDBRANCH   1  40
BRANCH  12  44
ATOM     44  C   LIG d   1      10.377   7.998  -8.914  0.00  0.00     0.045 C 
ATOM     45  O   LIG d   1      11.182   7.426  -9.610  0.00  0.00    -0.549 OA
ATOM     46  O   LIG d   1      10.269   9.335  -8.974  0.00  0.00    -0.549 OA
ENDBRANCH  12  44
BRANCH  17  47
ATOM     47  C   LIG d   1      11.977   7.633  -2.543  0.00  0.00    -0.056 C 
ATOM     48  H   LIG d   1      12.808   6.941  -2.408  0.00  0.00     0.024 H 
ATOM     49  H   LIG d   1      12.018   8.060  -3.545  0.00  0.00     0.024 H 
ATOM     50  H   LIG d   1      12.046   8.432  -1.804  0.00  0.00     0.024 H 
ENDBRANCH  17  47
BRANCH  20  51
ATOM     51  O   LIG d   1      11.403   6.040   1.768  0.00  0.00    -0.392 OA
ATOM     52  H   LIG d   1      12.040   6.752   1.916  0.00  0.00     0.210 HD
ENDBRANCH  20  51
TORSDOF 4
ENDMDL
MODEL 7
REMARK VINA RESULT:      -5.5      8.392     12.893
REMARK  4 active torsions:
REMARK  status: ('A' for Active; 'I' for Inactive)
REMARK    1  A    between atoms: C_1  and  C_2 
REMARK    2  A    between atoms: C_13  and  C_15 
REMARK    3  A    between atoms: C_20  and  C_27 
REMARK    4  A    between atoms: C_23  and  O_26 
ROOT
ATOM      1  C   LIG d   1      10.171   5.295  -4.115  0.00  0.00    -0.021 C 
ATOM      2  C   LIG d   1       9.256   6.462  -4.432  0.00  0.00    -0.046 C 
ATOM      3  C   LIG d   1       9.801   7.683  -3.674  0.00  0.00    -0.049 C 
ATOM      4  C   LIG d   1       9.884   7.426  -2.172  0.00  0.00    -0.029 C 
ATOM      5  H   LIG d   1       8.871   7.300  -1.789  0.00  0.00     0.031 H 
ATOM      6  C   LIG d   1      10.683   6.155  -1.855  0.00  0.00    -0.031 C 
ATOM      7  H   LIG d   1      11.720   6.273  -2.170  0.00  0.00     0.031 H 
ATOM      8  C   LIG d   1      10.020   5.001  -2.585  0.00  0.00    -0.032 C 
ATOM      9  H   LIG d   1       8.971   4.927  -2.300  0.00  0.00     0.031 H 
ATOM     10  C   LIG d   1      10.719   3.642  -2.460  0.00  0.00    -0.049 C 
ATOM     11  C   LIG d   1      10.205   2.872  -3.707  0.00  0.00    -0.044 C 
ATOM     12  C   LIG d   1       9.820   3.961  -4.767  0.00  0.00     0.004 C 
ATOM     13  H   LIG d   1       8.750   3.907  -4.966  0.00  0.00     0.037 H 
ATOM     14  C   LIG d   1      10.615   5.911  -0.343  0.00  0.00    -0.031 C 
ATOM     15  C   LIG d   1      11.116   7.129   0.377  0.00  0.00    -0.084 C 
ATOM     16  C   LIG d   1      11.061   8.324  -0.130  0.00  0.00    -0.065 C 
ATOM     17  C   LIG d   1      10.508   8.632  -1.490  0.00  0.00    -0.008 C 
ATOM     18  C   LIG d   1       9.479   9.761  -1.377  0.00  0.00    -0.041 C 
ATOM     19  C   LIG d   1      10.118  10.962  -0.677  0.00  0.00    -0.026 C 
ATOM     20  C   LIG d   1      10.519  10.573   0.748  0.00  0.00     0.059 C 
ATOM     21  H   LIG d   1       9.646  10.199   1.282  0.00  0.00     0.060 H 
ATOM     22  C   LIG d   1      11.592   9.482   0.698  0.00  0.00    -0.005 C 
ATOM     23  H   LIG d   1       8.242   6.241  -4.099  0.00  0.00     0.027 H 
ATOM     24  H   LIG d   1       9.262   6.658  -5.504  0.00  0.00     0.027 H 
ATOM     25  H   LIG d   1       9.145   8.534  -3.853  0.00  0.00     0.027 H 
ATOM     26  H   LIG d   1      10.798   7.917  -4.050  0.00  0.00     0.027 H 
ATOM     27  H   LIG d   1      11.802   3.761  -2.498  0.00  0.00     0.027 H 
ATOM     28  H   LIG d   1      10.420   3.139  -1.541  0.00  0.00     0.027 H 
ATOM     29  H   LIG d   1      11.000   2.248  -4.115  0.00  0.00     0.027 H 
ATOM     30  H   LIG d   1       9.347   2.257  -3.439  0.00  0.00     0.027 H 
ATOM     31  H   LIG d   1      11.234   5.053  -0.083  0.00  0.00     0.031 H 
ATOM     32  H   LIG d   1       9.582   5.716  -0.052  0.00  0.00     0.031 H 
ATOM     33  H   LIG d   1      11.541   7.006   1.362  0.00  0.00     0.057 H 
ATOM     34  H   LIG d   1       9.150  10.054  -2.374  0.00  0.00     0.027 H 
ATOM     35  H   LIG d   1       8.622   9.416  -0.798  0.00  0.00     0.027 H 
ATOM     36  H   LIG d   1       9.403  11.784  -0.641  0.00  0.00     0.029 H 
ATOM     37  H   LIG d   1      11.003  11.275  -1.229  0.00  0.00     0.029 H 
ATOM     38  H   LIG d   1      12.497   9.880   0.236  0.00  0.00     0.034 H 
ATOM     39  H   LIG d   1      11.816   9.140   1.708  0.00  0.00     0.034 H 
ENDROOT
BRANCH   1  40
ATOM     40  C   LIG d   1      11.619   5.666  -4.439  0.00  0.00    -0.059 C 
ATOM     41  H   LIG d   1      12.294   5.033  -3.863  0.00  0.00     0.024 H 
ATOM     42  H   LIG d   1      11.803   5.520  -5.503  0.00  0.00     0.024 H 
ATOM     43  H   LIG d   1      11.793   6.710  -4.180  0.00  0.00     0.024 H 
ENDBRANCH   1  40
BRANCH  12  44
ATOM     44  C   LIG d   1      10.600   3.784  -6.045  0.00  0.00     0.045 C 
ATOM     45  O   LIG d   1      10.255   4.362  -7.048  0.00  0.00    -0.549 OA
ATOM     46  O   LIG d   1      11.677   2.984  -6.068  0.00  0.00    -0.549 OA
ENDBRANCH  12  44
BRANCH  17  47
ATOM     47  C   LIG d   1      11.653   9.138  -2.368  0.00  0.00    -0.056 C 
ATOM     48  H   LIG d   1      12.536   8.520  -2.205  0.00  0.00     0.024 H 
ATOM     49  H   LIG d   1      11.358   9.083  -3.416  0.00  0.00     0.024 H 
ATOM     50  H   LIG d   1      11.880  10.172  -2.109  0.00  0.00     0.024 H 
ENDBRANCH  17  47
BRANCH  20  51
ATOM     51  O   LIG d   1      11.036  11.721   1.426  0.00  0.00    -0.392 OA
ATOM     52  H   LIG d   1      11.999  11.725   1.512  0.00  0.00     0.210 HD
ENDBRANCH  20  51
TORSDOF 4
ENDMDL
MODEL 8
REMARK VINA RESULT:      -5.5     11.552     13.200
REMARK  4 active torsions:
REMARK  status: ('A' for Active; 'I' for Inactive)
REMARK    1  A    between atoms: C_1  and  C_2 
REMARK    2  A    between atoms: C_13  and  C_15 
REMARK    3  A    between atoms: C_20  and  C_27 
REMARK    4  A    between atoms: C_23  and  O_26 
ROOT
ATOM      1  C   LIG d   1      10.719   8.355  -1.321  0.00  0.00    -0.021 C 
ATOM      2  C   LIG d   1      10.163   7.059  -1.878  0.00  0.00    -0.046 C 
ATOM      3  C   LIG d   1      10.394   7.083  -3.398  0.00  0.00    -0.049 C 
ATOM      4  C   LIG d   1       9.743   8.300  -4.050  0.00  0.00    -0.029 C 
ATOM      5  H   LIG d   1       8.662   8.210  -3.943  0.00  0.00     0.031 H 
ATOM      6  C   LIG d   1      10.189   9.609  -3.385  0.00  0.00    -0.031 C 
ATOM      7  H   LIG d   1      11.258   9.761  -3.528  0.00  0.00     0.031 H 
ATOM      8  C   LIG d   1       9.846   9.514  -1.909  0.00  0.00    -0.032 C 
ATOM      9  H   LIG d   1       8.783   9.310  -1.780  0.00  0.00     0.031 H 
ATOM     10  C   LIG d   1      10.285  10.701  -1.044  0.00  0.00    -0.049 C 
ATOM     11  C   LIG d   1      10.348  10.087   0.381  0.00  0.00    -0.044 C 
ATOM     12  C   LIG d   1      10.599   8.552   0.187  0.00  0.00     0.004 C 
ATOM     13  H   LIG d   1       9.745   7.996   0.574  0.00  0.00     0.037 H 
ATOM     14  C   LIG d   1       9.401  10.761  -4.020  0.00  0.00    -0.031 C 
ATOM     15  C   LIG d   1       9.611  10.743  -5.506  0.00  0.00    -0.084 C 
ATOM     16  C   LIG d   1       9.904   9.662  -6.167  0.00  0.00    -0.065 C 
ATOM     17  C   LIG d   1      10.078   8.314  -5.532  0.00  0.00    -0.008 C 
ATOM     18  C   LIG d   1       9.218   7.288  -6.274  0.00  0.00    -0.041 C 
ATOM     19  C   LIG d   1       9.557   7.324  -7.766  0.00  0.00    -0.026 C 
ATOM     20  C   LIG d   1       9.211   8.700  -8.338  0.00  0.00     0.059 C 
ATOM     21  H   LIG d   1       8.161   8.919  -8.147  0.00  0.00     0.060 H 
ATOM     22  C   LIG d   1      10.085   9.766  -7.672  0.00  0.00    -0.005 C 
ATOM     23  H   LIG d   1       9.096   6.990  -1.667  0.00  0.00     0.027 H 
ATOM     24  H   LIG d   1      10.686   6.210  -1.437  0.00  0.00     0.027 H 
ATOM     25  H   LIG d   1       9.974   6.178  -3.836  0.00  0.00     0.027 H 
ATOM     26  H   LIG d   1      11.467   7.108  -3.592  0.00  0.00     0.027 H 
ATOM     27  H   LIG d   1      11.266  11.062  -1.353  0.00  0.00     0.027 H 
ATOM     28  H   LIG d   1       9.549  11.503  -1.089  0.00  0.00     0.027 H 
ATOM     29  H   LIG d   1      11.184  10.514   0.935  0.00  0.00     0.027 H 
ATOM     30  H   LIG d   1       9.415  10.275   0.911  0.00  0.00     0.027 H 
ATOM     31  H   LIG d   1       9.751  11.709  -3.613  0.00  0.00     0.031 H 
ATOM     32  H   LIG d   1       8.340  10.640  -3.801  0.00  0.00     0.031 H 
ATOM     33  H   LIG d   1       9.515  11.670  -6.051  0.00  0.00     0.057 H 
ATOM     34  H   LIG d   1       9.419   6.291  -5.879  0.00  0.00     0.027 H 
ATOM     35  H   LIG d   1       8.163   7.528  -6.135  0.00  0.00     0.027 H 
ATOM     36  H   LIG d   1       8.982   6.559  -8.287  0.00  0.00     0.029 H 
ATOM     37  H   LIG d   1      10.622   7.133  -7.900  0.00  0.00     0.029 H 
ATOM     38  H   LIG d   1      11.131   9.596  -7.929  0.00  0.00     0.034 H 
ATOM     39  H   LIG d   1       9.780  10.756  -8.012  0.00  0.00     0.034 H 
ENDROOT
BRANCH   1  40
ATOM     40  C   LIG d   1      12.177   8.524  -1.753  0.00  0.00    -0.059 C 
ATOM     41  H   LIG d   1      12.310   9.506  -2.207  0.00  0.00     0.024 H 
ATOM     42  H   LIG d   1      12.827   8.435  -0.883  0.00  0.00     0.024 H 
ATOM     43  H   LIG d   1      12.433   7.752  -2.478  0.00  0.00     0.024 H 
ENDBRANCH   1  40
BRANCH  12  44
ATOM     44  C   LIG d   1      11.866   8.111   0.873  0.00  0.00     0.045 C 
ATOM     45  O   LIG d   1      12.615   8.933   1.346  0.00  0.00    -0.549 OA
ATOM     46  O   LIG d   1      12.164   6.805   0.958  0.00  0.00    -0.549 OA
ENDBRANCH  12  44
BRANCH  17  47
ATOM     47  C   LIG d   1      11.540   7.896  -5.695  0.00  0.00    -0.056 C 
ATOM     48  H   LIG d   1      11.643   7.275  -6.586  0.00  0.00     0.024 H 
ATOM     49  H   LIG d   1      12.163   8.784  -5.797  0.00  0.00     0.024 H 
ATOM     50  H   LIG d   1      11.856   7.329  -4.819  0.00  0.00     0.024 H 
ENDBRANCH  17  47
BRANCH  20  51
ATOM     51  O   LIG d   1       9.449   8.702  -9.748  0.00  0.00    -0.392 OA
ATOM     52  H   LIG d   1       9.921   7.921 -10.067  0.00  0.00     0.210 HD
ENDBRANCH  20  51
TORSDOF 4
ENDMDL
MODEL 9
REMARK VINA RESULT:      -5.5      8.615     10.345
REMARK  4 active torsions:
REMARK  status: ('A' for Active; 'I' for Inactive)
REMARK    1  A    between atoms: C_1  and  C_2 
REMARK    2  A    between atoms: C_13  and  C_15 
REMARK    3  A    between atoms: C_20  and  C_27 
REMARK    4  A    between atoms: C_23  and  O_26 
ROOT
ATOM      1  C   LIG d   1      10.509   5.892  -2.312  0.00  0.00    -0.021 C 
ATOM      2  C   LIG d   1       9.984   4.494  -2.576  0.00  0.00    -0.046 C 
ATOM      3  C   LIG d   1      10.273   4.173  -4.052  0.00  0.00    -0.049 C 
ATOM      4  C   LIG d   1       9.639   5.198  -4.988  0.00  0.00    -0.029 C 
ATOM      5  H   LIG d   1       8.555   5.118  -4.901  0.00  0.00     0.031 H 
ATOM      6  C   LIG d   1      10.049   6.632  -4.625  0.00  0.00    -0.031 C 
ATOM      7  H   LIG d   1      11.122   6.764  -4.761  0.00  0.00     0.031 H 
ATOM      8  C   LIG d   1       9.650   6.871  -3.180  0.00  0.00    -0.032 C 
ATOM      9  H   LIG d   1       8.585   6.686  -3.045  0.00  0.00     0.031 H 
ATOM     10  C   LIG d   1      10.047   8.232  -2.595  0.00  0.00    -0.049 C 
ATOM     11  C   LIG d   1      10.061   7.961  -1.065  0.00  0.00    -0.044 C 
ATOM     12  C   LIG d   1      10.330   6.426  -0.894  0.00  0.00     0.004 C 
ATOM     13  H   LIG d   1       9.467   5.960  -0.420  0.00  0.00     0.037 H 
ATOM     14  C   LIG d   1       9.277   7.595  -5.534  0.00  0.00    -0.031 C 
ATOM     15  C   LIG d   1       9.544   7.241  -6.968  0.00  0.00    -0.084 C 
ATOM     16  C   LIG d   1       9.870   6.043  -7.353  0.00  0.00    -0.065 C 
ATOM     17  C   LIG d   1      10.030   4.879  -6.421  0.00  0.00    -0.008 C 
ATOM     18  C   LIG d   1       9.206   3.696  -6.938  0.00  0.00    -0.041 C 
ATOM     19  C   LIG d   1       9.603   3.396  -8.385  0.00  0.00    -0.026 C 
ATOM     20  C   LIG d   1       9.268   4.599  -9.270  0.00  0.00     0.059 C 
ATOM     21  H   LIG d   1       8.209   4.839  -9.171  0.00  0.00     0.060 H 
ATOM     22  C   LIG d   1      10.107   5.803  -8.835  0.00  0.00    -0.005 C 
ATOM     23  H   LIG d   1       8.911   4.458  -2.392  0.00  0.00     0.027 H 
ATOM     24  H   LIG d   1      10.496   3.777  -1.934  0.00  0.00     0.027 H 
ATOM     25  H   LIG d   1       9.877   3.186  -4.286  0.00  0.00     0.027 H 
ATOM     26  H   LIG d   1      11.353   4.170  -4.208  0.00  0.00     0.027 H 
ATOM     27  H   LIG d   1      11.037   8.528  -2.943  0.00  0.00     0.027 H 
ATOM     28  H   LIG d   1       9.307   8.990  -2.849  0.00  0.00     0.027 H 
ATOM     29  H   LIG d   1      10.872   8.517  -0.595  0.00  0.00     0.027 H 
ATOM     30  H   LIG d   1       9.106   8.249  -0.626  0.00  0.00     0.027 H 
ATOM     31  H   LIG d   1       9.604   8.617  -5.344  0.00  0.00     0.031 H 
ATOM     32  H   LIG d   1       8.209   7.511  -5.331  0.00  0.00     0.031 H 
ATOM     33  H   LIG d   1       9.461   8.018  -7.714  0.00  0.00     0.057 H 
ATOM     34  H   LIG d   1       9.400   2.820  -6.319  0.00  0.00     0.027 H 
ATOM     35  H   LIG d   1       8.146   3.945  -6.895  0.00  0.00     0.027 H 
ATOM     36  H   LIG d   1       9.053   2.523  -8.738  0.00  0.00     0.029 H 
ATOM     37  H   LIG d   1      10.672   3.196  -8.435  0.00  0.00     0.029 H 
ATOM     38  H   LIG d   1      11.164   5.596  -9.009  0.00  0.00     0.034 H 
ATOM     39  H   LIG d   1       9.809   6.684  -9.403  0.00  0.00     0.034 H 
ENDROOT
BRANCH   1  40
ATOM     40  C   LIG d   1      11.981   5.981  -2.719  0.00  0.00    -0.059 C 
ATOM     41  H   LIG d   1      12.498   6.680  -2.061  0.00  0.00     0.024 H 
ATOM     42  H   LIG d   1      12.441   4.996  -2.637  0.00  0.00     0.024 H 
ATOM     43  H   LIG d   1      12.053   6.330  -3.748  0.00  0.00     0.024 H 
ENDBRANCH   1  40
BRANCH  12  44
ATOM     44  C   LIG d   1      11.574   6.174  -0.081  0.00  0.00     0.045 C 
ATOM     45  O   LIG d   1      11.835   5.055   0.294  0.00  0.00    -0.549 OA
ATOM     46  O   LIG d   1      12.392   7.192   0.228  0.00  0.00    -0.549 OA
ENDBRANCH  12  44
BRANCH  17  47
ATOM     47  C   LIG d   1      11.500   4.458  -6.432  0.00  0.00    -0.056 C 
ATOM     48  H   LIG d   1      11.782   4.149  -7.439  0.00  0.00     0.024 H 
ATOM     49  H   LIG d   1      12.121   5.298  -6.122  0.00  0.00     0.024 H 
ATOM     50  H   LIG d   1      11.645   3.625  -5.743  0.00  0.00     0.024 H 
ENDBRANCH  17  47
BRANCH  20  51
ATOM     51  O   LIG d   1       9.559   4.282 -10.634  0.00  0.00    -0.392 OA
ATOM     52  H   LIG d   1      10.399   4.641 -10.949  0.00  0.00     0.210 HD
ENDBRANCH  20  51
TORSDOF 4
ENDMDL
MODEL 10
REMARK VINA RESULT:      -5.5      1.432      6.899
REMARK  4 active torsions:
REMARK  status: ('A' for Active; 'I' for Inactive)
REMARK    1  A    between atoms: C_1  and  C_2 
REMARK    2  A    between atoms: C_13  and  C_15 
REMARK    3  A    between atoms: C_20  and  C_27 
REMARK    4  A    between atoms: C_23  and  O_26 
ROOT
ATOM      1  C   LIG d   1       6.585  -4.564  -6.481  0.00  0.00    -0.021 C 
ATOM      2  C   LIG d   1       7.471  -4.132  -5.328  0.00  0.00    -0.046 C 
ATOM      3  C   LIG d   1       6.591  -3.332  -4.355  0.00  0.00    -0.049 C 
ATOM      4  C   LIG d   1       5.935  -2.135  -5.039  0.00  0.00    -0.029 C 
ATOM      5  H   LIG d   1       6.719  -1.436  -5.332  0.00  0.00     0.031 H 
ATOM      6  C   LIG d   1       5.162  -2.551  -6.297  0.00  0.00    -0.031 C 
ATOM      7  H   LIG d   1       4.330  -3.203  -6.030  0.00  0.00     0.031 H 
ATOM      8  C   LIG d   1       6.135  -3.260  -7.221  0.00  0.00    -0.032 C 
ATOM      9  H   LIG d   1       6.987  -2.617  -7.438  0.00  0.00     0.031 H 
ATOM     10  C   LIG d   1       5.535  -3.829  -8.512  0.00  0.00    -0.049 C 
ATOM     11  C   LIG d   1       6.552  -4.934  -8.909  0.00  0.00    -0.044 C 
ATOM     12  C   LIG d   1       7.254  -5.383  -7.581  0.00  0.00     0.004 C 
ATOM     13  H   LIG d   1       8.315  -5.145  -7.637  0.00  0.00     0.037 H 
ATOM     14  C   LIG d   1       4.640  -1.282  -6.980  0.00  0.00    -0.031 C 
ATOM     15  C   LIG d   1       3.815  -0.497  -6.001  0.00  0.00    -0.084 C 
ATOM     16  C   LIG d   1       3.987  -0.566  -4.715  0.00  0.00    -0.065 C 
ATOM     17  C   LIG d   1       5.014  -1.437  -4.053  0.00  0.00    -0.008 C 
ATOM     18  C   LIG d   1       5.836  -0.597  -3.071  0.00  0.00    -0.041 C 
ATOM     19  C   LIG d   1       4.893   0.109  -2.094  0.00  0.00    -0.026 C 
ATOM     20  C   LIG d   1       3.987   1.074  -2.862  0.00  0.00     0.059 C 
ATOM     21  H   LIG d   1       4.599   1.776  -3.428  0.00  0.00     0.060 H 
ATOM     22  C   LIG d   1       3.096   0.282  -3.823  0.00  0.00    -0.005 C 
ATOM     23  H   LIG d   1       8.282  -3.504  -5.697  0.00  0.00     0.027 H 
ATOM     24  H   LIG d   1       7.879  -5.009  -4.825  0.00  0.00     0.027 H 
ATOM     25  H   LIG d   1       7.206  -2.976  -3.530  0.00  0.00     0.027 H 
ATOM     26  H   LIG d   1       5.812  -3.986  -3.962  0.00  0.00     0.027 H 
ATOM     27  H   LIG d   1       4.551  -4.259  -8.324  0.00  0.00     0.027 H 
ATOM     28  H   LIG d   1       5.478  -3.059  -9.282  0.00  0.00     0.027 H 
ATOM     29  H   LIG d   1       6.027  -5.788  -9.337  0.00  0.00     0.027 H 
ATOM     30  H   LIG d   1       7.271  -4.540  -9.626  0.00  0.00     0.027 H 
ATOM     31  H   LIG d   1       4.027  -1.555  -7.838  0.00  0.00     0.031 H 
ATOM     32  H   LIG d   1       5.483  -0.675  -7.313  0.00  0.00     0.031 H 
ATOM     33  H   LIG d   1       3.043   0.153  -6.384  0.00  0.00     0.057 H 
ATOM     34  H   LIG d   1       6.514  -1.247  -2.517  0.00  0.00     0.027 H 
ATOM     35  H   LIG d   1       6.413   0.146  -3.622  0.00  0.00     0.027 H 
ATOM     36  H   LIG d   1       5.480   0.667  -1.364  0.00  0.00     0.029 H 
ATOM     37  H   LIG d   1       4.282  -0.631  -1.580  0.00  0.00     0.029 H 
ATOM     38  H   LIG d   1       2.425  -0.362  -3.255  0.00  0.00     0.034 H 
ATOM     39  H   LIG d   1       2.512   0.971  -4.435  0.00  0.00     0.034 H 
ENDROOT
BRANCH   1  40
ATOM     40  C   LIG d   1       5.363  -5.313  -5.945  0.00  0.00    -0.059 C 
ATOM     41  H   LIG d   1       5.600  -5.746  -4.973  0.00  0.00     0.024 H 
ATOM     42  H   LIG d   1       4.528  -4.620  -5.841  0.00  0.00     0.024 H 
ATOM     43  H   LIG d   1       5.091  -6.107  -6.640  0.00  0.00     0.024 H 
ENDBRANCH   1  40
BRANCH  12  44
ATOM     44  C   LIG d   1       7.059  -6.855  -7.327  0.00  0.00     0.045 C 
ATOM     45  O   LIG d   1       6.292  -7.491  -8.011  0.00  0.00    -0.549 OA
ATOM     46  O   LIG d   1       7.737  -7.462  -6.340  0.00  0.00    -0.549 OA
ENDBRANCH  12  44
BRANCH  17  47
ATOM     47  C   LIG d   1       4.281  -2.507  -3.244  0.00  0.00    -0.056 C 
ATOM     48  H   LIG d   1       3.393  -2.830  -3.787  0.00  0.00     0.024 H 
ATOM     49  H   LIG d   1       4.942  -3.360  -3.087  0.00  0.00     0.024 H 
ATOM     50  H   LIG d   1       3.986  -2.094  -2.278  0.00  0.00     0.024 H 
ENDBRANCH  17  47
BRANCH  20  51
ATOM     51  O   LIG d   1       3.168   1.794  -1.937  0.00  0.00    -0.392 OA
ATOM     52  H   LIG d   1       3.216   1.463  -1.030  0.00  0.00     0.210 HD
ENDBRANCH  20  51
TORSDOF 4
ENDMDL
