MODEL 1
REMARK VINA RESULT:      -5.8      0.000      0.000
REMARK  4 active torsions:
REMARK  status: ('A' for Active; 'I' for Inactive)
REMARK    1  A    between atoms: C_3  and  O_18 
REMARK    2  A    between atoms: C_6  and  C_7 
REMARK    3  A    between atoms: C_8  and  C_11 
REMARK    4  A    between atoms: C_14  and  O_17 
ROOT
ATOM      1  C   LIG d   1       3.077   0.276  -7.318  0.00  0.00    -0.037 C 
ATOM      2  C   LIG d   1       3.810  -0.522  -6.495  0.00  0.00     0.059 C 
ATOM      3  C   LIG d   1       4.326  -1.768  -6.977  0.00  0.00     0.100 C 
ATOM      4  N   LIG d   1       4.735  -2.755  -7.360  0.00  0.00    -0.191 NA
ATOM      5  H   LIG d   1       2.596   1.161  -6.926  0.00  0.00     0.064 H 
ENDROOT
BRANCH   2   6
ATOM      6  C   LIG d   1       4.074  -0.102  -5.099  0.00  0.00    -0.007 A 
ATOM      7  C   LIG d   1       5.358  -0.215  -4.565  0.00  0.00    -0.050 A 
ATOM      8  C   LIG d   1       5.600   0.183  -3.267  0.00  0.00    -0.020 A 
ATOM      9  H   LIG d   1       6.160  -0.614  -5.167  0.00  0.00     0.062 H 
ATOM     10  C   LIG d   1       4.569   0.695  -2.492  0.00  0.00     0.117 A 
ATOM     11  H   LIG d   1       6.594   0.096  -2.853  0.00  0.00     0.065 H 
ATOM     12  C   LIG d   1       3.290   0.808  -3.020  0.00  0.00    -0.020 A 
ATOM     13  C   LIG d   1       3.039   0.413  -4.317  0.00  0.00    -0.050 A 
ATOM     14  H   LIG d   1       2.489   1.208  -2.414  0.00  0.00     0.065 H 
ATOM     15  H   LIG d   1       2.044   0.503  -4.726  0.00  0.00     0.062 H 
BRANCH  10  16
ATOM     16  O   LIG d   1       4.812   1.086  -1.213  0.00  0.00    -0.507 OA
ATOM     17  H   LIG d   1       4.045   1.014  -0.627  0.00  0.00     0.292 HD
ENDBRANCH  10  16
ENDBRANCH   2   6
BRANCH   1  18
ATOM     18  C   LIG d   1       2.940  -0.063  -8.740  0.00  0.00    -0.024 A 
ATOM     19  C   LIG d   1       3.903   0.369  -9.660  0.00  0.00    -0.051 A 
ATOM     20  C   LIG d   1       3.772   0.044 -10.992  0.00  0.00    -0.020 A 
ATOM     21  H   LIG d   1       4.747   0.954  -9.327  0.00  0.00     0.062 H 
ATOM     22  C   LIG d   1       2.682  -0.704 -11.424  0.00  0.00     0.117 A 
ATOM     23  H   LIG d   1       4.515   0.373 -11.702  0.00  0.00     0.065 H 
ATOM     24  C   LIG d   1       1.723  -1.132 -10.514  0.00  0.00    -0.020 A 
ATOM     25  C   LIG d   1       1.845  -0.817  -9.180  0.00  0.00    -0.051 A 
ATOM     26  H   LIG d   1       0.878  -1.713 -10.855  0.00  0.00     0.065 H 
ATOM     27  H   LIG d   1       1.098  -1.149  -8.474  0.00  0.00     0.062 H 
BRANCH  22  28
ATOM     28  O   LIG d   1       2.556  -1.017 -12.739  0.00  0.00    -0.507 OA
ATOM     29  H   LIG d   1       1.792  -0.609 -13.169  0.00  0.00     0.292 HD
ENDBRANCH  22  28
ENDBRANCH   1  18
TORSDOF 4
ENDMDL
MODEL 2
REMARK VINA RESULT:      -5.6      4.699      6.797
REMARK  4 active torsions:
REMARK  status: ('A' for Active; 'I' for Inactive)
REMARK    1  A    between atoms: C_3  and  O_18 
REMARK    2  A    between atoms: C_6  and  C_7 
REMARK    3  A    between atoms: C_8  and  C_11 
REMARK    4  A    between atoms: C_14  and  O_17 
ROOT
ATOM      1  C   LIG d   1       6.911  -1.908  -3.282  0.00  0.00    -0.037 C 
ATOM      2  C   LIG d   1       7.439  -2.975  -3.943  0.00  0.00     0.059 C 
ATOM      3  C   LIG d   1       6.616  -3.754  -4.819  0.00  0.00     0.100 C 
ATOM      4  N   LIG d   1       5.964  -4.371  -5.513  0.00  0.00    -0.191 NA
ATOM      5  H   LIG d   1       7.498  -1.387  -2.540  0.00  0.00     0.064 H 
ENDROOT
BRANCH   2   6
ATOM      6  C   LIG d   1       8.864  -3.330  -3.754  0.00  0.00    -0.007 A 
ATOM      7  C   LIG d   1       9.841  -2.762  -4.572  0.00  0.00    -0.050 A 
ATOM      8  C   LIG d   1      11.167  -3.091  -4.389  0.00  0.00    -0.020 A 
ATOM      9  H   LIG d   1       9.558  -2.067  -5.349  0.00  0.00     0.062 H 
ATOM     10  C   LIG d   1      11.532  -3.986  -3.392  0.00  0.00     0.117 A 
ATOM     11  H   LIG d   1      11.925  -2.652  -5.023  0.00  0.00     0.065 H 
ATOM     12  C   LIG d   1      10.562  -4.553  -2.576  0.00  0.00    -0.020 A 
ATOM     13  C   LIG d   1       9.234  -4.229  -2.752  0.00  0.00    -0.050 A 
ATOM     14  H   LIG d   1      10.849  -5.249  -1.801  0.00  0.00     0.065 H 
ATOM     15  H   LIG d   1       8.481  -4.670  -2.117  0.00  0.00     0.062 H 
BRANCH  10  16
ATOM     16  O   LIG d   1      12.840  -4.307  -3.215  0.00  0.00    -0.507 OA
ATOM     17  H   LIG d   1      13.331  -3.675  -2.672  0.00  0.00     0.292 HD
ENDBRANCH  10  16
ENDBRANCH   2   6
BRANCH   1  18
ATOM     18  C   LIG d   1       5.543  -1.463  -3.580  0.00  0.00    -0.024 A 
ATOM     19  C   LIG d   1       5.285  -0.712  -4.734  0.00  0.00    -0.051 A 
ATOM     20  C   LIG d   1       4.000  -0.302  -5.010  0.00  0.00    -0.020 A 
ATOM     21  H   LIG d   1       6.090  -0.458  -5.406  0.00  0.00     0.062 H 
ATOM     22  C   LIG d   1       2.963  -0.624  -4.142  0.00  0.00     0.117 A 
ATOM     23  H   LIG d   1       3.798   0.274  -5.901  0.00  0.00     0.065 H 
ATOM     24  C   LIG d   1       3.215  -1.365  -2.994  0.00  0.00    -0.020 A 
ATOM     25  C   LIG d   1       4.495  -1.785  -2.709  0.00  0.00    -0.051 A 
ATOM     26  H   LIG d   1       2.406  -1.612  -2.323  0.00  0.00     0.065 H 
ATOM     27  H   LIG d   1       4.690  -2.360  -1.817  0.00  0.00     0.062 H 
BRANCH  22  28
ATOM     28  O   LIG d   1       1.698  -0.212  -4.417  0.00  0.00    -0.507 OA
ATOM     29  H   LIG d   1       1.052  -0.442  -3.735  0.00  0.00     0.292 HD
ENDBRANCH  22  28
ENDBRANCH   1  18
TORSDOF 4
ENDMDL
MODEL 3
REMARK VINA RESULT:      -5.6      4.619      7.322
REMARK  4 active torsions:
REMARK  status: ('A' for Active; 'I' for Inactive)
REMARK    1  A    between atoms: C_3  and  O_18 
REMARK    2  A    between atoms: C_6  and  C_7 
REMARK    3  A    between atoms: C_8  and  C_11 
REMARK    4  A    between atoms: C_14  and  O_17 
ROOT
ATOM      1  C   LIG d   1       4.352  -3.339  -4.012  0.00  0.00    -0.037 C 
ATOM      2  C   LIG d   1       5.383  -3.533  -4.879  0.00  0.00     0.059 C 
ATOM      3  C   LIG d   1       6.126  -2.411  -5.371  0.00  0.00     0.100 C 
ATOM      4  N   LIG d   1       6.716  -1.523  -5.761  0.00  0.00    -0.191 NA
ATOM      5  H   LIG d   1       3.723  -4.169  -3.726  0.00  0.00     0.064 H 
ENDROOT
BRANCH   2   6
ATOM      6  C   LIG d   1       5.736  -4.904  -5.315  0.00  0.00    -0.007 A 
ATOM      7  C   LIG d   1       7.073  -5.258  -5.497  0.00  0.00    -0.050 A 
ATOM      8  C   LIG d   1       7.397  -6.537  -5.896  0.00  0.00    -0.020 A 
ATOM      9  H   LIG d   1       7.853  -4.531  -5.326  0.00  0.00     0.062 H 
ATOM     10  C   LIG d   1       6.395  -7.472  -6.117  0.00  0.00     0.117 A 
ATOM     11  H   LIG d   1       8.432  -6.812  -6.038  0.00  0.00     0.065 H 
ATOM     12  C   LIG d   1       5.064  -7.123  -5.937  0.00  0.00    -0.020 A 
ATOM     13  C   LIG d   1       4.731  -5.847  -5.537  0.00  0.00    -0.050 A 
ATOM     14  H   LIG d   1       4.286  -7.854  -6.110  0.00  0.00     0.065 H 
ATOM     15  H   LIG d   1       3.695  -5.577  -5.397  0.00  0.00     0.062 H 
BRANCH  10  16
ATOM     16  O   LIG d   1       6.719  -8.732  -6.511  0.00  0.00    -0.507 OA
ATOM     17  H   LIG d   1       6.169  -9.422  -6.115  0.00  0.00     0.292 HD
ENDBRANCH  10  16
ENDBRANCH   2   6
BRANCH   1  18
ATOM     18  C   LIG d   1       4.096  -2.001  -3.463  0.00  0.00    -0.024 A 
ATOM     19  C   LIG d   1       3.234  -1.122  -4.132  0.00  0.00    -0.051 A 
ATOM     20  C   LIG d   1       2.993   0.130  -3.610  0.00  0.00    -0.020 A 
ATOM     21  H   LIG d   1       2.758  -1.425  -5.052  0.00  0.00     0.062 H 
ATOM     22  C   LIG d   1       3.611   0.524  -2.428  0.00  0.00     0.117 A 
ATOM     23  H   LIG d   1       2.327   0.807  -4.123  0.00  0.00     0.065 H 
ATOM     24  C   LIG d   1       4.469  -0.344  -1.764  0.00  0.00    -0.020 A 
ATOM     25  C   LIG d   1       4.714  -1.600  -2.273  0.00  0.00    -0.051 A 
ATOM     26  H   LIG d   1       4.946  -0.033  -0.846  0.00  0.00     0.065 H 
ATOM     27  H   LIG d   1       5.381  -2.272  -1.756  0.00  0.00     0.062 H 
BRANCH  22  28
ATOM     28  O   LIG d   1       3.374   1.761  -1.922  0.00  0.00    -0.507 OA
ATOM     29  H   LIG d   1       2.982   2.377  -2.555  0.00  0.00     0.292 HD
ENDBRANCH  22  28
ENDBRANCH   1  18
TORSDOF 4
ENDMDL
MODEL 4
REMARK VINA RESULT:      -5.6      1.496      7.042
REMARK  4 active torsions:
REMARK  status: ('A' for Active; 'I' for Inactive)
REMARK    1  A    between atoms: C_3  and  O_18 
REMARK    2  A    between atoms: C_6  and  C_7 
REMARK    3  A    between atoms: C_8  and  C_11 
REMARK    4  A    between atoms: C_14  and  O_17 
ROOT
ATOM      1  C   LIG d   1       2.625  -0.235  -5.974  0.00  0.00    -0.037 C 
ATOM      2  C   LIG d   1       3.433  -0.379  -7.059  0.00  0.00     0.059 C 
ATOM      3  C   LIG d   1       4.825  -0.055  -6.965  0.00  0.00     0.100 C 
ATOM      4  N   LIG d   1       5.928   0.201  -6.890  0.00  0.00    -0.191 NA
ATOM      5  H   LIG d   1       1.558  -0.373  -6.072  0.00  0.00     0.064 H 
ENDROOT
BRANCH   2   6
ATOM      6  C   LIG d   1       2.872  -0.871  -8.339  0.00  0.00    -0.007 A 
ATOM      7  C   LIG d   1       2.003  -0.066  -9.077  0.00  0.00    -0.050 A 
ATOM      8  C   LIG d   1       1.488  -0.525 -10.271  0.00  0.00    -0.020 A 
ATOM      9  H   LIG d   1       1.734   0.914  -8.713  0.00  0.00     0.062 H 
ATOM     10  C   LIG d   1       1.833  -1.785 -10.739  0.00  0.00     0.117 A 
ATOM     11  H   LIG d   1       0.816   0.098 -10.843  0.00  0.00     0.065 H 
ATOM     12  C   LIG d   1       2.697  -2.589 -10.008  0.00  0.00    -0.020 A 
ATOM     13  C   LIG d   1       3.217  -2.138  -8.813  0.00  0.00    -0.050 A 
ATOM     14  H   LIG d   1       2.964  -3.569 -10.375  0.00  0.00     0.065 H 
ATOM     15  H   LIG d   1       3.889  -2.763  -8.245  0.00  0.00     0.062 H 
BRANCH  10  16
ATOM     16  O   LIG d   1       1.323  -2.234 -11.917  0.00  0.00    -0.507 OA
ATOM     17  H   LIG d   1       0.443  -2.628 -11.839  0.00  0.00     0.292 HD
ENDBRANCH  10  16
ENDBRANCH   2   6
BRANCH   1  18
ATOM     18  C   LIG d   1       3.203   0.108  -4.668  0.00  0.00    -0.024 A 
ATOM     19  C   LIG d   1       3.848  -0.876  -3.907  0.00  0.00    -0.051 A 
ATOM     20  C   LIG d   1       4.392  -0.547  -2.684  0.00  0.00    -0.020 A 
ATOM     21  H   LIG d   1       3.920  -1.886  -4.277  0.00  0.00     0.062 H 
ATOM     22  C   LIG d   1       4.295   0.754  -2.204  0.00  0.00     0.117 A 
ATOM     23  H   LIG d   1       4.892  -1.303  -2.098  0.00  0.00     0.065 H 
ATOM     24  C   LIG d   1       3.653   1.731  -2.955  0.00  0.00    -0.020 A 
ATOM     25  C   LIG d   1       3.109   1.416  -4.180  0.00  0.00    -0.051 A 
ATOM     26  H   LIG d   1       3.580   2.740  -2.577  0.00  0.00     0.065 H 
ATOM     27  H   LIG d   1       2.610   2.177  -4.762  0.00  0.00     0.062 H 
BRANCH  22  28
ATOM     28  O   LIG d   1       4.829   1.070  -0.996  0.00  0.00    -0.507 OA
ATOM     29  H   LIG d   1       4.329   0.727  -0.243  0.00  0.00     0.292 HD
ENDBRANCH  22  28
ENDBRANCH   1  18
TORSDOF 4
ENDMDL
MODEL 5
REMARK VINA RESULT:      -5.4      4.519      5.288
REMARK  4 active torsions:
REMARK  status: ('A' for Active; 'I' for Inactive)
REMARK    1  A    between atoms: C_3  and  O_18 
REMARK    2  A    between atoms: C_6  and  C_7 
REMARK    3  A    between atoms: C_8  and  C_11 
REMARK    4  A    between atoms: C_14  and  O_17 
ROOT
ATOM      1  C   LIG d   1       4.341  -4.242  -4.886  0.00  0.00    -0.037 C 
ATOM      2  C   LIG d   1       5.415  -3.444  -4.636  0.00  0.00     0.059 C 
ATOM      3  C   LIG d   1       6.694  -3.770  -5.191  0.00  0.00     0.100 C 
ATOM      4  N   LIG d   1       7.708  -4.027  -5.632  0.00  0.00    -0.191 NA
ATOM      5  H   LIG d   1       3.403  -4.061  -4.381  0.00  0.00     0.064 H 
ENDROOT
BRANCH   2   6
ATOM      6  C   LIG d   1       5.260  -2.240  -3.787  0.00  0.00    -0.007 A 
ATOM      7  C   LIG d   1       4.225  -2.169  -2.854  0.00  0.00    -0.050 A 
ATOM      8  C   LIG d   1       4.088  -1.049  -2.063  0.00  0.00    -0.020 A 
ATOM      9  H   LIG d   1       3.531  -2.991  -2.754  0.00  0.00     0.062 H 
ATOM     10  C   LIG d   1       4.979   0.008  -2.192  0.00  0.00     0.117 A 
ATOM     11  H   LIG d   1       3.287  -0.994  -1.340  0.00  0.00     0.065 H 
ATOM     12  C   LIG d   1       6.010  -0.059  -3.119  0.00  0.00    -0.020 A 
ATOM     13  C   LIG d   1       6.154  -1.175  -3.915  0.00  0.00    -0.050 A 
ATOM     14  H   LIG d   1       6.702   0.766  -3.217  0.00  0.00     0.065 H 
ATOM     15  H   LIG d   1       6.957  -1.227  -4.635  0.00  0.00     0.062 H 
BRANCH  10  16
ATOM     16  O   LIG d   1       4.841   1.111  -1.409  0.00  0.00    -0.507 OA
ATOM     17  H   LIG d   1       5.118   0.979  -0.492  0.00  0.00     0.292 HD
ENDBRANCH  10  16
ENDBRANCH   2   6
BRANCH   1  18
ATOM     18  C   LIG d   1       4.455  -5.349  -5.843  0.00  0.00    -0.024 A 
ATOM     19  C   LIG d   1       4.088  -5.159  -7.182  0.00  0.00    -0.051 A 
ATOM     20  C   LIG d   1       4.202  -6.200  -8.077  0.00  0.00    -0.020 A 
ATOM     21  H   LIG d   1       3.720  -4.200  -7.512  0.00  0.00     0.062 H 
ATOM     22  C   LIG d   1       4.672  -7.438  -7.652  0.00  0.00     0.117 A 
ATOM     23  H   LIG d   1       3.923  -6.055  -9.110  0.00  0.00     0.065 H 
ATOM     24  C   LIG d   1       5.033  -7.631  -6.324  0.00  0.00    -0.020 A 
ATOM     25  C   LIG d   1       4.928  -6.597  -5.421  0.00  0.00    -0.051 A 
ATOM     26  H   LIG d   1       5.398  -8.595  -5.999  0.00  0.00     0.065 H 
ATOM     27  H   LIG d   1       5.209  -6.749  -4.390  0.00  0.00     0.062 H 
BRANCH  22  28
ATOM     28  O   LIG d   1       4.777  -8.461  -8.538  0.00  0.00    -0.507 OA
ATOM     29  H   LIG d   1       5.670  -8.593  -8.884  0.00  0.00     0.292 HD
ENDBRANCH  22  28
ENDBRANCH   1  18
TORSDOF 4
ENDMDL
MODEL 6
REMARK VINA RESULT:      -5.3      1.589      2.363
REMARK  4 active torsions:
REMARK  status: ('A' for Active; 'I' for Inactive)
REMARK    1  A    between atoms: C_3  and  O_18 
REMARK    2  A    between atoms: C_6  and  C_7 
REMARK    3  A    between atoms: C_8  and  C_11 
REMARK    4  A    between atoms: C_14  and  O_17 
ROOT
ATOM      1  C   LIG d   1       3.546  -1.323  -7.818  0.00  0.00    -0.037 C 
ATOM      2  C   LIG d   1       3.478  -0.169  -7.099  0.00  0.00     0.059 C 
ATOM      3  C   LIG d   1       3.172   1.067  -7.754  0.00  0.00     0.100 C 
ATOM      4  N   LIG d   1       2.929   2.047  -8.273  0.00  0.00    -0.191 NA
ATOM      5  H   LIG d   1       3.884  -2.235  -7.347  0.00  0.00     0.064 H 
ENDROOT
BRANCH   2   6
ATOM      6  C   LIG d   1       3.722  -0.193  -5.638  0.00  0.00    -0.007 A 
ATOM      7  C   LIG d   1       2.719   0.209  -4.754  0.00  0.00    -0.050 A 
ATOM      8  C   LIG d   1       2.949   0.179  -3.395  0.00  0.00    -0.020 A 
ATOM      9  H   LIG d   1       1.766   0.543  -5.135  0.00  0.00     0.062 H 
ATOM     10  C   LIG d   1       4.175  -0.249  -2.905  0.00  0.00     0.117 A 
ATOM     11  H   LIG d   1       2.173   0.491  -2.711  0.00  0.00     0.065 H 
ATOM     12  C   LIG d   1       5.174  -0.650  -3.781  0.00  0.00    -0.020 A 
ATOM     13  C   LIG d   1       4.954  -0.624  -5.142  0.00  0.00    -0.050 A 
ATOM     14  H   LIG d   1       6.128  -0.983  -3.396  0.00  0.00     0.065 H 
ATOM     15  H   LIG d   1       5.731  -0.936  -5.822  0.00  0.00     0.062 H 
BRANCH  10  16
ATOM     16  O   LIG d   1       4.396  -0.277  -1.564  0.00  0.00    -0.507 OA
ATOM     17  H   LIG d   1       3.594  -0.188  -1.031  0.00  0.00     0.292 HD
ENDBRANCH  10  16
ENDBRANCH   2   6
BRANCH   1  18
ATOM     18  C   LIG d   1       3.160  -1.329  -9.235  0.00  0.00    -0.024 A 
ATOM     19  C   LIG d   1       1.807  -1.387  -9.592  0.00  0.00    -0.051 A 
ATOM     20  C   LIG d   1       1.450  -1.388 -10.923  0.00  0.00    -0.020 A 
ATOM     21  H   LIG d   1       1.046  -1.428  -8.829  0.00  0.00     0.062 H 
ATOM     22  C   LIG d   1       2.430  -1.340 -11.908  0.00  0.00     0.117 A 
ATOM     23  H   LIG d   1       0.408  -1.428 -11.201  0.00  0.00     0.065 H 
ATOM     24  C   LIG d   1       3.773  -1.286 -11.557  0.00  0.00    -0.020 A 
ATOM     25  C   LIG d   1       4.142  -1.280 -10.231  0.00  0.00    -0.051 A 
ATOM     26  H   LIG d   1       4.531  -1.249 -12.327  0.00  0.00     0.065 H 
ATOM     27  H   LIG d   1       5.187  -1.239  -9.960  0.00  0.00     0.062 H 
BRANCH  22  28
ATOM     28  O   LIG d   1       2.072  -1.346 -13.218  0.00  0.00    -0.507 OA
ATOM     29  H   LIG d   1       1.803  -0.482 -13.557  0.00  0.00     0.292 HD
ENDBRANCH  22  28
ENDBRANCH   1  18
TORSDOF 4
ENDMDL
MODEL 7
REMARK VINA RESULT:      -5.2      5.527      7.452
REMARK  4 active torsions:
REMARK  status: ('A' for Active; 'I' for Inactive)
REMARK    1  A    between atoms: C_3  and  O_18 
REMARK    2  A    between atoms: C_6  and  C_7 
REMARK    3  A    between atoms: C_8  and  C_11 
REMARK    4  A    between atoms: C_14  and  O_17 
ROOT
ATOM      1  C   LIG d   1       7.781   1.921  -3.712  0.00  0.00    -0.037 C 
ATOM      2  C   LIG d   1       7.709   0.611  -4.076  0.00  0.00     0.059 C 
ATOM      3  C   LIG d   1       8.717   0.046  -4.922  0.00  0.00     0.100 C 
ATOM      4  N   LIG d   1       9.516  -0.403  -5.592  0.00  0.00    -0.191 NA
ATOM      5  H   LIG d   1       6.967   2.376  -3.167  0.00  0.00     0.064 H 
ENDROOT
BRANCH   2   6
ATOM      6  C   LIG d   1       6.586  -0.229  -3.599  0.00  0.00    -0.007 A 
ATOM      7  C   LIG d   1       5.658   0.291  -2.695  0.00  0.00    -0.050 A 
ATOM      8  C   LIG d   1       4.612  -0.492  -2.258  0.00  0.00    -0.020 A 
ATOM      9  H   LIG d   1       5.762   1.305  -2.338  0.00  0.00     0.062 H 
ATOM     10  C   LIG d   1       4.479  -1.796  -2.716  0.00  0.00     0.117 A 
ATOM     11  H   LIG d   1       3.893  -0.090  -1.558  0.00  0.00     0.065 H 
ATOM     12  C   LIG d   1       5.400  -2.316  -3.615  0.00  0.00    -0.020 A 
ATOM     13  C   LIG d   1       6.450  -1.540  -4.057  0.00  0.00    -0.050 A 
ATOM     14  H   LIG d   1       5.293  -3.331  -3.970  0.00  0.00     0.065 H 
ATOM     15  H   LIG d   1       7.165  -1.945  -4.757  0.00  0.00     0.062 H 
BRANCH  10  16
ATOM     16  O   LIG d   1       3.445  -2.564  -2.282  0.00  0.00    -0.507 OA
ATOM     17  H   LIG d   1       3.540  -3.505  -2.489  0.00  0.00     0.292 HD
ENDBRANCH  10  16
ENDBRANCH   2   6
BRANCH   1  18
ATOM     18  C   LIG d   1       8.966   2.715  -4.059  0.00  0.00    -0.024 A 
ATOM     19  C   LIG d   1      10.070   2.742  -3.196  0.00  0.00    -0.051 A 
ATOM     20  C   LIG d   1      11.181   3.486  -3.528  0.00  0.00    -0.020 A 
ATOM     21  H   LIG d   1      10.051   2.181  -2.275  0.00  0.00     0.062 H 
ATOM     22  C   LIG d   1      11.204   4.214  -4.712  0.00  0.00     0.117 A 
ATOM     23  H   LIG d   1      12.033   3.504  -2.866  0.00  0.00     0.065 H 
ATOM     24  C   LIG d   1      10.110   4.193  -5.568  0.00  0.00    -0.020 A 
ATOM     25  C   LIG d   1       8.996   3.450  -5.250  0.00  0.00    -0.051 A 
ATOM     26  H   LIG d   1      10.134   4.761  -6.487  0.00  0.00     0.065 H 
ATOM     27  H   LIG d   1       8.146   3.436  -5.916  0.00  0.00     0.062 H 
BRANCH  22  28
ATOM     28  O   LIG d   1      12.300   4.949  -5.032  0.00  0.00    -0.507 OA
ATOM     29  H   LIG d   1      12.193   5.899  -4.887  0.00  0.00     0.292 HD
ENDBRANCH  22  28
ENDBRANCH   1  18
TORSDOF 4
ENDMDL
MODEL 8
REMARK VINA RESULT:      -5.2      5.117      6.079
REMARK  4 active torsions:
REMARK  status: ('A' for Active; 'I' for Inactive)
REMARK    1  A    between atoms: C_3  and  O_18 
REMARK    2  A    between atoms: C_6  and  C_7 
REMARK    3  A    between atoms: C_8  and  C_11 
REMARK    4  A    between atoms: C_14  and  O_17 
ROOT
ATOM      1  C   LIG d   1       7.069  -3.729  -5.133  0.00  0.00    -0.037 C 
ATOM      2  C   LIG d   1       5.785  -3.540  -4.722  0.00  0.00     0.059 C 
ATOM      3  C   LIG d   1       4.762  -4.460  -5.121  0.00  0.00     0.100 C 
ATOM      4  N   LIG d   1       3.952  -5.190  -5.436  0.00  0.00    -0.191 NA
ATOM      5  H   LIG d   1       7.818  -2.979  -4.926  0.00  0.00     0.064 H 
ENDROOT
BRANCH   2   6
ATOM      6  C   LIG d   1       5.445  -2.382  -3.863  0.00  0.00    -0.007 A 
ATOM      7  C   LIG d   1       4.275  -2.394  -3.103  0.00  0.00    -0.050 A 
ATOM      8  C   LIG d   1       3.966  -1.317  -2.300  0.00  0.00    -0.020 A 
ATOM      9  H   LIG d   1       3.612  -3.245  -3.145  0.00  0.00     0.062 H 
ATOM     10  C   LIG d   1       4.818  -0.221  -2.247  0.00  0.00     0.117 A 
ATOM     11  H   LIG d   1       3.060  -1.325  -1.712  0.00  0.00     0.065 H 
ATOM     12  C   LIG d   1       5.983  -0.206  -3.001  0.00  0.00    -0.020 A 
ATOM     13  C   LIG d   1       6.299  -1.280  -3.807  0.00  0.00    -0.050 A 
ATOM     14  H   LIG d   1       6.643   0.648  -2.957  0.00  0.00     0.065 H 
ATOM     15  H   LIG d   1       7.206  -1.267  -4.392  0.00  0.00     0.062 H 
BRANCH  10  16
ATOM     16  O   LIG d   1       4.509   0.839  -1.454  0.00  0.00    -0.507 OA
ATOM     17  H   LIG d   1       4.734   1.697  -1.839  0.00  0.00     0.292 HD
ENDBRANCH  10  16
ENDBRANCH   2   6
BRANCH   1  18
ATOM     18  C   LIG d   1       7.436  -4.952  -5.858  0.00  0.00    -0.024 A 
ATOM     19  C   LIG d   1       7.425  -4.967  -7.258  0.00  0.00    -0.051 A 
ATOM     20  C   LIG d   1       7.775  -6.116  -7.933  0.00  0.00    -0.020 A 
ATOM     21  H   LIG d   1       7.146  -4.081  -7.808  0.00  0.00     0.062 H 
ATOM     22  C   LIG d   1       8.129  -7.260  -7.226  0.00  0.00     0.117 A 
ATOM     23  H   LIG d   1       7.771  -6.129  -9.013  0.00  0.00     0.065 H 
ATOM     24  C   LIG d   1       8.137  -7.250  -5.837  0.00  0.00    -0.020 A 
ATOM     25  C   LIG d   1       7.794  -6.106  -5.151  0.00  0.00    -0.051 A 
ATOM     26  H   LIG d   1       8.413  -8.141  -5.293  0.00  0.00     0.065 H 
ATOM     27  H   LIG d   1       7.800  -6.100  -4.072  0.00  0.00     0.062 H 
BRANCH  22  28
ATOM     28  O   LIG d   1       8.467  -8.391  -7.897  0.00  0.00    -0.507 OA
ATOM     29  H   LIG d   1       7.942  -8.549  -8.693  0.00  0.00     0.292 HD
ENDBRANCH  22  28
ENDBRANCH   1  18
TORSDOF 4
ENDMDL
MODEL 9
REMARK VINA RESULT:      -5.0      9.367     12.258
REMARK  4 active torsions:
REMARK  status: ('A' for Active; 'I' for Inactive)
REMARK    1  A    between atoms: C_3  and  O_18 
REMARK    2  A    between atoms: C_6  and  C_7 
REMARK    3  A    between atoms: C_8  and  C_11 
REMARK    4  A    between atoms: C_14  and  O_17 
ROOT
ATOM      1  C   LIG d   1       9.544   6.496  -3.860  0.00  0.00    -0.037 C 
ATOM      2  C   LIG d   1      10.244   7.199  -4.791  0.00  0.00     0.059 C 
ATOM      3  C   LIG d   1      11.376   7.982  -4.396  0.00  0.00     0.100 C 
ATOM      4  N   LIG d   1      12.274   8.603  -4.084  0.00  0.00    -0.191 NA
ATOM      5  H   LIG d   1       8.628   5.995  -4.136  0.00  0.00     0.064 H 
ENDROOT
BRANCH   2   6
ATOM      6  C   LIG d   1       9.835   7.154  -6.214  0.00  0.00    -0.007 A 
ATOM      7  C   LIG d   1       9.300   8.289  -6.825  0.00  0.00    -0.050 A 
ATOM      8  C   LIG d   1       8.926   8.244  -8.151  0.00  0.00    -0.020 A 
ATOM      9  H   LIG d   1       9.179   9.200  -6.259  0.00  0.00     0.062 H 
ATOM     10  C   LIG d   1       9.081   7.072  -8.879  0.00  0.00     0.117 A 
ATOM     11  H   LIG d   1       8.512   9.123  -8.624  0.00  0.00     0.065 H 
ATOM     12  C   LIG d   1       9.612   5.941  -8.275  0.00  0.00    -0.020 A 
ATOM     13  C   LIG d   1       9.989   5.977  -6.949  0.00  0.00    -0.050 A 
ATOM     14  H   LIG d   1       9.731   5.030  -8.844  0.00  0.00     0.065 H 
ATOM     15  H   LIG d   1      10.403   5.097  -6.480  0.00  0.00     0.062 H 
BRANCH  10  16
ATOM     16  O   LIG d   1       8.710   7.033 -10.186  0.00  0.00    -0.507 OA
ATOM     17  H   LIG d   1       9.197   6.384 -10.713  0.00  0.00     0.292 HD
ENDBRANCH  10  16
ENDBRANCH   2   6
BRANCH   1  18
ATOM     18  C   LIG d   1      10.033   6.419  -2.477  0.00  0.00    -0.024 A 
ATOM     19  C   LIG d   1      10.802   5.322  -2.066  0.00  0.00    -0.051 A 
ATOM     20  C   LIG d   1      11.262   5.257  -0.769  0.00  0.00    -0.020 A 
ATOM     21  H   LIG d   1      11.035   4.532  -2.763  0.00  0.00     0.062 H 
ATOM     22  C   LIG d   1      10.957   6.271   0.131  0.00  0.00     0.117 A 
ATOM     23  H   LIG d   1      11.858   4.414  -0.452  0.00  0.00     0.065 H 
ATOM     24  C   LIG d   1      10.191   7.358  -0.272  0.00  0.00    -0.020 A 
ATOM     25  C   LIG d   1       9.730   7.437  -1.566  0.00  0.00    -0.051 A 
ATOM     26  H   LIG d   1       9.958   8.144   0.432  0.00  0.00     0.065 H 
ATOM     27  H   LIG d   1       9.134   8.282  -1.878  0.00  0.00     0.062 H 
BRANCH  22  28
ATOM     28  O   LIG d   1      11.409   6.199   1.410  0.00  0.00    -0.507 OA
ATOM     29  H   LIG d   1      10.832   5.700   2.004  0.00  0.00     0.292 HD
ENDBRANCH  22  28
ENDBRANCH   1  18
TORSDOF 4
ENDMDL
MODEL 10
REMARK VINA RESULT:      -4.9      9.683     10.310
REMARK  4 active torsions:
REMARK  status: ('A' for Active; 'I' for Inactive)
REMARK    1  A    between atoms: C_3  and  O_18 
REMARK    2  A    between atoms: C_6  and  C_7 
REMARK    3  A    between atoms: C_8  and  C_11 
REMARK    4  A    between atoms: C_14  and  O_17 
ROOT
ATOM      1  C   LIG d   1       9.606   6.692  -5.033  0.00  0.00    -0.037 C 
ATOM      2  C   LIG d   1      10.736   6.843  -4.289  0.00  0.00     0.059 C 
ATOM      3  C   LIG d   1      11.942   7.310  -4.904  0.00  0.00     0.100 C 
ATOM      4  N   LIG d   1      12.898   7.680  -5.392  0.00  0.00    -0.191 NA
ATOM      5  H   LIG d   1       8.728   6.237  -4.597  0.00  0.00     0.064 H 
ENDROOT
BRANCH   2   6
ATOM      6  C   LIG d   1      10.717   6.524  -2.843  0.00  0.00    -0.007 A 
ATOM      7  C   LIG d   1      11.384   5.394  -2.367  0.00  0.00    -0.050 A 
ATOM      8  C   LIG d   1      11.369   5.104  -1.020  0.00  0.00    -0.020 A 
ATOM      9  H   LIG d   1      11.909   4.747  -3.054  0.00  0.00     0.062 H 
ATOM     10  C   LIG d   1      10.694   5.934  -0.136  0.00  0.00     0.117 A 
ATOM     11  H   LIG d   1      11.885   4.229  -0.650  0.00  0.00     0.065 H 
ATOM     12  C   LIG d   1      10.030   7.060  -0.605  0.00  0.00    -0.020 A 
ATOM     13  C   LIG d   1      10.039   7.357  -1.951  0.00  0.00    -0.050 A 
ATOM     14  H   LIG d   1       9.505   7.704   0.085  0.00  0.00     0.065 H 
ATOM     15  H   LIG d   1       9.523   8.232  -2.315  0.00  0.00     0.062 H 
BRANCH  10  16
ATOM     16  O   LIG d   1      10.682   5.645   1.192  0.00  0.00    -0.507 OA
ATOM     17  H   LIG d   1      11.331   4.977   1.455  0.00  0.00     0.292 HD
ENDBRANCH  10  16
ENDBRANCH   2   6
BRANCH   1  18
ATOM     18  C   LIG d   1       9.579   7.147  -6.429  0.00  0.00    -0.024 A 
ATOM     19  C   LIG d   1       9.264   8.479  -6.726  0.00  0.00    -0.051 A 
ATOM     20  C   LIG d   1       9.245   8.902  -8.037  0.00  0.00    -0.020 A 
ATOM     21  H   LIG d   1       9.040   9.173  -5.931  0.00  0.00     0.062 H 
ATOM     22  C   LIG d   1       9.529   8.007  -9.063  0.00  0.00     0.117 A 
ATOM     23  H   LIG d   1       9.007   9.929  -8.268  0.00  0.00     0.065 H 
ATOM     24  C   LIG d   1       9.837   6.684  -8.772  0.00  0.00    -0.020 A 
ATOM     25  C   LIG d   1       9.864   6.250  -7.466  0.00  0.00    -0.051 A 
ATOM     26  H   LIG d   1      10.056   5.993  -9.573  0.00  0.00     0.065 H 
ATOM     27  H   LIG d   1      10.103   5.222  -7.241  0.00  0.00     0.062 H 
BRANCH  22  28
ATOM     28  O   LIG d   1       9.503   8.428 -10.353  0.00  0.00    -0.507 OA
ATOM     29  H   LIG d   1      10.378   8.547 -10.746  0.00  0.00     0.292 HD
ENDBRANCH  22  28
ENDBRANCH   1  18
TORSDOF 4
ENDMDL
