MODEL 1
REMARK VINA RESULT:      -6.0      0.000      0.000
REMARK  8 active torsions:
REMARK  status: ('A' for Active; 'I' for Inactive)
REMARK    1  A    between atoms: C_1  and  C_2 
REMARK    2  A    between atoms: C_2  and  C_3 
REMARK    3  A    between atoms: C_3  and  O_5 
REMARK    4  A    between atoms: O_5  and  C_6 
REMARK    5  A    between atoms: C_6  and  C_7 
REMARK    6  A    between atoms: C_19  and  C_29 
REMARK    7  A    between atoms: C_22  and  C_24 
REMARK    8  A    between atoms: C_26  and  C_28 
ROOT
ATOM      1  C   LIG d   1       4.398  -1.538  -8.088  0.00  0.00     0.034 C 
ATOM      2  C   LIG d   1       3.292  -0.518  -7.811  0.00  0.00     0.058 C 
ATOM      3  O   LIG d   1       3.638   0.326  -6.683  0.00  0.00    -0.371 OA
ATOM      4  C   LIG d   1       4.238  -0.505  -5.722  0.00  0.00     0.094 C 
ATOM      5  H   LIG d   1       3.645  -1.414  -5.774  0.00  0.00     0.065 H 
ATOM      6  C   LIG d   1       4.268  -0.170  -4.275  0.00  0.00     0.023 A 
ATOM      7  C   LIG d   1       3.599   0.875  -3.700  0.00  0.00    -0.053 A 
ATOM      8  C   LIG d   1       3.644   1.046  -2.324  0.00  0.00    -0.061 A 
ATOM      9  C   LIG d   1       4.360   0.155  -1.547  0.00  0.00    -0.058 A 
ATOM     10  C   LIG d   1       5.049  -0.890  -2.127  0.00  0.00    -0.020 A 
ATOM     11  C   LIG d   1       5.032  -1.060  -3.506  0.00  0.00     0.127 A 
ATOM     12  O   LIG d   1       5.716  -2.073  -4.079  0.00  0.00    -0.485 OA
ATOM     13  C   LIG d   1       5.834  -2.270  -5.499  0.00  0.00     0.114 C 
ATOM     14  C   LIG d   1       5.681  -0.873  -6.131  0.00  0.00     0.032 C 
ATOM     15  H   LIG d   1       6.418  -0.155  -5.740  0.00  0.00     0.037 H 
ATOM     16  C   LIG d   1       5.757  -0.967  -7.643  0.00  0.00    -0.024 C 
ATOM     17  H   LIG d   1       6.558  -1.644  -7.950  0.00  0.00     0.031 H 
ATOM     18  C   LIG d   1       4.675  -3.121  -6.013  0.00  0.00    -0.009 C 
ATOM     19  C   LIG d   1       4.180  -2.881  -7.414  0.00  0.00    -0.029 C 
ATOM     20  H   LIG d   1       3.089  -3.048  -7.400  0.00  0.00     0.031 H 
ATOM     21  H   LIG d   1       3.140   0.102  -8.694  0.00  0.00     0.057 H 
ATOM     22  H   LIG d   1       2.365  -1.048  -7.587  0.00  0.00     0.057 H 
ATOM     23  H   LIG d   1       3.037   1.565  -4.311  0.00  0.00     0.062 H 
ATOM     24  H   LIG d   1       3.114   1.865  -1.863  0.00  0.00     0.062 H 
ATOM     25  H   LIG d   1       4.380   0.277  -0.473  0.00  0.00     0.062 H 
ATOM     26  H   LIG d   1       5.607  -1.577  -1.510  0.00  0.00     0.065 H 
ATOM     27  H   LIG d   1       3.831  -3.043  -5.315  0.00  0.00     0.031 H 
ATOM     28  H   LIG d   1       4.989  -4.183  -5.951  0.00  0.00     0.031 H 
ENDROOT
BRANCH   1  29
ATOM     29  C   LIG d   1       4.455  -1.769  -9.604  0.00  0.00     0.101 C 
ATOM     30  H   LIG d   1       5.265  -1.179 -10.032  0.00  0.00     0.070 H 
ATOM     31  H   LIG d   1       4.630  -2.827  -9.804  0.00  0.00     0.070 H 
BRANCH  29  32
ATOM     32  O   LIG d   1       3.195  -1.366 -10.202  0.00  0.00    -0.464 OA
BRANCH  32  33
ATOM     33  C   LIG d   1       3.258  -0.685 -11.357  0.00  0.00     0.307 C 
ATOM     34  O   LIG d   1       2.540  -0.994 -12.279  0.00  0.00    -0.251 OA
BRANCH  33  35
ATOM     35  C   LIG d   1       4.223   0.462 -11.504  0.00  0.00     0.042 C 
ATOM     36  H   LIG d   1       5.207   0.156 -11.148  0.00  0.00     0.037 H 
ATOM     37  H   LIG d   1       4.290   0.748 -12.553  0.00  0.00     0.037 H 
BRANCH  35  38
ATOM     38  C   LIG d   1       3.730   1.653 -10.680  0.00  0.00    -0.055 C 
ATOM     39  H   LIG d   1       2.701   1.884 -10.954  0.00  0.00     0.024 H 
ATOM     40  H   LIG d   1       3.777   1.406  -9.620  0.00  0.00     0.024 H 
ATOM     41  H   LIG d   1       4.362   2.520 -10.879  0.00  0.00     0.024 H 
ENDBRANCH  35  38
ENDBRANCH  33  35
ENDBRANCH  32  33
ENDBRANCH  29  32
ENDBRANCH   1  29
BRANCH  16  42
ATOM     42  C   LIG d   1       6.014   0.405  -8.267  0.00  0.00    -0.061 C 
ATOM     43  H   LIG d   1       5.291   1.122  -7.877  0.00  0.00     0.023 H 
ATOM     44  H   LIG d   1       7.022   0.734  -8.017  0.00  0.00     0.023 H 
ATOM     45  H   LIG d   1       5.911   0.337  -9.349  0.00  0.00     0.023 H 
ENDBRANCH  16  42
BRANCH  19  46
ATOM     46  C   LIG d   1       4.759  -3.969  -8.328  0.00  0.00    -0.062 C 
ATOM     47  H   LIG d   1       4.397  -4.946  -8.005  0.00  0.00     0.023 H 
ATOM     48  H   LIG d   1       4.444  -3.787  -9.355  0.00  0.00     0.023 H 
ATOM     49  H   LIG d   1       5.848  -3.949  -8.271  0.00  0.00     0.023 H 
ENDBRANCH  19  46
BRANCH  13  50
ATOM     50  C   LIG d   1       7.203  -2.910  -5.814  0.00  0.00    -0.025 C 
ATOM     51  H   LIG d   1       7.631  -3.324  -4.902  0.00  0.00     0.027 H 
ATOM     52  H   LIG d   1       7.072  -3.707  -6.548  0.00  0.00     0.027 H 
ATOM     53  H   LIG d   1       7.874  -2.152  -6.219  0.00  0.00     0.027 H 
ENDBRANCH  13  50
TORSDOF 8
ENDMDL
MODEL 2
REMARK VINA RESULT:      -5.5      1.683      6.921
REMARK  8 active torsions:
REMARK  status: ('A' for Active; 'I' for Inactive)
REMARK    1  A    between atoms: C_1  and  C_2 
REMARK    2  A    between atoms: C_2  and  C_3 
REMARK    3  A    between atoms: C_3  and  O_5 
REMARK    4  A    between atoms: O_5  and  C_6 
REMARK    5  A    between atoms: C_6  and  C_7 
REMARK    6  A    between atoms: C_19  and  C_29 
REMARK    7  A    between atoms: C_22  and  C_24 
REMARK    8  A    between atoms: C_26  and  C_28 
ROOT
ATOM      1  C   LIG d   1       4.342  -0.698  -6.890  0.00  0.00     0.034 C 
ATOM      2  C   LIG d   1       4.576  -2.172  -7.227  0.00  0.00     0.058 C 
ATOM      3  O   LIG d   1       5.213  -2.311  -8.522  0.00  0.00    -0.371 OA
ATOM      4  C   LIG d   1       4.615  -1.365  -9.373  0.00  0.00     0.094 C 
ATOM      5  H   LIG d   1       3.567  -1.404  -9.089  0.00  0.00     0.065 H 
ATOM      6  C   LIG d   1       4.599  -1.511 -10.851  0.00  0.00     0.023 A 
ATOM      7  C   LIG d   1       5.010  -2.623 -11.534  0.00  0.00    -0.053 A 
ATOM      8  C   LIG d   1       4.879  -2.671 -12.913  0.00  0.00    -0.061 A 
ATOM      9  C   LIG d   1       4.329  -1.595 -13.587  0.00  0.00    -0.058 A 
ATOM     10  C   LIG d   1       3.930  -0.466 -12.902  0.00  0.00    -0.020 A 
ATOM     11  C   LIG d   1       4.076  -0.396 -11.522  0.00  0.00     0.127 A 
ATOM     12  O   LIG d   1       3.698   0.713 -10.850  0.00  0.00    -0.485 OA
ATOM     13  C   LIG d   1       3.899   0.913  -9.440  0.00  0.00     0.114 C 
ATOM     14  C   LIG d   1       5.124   0.059  -9.065  0.00  0.00     0.032 C 
ATOM     15  H   LIG d   1       6.013   0.319  -9.660  0.00  0.00     0.037 H 
ATOM     16  C   LIG d   1       5.410   0.170  -7.579  0.00  0.00    -0.024 C 
ATOM     17  H   LIG d   1       5.316   1.205  -7.242  0.00  0.00     0.031 H 
ATOM     18  C   LIG d   1       2.713   0.361  -8.653  0.00  0.00    -0.009 C 
ATOM     19  C   LIG d   1       2.965  -0.189  -7.274  0.00  0.00    -0.029 C 
ATOM     20  H   LIG d   1       2.271  -1.037  -7.137  0.00  0.00     0.031 H 
ATOM     21  H   LIG d   1       5.207  -2.625  -6.462  0.00  0.00     0.057 H 
ATOM     22  H   LIG d   1       3.616  -2.691  -7.246  0.00  0.00     0.057 H 
ATOM     23  H   LIG d   1       5.434  -3.462 -11.002  0.00  0.00     0.062 H 
ATOM     24  H   LIG d   1       5.196  -3.547 -13.457  0.00  0.00     0.062 H 
ATOM     25  H   LIG d   1       4.211  -1.640 -14.659  0.00  0.00     0.062 H 
ATOM     26  H   LIG d   1       3.505   0.368 -13.439  0.00  0.00     0.065 H 
ATOM     27  H   LIG d   1       2.201  -0.400  -9.256  0.00  0.00     0.031 H 
ATOM     28  H   LIG d   1       1.971   1.179  -8.552  0.00  0.00     0.031 H 
ENDROOT
BRANCH   1  29
ATOM     29  C   LIG d   1       4.504  -0.533  -5.372  0.00  0.00     0.101 C 
ATOM     30  H   LIG d   1       5.537  -0.272  -5.143  0.00  0.00     0.070 H 
ATOM     31  H   LIG d   1       3.842   0.260  -5.021  0.00  0.00     0.070 H 
BRANCH  29  32
ATOM     32  O   LIG d   1       4.161  -1.779  -4.711  0.00  0.00    -0.464 OA
BRANCH  32  33
ATOM     33  C   LIG d   1       3.818  -1.707  -3.415  0.00  0.00     0.307 C 
ATOM     34  O   LIG d   1       3.843  -2.702  -2.728  0.00  0.00    -0.251 OA
BRANCH  33  35
ATOM     35  C   LIG d   1       3.401  -0.388  -2.817  0.00  0.00     0.042 C 
ATOM     36  H   LIG d   1       3.345   0.365  -3.603  0.00  0.00     0.037 H 
ATOM     37  H   LIG d   1       2.424  -0.495  -2.346  0.00  0.00     0.037 H 
BRANCH  35  38
ATOM     38  C   LIG d   1       4.428   0.044  -1.769  0.00  0.00    -0.055 C 
ATOM     39  H   LIG d   1       5.028   0.864  -2.164  0.00  0.00     0.024 H 
ATOM     40  H   LIG d   1       3.911   0.374  -0.868  0.00  0.00     0.024 H 
ATOM     41  H   LIG d   1       5.078  -0.798  -1.528  0.00  0.00     0.024 H 
ENDBRANCH  35  38
ENDBRANCH  33  35
ENDBRANCH  32  33
ENDBRANCH  29  32
ENDBRANCH   1  29
BRANCH  16  42
ATOM     42  C   LIG d   1       6.821  -0.321  -7.252  0.00  0.00    -0.061 C 
ATOM     43  H   LIG d   1       7.357  -0.527  -8.179  0.00  0.00     0.023 H 
ATOM     44  H   LIG d   1       7.351   0.447  -6.689  0.00  0.00     0.023 H 
ATOM     45  H   LIG d   1       6.760  -1.231  -6.657  0.00  0.00     0.023 H 
ENDBRANCH  16  42
BRANCH  19  46
ATOM     46  C   LIG d   1       2.545   0.867  -6.245  0.00  0.00    -0.062 C 
ATOM     47  H   LIG d   1       1.468   1.032  -6.311  0.00  0.00     0.023 H 
ATOM     48  H   LIG d   1       2.798   0.520  -5.243  0.00  0.00     0.023 H 
ATOM     49  H   LIG d   1       3.068   1.802  -6.450  0.00  0.00     0.023 H 
ENDBRANCH  19  46
BRANCH  13  50
ATOM     50  C   LIG d   1       4.124   2.416  -9.164  0.00  0.00    -0.025 C 
ATOM     51  H   LIG d   1       5.176   2.592  -8.945  0.00  0.00     0.027 H 
ATOM     52  H   LIG d   1       3.833   2.994 -10.042  0.00  0.00     0.027 H 
ATOM     53  H   LIG d   1       3.518   2.723  -8.311  0.00  0.00     0.027 H 
ENDBRANCH  13  50
TORSDOF 8
ENDMDL
MODEL 3
REMARK VINA RESULT:      -5.5      3.042      5.815
REMARK  8 active torsions:
REMARK  status: ('A' for Active; 'I' for Inactive)
REMARK    1  A    between atoms: C_1  and  C_2 
REMARK    2  A    between atoms: C_2  and  C_3 
REMARK    3  A    between atoms: C_3  and  O_5 
REMARK    4  A    between atoms: O_5  and  C_6 
REMARK    5  A    between atoms: C_6  and  C_7 
REMARK    6  A    between atoms: C_19  and  C_29 
REMARK    7  A    between atoms: C_22  and  C_24 
REMARK    8  A    between atoms: C_26  and  C_28 
ROOT
ATOM      1  C   LIG d   1       5.530  -1.704  -5.053  0.00  0.00     0.034 C 
ATOM      2  C   LIG d   1       5.583  -2.075  -3.570  0.00  0.00     0.058 C 
ATOM      3  O   LIG d   1       6.953  -2.241  -3.128  0.00  0.00    -0.371 OA
ATOM      4  C   LIG d   1       7.636  -2.908  -4.159  0.00  0.00     0.094 C 
ATOM      5  H   LIG d   1       6.909  -3.637  -4.507  0.00  0.00     0.065 H 
ATOM      6  C   LIG d   1       8.868  -3.705  -3.923  0.00  0.00     0.023 A 
ATOM      7  C   LIG d   1       9.382  -4.007  -2.693  0.00  0.00    -0.053 A 
ATOM      8  C   LIG d   1      10.500  -4.822  -2.596  0.00  0.00    -0.061 A 
ATOM      9  C   LIG d   1      11.082  -5.325  -3.744  0.00  0.00    -0.058 A 
ATOM     10  C   LIG d   1      10.575  -5.007  -4.987  0.00  0.00    -0.020 A 
ATOM     11  C   LIG d   1       9.469  -4.174  -5.100  0.00  0.00     0.127 A 
ATOM     12  O   LIG d   1       8.978  -3.850  -6.316  0.00  0.00    -0.485 OA
ATOM     13  C   LIG d   1       7.902  -2.922  -6.533  0.00  0.00     0.114 C 
ATOM     14  C   LIG d   1       7.933  -1.954  -5.335  0.00  0.00     0.032 C 
ATOM     15  H   LIG d   1       8.908  -1.454  -5.228  0.00  0.00     0.037 H 
ATOM     16  C   LIG d   1       6.808  -0.942  -5.445  0.00  0.00    -0.024 C 
ATOM     17  H   LIG d   1       6.716  -0.573  -6.470  0.00  0.00     0.031 H 
ATOM     18  C   LIG d   1       6.559  -3.648  -6.485  0.00  0.00    -0.009 C 
ATOM     19  C   LIG d   1       5.358  -2.894  -5.981  0.00  0.00    -0.029 C 
ATOM     20  H   LIG d   1       4.728  -3.621  -5.439  0.00  0.00     0.031 H 
ATOM     21  H   LIG d   1       5.104  -1.293  -2.982  0.00  0.00     0.057 H 
ATOM     22  H   LIG d   1       5.044  -3.012  -3.417  0.00  0.00     0.057 H 
ATOM     23  H   LIG d   1       8.920  -3.615  -1.798  0.00  0.00     0.062 H 
ATOM     24  H   LIG d   1      10.907  -5.069  -1.627  0.00  0.00     0.062 H 
ATOM     25  H   LIG d   1      11.942  -5.975  -3.668  0.00  0.00     0.062 H 
ATOM     26  H   LIG d   1      11.040  -5.404  -5.877  0.00  0.00     0.065 H 
ATOM     27  H   LIG d   1       6.670  -4.575  -5.908  0.00  0.00     0.031 H 
ATOM     28  H   LIG d   1       6.328  -3.988  -7.514  0.00  0.00     0.031 H 
ENDROOT
BRANCH   1  29
ATOM     29  C   LIG d   1       4.335  -0.763  -5.260  0.00  0.00     0.101 C 
ATOM     30  H   LIG d   1       4.676   0.163  -5.723  0.00  0.00     0.070 H 
ATOM     31  H   LIG d   1       3.601  -1.245  -5.907  0.00  0.00     0.070 H 
BRANCH  29  32
ATOM     32  O   LIG d   1       3.726  -0.466  -3.975  0.00  0.00    -0.464 OA
BRANCH  32  33
ATOM     33  C   LIG d   1       3.289   0.788  -3.783  0.00  0.00     0.307 C 
ATOM     34  O   LIG d   1       2.745   1.383  -4.684  0.00  0.00    -0.251 OA
BRANCH  33  35
ATOM     35  C   LIG d   1       3.477   1.456  -2.445  0.00  0.00     0.042 C 
ATOM     36  H   LIG d   1       3.713   2.509  -2.596  0.00  0.00     0.037 H 
ATOM     37  H   LIG d   1       2.560   1.369  -1.863  0.00  0.00     0.037 H 
BRANCH  35  38
ATOM     38  C   LIG d   1       4.625   0.778  -1.694  0.00  0.00    -0.055 C 
ATOM     39  H   LIG d   1       4.791  -0.217  -2.104  0.00  0.00     0.024 H 
ATOM     40  H   LIG d   1       5.532   1.373  -1.803  0.00  0.00     0.024 H 
ATOM     41  H   LIG d   1       4.369   0.697  -0.637  0.00  0.00     0.024 H 
ENDBRANCH  35  38
ENDBRANCH  33  35
ENDBRANCH  32  33
ENDBRANCH  29  32
ENDBRANCH   1  29
BRANCH  16  42
ATOM     42  C   LIG d   1       7.050   0.251  -4.520  0.00  0.00    -0.061 C 
ATOM     43  H   LIG d   1       6.115   0.792  -4.375  0.00  0.00     0.023 H 
ATOM     44  H   LIG d   1       7.417  -0.104  -3.557  0.00  0.00     0.023 H 
ATOM     45  H   LIG d   1       7.788   0.915  -4.968  0.00  0.00     0.023 H 
ENDBRANCH  16  42
BRANCH  19  46
ATOM     46  C   LIG d   1       4.528  -2.439  -7.187  0.00  0.00    -0.062 C 
ATOM     47  H   LIG d   1       4.294  -3.300  -7.814  0.00  0.00     0.023 H 
ATOM     48  H   LIG d   1       3.601  -1.981  -6.840  0.00  0.00     0.023 H 
ATOM     49  H   LIG d   1       5.098  -1.712  -7.767  0.00  0.00     0.023 H 
ENDBRANCH  19  46
BRANCH  13  50
ATOM     50  C   LIG d   1       8.116  -2.197  -7.880  0.00  0.00    -0.025 C 
ATOM     51  H   LIG d   1       9.183  -2.066  -8.057  0.00  0.00     0.027 H 
ATOM     52  H   LIG d   1       7.684  -2.792  -8.686  0.00  0.00     0.027 H 
ATOM     53  H   LIG d   1       7.629  -1.222  -7.849  0.00  0.00     0.027 H 
ENDBRANCH  13  50
TORSDOF 8
ENDMDL
MODEL 4
REMARK VINA RESULT:      -5.5     10.881     14.211
REMARK  8 active torsions:
REMARK  status: ('A' for Active; 'I' for Inactive)
REMARK    1  A    between atoms: C_1  and  C_2 
REMARK    2  A    between atoms: C_2  and  C_3 
REMARK    3  A    between atoms: C_3  and  O_5 
REMARK    4  A    between atoms: O_5  and  C_6 
REMARK    5  A    between atoms: C_6  and  C_7 
REMARK    6  A    between atoms: C_19  and  C_29 
REMARK    7  A    between atoms: C_22  and  C_24 
REMARK    8  A    between atoms: C_26  and  C_28 
ROOT
ATOM      1  C   LIG d   1      11.346   8.534   0.456  0.00  0.00     0.034 C 
ATOM      2  C   LIG d   1      11.142   7.101   0.954  0.00  0.00     0.058 C 
ATOM      3  O   LIG d   1      11.341   6.148  -0.120  0.00  0.00    -0.371 OA
ATOM      4  C   LIG d   1      10.754   6.702  -1.270  0.00  0.00     0.094 C 
ATOM      5  H   LIG d   1       9.847   7.163  -0.889  0.00  0.00     0.065 H 
ATOM      6  C   LIG d   1      10.290   5.875  -2.414  0.00  0.00     0.023 A 
ATOM      7  C   LIG d   1      10.235   4.508  -2.421  0.00  0.00    -0.053 A 
ATOM      8  C   LIG d   1       9.714   3.847  -3.523  0.00  0.00    -0.061 A 
ATOM      9  C   LIG d   1       9.251   4.575  -4.603  0.00  0.00    -0.058 A 
ATOM     10  C   LIG d   1       9.322   5.953  -4.605  0.00  0.00    -0.020 A 
ATOM     11  C   LIG d   1       9.862   6.627  -3.517  0.00  0.00     0.127 A 
ATOM     12  O   LIG d   1       9.945   7.976  -3.521  0.00  0.00    -0.485 OA
ATOM     13  C   LIG d   1      10.574   8.751  -2.486  0.00  0.00     0.114 C 
ATOM     14  C   LIG d   1      11.633   7.828  -1.854  0.00  0.00     0.032 C 
ATOM     15  H   LIG d   1      12.353   7.450  -2.596  0.00  0.00     0.037 H 
ATOM     16  C   LIG d   1      12.342   8.539  -0.717  0.00  0.00    -0.024 C 
ATOM     17  H   LIG d   1      12.579   9.570  -0.992  0.00  0.00     0.031 H 
ATOM     18  C   LIG d   1       9.565   9.087  -1.390  0.00  0.00    -0.009 C 
ATOM     19  C   LIG d   1      10.065   9.224   0.023  0.00  0.00    -0.029 C 
ATOM     20  H   LIG d   1       9.267   8.841   0.683  0.00  0.00     0.031 H 
ATOM     21  H   LIG d   1      11.844   6.892   1.760  0.00  0.00     0.057 H 
ATOM     22  H   LIG d   1      10.124   6.998   1.337  0.00  0.00     0.057 H 
ATOM     23  H   LIG d   1      10.593   3.944  -1.572  0.00  0.00     0.062 H 
ATOM     24  H   LIG d   1       9.662   2.768  -3.532  0.00  0.00     0.062 H 
ATOM     25  H   LIG d   1       8.829   4.060  -5.454  0.00  0.00     0.062 H 
ATOM     26  H   LIG d   1       8.960   6.510  -5.455  0.00  0.00     0.065 H 
ATOM     27  H   LIG d   1       8.748   8.353  -1.413  0.00  0.00     0.031 H 
ATOM     28  H   LIG d   1       9.083  10.047  -1.664  0.00  0.00     0.031 H 
ENDROOT
BRANCH   1  29
ATOM     29  C   LIG d   1      11.960   9.346   1.604  0.00  0.00     0.101 C 
ATOM     30  H   LIG d   1      12.984   9.619   1.349  0.00  0.00     0.070 H 
ATOM     31  H   LIG d   1      11.372  10.250   1.765  0.00  0.00     0.070 H 
BRANCH  29  32
ATOM     32  O   LIG d   1      11.961   8.547   2.816  0.00  0.00    -0.464 OA
BRANCH  32  33
ATOM     33  C   LIG d   1      12.055   9.206   3.981  0.00  0.00     0.307 C 
ATOM     34  O   LIG d   1      12.160  10.411   3.987  0.00  0.00    -0.251 OA
BRANCH  33  35
ATOM     35  C   LIG d   1      12.031   8.446   5.283  0.00  0.00     0.042 C 
ATOM     36  H   LIG d   1      13.054   8.268   5.617  0.00  0.00     0.037 H 
ATOM     37  H   LIG d   1      11.500   9.029   6.035  0.00  0.00     0.037 H 
BRANCH  35  38
ATOM     38  C   LIG d   1      11.321   7.107   5.078  0.00  0.00    -0.055 C 
ATOM     39  H   LIG d   1      12.062   6.316   4.964  0.00  0.00     0.024 H 
ATOM     40  H   LIG d   1      10.692   6.893   5.943  0.00  0.00     0.024 H 
ATOM     41  H   LIG d   1      10.702   7.157   4.182  0.00  0.00     0.024 H 
ENDBRANCH  35  38
ENDBRANCH  33  35
ENDBRANCH  32  33
ENDBRANCH  29  32
ENDBRANCH   1  29
BRANCH  16  42
ATOM     42  C   LIG d   1      13.642   7.825  -0.346  0.00  0.00    -0.061 C 
ATOM     43  H   LIG d   1      14.177   7.550  -1.256  0.00  0.00     0.023 H 
ATOM     44  H   LIG d   1      14.263   8.489   0.254  0.00  0.00     0.023 H 
ATOM     45  H   LIG d   1      13.412   6.926   0.225  0.00  0.00     0.023 H 
ENDBRANCH  16  42
BRANCH  19  46
ATOM     46  C   LIG d   1      10.198  10.717   0.350  0.00  0.00    -0.062 C 
ATOM     47  H   LIG d   1      10.820  10.842   1.237  0.00  0.00     0.023 H 
ATOM     48  H   LIG d   1      10.658  11.234  -0.493  0.00  0.00     0.023 H 
ATOM     49  H   LIG d   1       9.209  11.137   0.538  0.00  0.00     0.023 H 
ENDBRANCH  19  46
BRANCH  13  50
ATOM     50  C   LIG d   1      11.196  10.022  -3.105  0.00  0.00    -0.025 C 
ATOM     51  H   LIG d   1      12.218   9.811  -3.418  0.00  0.00     0.027 H 
ATOM     52  H   LIG d   1      10.608  10.330  -3.970  0.00  0.00     0.027 H 
ATOM     53  H   LIG d   1      11.199  10.822  -2.365  0.00  0.00     0.027 H 
ENDBRANCH  13  50
TORSDOF 8
ENDMDL
MODEL 5
REMARK VINA RESULT:      -5.4      3.034      5.813
REMARK  8 active torsions:
REMARK  status: ('A' for Active; 'I' for Inactive)
REMARK    1  A    between atoms: C_1  and  C_2 
REMARK    2  A    between atoms: C_2  and  C_3 
REMARK    3  A    between atoms: C_3  and  O_5 
REMARK    4  A    between atoms: O_5  and  C_6 
REMARK    5  A    between atoms: C_6  and  C_7 
REMARK    6  A    between atoms: C_19  and  C_29 
REMARK    7  A    between atoms: C_22  and  C_24 
REMARK    8  A    between atoms: C_26  and  C_28 
ROOT
ATOM      1  C   LIG d   1       5.856  -1.093  -5.136  0.00  0.00     0.034 C 
ATOM      2  C   LIG d   1       6.526   0.276  -5.001  0.00  0.00     0.058 C 
ATOM      3  O   LIG d   1       7.859   0.256  -5.569  0.00  0.00    -0.371 OA
ATOM      4  C   LIG d   1       8.438  -0.973  -5.210  0.00  0.00     0.094 C 
ATOM      5  H   LIG d   1       8.099  -1.116  -4.187  0.00  0.00     0.065 H 
ATOM      6  C   LIG d   1       9.907  -1.180  -5.142  0.00  0.00     0.023 A 
ATOM      7  C   LIG d   1      10.844  -0.192  -5.262  0.00  0.00    -0.053 A 
ATOM      8  C   LIG d   1      12.189  -0.496  -5.108  0.00  0.00    -0.061 A 
ATOM      9  C   LIG d   1      12.569  -1.795  -4.828  0.00  0.00    -0.058 A 
ATOM     10  C   LIG d   1      11.626  -2.797  -4.724  0.00  0.00    -0.020 A 
ATOM     11  C   LIG d   1      10.278  -2.511  -4.898  0.00  0.00     0.127 A 
ATOM     12  O   LIG d   1       9.353  -3.491  -4.809  0.00  0.00    -0.485 OA
ATOM     13  C   LIG d   1       7.951  -3.308  -5.069  0.00  0.00     0.114 C 
ATOM     14  C   LIG d   1       7.857  -2.127  -6.054  0.00  0.00     0.032 C 
ATOM     15  H   LIG d   1       8.438  -2.302  -6.973  0.00  0.00     0.037 H 
ATOM     16  C   LIG d   1       6.406  -1.822  -6.375  0.00  0.00    -0.024 C 
ATOM     17  H   LIG d   1       5.842  -2.744  -6.539  0.00  0.00     0.031 H 
ATOM     18  C   LIG d   1       7.228  -2.882  -3.794  0.00  0.00    -0.009 C 
ATOM     19  C   LIG d   1       6.025  -1.986  -3.920  0.00  0.00    -0.029 C 
ATOM     20  H   LIG d   1       6.033  -1.316  -3.042  0.00  0.00     0.031 H 
ATOM     21  H   LIG d   1       5.924   1.027  -5.511  0.00  0.00     0.057 H 
ATOM     22  H   LIG d   1       6.594   0.536  -3.943  0.00  0.00     0.057 H 
ATOM     23  H   LIG d   1      10.541   0.823  -5.475  0.00  0.00     0.062 H 
ATOM     24  H   LIG d   1      12.933   0.281  -5.195  0.00  0.00     0.062 H 
ATOM     25  H   LIG d   1      13.615  -2.028  -4.690  0.00  0.00     0.062 H 
ATOM     26  H   LIG d   1      11.936  -3.808  -4.508  0.00  0.00     0.065 H 
ATOM     27  H   LIG d   1       7.949  -2.422  -3.105  0.00  0.00     0.031 H 
ATOM     28  H   LIG d   1       6.898  -3.805  -3.274  0.00  0.00     0.031 H 
ENDROOT
BRANCH   1  29
ATOM     29  C   LIG d   1       4.354  -0.861  -5.351  0.00  0.00     0.101 C 
ATOM     30  H   LIG d   1       4.131  -0.882  -6.418  0.00  0.00     0.070 H 
ATOM     31  H   LIG d   1       3.789  -1.646  -4.845  0.00  0.00     0.070 H 
BRANCH  29  32
ATOM     32  O   LIG d   1       3.981   0.431  -4.804  0.00  0.00    -0.464 OA
BRANCH  32  33
ATOM     33  C   LIG d   1       3.235   0.429  -3.689  0.00  0.00     0.307 C 
ATOM     34  O   LIG d   1       2.302  -0.332  -3.588  0.00  0.00    -0.251 OA
BRANCH  33  35
ATOM     35  C   LIG d   1       3.559   1.377  -2.563  0.00  0.00     0.042 C 
ATOM     36  H   LIG d   1       3.921   2.320  -2.975  0.00  0.00     0.037 H 
ATOM     37  H   LIG d   1       2.662   1.560  -1.972  0.00  0.00     0.037 H 
BRANCH  35  38
ATOM     38  C   LIG d   1       4.641   0.762  -1.673  0.00  0.00    -0.055 C 
ATOM     39  H   LIG d   1       4.629   1.247  -0.697  0.00  0.00     0.024 H 
ATOM     40  H   LIG d   1       4.447  -0.304  -1.551  0.00  0.00     0.024 H 
ATOM     41  H   LIG d   1       5.617   0.903  -2.137  0.00  0.00     0.024 H 
ENDBRANCH  35  38
ENDBRANCH  33  35
ENDBRANCH  32  33
ENDBRANCH  29  32
ENDBRANCH   1  29
BRANCH  16  42
ATOM     42  C   LIG d   1       6.291  -0.953  -7.628  0.00  0.00    -0.061 C 
ATOM     43  H   LIG d   1       5.240  -0.757  -7.838  0.00  0.00     0.023 H 
ATOM     44  H   LIG d   1       6.811  -0.009  -7.464  0.00  0.00     0.023 H 
ATOM     45  H   LIG d   1       6.739  -1.473  -8.474  0.00  0.00     0.023 H 
ENDBRANCH  16  42
BRANCH  19  46
ATOM     46  C   LIG d   1       4.762  -2.844  -3.781  0.00  0.00    -0.062 C 
ATOM     47  H   LIG d   1       5.037  -3.846  -3.450  0.00  0.00     0.023 H 
ATOM     48  H   LIG d   1       4.092  -2.390  -3.050  0.00  0.00     0.023 H 
ATOM     49  H   LIG d   1       4.258  -2.907  -4.747  0.00  0.00     0.023 H 
ENDBRANCH  19  46
BRANCH  13  50
ATOM     50  C   LIG d   1       7.365  -4.611  -5.656  0.00  0.00    -0.025 C 
ATOM     51  H   LIG d   1       6.496  -4.375  -6.269  0.00  0.00     0.027 H 
ATOM     52  H   LIG d   1       8.119  -5.104  -6.270  0.00  0.00     0.027 H 
ATOM     53  H   LIG d   1       7.068  -5.274  -4.843  0.00  0.00     0.027 H 
ENDBRANCH  13  50
TORSDOF 8
ENDMDL
MODEL 6
REMARK VINA RESULT:      -5.3     10.406     12.773
REMARK  8 active torsions:
REMARK  status: ('A' for Active; 'I' for Inactive)
REMARK    1  A    between atoms: C_1  and  C_2 
REMARK    2  A    between atoms: C_2  and  C_3 
REMARK    3  A    between atoms: C_3  and  O_5 
REMARK    4  A    between atoms: O_5  and  C_6 
REMARK    5  A    between atoms: C_6  and  C_7 
REMARK    6  A    between atoms: C_19  and  C_29 
REMARK    7  A    between atoms: C_22  and  C_24 
REMARK    8  A    between atoms: C_26  and  C_28 
ROOT
ATOM      1  C   LIG d   1      11.227   8.976  -1.421  0.00  0.00     0.034 C 
ATOM      2  C   LIG d   1      10.842   9.115  -2.895  0.00  0.00     0.058 C 
ATOM      3  O   LIG d   1       9.926   8.063  -3.291  0.00  0.00    -0.371 OA
ATOM      4  C   LIG d   1      10.370   6.882  -2.673  0.00  0.00     0.094 C 
ATOM      5  H   LIG d   1      11.451   6.950  -2.755  0.00  0.00     0.065 H 
ATOM      6  C   LIG d   1      10.047   5.530  -3.197  0.00  0.00     0.023 A 
ATOM      7  C   LIG d   1       9.433   5.280  -4.393  0.00  0.00    -0.053 A 
ATOM      8  C   LIG d   1       9.249   3.970  -4.811  0.00  0.00    -0.061 A 
ATOM      9  C   LIG d   1       9.693   2.929  -4.018  0.00  0.00    -0.058 A 
ATOM     10  C   LIG d   1      10.298   3.180  -2.803  0.00  0.00    -0.020 A 
ATOM     11  C   LIG d   1      10.468   4.485  -2.361  0.00  0.00     0.127 A 
ATOM     12  O   LIG d   1      11.048   4.734  -1.167  0.00  0.00    -0.485 OA
ATOM     13  C   LIG d   1      11.178   6.043  -0.587  0.00  0.00     0.114 C 
ATOM     14  C   LIG d   1      10.022   6.878  -1.169  0.00  0.00     0.032 C 
ATOM     15  H   LIG d   1       9.039   6.424  -0.972  0.00  0.00     0.037 H 
ATOM     16  C   LIG d   1      10.082   8.300  -0.645  0.00  0.00    -0.024 C 
ATOM     17  H   LIG d   1      10.307   8.311   0.424  0.00  0.00     0.031 H 
ATOM     18  C   LIG d   1      12.478   6.699  -1.048  0.00  0.00    -0.009 C 
ATOM     19  C   LIG d   1      12.510   8.197  -1.189  0.00  0.00    -0.029 C 
ATOM     20  H   LIG d   1      13.169   8.423  -2.046  0.00  0.00     0.031 H 
ATOM     21  H   LIG d   1      10.374  10.085  -3.059  0.00  0.00     0.057 H 
ATOM     22  H   LIG d   1      11.744   9.049  -3.507  0.00  0.00     0.057 H 
ATOM     23  H   LIG d   1       9.093   6.097  -5.012  0.00  0.00     0.062 H 
ATOM     24  H   LIG d   1       8.771   3.766  -5.757  0.00  0.00     0.062 H 
ATOM     25  H   LIG d   1       9.567   1.910  -4.352  0.00  0.00     0.062 H 
ATOM     26  H   LIG d   1      10.638   2.358  -2.191  0.00  0.00     0.065 H 
ATOM     27  H   LIG d   1      12.798   6.241  -1.993  0.00  0.00     0.031 H 
ATOM     28  H   LIG d   1      13.268   6.419  -0.322  0.00  0.00     0.031 H 
ENDROOT
BRANCH   1  29
ATOM     29  C   LIG d   1      11.418  10.388  -0.851  0.00  0.00     0.101 C 
ATOM     30  H   LIG d   1      10.714  10.549  -0.034  0.00  0.00     0.070 H 
ATOM     31  H   LIG d   1      12.438  10.494  -0.478  0.00  0.00     0.070 H 
BRANCH  29  32
ATOM     32  O   LIG d   1      11.180  11.367  -1.895  0.00  0.00    -0.464 OA
BRANCH  32  33
ATOM     33  C   LIG d   1      10.345  12.377  -1.606  0.00  0.00     0.307 C 
ATOM     34  O   LIG d   1      10.267  12.790  -0.472  0.00  0.00    -0.251 OA
BRANCH  33  35
ATOM     35  C   LIG d   1       9.502  12.994  -2.692  0.00  0.00     0.042 C 
ATOM     36  H   LIG d   1       8.963  13.852  -2.289  0.00  0.00     0.037 H 
ATOM     37  H   LIG d   1      10.145  13.320  -3.510  0.00  0.00     0.037 H 
BRANCH  35  38
ATOM     38  C   LIG d   1       8.500  11.961  -3.210  0.00  0.00    -0.055 C 
ATOM     39  H   LIG d   1       8.006  11.479  -2.367  0.00  0.00     0.024 H 
ATOM     40  H   LIG d   1       7.756  12.457  -3.833  0.00  0.00     0.024 H 
ATOM     41  H   LIG d   1       9.026  11.209  -3.801  0.00  0.00     0.024 H 
ENDBRANCH  35  38
ENDBRANCH  33  35
ENDBRANCH  32  33
ENDBRANCH  29  32
ENDBRANCH   1  29
BRANCH  16  42
ATOM     42  C   LIG d   1       8.755   9.026  -0.869  0.00  0.00    -0.061 C 
ATOM     43  H   LIG d   1       8.497   8.989  -1.928  0.00  0.00     0.023 H 
ATOM     44  H   LIG d   1       7.973   8.540  -0.287  0.00  0.00     0.023 H 
ATOM     45  H   LIG d   1       8.851  10.065  -0.555  0.00  0.00     0.023 H 
ENDBRANCH  16  42
BRANCH  19  46
ATOM     46  C   LIG d   1      13.208   8.787   0.042  0.00  0.00    -0.062 C 
ATOM     47  H   LIG d   1      13.877   9.591  -0.268  0.00  0.00     0.023 H 
ATOM     48  H   LIG d   1      12.459   9.183   0.729  0.00  0.00     0.023 H 
ATOM     49  H   LIG d   1      13.784   8.008   0.541  0.00  0.00     0.023 H 
ENDBRANCH  19  46
BRANCH  13  50
ATOM     50  C   LIG d   1      11.105   5.930   0.952  0.00  0.00    -0.025 C 
ATOM     51  H   LIG d   1      10.626   4.990   1.226  0.00  0.00     0.027 H 
ATOM     52  H   LIG d   1      12.112   5.959   1.367  0.00  0.00     0.027 H 
ATOM     53  H   LIG d   1      10.525   6.763   1.350  0.00  0.00     0.027 H 
ENDBRANCH  13  50
TORSDOF 8
ENDMDL
MODEL 7
REMARK VINA RESULT:      -5.1     10.807     12.232
REMARK  8 active torsions:
REMARK  status: ('A' for Active; 'I' for Inactive)
REMARK    1  A    between atoms: C_1  and  C_2 
REMARK    2  A    between atoms: C_2  and  C_3 
REMARK    3  A    between atoms: C_3  and  O_5 
REMARK    4  A    between atoms: O_5  and  C_6 
REMARK    5  A    between atoms: C_6  and  C_7 
REMARK    6  A    between atoms: C_19  and  C_29 
REMARK    7  A    between atoms: C_22  and  C_24 
REMARK    8  A    between atoms: C_26  and  C_28 
ROOT
ATOM      1  C   LIG d   1       9.991   9.744  -5.854  0.00  0.00     0.034 C 
ATOM      2  C   LIG d   1       9.547  10.527  -4.617  0.00  0.00     0.058 C 
ATOM      3  O   LIG d   1      10.252  10.070  -3.436  0.00  0.00    -0.371 OA
ATOM      4  C   LIG d   1      10.335   8.670  -3.527  0.00  0.00     0.094 C 
ATOM      5  H   LIG d   1       9.365   8.390  -3.929  0.00  0.00     0.065 H 
ATOM      6  C   LIG d   1      10.506   7.796  -2.339  0.00  0.00     0.023 A 
ATOM      7  C   LIG d   1      10.447   8.219  -1.040  0.00  0.00    -0.053 A 
ATOM      8  C   LIG d   1      10.549   7.296  -0.010  0.00  0.00    -0.061 A 
ATOM      9  C   LIG d   1      10.706   5.954  -0.306  0.00  0.00    -0.058 A 
ATOM     10  C   LIG d   1      10.783   5.528  -1.616  0.00  0.00    -0.020 A 
ATOM     11  C   LIG d   1      10.704   6.444  -2.657  0.00  0.00     0.127 A 
ATOM     12  O   LIG d   1      10.793   6.032  -3.940  0.00  0.00    -0.485 OA
ATOM     13  C   LIG d   1      10.819   6.915  -5.075  0.00  0.00     0.114 C 
ATOM     14  C   LIG d   1      11.401   8.245  -4.559  0.00  0.00     0.032 C 
ATOM     15  H   LIG d   1      12.394   8.115  -4.101  0.00  0.00     0.037 H 
ATOM     16  C   LIG d   1      11.444   9.270  -5.676  0.00  0.00    -0.024 C 
ATOM     17  H   LIG d   1      11.799   8.818  -6.605  0.00  0.00     0.031 H 
ATOM     18  C   LIG d   1       9.398   7.206  -5.551  0.00  0.00    -0.009 C 
ATOM     19  C   LIG d   1       9.114   8.547  -6.174  0.00  0.00    -0.029 C 
ATOM     20  H   LIG d   1       8.088   8.826  -5.878  0.00  0.00     0.031 H 
ATOM     21  H   LIG d   1       9.742  11.589  -4.769  0.00  0.00     0.057 H 
ATOM     22  H   LIG d   1       8.475  10.383  -4.469  0.00  0.00     0.057 H 
ATOM     23  H   LIG d   1      10.319   9.268  -0.814  0.00  0.00     0.062 H 
ATOM     24  H   LIG d   1      10.497   7.622   1.017  0.00  0.00     0.062 H 
ATOM     25  H   LIG d   1      10.767   5.233   0.495  0.00  0.00     0.062 H 
ATOM     26  H   LIG d   1      10.908   4.478  -1.835  0.00  0.00     0.065 H 
ATOM     27  H   LIG d   1       8.697   7.039  -4.722  0.00  0.00     0.031 H 
ATOM     28  H   LIG d   1       9.132   6.432  -6.299  0.00  0.00     0.031 H 
ENDROOT
BRANCH   1  29
ATOM     29  C   LIG d   1       9.948  10.700  -7.055  0.00  0.00     0.101 C 
ATOM     30  H   LIG d   1      10.954  10.830  -7.453  0.00  0.00     0.070 H 
ATOM     31  H   LIG d   1       9.302  10.283  -7.828  0.00  0.00     0.070 H 
BRANCH  29  32
ATOM     32  O   LIG d   1       9.426  11.986  -6.630  0.00  0.00    -0.464 OA
BRANCH  32  33
ATOM     33  C   LIG d   1       9.769  13.056  -7.364  0.00  0.00     0.307 C 
ATOM     34  O   LIG d   1       9.057  13.422  -8.269  0.00  0.00    -0.251 OA
BRANCH  33  35
ATOM     35  C   LIG d   1      11.044  13.801  -7.060  0.00  0.00     0.042 C 
ATOM     36  H   LIG d   1      11.894  13.235  -7.442  0.00  0.00     0.037 H 
ATOM     37  H   LIG d   1      11.016  14.780  -7.539  0.00  0.00     0.037 H 
BRANCH  35  38
ATOM     38  C   LIG d   1      11.185  13.976  -5.547  0.00  0.00    -0.055 C 
ATOM     39  H   LIG d   1      11.451  15.009  -5.323  0.00  0.00     0.024 H 
ATOM     40  H   LIG d   1      10.239  13.732  -5.064  0.00  0.00     0.024 H 
ATOM     41  H   LIG d   1      11.966  13.311  -5.176  0.00  0.00     0.024 H 
ENDBRANCH  35  38
ENDBRANCH  33  35
ENDBRANCH  32  33
ENDBRANCH  29  32
ENDBRANCH   1  29
BRANCH  16  42
ATOM     42  C   LIG d   1      12.369  10.434  -5.319  0.00  0.00    -0.061 C 
ATOM     43  H   LIG d   1      13.382  10.208  -5.651  0.00  0.00     0.023 H 
ATOM     44  H   LIG d   1      12.019  11.341  -5.812  0.00  0.00     0.023 H 
ATOM     45  H   LIG d   1      12.365  10.583  -4.239  0.00  0.00     0.023 H 
ENDBRANCH  16  42
BRANCH  19  46
ATOM     46  C   LIG d   1       9.080   8.378  -7.698  0.00  0.00    -0.062 C 
ATOM     47  H   LIG d   1       8.801   9.324  -8.163  0.00  0.00     0.023 H 
ATOM     48  H   LIG d   1      10.065   8.075  -8.053  0.00  0.00     0.023 H 
ATOM     49  H   LIG d   1       8.347   7.614  -7.962  0.00  0.00     0.023 H 
ENDBRANCH  19  46
BRANCH  13  50
ATOM     50  C   LIG d   1      11.683   6.288  -6.191  0.00  0.00    -0.025 C 
ATOM     51  H   LIG d   1      11.075   6.143  -7.083  0.00  0.00     0.027 H 
ATOM     52  H   LIG d   1      12.515   6.954  -6.423  0.00  0.00     0.027 H 
ATOM     53  H   LIG d   1      12.071   5.327  -5.854  0.00  0.00     0.027 H 
ENDBRANCH  13  50
TORSDOF 8
ENDMDL
MODEL 8
REMARK VINA RESULT:      -5.1      2.880      6.211
REMARK  8 active torsions:
REMARK  status: ('A' for Active; 'I' for Inactive)
REMARK    1  A    between atoms: C_1  and  C_2 
REMARK    2  A    between atoms: C_2  and  C_3 
REMARK    3  A    between atoms: C_3  and  O_5 
REMARK    4  A    between atoms: O_5  and  C_6 
REMARK    5  A    between atoms: C_6  and  C_7 
REMARK    6  A    between atoms: C_19  and  C_29 
REMARK    7  A    between atoms: C_22  and  C_24 
REMARK    8  A    between atoms: C_26  and  C_28 
ROOT
ATOM      1  C   LIG d   1       5.583  -1.497  -5.346  0.00  0.00     0.034 C 
ATOM      2  C   LIG d   1       4.413  -2.243  -4.702  0.00  0.00     0.058 C 
ATOM      3  O   LIG d   1       4.747  -3.638  -4.486  0.00  0.00    -0.371 OA
ATOM      4  C   LIG d   1       5.461  -4.065  -5.618  0.00  0.00     0.094 C 
ATOM      5  H   LIG d   1       4.942  -3.578  -6.438  0.00  0.00     0.065 H 
ATOM      6  C   LIG d   1       5.538  -5.491  -6.029  0.00  0.00     0.023 A 
ATOM      7  C   LIG d   1       4.817  -6.508  -5.467  0.00  0.00    -0.053 A 
ATOM      8  C   LIG d   1       4.919  -7.791  -5.985  0.00  0.00    -0.061 A 
ATOM      9  C   LIG d   1       5.744  -8.028  -7.068  0.00  0.00    -0.058 A 
ATOM     10  C   LIG d   1       6.485  -7.007  -7.626  0.00  0.00    -0.020 A 
ATOM     11  C   LIG d   1       6.410  -5.722  -7.103  0.00  0.00     0.127 A 
ATOM     12  O   LIG d   1       7.144  -4.722  -7.638  0.00  0.00    -0.485 OA
ATOM     13  C   LIG d   1       7.205  -3.388  -7.105  0.00  0.00     0.114 C 
ATOM     14  C   LIG d   1       6.906  -3.522  -5.600  0.00  0.00     0.032 C 
ATOM     15  H   LIG d   1       7.602  -4.210  -5.096  0.00  0.00     0.037 H 
ATOM     16  C   LIG d   1       6.911  -2.157  -4.937  0.00  0.00    -0.024 C 
ATOM     17  H   LIG d   1       7.748  -1.554  -5.297  0.00  0.00     0.031 H 
ATOM     18  C   LIG d   1       6.094  -2.528  -7.704  0.00  0.00    -0.009 C 
ATOM     19  C   LIG d   1       5.509  -1.426  -6.861  0.00  0.00    -0.029 C 
ATOM     20  H   LIG d   1       4.438  -1.362  -7.118  0.00  0.00     0.031 H 
ATOM     21  H   LIG d   1       4.165  -1.778  -3.748  0.00  0.00     0.057 H 
ATOM     22  H   LIG d   1       3.545  -2.184  -5.360  0.00  0.00     0.057 H 
ATOM     23  H   LIG d   1       4.170  -6.316  -4.624  0.00  0.00     0.062 H 
ATOM     24  H   LIG d   1       4.348  -8.597  -5.550  0.00  0.00     0.062 H 
ATOM     25  H   LIG d   1       5.809  -9.024  -7.483  0.00  0.00     0.062 H 
ATOM     26  H   LIG d   1       7.128  -7.205  -8.470  0.00  0.00     0.065 H 
ATOM     27  H   LIG d   1       5.283  -3.179  -8.058  0.00  0.00     0.031 H 
ATOM     28  H   LIG d   1       6.496  -2.060  -8.626  0.00  0.00     0.031 H 
ENDROOT
BRANCH   1  29
ATOM     29  C   LIG d   1       5.580  -0.061  -4.803  0.00  0.00     0.101 C 
ATOM     30  H   LIG d   1       6.297   0.020  -3.986  0.00  0.00     0.070 H 
ATOM     31  H   LIG d   1       5.856   0.630  -5.600  0.00  0.00     0.070 H 
BRANCH  29  32
ATOM     32  O   LIG d   1       4.252   0.268  -4.315  0.00  0.00    -0.464 OA
BRANCH  32  33
ATOM     33  C   LIG d   1       4.176   1.126  -3.286  0.00  0.00     0.307 C 
ATOM     34  O   LIG d   1       3.615   2.188  -3.424  0.00  0.00    -0.251 OA
BRANCH  33  35
ATOM     35  C   LIG d   1       4.791   0.766  -1.957  0.00  0.00     0.042 C 
ATOM     36  H   LIG d   1       5.877   0.831  -2.031  0.00  0.00     0.037 H 
ATOM     37  H   LIG d   1       4.437   1.458  -1.193  0.00  0.00     0.037 H 
BRANCH  35  38
ATOM     38  C   LIG d   1       4.390  -0.661  -1.579  0.00  0.00    -0.055 C 
ATOM     39  H   LIG d   1       3.327  -0.690  -1.342  0.00  0.00     0.024 H 
ATOM     40  H   LIG d   1       4.593  -1.329  -2.416  0.00  0.00     0.024 H 
ATOM     41  H   LIG d   1       4.964  -0.982  -0.710  0.00  0.00     0.024 H 
ENDBRANCH  35  38
ENDBRANCH  33  35
ENDBRANCH  32  33
ENDBRANCH  29  32
ENDBRANCH   1  29
BRANCH  16  42
ATOM     42  C   LIG d   1       7.024  -2.285  -3.418  0.00  0.00    -0.061 C 
ATOM     43  H   LIG d   1       7.853  -2.948  -3.170  0.00  0.00     0.023 H 
ATOM     44  H   LIG d   1       7.204  -1.301  -2.983  0.00  0.00     0.023 H 
ATOM     45  H   LIG d   1       6.097  -2.695  -3.017  0.00  0.00     0.023 H 
ENDBRANCH  16  42
BRANCH  19  46
ATOM     46  C   LIG d   1       6.127  -0.094  -7.305  0.00  0.00    -0.062 C 
ATOM     47  H   LIG d   1       6.081   0.620  -6.482  0.00  0.00     0.023 H 
ATOM     48  H   LIG d   1       7.167  -0.253  -7.591  0.00  0.00     0.023 H 
ATOM     49  H   LIG d   1       5.570   0.298  -8.156  0.00  0.00     0.023 H 
ENDBRANCH  19  46
BRANCH  13  50
ATOM     50  C   LIG d   1       8.603  -2.791  -7.376  0.00  0.00    -0.025 C 
ATOM     51  H   LIG d   1       9.100  -3.368  -8.156  0.00  0.00     0.027 H 
ATOM     52  H   LIG d   1       8.500  -1.755  -7.699  0.00  0.00     0.027 H 
ATOM     53  H   LIG d   1       9.197  -2.829  -6.462  0.00  0.00     0.027 H 
ENDBRANCH  13  50
TORSDOF 8
ENDMDL
MODEL 9
REMARK VINA RESULT:      -5.0     10.514     13.032
REMARK  8 active torsions:
REMARK  status: ('A' for Active; 'I' for Inactive)
REMARK    1  A    between atoms: C_1  and  C_2 
REMARK    2  A    between atoms: C_2  and  C_3 
REMARK    3  A    between atoms: C_3  and  O_5 
REMARK    4  A    between atoms: O_5  and  C_6 
REMARK    5  A    between atoms: C_6  and  C_7 
REMARK    6  A    between atoms: C_19  and  C_29 
REMARK    7  A    between atoms: C_22  and  C_24 
REMARK    8  A    between atoms: C_26  and  C_28 
ROOT
ATOM      1  C   LIG d   1      11.475   7.846  -0.320  0.00  0.00     0.034 C 
ATOM      2  C   LIG d   1      10.029   7.647  -0.779  0.00  0.00     0.058 C 
ATOM      3  O   LIG d   1       9.760   6.247  -1.046  0.00  0.00    -0.371 OA
ATOM      4  C   LIG d   1      10.898   5.729  -1.688  0.00  0.00     0.094 C 
ATOM      5  H   LIG d   1      11.195   6.535  -2.354  0.00  0.00     0.065 H 
ATOM      6  C   LIG d   1      10.851   4.529  -2.563  0.00  0.00     0.023 A 
ATOM      7  C   LIG d   1       9.707   3.897  -2.965  0.00  0.00    -0.053 A 
ATOM      8  C   LIG d   1       9.784   2.827  -3.844  0.00  0.00    -0.061 A 
ATOM      9  C   LIG d   1      11.018   2.413  -4.311  0.00  0.00    -0.058 A 
ATOM     10  C   LIG d   1      12.174   3.039  -3.893  0.00  0.00    -0.020 A 
ATOM     11  C   LIG d   1      12.113   4.097  -2.996  0.00  0.00     0.127 A 
ATOM     12  O   LIG d   1      13.244   4.704  -2.575  0.00  0.00    -0.485 OA
ATOM     13  C   LIG d   1      13.285   5.739  -1.578  0.00  0.00     0.114 C 
ATOM     14  C   LIG d   1      12.050   5.511  -0.685  0.00  0.00     0.032 C 
ATOM     15  H   LIG d   1      12.033   4.502  -0.246  0.00  0.00     0.037 H 
ATOM     16  C   LIG d   1      11.975   6.577   0.392  0.00  0.00    -0.024 C 
ATOM     17  H   LIG d   1      12.961   6.763   0.825  0.00  0.00     0.031 H 
ATOM     18  C   LIG d   1      13.115   7.109  -2.231  0.00  0.00    -0.009 C 
ATOM     19  C   LIG d   1      12.435   8.196  -1.443  0.00  0.00    -0.029 C 
ATOM     20  H   LIG d   1      11.861   8.803  -2.165  0.00  0.00     0.031 H 
ATOM     21  H   LIG d   1       9.349   8.006  -0.008  0.00  0.00     0.057 H 
ATOM     22  H   LIG d   1       9.862   8.220  -1.693  0.00  0.00     0.057 H 
ATOM     23  H   LIG d   1       8.745   4.228  -2.601  0.00  0.00     0.062 H 
ATOM     24  H   LIG d   1       8.885   2.327  -4.169  0.00  0.00     0.062 H 
ATOM     25  H   LIG d   1      11.077   1.591  -5.010  0.00  0.00     0.062 H 
ATOM     26  H   LIG d   1      13.132   2.704  -4.263  0.00  0.00     0.065 H 
ATOM     27  H   LIG d   1      12.604   6.990  -3.195  0.00  0.00     0.031 H 
ATOM     28  H   LIG d   1      14.127   7.478  -2.497  0.00  0.00     0.031 H 
ENDROOT
BRANCH   1  29
ATOM     29  C   LIG d   1      11.489   8.997   0.695  0.00  0.00     0.101 C 
ATOM     30  H   LIG d   1      11.501   8.590   1.706  0.00  0.00     0.070 H 
ATOM     31  H   LIG d   1      12.379   9.608   0.538  0.00  0.00     0.070 H 
BRANCH  29  32
ATOM     32  O   LIG d   1      10.303   9.815   0.516  0.00  0.00    -0.464 OA
BRANCH  32  33
ATOM     33  C   LIG d   1      10.492  11.131   0.334  0.00  0.00     0.307 C 
ATOM     34  O   LIG d   1      10.379  11.892   1.267  0.00  0.00    -0.251 OA
BRANCH  33  35
ATOM     35  C   LIG d   1      10.843  11.661  -1.032  0.00  0.00     0.042 C 
ATOM     36  H   LIG d   1      10.787  12.750  -1.024  0.00  0.00     0.037 H 
ATOM     37  H   LIG d   1      11.855  11.352  -1.293  0.00  0.00     0.037 H 
BRANCH  35  38
ATOM     38  C   LIG d   1       9.857  11.108  -2.063  0.00  0.00    -0.055 C 
ATOM     39  H   LIG d   1      10.061  10.050  -2.230  0.00  0.00     0.024 H 
ATOM     40  H   LIG d   1       8.839  11.228  -1.693  0.00  0.00     0.024 H 
ATOM     41  H   LIG d   1       9.969  11.651  -3.002  0.00  0.00     0.024 H 
ENDBRANCH  35  38
ENDBRANCH  33  35
ENDBRANCH  32  33
ENDBRANCH  29  32
ENDBRANCH   1  29
BRANCH  16  42
ATOM     42  C   LIG d   1      11.024   6.158   1.514  0.00  0.00    -0.061 C 
ATOM     43  H   LIG d   1      11.581   5.612   2.276  0.00  0.00     0.023 H 
ATOM     44  H   LIG d   1      10.575   7.046   1.960  0.00  0.00     0.023 H 
ATOM     45  H   LIG d   1      10.241   5.519   1.107  0.00  0.00     0.023 H 
ENDBRANCH  16  42
BRANCH  19  46
ATOM     46  C   LIG d   1      13.510   9.130  -0.873  0.00  0.00    -0.062 C 
ATOM     47  H   LIG d   1      14.200   9.419  -1.668  0.00  0.00     0.023 H 
ATOM     48  H   LIG d   1      13.037  10.021  -0.461  0.00  0.00     0.023 H 
ATOM     49  H   LIG d   1      14.060   8.613  -0.086  0.00  0.00     0.023 H 
ENDBRANCH  19  46
BRANCH  13  50
ATOM     50  C   LIG d   1      14.608   5.637  -0.788  0.00  0.00    -0.025 C 
ATOM     51  H   LIG d   1      15.087   6.615  -0.753  0.00  0.00     0.027 H 
ATOM     52  H   LIG d   1      14.401   5.298   0.227  0.00  0.00     0.027 H 
ATOM     53  H   LIG d   1      15.271   4.925  -1.280  0.00  0.00     0.027 H 
ENDBRANCH  13  50
TORSDOF 8
ENDMDL
