MODEL 1
REMARK VINA RESULT:      -6.5      0.000      0.000
REMARK  11 active torsions:
REMARK  status: ('A' for Active; 'I' for Inactive)
REMARK    1  A    between atoms: C_1  and  O_2 
REMARK    2  A    between atoms: O_2  and  C_3 
REMARK    3  A    between atoms: C_6  and  C_9 
REMARK    4  A    between atoms: C_9  and  N_56 
REMARK    5  A    between atoms: C_10  and  C_11 
REMARK    6  A    between atoms: C_10  and  N_56 
REMARK    7  A    between atoms: C_11  and  C_12 
REMARK    8  A    between atoms: C_12  and  C_14 
REMARK    9  A    between atoms: C_12  and  C_22 
REMARK   10  A    between atoms: C_17  and  O_20 
REMARK   11  A    between atoms: O_20  and  C_21 
ROOT
ATOM      1  C   LIG d   1       4.559  -0.923  -7.297  0.00  0.00     0.014 C 
ATOM      2  H   LIG d   1       3.964  -0.424  -8.062  0.00  0.00     0.040 H 
ENDROOT
BRANCH   1   3
ATOM      3  C   LIG d   1       6.040  -0.617  -7.523  0.00  0.00    -0.002 C 
ATOM      4  H   LIG d   1       6.552  -1.522  -7.852  0.00  0.00     0.033 H 
ATOM      5  H   LIG d   1       6.486  -0.268  -6.590  0.00  0.00     0.033 H 
BRANCH   3   6
ATOM      6  C   LIG d   1       6.182   0.466  -8.593  0.00  0.00    -0.033 C 
ATOM      7  H   LIG d   1       6.103   0.012  -9.581  0.00  0.00     0.081 H 
ATOM      8  H   LIG d   1       7.153   0.951  -8.493  0.00  0.00     0.081 H 
BRANCH   6   9
ATOM      9  N   LIG d   1       5.109   1.463  -8.418  0.00  0.00     0.230 N 
ATOM     10  H   LIG d   1       4.349   1.049  -7.866  0.00  0.00     0.202 HD
ATOM     11  H   LIG d   1       5.485   2.281  -7.925  0.00  0.00     0.202 HD
BRANCH   9  12
ATOM     12  C   LIG d   1       4.584   1.885  -9.730  0.00  0.00    -0.008 C 
ATOM     13  H   LIG d   1       5.407   1.988 -10.438  0.00  0.00     0.087 H 
ATOM     14  H   LIG d   1       4.071   2.841  -9.629  0.00  0.00     0.087 H 
BRANCH  12  15
ATOM     15  C   LIG d   1       3.616   0.846 -10.232  0.00  0.00    -0.003 A 
ATOM     16  C   LIG d   1       3.864   0.190 -11.423  0.00  0.00    -0.050 A 
ATOM     17  C   LIG d   1       2.978  -0.764 -11.886  0.00  0.00    -0.019 A 
ATOM     18  H   LIG d   1       4.752   0.422 -11.992  0.00  0.00     0.062 H 
ATOM     19  C   LIG d   1       1.838  -1.063 -11.154  0.00  0.00     0.120 A 
ATOM     20  H   LIG d   1       3.170  -1.273 -12.819  0.00  0.00     0.065 H 
ATOM     21  C   LIG d   1       1.591  -0.404  -9.959  0.00  0.00    -0.019 A 
ATOM     22  C   LIG d   1       2.479   0.549  -9.501  0.00  0.00    -0.050 A 
ATOM     23  H   LIG d   1       0.704  -0.634  -9.388  0.00  0.00     0.065 H 
ATOM     24  H   LIG d   1       2.288   1.064  -8.570  0.00  0.00     0.062 H 
BRANCH  19  25
ATOM     25  O   LIG d   1       0.964  -2.000 -11.607  0.00  0.00    -0.495 OA
BRANCH  25  26
ATOM     26  C   LIG d   1       0.824  -3.189 -10.826  0.00  0.00     0.079 C 
ATOM     27  H   LIG d   1       0.037  -3.046 -10.086  0.00  0.00     0.066 H 
ATOM     28  H   LIG d   1       0.565  -4.023 -11.477  0.00  0.00     0.066 H 
ATOM     29  H   LIG d   1       1.765  -3.402 -10.318  0.00  0.00     0.066 H 
ENDBRANCH  25  26
ENDBRANCH  19  25
ENDBRANCH  12  15
ENDBRANCH   9  12
ENDBRANCH   6   9
ENDBRANCH   3   6
ENDBRANCH   1   3
BRANCH   1  30
ATOM     30  C   LIG d   1       4.334  -2.412  -7.377  0.00  0.00    -0.040 A 
ATOM     31  C   LIG d   1       3.777  -2.965  -8.515  0.00  0.00    -0.054 A 
ATOM     32  C   LIG d   1       3.571  -4.329  -8.591  0.00  0.00    -0.020 A 
ATOM     33  H   LIG d   1       3.503  -2.330  -9.345  0.00  0.00     0.062 H 
ATOM     34  C   LIG d   1       3.923  -5.143  -7.523  0.00  0.00     0.120 A 
ATOM     35  H   LIG d   1       3.136  -4.760  -9.480  0.00  0.00     0.065 H 
ATOM     36  C   LIG d   1       4.481  -4.584  -6.383  0.00  0.00    -0.020 A 
ATOM     37  C   LIG d   1       4.691  -3.220  -6.314  0.00  0.00    -0.054 A 
ATOM     38  H   LIG d   1       4.755  -5.215  -5.551  0.00  0.00     0.065 H 
ATOM     39  H   LIG d   1       5.130  -2.786  -5.429  0.00  0.00     0.062 H 
BRANCH  34  40
ATOM     40  O   LIG d   1       3.721  -6.484  -7.596  0.00  0.00    -0.495 OA
BRANCH  40  41
ATOM     41  C   LIG d   1       4.661  -7.319  -6.916  0.00  0.00     0.079 C 
ATOM     42  H   LIG d   1       5.666  -6.917  -7.049  0.00  0.00     0.066 H 
ATOM     43  H   LIG d   1       4.419  -7.349  -5.854  0.00  0.00     0.066 H 
ATOM     44  H   LIG d   1       4.616  -8.328  -7.328  0.00  0.00     0.066 H 
ENDBRANCH  40  41
ENDBRANCH  34  40
ENDBRANCH   1  30
BRANCH   1  45
ATOM     45  C   LIG d   1       4.145  -0.425  -5.936  0.00  0.00    -0.036 A 
ATOM     46  C   LIG d   1       5.046  -0.450  -4.889  0.00  0.00    -0.012 A 
ATOM     47  C   LIG d   1       4.667   0.008  -3.637  0.00  0.00     0.167 A 
ATOM     48  H   LIG d   1       6.046  -0.826  -5.046  0.00  0.00     0.066 H 
ATOM     49  C   LIG d   1       3.376   0.492  -3.438  0.00  0.00     0.166 A 
ATOM     50  O   LIG d   1       5.351   0.091  -2.458  0.00  0.00    -0.453 OA
ATOM     51  C   LIG d   1       2.478   0.513  -4.492  0.00  0.00    -0.016 A 
ATOM     52  O   LIG d   1       3.252   0.878  -2.135  0.00  0.00    -0.453 OA
ATOM     53  C   LIG d   1       2.864   0.060  -5.740  0.00  0.00    -0.054 A 
ATOM     54  H   LIG d   1       1.476   0.888  -4.341  0.00  0.00     0.066 H 
ATOM     55  H   LIG d   1       2.165   0.081  -6.562  0.00  0.00     0.062 H 
ATOM     56  C   LIG d   1       4.598   1.007  -1.641  0.00  0.00     0.233 C 
ATOM     57  H   LIG d   1       4.959   2.027  -1.776  0.00  0.00     0.117 H 
ATOM     58  H   LIG d   1       4.651   0.716  -0.592  0.00  0.00     0.117 H 
ENDBRANCH   1  45
TORSDOF 11
ENDMDL
MODEL 2
REMARK VINA RESULT:      -6.0      2.795      6.346
REMARK  11 active torsions:
REMARK  status: ('A' for Active; 'I' for Inactive)
REMARK    1  A    between atoms: C_1  and  O_2 
REMARK    2  A    between atoms: O_2  and  C_3 
REMARK    3  A    between atoms: C_6  and  C_9 
REMARK    4  A    between atoms: C_9  and  N_56 
REMARK    5  A    between atoms: C_10  and  C_11 
REMARK    6  A    between atoms: C_10  and  N_56 
REMARK    7  A    between atoms: C_11  and  C_12 
REMARK    8  A    between atoms: C_12  and  C_14 
REMARK    9  A    between atoms: C_12  and  C_22 
REMARK   10  A    between atoms: C_17  and  O_20 
REMARK   11  A    between atoms: O_20  and  C_21 
ROOT
ATOM      1  C   LIG d   1       3.583  -0.539  -7.048  0.00  0.00     0.014 C 
ATOM      2  H   LIG d   1       3.646  -1.341  -6.314  0.00  0.00     0.040 H 
ENDROOT
BRANCH   1   3
ATOM      3  C   LIG d   1       2.742   0.606  -6.481  0.00  0.00    -0.002 C 
ATOM      4  H   LIG d   1       1.697   0.458  -6.751  0.00  0.00     0.033 H 
ATOM      5  H   LIG d   1       3.092   1.553  -6.893  0.00  0.00     0.033 H 
BRANCH   3   6
ATOM      6  C   LIG d   1       2.875   0.633  -4.957  0.00  0.00    -0.033 C 
ATOM      7  H   LIG d   1       2.349   1.502  -4.562  0.00  0.00     0.081 H 
ATOM      8  H   LIG d   1       3.928   0.691  -4.685  0.00  0.00     0.081 H 
BRANCH   6   9
ATOM      9  N   LIG d   1       2.285  -0.598  -4.398  0.00  0.00     0.230 N 
ATOM     10  H   LIG d   1       1.282  -0.451  -4.238  0.00  0.00     0.202 HD
ATOM     11  H   LIG d   1       2.415  -1.368  -5.065  0.00  0.00     0.202 HD
BRANCH   9  12
ATOM     12  C   LIG d   1       2.937  -0.946  -3.122  0.00  0.00    -0.008 C 
ATOM     13  H   LIG d   1       2.328  -1.674  -2.586  0.00  0.00     0.087 H 
ATOM     14  H   LIG d   1       3.051  -0.049  -2.513  0.00  0.00     0.087 H 
BRANCH  12  15
ATOM     15  C   LIG d   1       4.294  -1.537  -3.406  0.00  0.00    -0.003 A 
ATOM     16  C   LIG d   1       4.399  -2.702  -4.142  0.00  0.00    -0.050 A 
ATOM     17  C   LIG d   1       5.641  -3.246  -4.403  0.00  0.00    -0.019 A 
ATOM     18  H   LIG d   1       3.508  -3.188  -4.514  0.00  0.00     0.062 H 
ATOM     19  C   LIG d   1       6.785  -2.622  -3.926  0.00  0.00     0.120 A 
ATOM     20  H   LIG d   1       5.722  -4.159  -4.974  0.00  0.00     0.065 H 
ATOM     21  C   LIG d   1       6.677  -1.452  -3.189  0.00  0.00    -0.019 A 
ATOM     22  C   LIG d   1       5.433  -0.913  -2.929  0.00  0.00    -0.050 A 
ATOM     23  H   LIG d   1       7.565  -0.964  -2.816  0.00  0.00     0.065 H 
ATOM     24  H   LIG d   1       5.347  -0.001  -2.354  0.00  0.00     0.062 H 
BRANCH  19  25
ATOM     25  O   LIG d   1       8.009  -3.154  -4.182  0.00  0.00    -0.495 OA
BRANCH  25  26
ATOM     26  C   LIG d   1       8.041  -4.410  -4.863  0.00  0.00     0.079 C 
ATOM     27  H   LIG d   1       8.422  -4.266  -5.873  0.00  0.00     0.066 H 
ATOM     28  H   LIG d   1       8.690  -5.099  -4.323  0.00  0.00     0.066 H 
ATOM     29  H   LIG d   1       7.033  -4.823  -4.911  0.00  0.00     0.066 H 
ENDBRANCH  25  26
ENDBRANCH  19  25
ENDBRANCH  12  15
ENDBRANCH   9  12
ENDBRANCH   6   9
ENDBRANCH   3   6
ENDBRANCH   1   3
BRANCH   1  30
ATOM     30  C   LIG d   1       2.941  -1.059  -8.308  0.00  0.00    -0.040 A 
ATOM     31  C   LIG d   1       1.984  -0.302  -8.958  0.00  0.00    -0.054 A 
ATOM     32  C   LIG d   1       1.395  -0.777 -10.114  0.00  0.00    -0.020 A 
ATOM     33  H   LIG d   1       1.697   0.661  -8.562  0.00  0.00     0.062 H 
ATOM     34  C   LIG d   1       1.764  -2.014 -10.622  0.00  0.00     0.120 A 
ATOM     35  H   LIG d   1       0.648  -0.185 -10.621  0.00  0.00     0.065 H 
ATOM     36  C   LIG d   1       2.725  -2.771  -9.967  0.00  0.00    -0.020 A 
ATOM     37  C   LIG d   1       3.316  -2.289  -8.815  0.00  0.00    -0.054 A 
ATOM     38  H   LIG d   1       3.014  -3.734 -10.360  0.00  0.00     0.065 H 
ATOM     39  H   LIG d   1       4.067  -2.876  -8.308  0.00  0.00     0.062 H 
BRANCH  34  40
ATOM     40  O   LIG d   1       1.186  -2.482 -11.759  0.00  0.00    -0.495 OA
BRANCH  40  41
ATOM     41  C   LIG d   1       2.002  -3.279 -12.620  0.00  0.00     0.079 C 
ATOM     42  H   LIG d   1       1.489  -4.216 -12.841  0.00  0.00     0.066 H 
ATOM     43  H   LIG d   1       2.188  -2.739 -13.548  0.00  0.00     0.066 H 
ATOM     44  H   LIG d   1       2.951  -3.493 -12.127  0.00  0.00     0.066 H 
ENDBRANCH  40  41
ENDBRANCH  34  40
ENDBRANCH   1  30
BRANCH   1  45
ATOM     45  C   LIG d   1       4.969  -0.036  -7.361  0.00  0.00    -0.036 A 
ATOM     46  C   LIG d   1       5.140   1.006  -8.253  0.00  0.00    -0.012 A 
ATOM     47  C   LIG d   1       6.414   1.469  -8.541  0.00  0.00     0.167 A 
ATOM     48  H   LIG d   1       4.281   1.460  -8.724  0.00  0.00     0.066 H 
ATOM     49  C   LIG d   1       7.520   0.882  -7.932  0.00  0.00     0.166 A 
ATOM     50  O   LIG d   1       6.848   2.465  -9.369  0.00  0.00    -0.453 OA
ATOM     51  C   LIG d   1       7.341  -0.163  -7.041  0.00  0.00    -0.016 A 
ATOM     52  O   LIG d   1       8.647   1.510  -8.377  0.00  0.00    -0.453 OA
ATOM     53  C   LIG d   1       6.067  -0.616  -6.752  0.00  0.00    -0.054 A 
ATOM     54  H   LIG d   1       8.197  -0.620  -6.566  0.00  0.00     0.066 H 
ATOM     55  H   LIG d   1       5.929  -1.427  -6.053  0.00  0.00     0.062 H 
ATOM     56  C   LIG d   1       8.196   2.752  -8.949  0.00  0.00     0.233 C 
ATOM     57  H   LIG d   1       8.204   3.544  -8.201  0.00  0.00     0.117 H 
ATOM     58  H   LIG d   1       8.813   3.025  -9.805  0.00  0.00     0.117 H 
ENDBRANCH   1  45
TORSDOF 11
ENDMDL
MODEL 3
REMARK VINA RESULT:      -6.0      2.205      3.041
REMARK  11 active torsions:
REMARK  status: ('A' for Active; 'I' for Inactive)
REMARK    1  A    between atoms: C_1  and  O_2 
REMARK    2  A    between atoms: O_2  and  C_3 
REMARK    3  A    between atoms: C_6  and  C_9 
REMARK    4  A    between atoms: C_9  and  N_56 
REMARK    5  A    between atoms: C_10  and  C_11 
REMARK    6  A    between atoms: C_10  and  N_56 
REMARK    7  A    between atoms: C_11  and  C_12 
REMARK    8  A    between atoms: C_12  and  C_14 
REMARK    9  A    between atoms: C_12  and  C_22 
REMARK   10  A    between atoms: C_17  and  O_20 
REMARK   11  A    between atoms: O_20  and  C_21 
ROOT
ATOM      1  C   LIG d   1       3.836   0.308  -7.634  0.00  0.00     0.014 C 
ATOM      2  H   LIG d   1       3.517   1.338  -7.787  0.00  0.00     0.040 H 
ENDROOT
BRANCH   1   3
ATOM      3  C   LIG d   1       5.328   0.184  -7.948  0.00  0.00    -0.002 C 
ATOM      4  H   LIG d   1       5.502  -0.719  -8.532  0.00  0.00     0.033 H 
ATOM      5  H   LIG d   1       5.893   0.129  -7.017  0.00  0.00     0.033 H 
BRANCH   3   6
ATOM      6  C   LIG d   1       5.785   1.404  -8.750  0.00  0.00    -0.033 C 
ATOM      7  H   LIG d   1       6.846   1.578  -8.574  0.00  0.00     0.081 H 
ATOM      8  H   LIG d   1       5.217   2.279  -8.434  0.00  0.00     0.081 H 
BRANCH   6   9
ATOM      9  N   LIG d   1       5.555   1.155 -10.186  0.00  0.00     0.230 N 
ATOM     10  H   LIG d   1       4.547   1.064 -10.356  0.00  0.00     0.202 HD
ATOM     11  H   LIG d   1       5.925   1.944 -10.729  0.00  0.00     0.202 HD
BRANCH   9  12
ATOM     12  C   LIG d   1       6.234  -0.085 -10.605  0.00  0.00    -0.008 C 
ATOM     13  H   LIG d   1       6.452  -0.697  -9.729  0.00  0.00     0.087 H 
ATOM     14  H   LIG d   1       7.163   0.161 -11.117  0.00  0.00     0.087 H 
BRANCH  12  15
ATOM     15  C   LIG d   1       5.332  -0.850 -11.540  0.00  0.00    -0.003 A 
ATOM     16  C   LIG d   1       4.332  -0.190 -12.228  0.00  0.00    -0.050 A 
ATOM     17  C   LIG d   1       3.505  -0.888 -13.086  0.00  0.00    -0.019 A 
ATOM     18  H   LIG d   1       4.197   0.874 -12.096  0.00  0.00     0.062 H 
ATOM     19  C   LIG d   1       3.679  -2.254 -13.257  0.00  0.00     0.120 A 
ATOM     20  H   LIG d   1       2.720  -0.373 -13.620  0.00  0.00     0.065 H 
ATOM     21  C   LIG d   1       4.684  -2.914 -12.566  0.00  0.00    -0.019 A 
ATOM     22  C   LIG d   1       5.508  -2.212 -11.708  0.00  0.00    -0.050 A 
ATOM     23  H   LIG d   1       4.821  -3.977 -12.696  0.00  0.00     0.065 H 
ATOM     24  H   LIG d   1       6.291  -2.725 -11.169  0.00  0.00     0.062 H 
BRANCH  19  25
ATOM     25  O   LIG d   1       2.866  -2.944 -14.100  0.00  0.00    -0.495 OA
BRANCH  25  26
ATOM     26  C   LIG d   1       1.618  -2.338 -14.439  0.00  0.00     0.079 C 
ATOM     27  H   LIG d   1       1.319  -1.653 -13.645  0.00  0.00     0.066 H 
ATOM     28  H   LIG d   1       1.724  -1.787 -15.373  0.00  0.00     0.066 H 
ATOM     29  H   LIG d   1       0.859  -3.111 -14.556  0.00  0.00     0.066 H 
ENDBRANCH  25  26
ENDBRANCH  19  25
ENDBRANCH  12  15
ENDBRANCH   9  12
ENDBRANCH   6   9
ENDBRANCH   3   6
ENDBRANCH   1   3
BRANCH   1  30
ATOM     30  C   LIG d   1       3.052  -0.602  -8.544  0.00  0.00    -0.040 A 
ATOM     31  C   LIG d   1       2.020  -0.090  -9.308  0.00  0.00    -0.054 A 
ATOM     32  C   LIG d   1       1.301  -0.922 -10.144  0.00  0.00    -0.020 A 
ATOM     33  H   LIG d   1       1.775   0.960  -9.251  0.00  0.00     0.062 H 
ATOM     34  C   LIG d   1       1.615  -2.271 -10.217  0.00  0.00     0.120 A 
ATOM     35  H   LIG d   1       0.494  -0.522 -10.740  0.00  0.00     0.065 H 
ATOM     36  C   LIG d   1       2.652  -2.782  -9.449  0.00  0.00    -0.020 A 
ATOM     37  C   LIG d   1       3.372  -1.944  -8.619  0.00  0.00    -0.054 A 
ATOM     38  H   LIG d   1       2.899  -3.831  -9.504  0.00  0.00     0.065 H 
ATOM     39  H   LIG d   1       4.183  -2.340  -8.026  0.00  0.00     0.062 H 
BRANCH  34  40
ATOM     40  O   LIG d   1       0.909  -3.090 -11.039  0.00  0.00    -0.495 OA
BRANCH  40  41
ATOM     41  C   LIG d   1       1.359  -4.443 -11.149  0.00  0.00     0.079 C 
ATOM     42  H   LIG d   1       0.593  -5.040 -11.646  0.00  0.00     0.066 H 
ATOM     43  H   LIG d   1       2.279  -4.474 -11.732  0.00  0.00     0.066 H 
ATOM     44  H   LIG d   1       1.545  -4.847 -10.154  0.00  0.00     0.066 H 
ENDBRANCH  40  41
ENDBRANCH  34  40
ENDBRANCH   1  30
BRANCH   1  45
ATOM     45  C   LIG d   1       3.591  -0.085  -6.200  0.00  0.00    -0.036 A 
ATOM     46  C   LIG d   1       4.543  -0.814  -5.512  0.00  0.00    -0.012 A 
ATOM     47  C   LIG d   1       4.319  -1.175  -4.193  0.00  0.00     0.167 A 
ATOM     48  H   LIG d   1       5.461  -1.101  -6.002  0.00  0.00     0.066 H 
ATOM     49  C   LIG d   1       3.134  -0.804  -3.564  0.00  0.00     0.166 A 
ATOM     50  O   LIG d   1       5.082  -1.880  -3.306  0.00  0.00    -0.453 OA
ATOM     51  C   LIG d   1       2.184  -0.074  -4.259  0.00  0.00    -0.016 A 
ATOM     52  O   LIG d   1       3.154  -1.275  -2.283  0.00  0.00    -0.453 OA
ATOM     53  C   LIG d   1       2.416   0.289  -5.573  0.00  0.00    -0.054 A 
ATOM     54  H   LIG d   1       1.264   0.216  -3.774  0.00  0.00     0.066 H 
ATOM     55  H   LIG d   1       1.677   0.862  -6.113  0.00  0.00     0.062 H 
ATOM     56  C   LIG d   1       4.533  -1.585  -2.008  0.00  0.00     0.233 C 
ATOM     57  H   LIG d   1       5.037  -0.726  -1.565  0.00  0.00     0.117 H 
ATOM     58  H   LIG d   1       4.607  -2.454  -1.354  0.00  0.00     0.117 H 
ENDBRANCH   1  45
TORSDOF 11
ENDMDL
MODEL 4
REMARK VINA RESULT:      -6.0      2.107      6.519
REMARK  11 active torsions:
REMARK  status: ('A' for Active; 'I' for Inactive)
REMARK    1  A    between atoms: C_1  and  O_2 
REMARK    2  A    between atoms: O_2  and  C_3 
REMARK    3  A    between atoms: C_6  and  C_9 
REMARK    4  A    between atoms: C_9  and  N_56 
REMARK    5  A    between atoms: C_10  and  C_11 
REMARK    6  A    between atoms: C_10  and  N_56 
REMARK    7  A    between atoms: C_11  and  C_12 
REMARK    8  A    between atoms: C_12  and  C_14 
REMARK    9  A    between atoms: C_12  and  C_22 
REMARK   10  A    between atoms: C_17  and  O_20 
REMARK   11  A    between atoms: O_20  and  C_21 
ROOT
ATOM      1  C   LIG d   1       3.874   0.209  -8.204  0.00  0.00     0.014 C 
ATOM      2  H   LIG d   1       4.918   0.038  -8.465  0.00  0.00     0.040 H 
ENDROOT
BRANCH   1   3
ATOM      3  C   LIG d   1       3.500   1.658  -8.523  0.00  0.00    -0.002 C 
ATOM      4  H   LIG d   1       3.296   2.192  -7.595  0.00  0.00     0.033 H 
ATOM      5  H   LIG d   1       2.611   1.673  -9.153  0.00  0.00     0.033 H 
BRANCH   3   6
ATOM      6  C   LIG d   1       4.658   2.336  -9.257  0.00  0.00    -0.033 C 
ATOM      7  H   LIG d   1       4.980   3.213  -8.695  0.00  0.00     0.081 H 
ATOM      8  H   LIG d   1       4.329   2.641 -10.250  0.00  0.00     0.081 H 
BRANCH   6   9
ATOM      9  N   LIG d   1       5.780   1.385  -9.375  0.00  0.00     0.230 N 
ATOM     10  H   LIG d   1       5.516   0.494  -8.938  0.00  0.00     0.202 HD
ATOM     11  H   LIG d   1       5.988   1.230 -10.369  0.00  0.00     0.202 HD
BRANCH   9  12
ATOM     12  C   LIG d   1       6.979   1.921  -8.705  0.00  0.00    -0.008 C 
ATOM     13  H   LIG d   1       6.731   2.858  -8.206  0.00  0.00     0.087 H 
ATOM     14  H   LIG d   1       7.762   2.098  -9.442  0.00  0.00     0.087 H 
BRANCH  12  15
ATOM     15  C   LIG d   1       7.464   0.922  -7.687  0.00  0.00    -0.003 A 
ATOM     16  C   LIG d   1       7.743   1.332  -6.397  0.00  0.00    -0.050 A 
ATOM     17  C   LIG d   1       8.188   0.418  -5.461  0.00  0.00    -0.019 A 
ATOM     18  H   LIG d   1       7.612   2.368  -6.119  0.00  0.00     0.062 H 
ATOM     19  C   LIG d   1       8.354  -0.913  -5.817  0.00  0.00     0.120 A 
ATOM     20  H   LIG d   1       8.410   0.740  -4.454  0.00  0.00     0.065 H 
ATOM     21  C   LIG d   1       8.073  -1.322  -7.112  0.00  0.00    -0.019 A 
ATOM     22  C   LIG d   1       7.630  -0.404  -8.044  0.00  0.00    -0.050 A 
ATOM     23  H   LIG d   1       8.202  -2.356  -7.392  0.00  0.00     0.065 H 
ATOM     24  H   LIG d   1       7.410  -0.722  -9.054  0.00  0.00     0.062 H 
BRANCH  19  25
ATOM     25  O   LIG d   1       8.792  -1.814  -4.899  0.00  0.00    -0.495 OA
BRANCH  25  26
ATOM     26  C   LIG d   1       7.797  -2.566  -4.202  0.00  0.00     0.079 C 
ATOM     27  H   LIG d   1       8.270  -3.146  -3.409  0.00  0.00     0.066 H 
ATOM     28  H   LIG d   1       7.065  -1.886  -3.768  0.00  0.00     0.066 H 
ATOM     29  H   LIG d   1       7.299  -3.241  -4.898  0.00  0.00     0.066 H 
ENDBRANCH  25  26
ENDBRANCH  19  25
ENDBRANCH  12  15
ENDBRANCH   9  12
ENDBRANCH   6   9
ENDBRANCH   3   6
ENDBRANCH   1   3
BRANCH   1  30
ATOM     30  C   LIG d   1       3.675  -0.051  -6.733  0.00  0.00    -0.040 A 
ATOM     31  C   LIG d   1       4.582  -0.833  -6.042  0.00  0.00    -0.054 A 
ATOM     32  C   LIG d   1       4.402  -1.071  -4.693  0.00  0.00    -0.020 A 
ATOM     33  H   LIG d   1       5.431  -1.258  -6.557  0.00  0.00     0.062 H 
ATOM     34  C   LIG d   1       3.310  -0.526  -4.033  0.00  0.00     0.120 A 
ATOM     35  H   LIG d   1       5.110  -1.682  -4.154  0.00  0.00     0.065 H 
ATOM     36  C   LIG d   1       2.402   0.258  -4.729  0.00  0.00    -0.020 A 
ATOM     37  C   LIG d   1       2.590   0.499  -6.077  0.00  0.00    -0.054 A 
ATOM     38  H   LIG d   1       1.552   0.684  -4.217  0.00  0.00     0.065 H 
ATOM     39  H   LIG d   1       1.887   1.114  -6.617  0.00  0.00     0.062 H 
BRANCH  34  40
ATOM     40  O   LIG d   1       3.133  -0.759  -2.706  0.00  0.00    -0.495 OA
BRANCH  40  41
ATOM     41  C   LIG d   1       4.310  -0.946  -1.917  0.00  0.00     0.079 C 
ATOM     42  H   LIG d   1       5.189  -0.699  -2.514  0.00  0.00     0.066 H 
ATOM     43  H   LIG d   1       4.269  -0.297  -1.044  0.00  0.00     0.066 H 
ATOM     44  H   LIG d   1       4.371  -1.986  -1.595  0.00  0.00     0.066 H 
ENDBRANCH  40  41
ENDBRANCH  34  40
ENDBRANCH   1  30
BRANCH   1  45
ATOM     45  C   LIG d   1       2.998  -0.723  -9.001  0.00  0.00    -0.036 A 
ATOM     46  C   LIG d   1       3.261  -2.080  -9.008  0.00  0.00    -0.012 A 
ATOM     47  C   LIG d   1       2.456  -2.938  -9.740  0.00  0.00     0.167 A 
ATOM     48  H   LIG d   1       4.093  -2.472  -8.443  0.00  0.00     0.066 H 
ATOM     49  C   LIG d   1       1.384  -2.430 -10.469  0.00  0.00     0.166 A 
ATOM     50  O   LIG d   1       2.498  -4.292  -9.912  0.00  0.00    -0.453 OA
ATOM     51  C   LIG d   1       1.127  -1.069 -10.458  0.00  0.00    -0.016 A 
ATOM     52  O   LIG d   1       0.754  -3.465 -11.097  0.00  0.00    -0.453 OA
ATOM     53  C   LIG d   1       1.930  -0.219  -9.721  0.00  0.00    -0.054 A 
ATOM     54  H   LIG d   1       0.296  -0.671 -11.022  0.00  0.00     0.066 H 
ATOM     55  H   LIG d   1       1.726   0.842  -9.709  0.00  0.00     0.062 H 
ATOM     56  C   LIG d   1       1.200  -4.655 -10.420  0.00  0.00     0.233 C 
ATOM     57  H   LIG d   1       0.525  -4.907  -9.603  0.00  0.00     0.117 H 
ATOM     58  H   LIG d   1       1.283  -5.486 -11.121  0.00  0.00     0.117 H 
ENDBRANCH   1  45
TORSDOF 11
ENDMDL
MODEL 5
REMARK VINA RESULT:      -5.9      2.843      6.050
REMARK  11 active torsions:
REMARK  status: ('A' for Active; 'I' for Inactive)
REMARK    1  A    between atoms: C_1  and  O_2 
REMARK    2  A    between atoms: O_2  and  C_3 
REMARK    3  A    between atoms: C_6  and  C_9 
REMARK    4  A    between atoms: C_9  and  N_56 
REMARK    5  A    between atoms: C_10  and  C_11 
REMARK    6  A    between atoms: C_10  and  N_56 
REMARK    7  A    between atoms: C_11  and  C_12 
REMARK    8  A    between atoms: C_12  and  C_14 
REMARK    9  A    between atoms: C_12  and  C_22 
REMARK   10  A    between atoms: C_17  and  O_20 
REMARK   11  A    between atoms: O_20  and  C_21 
ROOT
ATOM      1  C   LIG d   1       3.958   0.259  -7.796  0.00  0.00     0.014 C 
ATOM      2  H   LIG d   1       3.733   1.312  -7.962  0.00  0.00     0.040 H 
ENDROOT
BRANCH   1   3
ATOM      3  C   LIG d   1       5.430  -0.005  -8.114  0.00  0.00    -0.002 C 
ATOM      4  H   LIG d   1       5.521  -0.943  -8.662  0.00  0.00     0.033 H 
ATOM      5  H   LIG d   1       5.997  -0.070  -7.185  0.00  0.00     0.033 H 
BRANCH   3   6
ATOM      6  C   LIG d   1       5.981   1.138  -8.969  0.00  0.00    -0.033 C 
ATOM      7  H   LIG d   1       5.159   1.775  -9.296  0.00  0.00     0.081 H 
ATOM      8  H   LIG d   1       6.490   0.727  -9.841  0.00  0.00     0.081 H 
BRANCH   6   9
ATOM      9  N   LIG d   1       6.932   1.929  -8.166  0.00  0.00     0.230 N 
ATOM     10  H   LIG d   1       7.480   2.534  -8.788  0.00  0.00     0.202 HD
ATOM     11  H   LIG d   1       6.410   2.509  -7.498  0.00  0.00     0.202 HD
BRANCH   9  12
ATOM     12  C   LIG d   1       7.843   1.037  -7.426  0.00  0.00    -0.008 C 
ATOM     13  H   LIG d   1       8.712   0.806  -8.044  0.00  0.00     0.087 H 
ATOM     14  H   LIG d   1       7.324   0.114  -7.170  0.00  0.00     0.087 H 
BRANCH  12  15
ATOM     15  C   LIG d   1       8.293   1.727  -6.164  0.00  0.00    -0.003 A 
ATOM     16  C   LIG d   1       9.163   2.798  -6.237  0.00  0.00    -0.050 A 
ATOM     17  C   LIG d   1       9.577   3.433  -5.081  0.00  0.00    -0.019 A 
ATOM     18  H   LIG d   1       9.519   3.141  -7.197  0.00  0.00     0.062 H 
ATOM     19  C   LIG d   1       9.119   2.994  -3.847  0.00  0.00     0.120 A 
ATOM     20  H   LIG d   1      10.261   4.268  -5.138  0.00  0.00     0.065 H 
ATOM     21  C   LIG d   1       8.246   1.919  -3.777  0.00  0.00    -0.019 A 
ATOM     22  C   LIG d   1       7.836   1.287  -4.935  0.00  0.00    -0.050 A 
ATOM     23  H   LIG d   1       7.889   1.574  -2.819  0.00  0.00     0.065 H 
ATOM     24  H   LIG d   1       7.155   0.449  -4.882  0.00  0.00     0.062 H 
BRANCH  19  25
ATOM     25  O   LIG d   1       9.525   3.616  -2.710  0.00  0.00    -0.495 OA
BRANCH  25  26
ATOM     26  C   LIG d   1      10.719   4.397  -2.787  0.00  0.00     0.079 C 
ATOM     27  H   LIG d   1      10.497   5.428  -2.514  0.00  0.00     0.066 H 
ATOM     28  H   LIG d   1      11.463   3.991  -2.102  0.00  0.00     0.066 H 
ATOM     29  H   LIG d   1      11.107   4.367  -3.805  0.00  0.00     0.066 H 
ENDBRANCH  25  26
ENDBRANCH  19  25
ENDBRANCH  12  15
ENDBRANCH   9  12
ENDBRANCH   6   9
ENDBRANCH   3   6
ENDBRANCH   1   3
BRANCH   1  30
ATOM     30  C   LIG d   1       3.089  -0.588  -8.690  0.00  0.00    -0.040 A 
ATOM     31  C   LIG d   1       3.310  -1.950  -8.778  0.00  0.00    -0.054 A 
ATOM     32  C   LIG d   1       2.515  -2.728  -9.597  0.00  0.00    -0.020 A 
ATOM     33  H   LIG d   1       4.105  -2.405  -8.207  0.00  0.00     0.062 H 
ATOM     34  C   LIG d   1       1.494  -2.141 -10.331  0.00  0.00     0.120 A 
ATOM     35  H   LIG d   1       2.688  -3.791  -9.665  0.00  0.00     0.065 H 
ATOM     36  C   LIG d   1       1.275  -0.775 -10.241  0.00  0.00    -0.020 A 
ATOM     37  C   LIG d   1       2.069  -0.001  -9.416  0.00  0.00    -0.054 A 
ATOM     38  H   LIG d   1       0.481  -0.316 -10.812  0.00  0.00     0.065 H 
ATOM     39  H   LIG d   1       1.895   1.061  -9.341  0.00  0.00     0.062 H 
BRANCH  34  40
ATOM     40  O   LIG d   1       0.711  -2.906 -11.136  0.00  0.00    -0.495 OA
BRANCH  40  41
ATOM     41  C   LIG d   1       0.334  -4.193 -10.642  0.00  0.00     0.079 C 
ATOM     42  H   LIG d   1       0.457  -4.934 -11.432  0.00  0.00     0.066 H 
ATOM     43  H   LIG d   1       0.967  -4.456  -9.795  0.00  0.00     0.066 H 
ATOM     44  H   LIG d   1      -0.708  -4.170 -10.324  0.00  0.00     0.066 H 
ENDBRANCH  40  41
ENDBRANCH  34  40
ENDBRANCH   1  30
BRANCH   1  45
ATOM     45  C   LIG d   1       3.685  -0.091  -6.355  0.00  0.00    -0.036 A 
ATOM     46  C   LIG d   1       4.588  -0.865  -5.651  0.00  0.00    -0.012 A 
ATOM     47  C   LIG d   1       4.339  -1.187  -4.326  0.00  0.00     0.167 A 
ATOM     48  H   LIG d   1       5.487  -1.219  -6.132  0.00  0.00     0.066 H 
ATOM     49  C   LIG d   1       3.178  -0.730  -3.708  0.00  0.00     0.166 A 
ATOM     50  O   LIG d   1       5.054  -1.922  -3.424  0.00  0.00    -0.453 OA
ATOM     51  C   LIG d   1       2.278   0.045  -4.420  0.00  0.00    -0.016 A 
ATOM     52  O   LIG d   1       3.166  -1.177  -2.418  0.00  0.00    -0.453 OA
ATOM     53  C   LIG d   1       2.535   0.368  -5.740  0.00  0.00    -0.054 A 
ATOM     54  H   LIG d   1       1.376   0.402  -3.943  0.00  0.00     0.066 H 
ATOM     55  H   LIG d   1       1.835   0.976  -6.293  0.00  0.00     0.062 H 
ATOM     56  C   LIG d   1       4.522  -1.568  -2.133  0.00  0.00     0.233 C 
ATOM     57  H   LIG d   1       5.078  -0.735  -1.704  0.00  0.00     0.117 H 
ATOM     58  H   LIG d   1       4.540  -2.428  -1.464  0.00  0.00     0.117 H 
ENDBRANCH   1  45
TORSDOF 11
ENDMDL
MODEL 6
REMARK VINA RESULT:      -5.9      3.430      6.088
REMARK  11 active torsions:
REMARK  status: ('A' for Active; 'I' for Inactive)
REMARK    1  A    between atoms: C_1  and  O_2 
REMARK    2  A    between atoms: O_2  and  C_3 
REMARK    3  A    between atoms: C_6  and  C_9 
REMARK    4  A    between atoms: C_9  and  N_56 
REMARK    5  A    between atoms: C_10  and  C_11 
REMARK    6  A    between atoms: C_10  and  N_56 
REMARK    7  A    between atoms: C_11  and  C_12 
REMARK    8  A    between atoms: C_12  and  C_14 
REMARK    9  A    between atoms: C_12  and  C_22 
REMARK   10  A    between atoms: C_17  and  O_20 
REMARK   11  A    between atoms: O_20  and  C_21 
ROOT
ATOM      1  C   LIG d   1       5.432  -3.731  -5.624  0.00  0.00     0.014 C 
ATOM      2  H   LIG d   1       5.590  -3.351  -6.633  0.00  0.00     0.040 H 
ENDROOT
BRANCH   1   3
ATOM      3  C   LIG d   1       4.567  -4.991  -5.683  0.00  0.00    -0.002 C 
ATOM      4  H   LIG d   1       3.640  -4.822  -5.134  0.00  0.00     0.033 H 
ATOM      5  H   LIG d   1       5.107  -5.825  -5.235  0.00  0.00     0.033 H 
BRANCH   3   6
ATOM      6  C   LIG d   1       4.241  -5.319  -7.141  0.00  0.00    -0.033 C 
ATOM      7  H   LIG d   1       3.864  -6.340  -7.208  0.00  0.00     0.081 H 
ATOM      8  H   LIG d   1       5.143  -5.225  -7.745  0.00  0.00     0.081 H 
BRANCH   6   9
ATOM      9  N   LIG d   1       3.215  -4.380  -7.632  0.00  0.00     0.230 N 
ATOM     10  H   LIG d   1       2.317  -4.871  -7.715  0.00  0.00     0.202 HD
ATOM     11  H   LIG d   1       3.120  -3.605  -6.965  0.00  0.00     0.202 HD
BRANCH   9  12
ATOM     12  C   LIG d   1       3.600  -3.843  -8.950  0.00  0.00    -0.008 C 
ATOM     13  H   LIG d   1       2.795  -4.014  -9.665  0.00  0.00     0.087 H 
ATOM     14  H   LIG d   1       4.505  -4.340  -9.298  0.00  0.00     0.087 H 
BRANCH  12  15
ATOM     15  C   LIG d   1       3.855  -2.363  -8.825  0.00  0.00    -0.003 A 
ATOM     16  C   LIG d   1       2.793  -1.490  -8.680  0.00  0.00    -0.050 A 
ATOM     17  C   LIG d   1       3.024  -0.133  -8.565  0.00  0.00    -0.019 A 
ATOM     18  H   LIG d   1       1.782  -1.869  -8.656  0.00  0.00     0.062 H 
ATOM     19  C   LIG d   1       4.323   0.354  -8.595  0.00  0.00     0.120 A 
ATOM     20  H   LIG d   1       2.194   0.550  -8.457  0.00  0.00     0.065 H 
ATOM     21  C   LIG d   1       5.387  -0.524  -8.740  0.00  0.00    -0.019 A 
ATOM     22  C   LIG d   1       5.151  -1.880  -8.855  0.00  0.00    -0.050 A 
ATOM     23  H   LIG d   1       6.399  -0.148  -8.764  0.00  0.00     0.065 H 
ATOM     24  H   LIG d   1       5.979  -2.565  -8.968  0.00  0.00     0.062 H 
BRANCH  19  25
ATOM     25  O   LIG d   1       4.553   1.689  -8.483  0.00  0.00    -0.495 OA
BRANCH  25  26
ATOM     26  C   LIG d   1       3.918   2.540  -9.439  0.00  0.00     0.079 C 
ATOM     27  H   LIG d   1       2.836   2.442  -9.350  0.00  0.00     0.066 H 
ATOM     28  H   LIG d   1       4.206   3.574  -9.252  0.00  0.00     0.066 H 
ATOM     29  H   LIG d   1       4.227   2.251 -10.443  0.00  0.00     0.066 H 
ENDBRANCH  25  26
ENDBRANCH  19  25
ENDBRANCH  12  15
ENDBRANCH   9  12
ENDBRANCH   6   9
ENDBRANCH   3   6
ENDBRANCH   1   3
BRANCH   1  30
ATOM     30  C   LIG d   1       4.738  -2.682  -4.794  0.00  0.00    -0.040 A 
ATOM     31  C   LIG d   1       4.341  -2.975  -3.503  0.00  0.00    -0.054 A 
ATOM     32  C   LIG d   1       3.706  -2.014  -2.740  0.00  0.00    -0.020 A 
ATOM     33  H   LIG d   1       4.528  -3.956  -3.090  0.00  0.00     0.062 H 
ATOM     34  C   LIG d   1       3.466  -0.755  -3.271  0.00  0.00     0.120 A 
ATOM     35  H   LIG d   1       3.396  -2.244  -1.731  0.00  0.00     0.065 H 
ATOM     36  C   LIG d   1       3.865  -0.464  -4.567  0.00  0.00    -0.020 A 
ATOM     37  C   LIG d   1       4.506  -1.426  -5.324  0.00  0.00    -0.054 A 
ATOM     38  H   LIG d   1       3.680   0.515  -4.983  0.00  0.00     0.065 H 
ATOM     39  H   LIG d   1       4.822  -1.199  -6.330  0.00  0.00     0.062 H 
BRANCH  34  40
ATOM     40  O   LIG d   1       2.842   0.191  -2.522  0.00  0.00    -0.495 OA
BRANCH  40  41
ATOM     41  C   LIG d   1       3.543   1.418  -2.312  0.00  0.00     0.079 C 
ATOM     42  H   LIG d   1       2.826   2.218  -2.123  0.00  0.00     0.066 H 
ATOM     43  H   LIG d   1       4.208   1.315  -1.455  0.00  0.00     0.066 H 
ATOM     44  H   LIG d   1       4.129   1.659  -3.200  0.00  0.00     0.066 H 
ENDBRANCH  40  41
ENDBRANCH  34  40
ENDBRANCH   1  30
BRANCH   1  45
ATOM     45  C   LIG d   1       6.763  -4.065  -5.000  0.00  0.00    -0.036 A 
ATOM     46  C   LIG d   1       7.288  -5.336  -5.134  0.00  0.00    -0.012 A 
ATOM     47  C   LIG d   1       8.512  -5.645  -4.562  0.00  0.00     0.167 A 
ATOM     48  H   LIG d   1       6.746  -6.090  -5.686  0.00  0.00     0.066 H 
ATOM     49  C   LIG d   1       9.209  -4.672  -3.850  0.00  0.00     0.166 A 
ATOM     50  O   LIG d   1       9.238  -6.801  -4.548  0.00  0.00    -0.453 OA
ATOM     51  C   LIG d   1       8.676  -3.401  -3.719  0.00  0.00    -0.016 A 
ATOM     52  O   LIG d   1      10.372  -5.218  -3.390  0.00  0.00    -0.453 OA
ATOM     53  C   LIG d   1       7.458  -3.097  -4.298  0.00  0.00    -0.054 A 
ATOM     54  H   LIG d   1       9.214  -2.643  -3.168  0.00  0.00     0.066 H 
ATOM     55  H   LIG d   1       7.045  -2.104  -4.198  0.00  0.00     0.062 H 
ATOM     56  C   LIG d   1      10.573  -6.411  -4.171  0.00  0.00     0.233 C 
ATOM     57  H   LIG d   1      11.173  -6.195  -5.054  0.00  0.00     0.117 H 
ATOM     58  H   LIG d   1      11.042  -7.189  -3.568  0.00  0.00     0.117 H 
ENDBRANCH   1  45
TORSDOF 11
ENDMDL
MODEL 7
REMARK VINA RESULT:      -5.9      9.058     12.465
REMARK  11 active torsions:
REMARK  status: ('A' for Active; 'I' for Inactive)
REMARK    1  A    between atoms: C_1  and  O_2 
REMARK    2  A    between atoms: O_2  and  C_3 
REMARK    3  A    between atoms: C_6  and  C_9 
REMARK    4  A    between atoms: C_9  and  N_56 
REMARK    5  A    between atoms: C_10  and  C_11 
REMARK    6  A    between atoms: C_10  and  N_56 
REMARK    7  A    between atoms: C_11  and  C_12 
REMARK    8  A    between atoms: C_12  and  C_14 
REMARK    9  A    between atoms: C_12  and  C_22 
REMARK   10  A    between atoms: C_17  and  O_20 
REMARK   11  A    between atoms: O_20  and  C_21 
ROOT
ATOM      1  C   LIG d   1       9.707   6.910  -4.565  0.00  0.00     0.014 C 
ATOM      2  H   LIG d   1       8.704   7.260  -4.323  0.00  0.00     0.040 H 
ENDROOT
BRANCH   1   3
ATOM      3  C   LIG d   1      10.406   7.940  -5.452  0.00  0.00    -0.002 C 
ATOM      4  H   LIG d   1      10.756   7.456  -6.364  0.00  0.00     0.033 H 
ATOM      5  H   LIG d   1      11.257   8.364  -4.917  0.00  0.00     0.033 H 
BRANCH   3   6
ATOM      6  C   LIG d   1       9.424   9.056  -5.813  0.00  0.00    -0.033 C 
ATOM      7  H   LIG d   1       8.516   8.619  -6.231  0.00  0.00     0.081 H 
ATOM      8  H   LIG d   1       9.880   9.717  -6.549  0.00  0.00     0.081 H 
BRANCH   6   9
ATOM      9  N   LIG d   1       9.091   9.820  -4.596  0.00  0.00     0.230 N 
ATOM     10  H   LIG d   1       8.305  10.450  -4.796  0.00  0.00     0.202 HD
ATOM     11  H   LIG d   1       8.824   9.167  -3.850  0.00  0.00     0.202 HD
BRANCH   9  12
ATOM     12  C   LIG d   1      10.253  10.614  -4.156  0.00  0.00    -0.008 C 
ATOM     13  H   LIG d   1      10.054  11.674  -4.317  0.00  0.00     0.087 H 
ATOM     14  H   LIG d   1      11.134  10.319  -4.725  0.00  0.00     0.087 H 
BRANCH  12  15
ATOM     15  C   LIG d   1      10.494  10.365  -2.690  0.00  0.00    -0.003 A 
ATOM     16  C   LIG d   1       9.426  10.304  -1.816  0.00  0.00    -0.050 A 
ATOM     17  C   LIG d   1       9.644  10.076  -0.471  0.00  0.00    -0.019 A 
ATOM     18  H   LIG d   1       8.419  10.435  -2.183  0.00  0.00     0.062 H 
ATOM     19  C   LIG d   1      10.938   9.908   0.002  0.00  0.00     0.120 A 
ATOM     20  H   LIG d   1       8.809  10.034   0.213  0.00  0.00     0.065 H 
ATOM     21  C   LIG d   1      12.008   9.968  -0.877  0.00  0.00    -0.019 A 
ATOM     22  C   LIG d   1      11.785  10.198  -2.221  0.00  0.00    -0.050 A 
ATOM     23  H   LIG d   1      13.016   9.838  -0.512  0.00  0.00     0.065 H 
ATOM     24  H   LIG d   1      12.618  10.245  -2.907  0.00  0.00     0.062 H 
BRANCH  19  25
ATOM     25  O   LIG d   1      11.156   9.683   1.325  0.00  0.00    -0.495 OA
BRANCH  25  26
ATOM     26  C   LIG d   1      12.513   9.518   1.740  0.00  0.00     0.079 C 
ATOM     27  H   LIG d   1      13.124  10.312   1.309  0.00  0.00     0.066 H 
ATOM     28  H   LIG d   1      12.568   9.566   2.827  0.00  0.00     0.066 H 
ATOM     29  H   LIG d   1      12.882   8.551   1.400  0.00  0.00     0.066 H 
ENDBRANCH  25  26
ENDBRANCH  19  25
ENDBRANCH  12  15
ENDBRANCH   9  12
ENDBRANCH   6   9
ENDBRANCH   3   6
ENDBRANCH   1   3
BRANCH   1  30
ATOM     30  C   LIG d   1       9.617   5.594  -5.295  0.00  0.00    -0.040 A 
ATOM     31  C   LIG d   1       9.910   5.533  -6.644  0.00  0.00    -0.054 A 
ATOM     32  C   LIG d   1       9.830   4.327  -7.315  0.00  0.00    -0.020 A 
ATOM     33  H   LIG d   1      10.202   6.427  -7.175  0.00  0.00     0.062 H 
ATOM     34  C   LIG d   1       9.455   3.179  -6.633  0.00  0.00     0.120 A 
ATOM     35  H   LIG d   1      10.059   4.281  -8.369  0.00  0.00     0.065 H 
ATOM     36  C   LIG d   1       9.161   3.244  -5.279  0.00  0.00    -0.020 A 
ATOM     37  C   LIG d   1       9.249   4.450  -4.611  0.00  0.00    -0.054 A 
ATOM     38  H   LIG d   1       8.869   2.351  -4.746  0.00  0.00     0.065 H 
ATOM     39  H   LIG d   1       9.026   4.500  -3.556  0.00  0.00     0.062 H 
BRANCH  34  40
ATOM     40  O   LIG d   1       9.376   1.993  -7.292  0.00  0.00    -0.495 OA
BRANCH  40  41
ATOM     41  C   LIG d   1       8.071   1.444  -7.484  0.00  0.00     0.079 C 
ATOM     42  H   LIG d   1       8.107   0.691  -8.272  0.00  0.00     0.066 H 
ATOM     43  H   LIG d   1       7.729   0.985  -6.557  0.00  0.00     0.066 H 
ATOM     44  H   LIG d   1       7.381   2.238  -7.773  0.00  0.00     0.066 H 
ENDBRANCH  40  41
ENDBRANCH  34  40
ENDBRANCH   1  30
BRANCH   1  45
ATOM     45  C   LIG d   1      10.494   6.725  -3.293  0.00  0.00    -0.036 A 
ATOM     46  C   LIG d   1       9.838   6.666  -2.078  0.00  0.00    -0.012 A 
ATOM     47  C   LIG d   1      10.561   6.496  -0.908  0.00  0.00     0.167 A 
ATOM     48  H   LIG d   1       8.762   6.752  -2.040  0.00  0.00     0.066 H 
ATOM     49  C   LIG d   1      11.948   6.387  -0.959  0.00  0.00     0.166 A 
ATOM     50  O   LIG d   1      10.164   6.406   0.396  0.00  0.00    -0.453 OA
ATOM     51  C   LIG d   1      12.599   6.448  -2.180  0.00  0.00    -0.016 A 
ATOM     52  O   LIG d   1      12.420   6.228   0.311  0.00  0.00    -0.453 OA
ATOM     53  C   LIG d   1      11.872   6.611  -3.345  0.00  0.00    -0.054 A 
ATOM     54  H   LIG d   1      13.675   6.363  -2.224  0.00  0.00     0.066 H 
ATOM     55  H   LIG d   1      12.379   6.654  -4.297  0.00  0.00     0.062 H 
ATOM     56  C   LIG d   1      11.282   5.832   1.099  0.00  0.00     0.233 C 
ATOM     57  H   LIG d   1      11.197   4.746   1.131  0.00  0.00     0.117 H 
ATOM     58  H   LIG d   1      11.352   6.243   2.106  0.00  0.00     0.117 H 
ENDBRANCH   1  45
TORSDOF 11
ENDMDL
MODEL 8
REMARK VINA RESULT:      -5.9      3.582      7.590
REMARK  11 active torsions:
REMARK  status: ('A' for Active; 'I' for Inactive)
REMARK    1  A    between atoms: C_1  and  O_2 
REMARK    2  A    between atoms: O_2  and  C_3 
REMARK    3  A    between atoms: C_6  and  C_9 
REMARK    4  A    between atoms: C_9  and  N_56 
REMARK    5  A    between atoms: C_10  and  C_11 
REMARK    6  A    between atoms: C_10  and  N_56 
REMARK    7  A    between atoms: C_11  and  C_12 
REMARK    8  A    between atoms: C_12  and  C_14 
REMARK    9  A    between atoms: C_12  and  C_22 
REMARK   10  A    between atoms: C_17  and  O_20 
REMARK   11  A    between atoms: O_20  and  C_21 
ROOT
ATOM      1  C   LIG d   1       7.581  -0.182  -6.298  0.00  0.00     0.014 C 
ATOM      2  H   LIG d   1       7.366  -0.892  -5.500  0.00  0.00     0.040 H 
ENDROOT
BRANCH   1   3
ATOM      3  C   LIG d   1       8.599  -0.791  -7.263  0.00  0.00    -0.002 C 
ATOM      4  H   LIG d   1       9.514  -0.198  -7.248  0.00  0.00     0.033 H 
ATOM      5  H   LIG d   1       8.186  -0.796  -8.272  0.00  0.00     0.033 H 
BRANCH   3   6
ATOM      6  C   LIG d   1       8.915  -2.225  -6.834  0.00  0.00    -0.033 C 
ATOM      7  H   LIG d   1       9.799  -2.576  -7.367  0.00  0.00     0.081 H 
ATOM      8  H   LIG d   1       8.069  -2.870  -7.071  0.00  0.00     0.081 H 
BRANCH   6   9
ATOM      9  N   LIG d   1       9.169  -2.252  -5.381  0.00  0.00     0.230 N 
ATOM     10  H   LIG d   1      10.180  -2.304  -5.215  0.00  0.00     0.202 HD
ATOM     11  H   LIG d   1       8.795  -1.395  -4.957  0.00  0.00     0.202 HD
BRANCH   9  12
ATOM     12  C   LIG d   1       8.513  -3.422  -4.769  0.00  0.00    -0.008 C 
ATOM     13  H   LIG d   1       9.098  -3.764  -3.914  0.00  0.00     0.087 H 
ATOM     14  H   LIG d   1       8.438  -4.226  -5.501  0.00  0.00     0.087 H 
BRANCH  12  15
ATOM     15  C   LIG d   1       7.133  -3.031  -4.309  0.00  0.00    -0.003 A 
ATOM     16  C   LIG d   1       6.024  -3.658  -4.843  0.00  0.00    -0.050 A 
ATOM     17  C   LIG d   1       4.757  -3.301  -4.423  0.00  0.00    -0.019 A 
ATOM     18  H   LIG d   1       6.147  -4.429  -5.591  0.00  0.00     0.062 H 
ATOM     19  C   LIG d   1       4.598  -2.312  -3.463  0.00  0.00     0.120 A 
ATOM     20  H   LIG d   1       3.890  -3.789  -4.845  0.00  0.00     0.065 H 
ATOM     21  C   LIG d   1       5.713  -1.685  -2.927  0.00  0.00    -0.019 A 
ATOM     22  C   LIG d   1       6.977  -2.045  -3.351  0.00  0.00    -0.050 A 
ATOM     23  H   LIG d   1       5.593  -0.915  -2.180  0.00  0.00     0.065 H 
ATOM     24  H   LIG d   1       7.847  -1.556  -2.934  0.00  0.00     0.062 H 
BRANCH  19  25
ATOM     25  O   LIG d   1       3.354  -1.959  -3.048  0.00  0.00    -0.495 OA
BRANCH  25  26
ATOM     26  C   LIG d   1       2.842  -0.711  -3.519  0.00  0.00     0.079 C 
ATOM     27  H   LIG d   1       3.371  -0.421  -4.427  0.00  0.00     0.066 H 
ATOM     28  H   LIG d   1       1.779  -0.812  -3.734  0.00  0.00     0.066 H 
ATOM     29  H   LIG d   1       2.987   0.052  -2.755  0.00  0.00     0.066 H 
ENDBRANCH  25  26
ENDBRANCH  19  25
ENDBRANCH  12  15
ENDBRANCH   9  12
ENDBRANCH   6   9
ENDBRANCH   3   6
ENDBRANCH   1   3
BRANCH   1  30
ATOM     30  C   LIG d   1       8.143   1.085  -5.705  0.00  0.00    -0.040 A 
ATOM     31  C   LIG d   1       7.923   1.380  -4.373  0.00  0.00    -0.054 A 
ATOM     32  C   LIG d   1       8.439   2.540  -3.828  0.00  0.00    -0.020 A 
ATOM     33  H   LIG d   1       7.348   0.704  -3.758  0.00  0.00     0.062 H 
ATOM     34  C   LIG d   1       9.177   3.409  -4.619  0.00  0.00     0.120 A 
ATOM     35  H   LIG d   1       8.267   2.770  -2.787  0.00  0.00     0.065 H 
ATOM     36  C   LIG d   1       9.396   3.110  -5.956  0.00  0.00    -0.020 A 
ATOM     37  C   LIG d   1       8.884   1.945  -6.495  0.00  0.00    -0.054 A 
ATOM     38  H   LIG d   1       9.970   3.784  -6.573  0.00  0.00     0.065 H 
ATOM     39  H   LIG d   1       9.058   1.709  -7.533  0.00  0.00     0.062 H 
BRANCH  34  40
ATOM     40  O   LIG d   1       9.685   4.549  -4.084  0.00  0.00    -0.495 OA
BRANCH  40  41
ATOM     41  C   LIG d   1      10.045   4.513  -2.701  0.00  0.00     0.079 C 
ATOM     42  H   LIG d   1      10.793   5.280  -2.501  0.00  0.00     0.066 H 
ATOM     43  H   LIG d   1       9.162   4.697  -2.090  0.00  0.00     0.066 H 
ATOM     44  H   LIG d   1      10.458   3.533  -2.458  0.00  0.00     0.066 H 
ENDBRANCH  40  41
ENDBRANCH  34  40
ENDBRANCH   1  30
BRANCH   1  45
ATOM     45  C   LIG d   1       6.309   0.134  -7.043  0.00  0.00    -0.036 A 
ATOM     46  C   LIG d   1       6.357   0.885  -8.202  0.00  0.00    -0.012 A 
ATOM     47  C   LIG d   1       5.189   1.175  -8.889  0.00  0.00     0.167 A 
ATOM     48  H   LIG d   1       7.305   1.245  -8.573  0.00  0.00     0.066 H 
ATOM     49  C   LIG d   1       3.968   0.710  -8.407  0.00  0.00     0.166 A 
ATOM     50  O   LIG d   1       4.966   1.883 -10.035  0.00  0.00    -0.453 OA
ATOM     51  C   LIG d   1       3.927  -0.041  -7.244  0.00  0.00    -0.016 A 
ATOM     52  O   LIG d   1       2.980   1.126  -9.252  0.00  0.00    -0.453 OA
ATOM     53  C   LIG d   1       5.097  -0.333  -6.567  0.00  0.00    -0.054 A 
ATOM     54  H   LIG d   1       2.982  -0.403  -6.868  0.00  0.00     0.066 H 
ATOM     55  H   LIG d   1       5.065  -0.922  -5.663  0.00  0.00     0.062 H 
ATOM     56  C   LIG d   1       3.647   1.500 -10.471  0.00  0.00     0.233 C 
ATOM     57  H   LIG d   1       3.700   0.653 -11.155  0.00  0.00     0.117 H 
ATOM     58  H   LIG d   1       3.141   2.343 -10.941  0.00  0.00     0.117 H 
ENDBRANCH   1  45
TORSDOF 11
ENDMDL
MODEL 9
REMARK VINA RESULT:      -5.7      3.514      6.124
REMARK  11 active torsions:
REMARK  status: ('A' for Active; 'I' for Inactive)
REMARK    1  A    between atoms: C_1  and  O_2 
REMARK    2  A    between atoms: O_2  and  C_3 
REMARK    3  A    between atoms: C_6  and  C_9 
REMARK    4  A    between atoms: C_9  and  N_56 
REMARK    5  A    between atoms: C_10  and  C_11 
REMARK    6  A    between atoms: C_10  and  N_56 
REMARK    7  A    between atoms: C_11  and  C_12 
REMARK    8  A    between atoms: C_12  and  C_14 
REMARK    9  A    between atoms: C_12  and  C_22 
REMARK   10  A    between atoms: C_17  and  O_20 
REMARK   11  A    between atoms: O_20  and  C_21 
ROOT
ATOM      1  C   LIG d   1       5.892  -1.420  -4.609  0.00  0.00     0.014 C 
ATOM      2  H   LIG d   1       5.221  -1.529  -5.461  0.00  0.00     0.040 H 
ENDROOT
BRANCH   1   3
ATOM      3  C   LIG d   1       5.069  -1.303  -3.325  0.00  0.00    -0.002 C 
ATOM      4  H   LIG d   1       5.449  -0.476  -2.724  0.00  0.00     0.033 H 
ATOM      5  H   LIG d   1       5.149  -2.230  -2.756  0.00  0.00     0.033 H 
BRANCH   3   6
ATOM      6  C   LIG d   1       3.603  -1.045  -3.678  0.00  0.00    -0.033 C 
ATOM      7  H   LIG d   1       3.296  -0.082  -3.270  0.00  0.00     0.081 H 
ATOM      8  H   LIG d   1       2.984  -1.834  -3.252  0.00  0.00     0.081 H 
BRANCH   6   9
ATOM      9  N   LIG d   1       3.453  -1.032  -5.145  0.00  0.00     0.230 N 
ATOM     10  H   LIG d   1       4.379  -1.116  -5.581  0.00  0.00     0.202 HD
ATOM     11  H   LIG d   1       2.867  -1.826  -5.431  0.00  0.00     0.202 HD
BRANCH   9  12
ATOM     12  C   LIG d   1       2.819   0.224  -5.584  0.00  0.00    -0.008 C 
ATOM     13  H   LIG d   1       3.192   1.053  -4.982  0.00  0.00     0.087 H 
ATOM     14  H   LIG d   1       1.738   0.149  -5.467  0.00  0.00     0.087 H 
BRANCH  12  15
ATOM     15  C   LIG d   1       3.152   0.465  -7.034  0.00  0.00    -0.003 A 
ATOM     16  C   LIG d   1       3.881  -0.473  -7.739  0.00  0.00    -0.050 A 
ATOM     17  C   LIG d   1       4.188  -0.254  -9.069  0.00  0.00    -0.019 A 
ATOM     18  H   LIG d   1       4.211  -1.379  -7.252  0.00  0.00     0.062 H 
ATOM     19  C   LIG d   1       3.763   0.909  -9.695  0.00  0.00     0.120 A 
ATOM     20  H   LIG d   1       4.762  -0.986  -9.619  0.00  0.00     0.065 H 
ATOM     21  C   LIG d   1       3.031   1.848  -8.985  0.00  0.00    -0.019 A 
ATOM     22  C   LIG d   1       2.728   1.626  -7.656  0.00  0.00    -0.050 A 
ATOM     23  H   LIG d   1       2.700   2.755  -9.470  0.00  0.00     0.065 H 
ATOM     24  H   LIG d   1       2.157   2.357  -7.101  0.00  0.00     0.062 H 
BRANCH  19  25
ATOM     25  O   LIG d   1       4.064   1.127 -11.002  0.00  0.00    -0.495 OA
BRANCH  25  26
ATOM     26  C   LIG d   1       4.519   0.004 -11.760  0.00  0.00     0.079 C 
ATOM     27  H   LIG d   1       5.008  -0.708 -11.095  0.00  0.00     0.066 H 
ATOM     28  H   LIG d   1       3.670  -0.475 -12.246  0.00  0.00     0.066 H 
ATOM     29  H   LIG d   1       5.229   0.340 -12.515  0.00  0.00     0.066 H 
ENDBRANCH  25  26
ENDBRANCH  19  25
ENDBRANCH  12  15
ENDBRANCH   9  12
ENDBRANCH   6   9
ENDBRANCH   3   6
ENDBRANCH   1   3
BRANCH   1  30
ATOM     30  C   LIG d   1       6.730  -0.179  -4.785  0.00  0.00    -0.040 A 
ATOM     31  C   LIG d   1       7.296   0.102  -6.014  0.00  0.00    -0.054 A 
ATOM     32  C   LIG d   1       8.064   1.239  -6.178  0.00  0.00    -0.020 A 
ATOM     33  H   LIG d   1       7.137  -0.567  -6.848  0.00  0.00     0.062 H 
ATOM     34  C   LIG d   1       8.267   2.097  -5.107  0.00  0.00     0.120 A 
ATOM     35  H   LIG d   1       8.505   1.458  -7.139  0.00  0.00     0.065 H 
ATOM     36  C   LIG d   1       7.698   1.812  -3.875  0.00  0.00    -0.020 A 
ATOM     37  C   LIG d   1       6.926   0.677  -3.718  0.00  0.00    -0.054 A 
ATOM     38  H   LIG d   1       7.855   2.478  -3.040  0.00  0.00     0.065 H 
ATOM     39  H   LIG d   1       6.478   0.458  -2.761  0.00  0.00     0.062 H 
BRANCH  34  40
ATOM     40  O   LIG d   1       9.021   3.216  -5.267  0.00  0.00    -0.495 OA
BRANCH  40  41
ATOM     41  C   LIG d   1       9.592   3.433  -6.559  0.00  0.00     0.079 C 
ATOM     42  H   LIG d   1       9.001   4.176  -7.097  0.00  0.00     0.066 H 
ATOM     43  H   LIG d   1      10.615   3.793  -6.449  0.00  0.00     0.066 H 
ATOM     44  H   LIG d   1       9.594   2.497  -7.119  0.00  0.00     0.066 H 
ENDBRANCH  40  41
ENDBRANCH  34  40
ENDBRANCH   1  30
BRANCH   1  45
ATOM     45  C   LIG d   1       6.792  -2.625  -4.521  0.00  0.00    -0.036 A 
ATOM     46  C   LIG d   1       7.825  -2.650  -3.604  0.00  0.00    -0.012 A 
ATOM     47  C   LIG d   1       8.653  -3.758  -3.522  0.00  0.00     0.167 A 
ATOM     48  H   LIG d   1       7.987  -1.805  -2.951  0.00  0.00     0.066 H 
ATOM     49  C   LIG d   1       8.441  -4.845  -4.366  0.00  0.00     0.166 A 
ATOM     50  O   LIG d   1       9.724  -4.030  -2.719  0.00  0.00    -0.453 OA
ATOM     51  C   LIG d   1       7.404  -4.814  -5.283  0.00  0.00    -0.016 A 
ATOM     52  O   LIG d   1       9.379  -5.798  -4.091  0.00  0.00    -0.453 OA
ATOM     53  C   LIG d   1       6.578  -3.708  -5.356  0.00  0.00    -0.054 A 
ATOM     54  H   LIG d   1       7.237  -5.656  -5.939  0.00  0.00     0.066 H 
ATOM     55  H   LIG d   1       5.767  -3.686  -6.068  0.00  0.00     0.062 H 
ATOM     56  C   LIG d   1       9.910  -5.456  -2.798  0.00  0.00     0.233 C 
ATOM     57  H   LIG d   1       9.352  -5.960  -2.009  0.00  0.00     0.117 H 
ATOM     58  H   LIG d   1      10.969  -5.706  -2.740  0.00  0.00     0.117 H 
ENDBRANCH   1  45
TORSDOF 11
ENDMDL
MODEL 10
REMARK VINA RESULT:      -5.7     10.368     13.559
REMARK  11 active torsions:
REMARK  status: ('A' for Active; 'I' for Inactive)
REMARK    1  A    between atoms: C_1  and  O_2 
REMARK    2  A    between atoms: O_2  and  C_3 
REMARK    3  A    between atoms: C_6  and  C_9 
REMARK    4  A    between atoms: C_9  and  N_56 
REMARK    5  A    between atoms: C_10  and  C_11 
REMARK    6  A    between atoms: C_10  and  N_56 
REMARK    7  A    between atoms: C_11  and  C_12 
REMARK    8  A    between atoms: C_12  and  C_14 
REMARK    9  A    between atoms: C_12  and  C_22 
REMARK   10  A    between atoms: C_17  and  O_20 
REMARK   11  A    between atoms: O_20  and  C_21 
ROOT
ATOM      1  C   LIG d   1       9.579   9.127  -5.170  0.00  0.00     0.014 C 
ATOM      2  H   LIG d   1       8.512   9.102  -4.952  0.00  0.00     0.040 H 
ENDROOT
BRANCH   1   3
ATOM      3  C   LIG d   1      10.151  10.486  -4.764  0.00  0.00    -0.002 C 
ATOM      4  H   LIG d   1      10.572  10.979  -5.640  0.00  0.00     0.033 H 
ATOM      5  H   LIG d   1      10.933  10.343  -4.017  0.00  0.00     0.033 H 
BRANCH   3   6
ATOM      6  C   LIG d   1       9.037  11.355  -4.176  0.00  0.00    -0.033 C 
ATOM      7  H   LIG d   1       8.147  11.274  -4.800  0.00  0.00     0.081 H 
ATOM      8  H   LIG d   1       9.366  12.394  -4.146  0.00  0.00     0.081 H 
BRANCH   6   9
ATOM      9  N   LIG d   1       8.730  10.891  -2.810  0.00  0.00     0.230 N 
ATOM     10  H   LIG d   1       7.817  11.263  -2.524  0.00  0.00     0.202 HD
ATOM     11  H   LIG d   1       8.699   9.864  -2.802  0.00  0.00     0.202 HD
BRANCH   9  12
ATOM     12  C   LIG d   1       9.764  11.354  -1.867  0.00  0.00    -0.008 C 
ATOM     13  H   LIG d   1       9.312  12.012  -1.123  0.00  0.00     0.087 H 
ATOM     14  H   LIG d   1      10.538  11.897  -2.409  0.00  0.00     0.087 H 
BRANCH  12  15
ATOM     15  C   LIG d   1      10.375  10.161  -1.178  0.00  0.00    -0.003 A 
ATOM     16  C   LIG d   1      11.722  10.157  -0.870  0.00  0.00    -0.050 A 
ATOM     17  C   LIG d   1      12.284   9.065  -0.238  0.00  0.00    -0.019 A 
ATOM     18  H   LIG d   1      12.336  11.009  -1.123  0.00  0.00     0.062 H 
ATOM     19  C   LIG d   1      11.495   7.971   0.087  0.00  0.00     0.120 A 
ATOM     20  H   LIG d   1      13.338   9.061  -0.002  0.00  0.00     0.065 H 
ATOM     21  C   LIG d   1      10.144   7.978  -0.222  0.00  0.00    -0.019 A 
ATOM     22  C   LIG d   1       9.586   9.071  -0.855  0.00  0.00    -0.050 A 
ATOM     23  H   LIG d   1       9.527   7.127   0.029  0.00  0.00     0.065 H 
ATOM     24  H   LIG d   1       8.533   9.078  -1.097  0.00  0.00     0.062 H 
BRANCH  19  25
ATOM     25  O   LIG d   1      12.046   6.895   0.708  0.00  0.00    -0.495 OA
BRANCH  25  26
ATOM     26  C   LIG d   1      11.157   5.849   1.105  0.00  0.00     0.079 C 
ATOM     27  H   LIG d   1      11.289   4.991   0.445  0.00  0.00     0.066 H 
ATOM     28  H   LIG d   1      11.376   5.556   2.131  0.00  0.00     0.066 H 
ATOM     29  H   LIG d   1      10.128   6.202   1.039  0.00  0.00     0.066 H 
ENDBRANCH  25  26
ENDBRANCH  19  25
ENDBRANCH  12  15
ENDBRANCH   9  12
ENDBRANCH   6   9
ENDBRANCH   3   6
ENDBRANCH   1   3
BRANCH   1  30
ATOM     30  C   LIG d   1       9.796   8.910  -6.645  0.00  0.00    -0.040 A 
ATOM     31  C   LIG d   1      10.804   9.591  -7.302  0.00  0.00    -0.054 A 
ATOM     32  C   LIG d   1      11.005   9.393  -8.654  0.00  0.00    -0.020 A 
ATOM     33  H   LIG d   1      11.434  10.279  -6.757  0.00  0.00     0.062 H 
ATOM     34  C   LIG d   1      10.195   8.509  -9.353  0.00  0.00     0.120 A 
ATOM     35  H   LIG d   1      11.792   9.926  -9.166  0.00  0.00     0.065 H 
ATOM     36  C   LIG d   1       9.185   7.827  -8.691  0.00  0.00    -0.020 A 
ATOM     37  C   LIG d   1       8.991   8.024  -7.337  0.00  0.00    -0.054 A 
ATOM     38  H   LIG d   1       8.553   7.139  -9.232  0.00  0.00     0.065 H 
ATOM     39  H   LIG d   1       8.209   7.489  -6.821  0.00  0.00     0.062 H 
BRANCH  34  40
ATOM     40  O   LIG d   1      10.392   8.313 -10.682  0.00  0.00    -0.495 OA
BRANCH  40  41
ATOM     41  C   LIG d   1      11.636   7.728 -11.074  0.00  0.00     0.079 C 
ATOM     42  H   LIG d   1      11.576   7.409 -12.115  0.00  0.00     0.066 H 
ATOM     43  H   LIG d   1      12.434   8.462 -10.964  0.00  0.00     0.066 H 
ATOM     44  H   LIG d   1      11.847   6.864 -10.442  0.00  0.00     0.066 H 
ENDBRANCH  40  41
ENDBRANCH  34  40
ENDBRANCH   1  30
BRANCH   1  45
ATOM     45  C   LIG d   1      10.274   8.038  -4.394  0.00  0.00    -0.036 A 
ATOM     46  C   LIG d   1       9.558   6.942  -3.950  0.00  0.00    -0.012 A 
ATOM     47  C   LIG d   1      10.197   5.940  -3.237  0.00  0.00     0.167 A 
ATOM     48  H   LIG d   1       8.501   6.868  -4.157  0.00  0.00     0.066 H 
ATOM     49  C   LIG d   1      11.560   6.039  -2.970  0.00  0.00     0.166 A 
ATOM     50  O   LIG d   1       9.729   4.776  -2.696  0.00  0.00    -0.453 OA
ATOM     51  C   LIG d   1      12.271   7.140  -3.418  0.00  0.00    -0.016 A 
ATOM     52  O   LIG d   1      11.946   4.938  -2.262  0.00  0.00    -0.453 OA
ATOM     53  C   LIG d   1      11.630   8.134  -4.134  0.00  0.00    -0.054 A 
ATOM     54  H   LIG d   1      13.328   7.220  -3.213  0.00  0.00     0.066 H 
ATOM     55  H   LIG d   1      12.186   8.989  -4.487  0.00  0.00     0.062 H 
ATOM     56  C   LIG d   1      10.897   3.970  -2.451  0.00  0.00     0.233 C 
ATOM     57  H   LIG d   1      11.112   3.336  -3.310  0.00  0.00     0.117 H 
ATOM     58  H   LIG d   1      10.765   3.369  -1.552  0.00  0.00     0.117 H 
ENDBRANCH   1  45
TORSDOF 11
ENDMDL
