MODEL 1
REMARK VINA RESULT:      -6.4      0.000      0.000
REMARK  4 active torsions:
REMARK  status: ('A' for Active; 'I' for Inactive)
REMARK    1  A    between atoms: C_1  and  O_2 
REMARK    2  A    between atoms: O_2  and  C_3 
REMARK    3  A    between atoms: C_6  and  C_9 
REMARK    4  A    between atoms: C_18  and  O_21 
ROOT
ATOM      1  C   LIG d   1       3.555   0.031  -6.840  0.00  0.00     0.091 C 
ATOM      2  H   LIG d   1       4.073   0.974  -6.661  0.00  0.00     0.065 H 
ATOM      3  C   LIG d   1       4.362  -1.121  -6.238  0.00  0.00     0.003 C 
ATOM      4  C   LIG d   1       4.299  -1.055  -4.734  0.00  0.00    -0.037 A 
ATOM      5  C   LIG d   1       5.227  -1.771  -3.995  0.00  0.00    -0.058 A 
ATOM      6  C   LIG d   1       5.197  -1.734  -2.615  0.00  0.00    -0.061 A 
ATOM      7  C   LIG d   1       4.235  -0.981  -1.968  0.00  0.00    -0.061 A 
ATOM      8  C   LIG d   1       3.310  -0.267  -2.703  0.00  0.00    -0.053 A 
ATOM      9  C   LIG d   1       3.341  -0.300  -4.088  0.00  0.00     0.011 A 
ATOM     10  C   LIG d   1       2.319   0.498  -4.855  0.00  0.00     0.184 C 
ATOM     11  H   LIG d   1       1.339   0.363  -4.397  0.00  0.00     0.096 H 
ATOM     12  O   LIG d   1       2.269   0.061  -6.213  0.00  0.00    -0.339 OA
ATOM     13  H   LIG d   1       5.400  -1.044  -6.562  0.00  0.00     0.034 H 
ATOM     14  H   LIG d   1       3.946  -2.070  -6.577  0.00  0.00     0.034 H 
ATOM     15  H   LIG d   1       5.978  -2.359  -4.501  0.00  0.00     0.062 H 
ATOM     16  H   LIG d   1       5.922  -2.293  -2.043  0.00  0.00     0.062 H 
ATOM     17  H   LIG d   1       4.208  -0.952  -0.888  0.00  0.00     0.062 H 
ATOM     18  H   LIG d   1       2.559   0.321  -2.196  0.00  0.00     0.062 H 
ENDROOT
BRANCH   1  19
ATOM     19  C   LIG d   1       3.390  -0.186  -8.323  0.00  0.00    -0.018 A 
ATOM     20  C   LIG d   1       2.128  -0.382  -8.854  0.00  0.00    -0.053 A 
ATOM     21  C   LIG d   1       1.973  -0.581 -10.213  0.00  0.00    -0.020 A 
ATOM     22  H   LIG d   1       1.263  -0.380  -8.208  0.00  0.00     0.062 H 
ATOM     23  C   LIG d   1       3.084  -0.584 -11.043  0.00  0.00     0.120 A 
ATOM     24  H   LIG d   1       0.988  -0.734 -10.627  0.00  0.00     0.065 H 
ATOM     25  C   LIG d   1       4.349  -0.387 -10.507  0.00  0.00    -0.020 A 
ATOM     26  C   LIG d   1       4.497  -0.183  -9.149  0.00  0.00    -0.053 A 
ATOM     27  H   LIG d   1       5.216  -0.389 -11.152  0.00  0.00     0.065 H 
ATOM     28  H   LIG d   1       5.482  -0.025  -8.731  0.00  0.00     0.062 H 
BRANCH  23  29
ATOM     29  O   LIG d   1       2.935  -0.780 -12.380  0.00  0.00    -0.495 OA
BRANCH  29  30
ATOM     30  C   LIG d   1       4.116  -0.711 -13.182  0.00  0.00     0.079 C 
ATOM     31  H   LIG d   1       4.213   0.292 -13.599  0.00  0.00     0.066 H 
ATOM     32  H   LIG d   1       4.987  -0.935 -12.566  0.00  0.00     0.066 H 
ATOM     33  H   LIG d   1       4.047  -1.436 -13.992  0.00  0.00     0.066 H 
ENDBRANCH  29  30
ENDBRANCH  23  29
ENDBRANCH   1  19
BRANCH  10  34
ATOM     34  O   LIG d   1       2.672   1.881  -4.816  0.00  0.00    -0.363 OA
ATOM     35  H   LIG d   1       2.773   2.237  -3.922  0.00  0.00     0.213 HD
ENDBRANCH  10  34
TORSDOF 4
ENDMDL
MODEL 2
REMARK VINA RESULT:      -6.1      1.503      2.176
REMARK  4 active torsions:
REMARK  status: ('A' for Active; 'I' for Inactive)
REMARK    1  A    between atoms: C_1  and  O_2 
REMARK    2  A    between atoms: O_2  and  C_3 
REMARK    3  A    between atoms: C_6  and  C_9 
REMARK    4  A    between atoms: C_18  and  O_21 
ROOT
ATOM      1  C   LIG d   1       3.513  -1.125  -6.491  0.00  0.00     0.091 C 
ATOM      2  H   LIG d   1       2.739  -1.801  -6.126  0.00  0.00     0.065 H 
ATOM      3  C   LIG d   1       3.370   0.236  -5.809  0.00  0.00     0.003 C 
ATOM      4  C   LIG d   1       3.766   0.122  -4.359  0.00  0.00    -0.037 A 
ATOM      5  C   LIG d   1       3.384   1.125  -3.481  0.00  0.00    -0.058 A 
ATOM      6  C   LIG d   1       3.732   1.053  -2.148  0.00  0.00    -0.061 A 
ATOM      7  C   LIG d   1       4.466  -0.023  -1.685  0.00  0.00    -0.061 A 
ATOM      8  C   LIG d   1       4.847  -1.023  -2.557  0.00  0.00    -0.053 A 
ATOM      9  C   LIG d   1       4.496  -0.954  -3.897  0.00  0.00     0.011 A 
ATOM     10  C   LIG d   1       4.925  -2.068  -4.816  0.00  0.00     0.184 C 
ATOM     11  H   LIG d   1       5.962  -2.328  -4.608  0.00  0.00     0.096 H 
ATOM     12  O   LIG d   1       4.804  -1.658  -6.178  0.00  0.00    -0.339 OA
ATOM     13  H   LIG d   1       2.335   0.569  -5.876  0.00  0.00     0.034 H 
ATOM     14  H   LIG d   1       4.016   0.960  -6.305  0.00  0.00     0.034 H 
ATOM     15  H   LIG d   1       2.811   1.966  -3.844  0.00  0.00     0.062 H 
ATOM     16  H   LIG d   1       3.432   1.836  -1.468  0.00  0.00     0.062 H 
ATOM     17  H   LIG d   1       4.741  -0.081  -0.642  0.00  0.00     0.062 H 
ATOM     18  H   LIG d   1       5.420  -1.863  -2.195  0.00  0.00     0.062 H 
ENDROOT
BRANCH   1  19
ATOM     19  C   LIG d   1       3.383  -0.960  -7.984  0.00  0.00    -0.018 A 
ATOM     20  C   LIG d   1       2.337  -0.223  -8.508  0.00  0.00    -0.053 A 
ATOM     21  C   LIG d   1       2.217  -0.069  -9.876  0.00  0.00    -0.020 A 
ATOM     22  H   LIG d   1       1.614   0.233  -7.849  0.00  0.00     0.062 H 
ATOM     23  C   LIG d   1       3.146  -0.656 -10.723  0.00  0.00     0.120 A 
ATOM     24  H   LIG d   1       1.400   0.506 -10.285  0.00  0.00     0.065 H 
ATOM     25  C   LIG d   1       4.194  -1.394 -10.194  0.00  0.00    -0.020 A 
ATOM     26  C   LIG d   1       4.313  -1.540  -8.826  0.00  0.00    -0.053 A 
ATOM     27  H   LIG d   1       4.919  -1.852 -10.852  0.00  0.00     0.065 H 
ATOM     28  H   LIG d   1       5.132  -2.112  -8.413  0.00  0.00     0.062 H 
BRANCH  23  29
ATOM     29  O   LIG d   1       3.029  -0.507 -12.069  0.00  0.00    -0.495 OA
BRANCH  29  30
ATOM     30  C   LIG d   1       4.242  -0.436 -12.822  0.00  0.00     0.079 C 
ATOM     31  H   LIG d   1       5.081  -0.716 -12.185  0.00  0.00     0.066 H 
ATOM     32  H   LIG d   1       4.184  -1.120 -13.669  0.00  0.00     0.066 H 
ATOM     33  H   LIG d   1       4.385   0.581 -13.185  0.00  0.00     0.066 H 
ENDBRANCH  29  30
ENDBRANCH  23  29
ENDBRANCH   1  19
BRANCH  10  34
ATOM     34  O   LIG d   1       4.098  -3.211  -4.591  0.00  0.00    -0.363 OA
ATOM     35  H   LIG d   1       3.698  -3.241  -3.712  0.00  0.00     0.213 HD
ENDBRANCH  10  34
TORSDOF 4
ENDMDL
MODEL 3
REMARK VINA RESULT:      -5.9      3.765      5.900
REMARK  4 active torsions:
REMARK  status: ('A' for Active; 'I' for Inactive)
REMARK    1  A    between atoms: C_1  and  O_2 
REMARK    2  A    between atoms: O_2  and  C_3 
REMARK    3  A    between atoms: C_6  and  C_9 
REMARK    4  A    between atoms: C_18  and  O_21 
ROOT
ATOM      1  C   LIG d   1       5.509  -2.506  -4.905  0.00  0.00     0.091 C 
ATOM      2  H   LIG d   1       6.333  -1.879  -5.246  0.00  0.00     0.065 H 
ATOM      3  C   LIG d   1       5.289  -2.298  -3.407  0.00  0.00     0.003 C 
ATOM      4  C   LIG d   1       4.711  -0.928  -3.163  0.00  0.00    -0.037 A 
ATOM      5  C   LIG d   1       4.763  -0.399  -1.882  0.00  0.00    -0.058 A 
ATOM      6  C   LIG d   1       4.241   0.852  -1.624  0.00  0.00    -0.061 A 
ATOM      7  C   LIG d   1       3.662   1.581  -2.646  0.00  0.00    -0.061 A 
ATOM      8  C   LIG d   1       3.610   1.056  -3.922  0.00  0.00    -0.053 A 
ATOM      9  C   LIG d   1       4.136  -0.199  -4.184  0.00  0.00     0.011 A 
ATOM     10  C   LIG d   1       4.066  -0.734  -5.590  0.00  0.00     0.184 C 
ATOM     11  H   LIG d   1       3.077  -0.537  -6.002  0.00  0.00     0.096 H 
ATOM     12  O   LIG d   1       4.308  -2.141  -5.595  0.00  0.00    -0.339 OA
ATOM     13  H   LIG d   1       6.242  -2.387  -2.885  0.00  0.00     0.034 H 
ATOM     14  H   LIG d   1       4.600  -3.054  -3.032  0.00  0.00     0.034 H 
ATOM     15  H   LIG d   1       5.215  -0.969  -1.084  0.00  0.00     0.062 H 
ATOM     16  H   LIG d   1       4.283   1.260  -0.625  0.00  0.00     0.062 H 
ATOM     17  H   LIG d   1       3.251   2.560  -2.446  0.00  0.00     0.062 H 
ATOM     18  H   LIG d   1       3.157   1.626  -4.719  0.00  0.00     0.062 H 
ENDROOT
BRANCH   1  19
ATOM     19  C   LIG d   1       5.825  -3.956  -5.175  0.00  0.00    -0.018 A 
ATOM     20  C   LIG d   1       7.140  -4.381  -5.199  0.00  0.00    -0.053 A 
ATOM     21  C   LIG d   1       7.433  -5.709  -5.444  0.00  0.00    -0.020 A 
ATOM     22  H   LIG d   1       7.940  -3.677  -5.025  0.00  0.00     0.062 H 
ATOM     23  C   LIG d   1       6.406  -6.615  -5.668  0.00  0.00     0.120 A 
ATOM     24  H   LIG d   1       8.460  -6.041  -5.463  0.00  0.00     0.065 H 
ATOM     25  C   LIG d   1       5.087  -6.184  -5.643  0.00  0.00    -0.020 A 
ATOM     26  C   LIG d   1       4.800  -4.857  -5.391  0.00  0.00    -0.053 A 
ATOM     27  H   LIG d   1       4.286  -6.888  -5.818  0.00  0.00     0.065 H 
ATOM     28  H   LIG d   1       3.773  -4.522  -5.368  0.00  0.00     0.062 H 
BRANCH  23  29
ATOM     29  O   LIG d   1       6.691  -7.921  -5.911  0.00  0.00    -0.495 OA
BRANCH  29  30
ATOM     30  C   LIG d   1       6.437  -8.848  -4.854  0.00  0.00     0.079 C 
ATOM     31  H   LIG d   1       5.898  -9.709  -5.249  0.00  0.00     0.066 H 
ATOM     32  H   LIG d   1       7.383  -9.177  -4.424  0.00  0.00     0.066 H 
ATOM     33  H   LIG d   1       5.836  -8.365  -4.084  0.00  0.00     0.066 H 
ENDBRANCH  29  30
ENDBRANCH  23  29
ENDBRANCH   1  19
BRANCH  10  34
ATOM     34  O   LIG d   1       5.050  -0.082  -6.395  0.00  0.00    -0.363 OA
ATOM     35  H   LIG d   1       5.788  -0.652  -6.653  0.00  0.00     0.213 HD
ENDBRANCH  10  34
TORSDOF 4
ENDMDL
MODEL 4
REMARK VINA RESULT:      -5.9      5.003      5.927
REMARK  4 active torsions:
REMARK  status: ('A' for Active; 'I' for Inactive)
REMARK    1  A    between atoms: C_1  and  O_2 
REMARK    2  A    between atoms: O_2  and  C_3 
REMARK    3  A    between atoms: C_6  and  C_9 
REMARK    4  A    between atoms: C_18  and  O_21 
ROOT
ATOM      1  C   LIG d   1       6.212  -3.110  -4.450  0.00  0.00     0.091 C 
ATOM      2  H   LIG d   1       6.975  -3.225  -3.680  0.00  0.00     0.065 H 
ATOM      3  C   LIG d   1       4.883  -2.718  -3.802  0.00  0.00     0.003 C 
ATOM      4  C   LIG d   1       4.966  -1.305  -3.285  0.00  0.00    -0.037 A 
ATOM      5  C   LIG d   1       4.023  -0.874  -2.365  0.00  0.00    -0.058 A 
ATOM      6  C   LIG d   1       4.068   0.414  -1.872  0.00  0.00    -0.061 A 
ATOM      7  C   LIG d   1       5.059   1.280  -2.298  0.00  0.00    -0.061 A 
ATOM      8  C   LIG d   1       5.999   0.852  -3.213  0.00  0.00    -0.053 A 
ATOM      9  C   LIG d   1       5.957  -0.443  -3.708  0.00  0.00     0.011 A 
ATOM     10  C   LIG d   1       7.005  -0.874  -4.700  0.00  0.00     0.184 C 
ATOM     11  H   LIG d   1       7.147  -0.086  -5.439  0.00  0.00     0.096 H 
ATOM     12  O   LIG d   1       6.597  -2.073  -5.359  0.00  0.00    -0.339 OA
ATOM     13  H   LIG d   1       4.669  -3.395  -2.975  0.00  0.00     0.034 H 
ATOM     14  H   LIG d   1       4.085  -2.787  -4.541  0.00  0.00     0.034 H 
ATOM     15  H   LIG d   1       3.249  -1.551  -2.033  0.00  0.00     0.062 H 
ATOM     16  H   LIG d   1       3.331   0.746  -1.156  0.00  0.00     0.062 H 
ATOM     17  H   LIG d   1       5.096   2.289  -1.916  0.00  0.00     0.062 H 
ATOM     18  H   LIG d   1       6.773   1.528  -3.546  0.00  0.00     0.062 H 
ENDROOT
BRANCH   1  19
ATOM     19  C   LIG d   1       6.047  -4.406  -5.202  0.00  0.00    -0.018 A 
ATOM     20  C   LIG d   1       7.163  -5.113  -5.610  0.00  0.00    -0.053 A 
ATOM     21  C   LIG d   1       7.014  -6.301  -6.299  0.00  0.00    -0.020 A 
ATOM     22  H   LIG d   1       8.151  -4.737  -5.391  0.00  0.00     0.062 H 
ATOM     23  C   LIG d   1       5.745  -6.784  -6.582  0.00  0.00     0.120 A 
ATOM     24  H   LIG d   1       7.886  -6.853  -6.618  0.00  0.00     0.065 H 
ATOM     25  C   LIG d   1       4.627  -6.071  -6.171  0.00  0.00    -0.020 A 
ATOM     26  C   LIG d   1       4.781  -4.887  -5.478  0.00  0.00    -0.053 A 
ATOM     27  H   LIG d   1       3.637  -6.445  -6.391  0.00  0.00     0.065 H 
ATOM     28  H   LIG d   1       3.911  -4.334  -5.154  0.00  0.00     0.062 H 
BRANCH  23  29
ATOM     29  O   LIG d   1       5.596  -7.952  -7.261  0.00  0.00    -0.495 OA
BRANCH  29  30
ATOM     30  C   LIG d   1       4.658  -8.893  -6.735  0.00  0.00     0.079 C 
ATOM     31  H   LIG d   1       5.113  -9.432  -5.904  0.00  0.00     0.066 H 
ATOM     32  H   LIG d   1       3.771  -8.365  -6.384  0.00  0.00     0.066 H 
ATOM     33  H   LIG d   1       4.376  -9.599  -7.515  0.00  0.00     0.066 H 
ENDBRANCH  29  30
ENDBRANCH  23  29
ENDBRANCH   1  19
BRANCH  10  34
ATOM     34  O   LIG d   1       8.237  -1.107  -4.016  0.00  0.00    -0.363 OA
ATOM     35  H   LIG d   1       8.161  -1.096  -3.052  0.00  0.00     0.213 HD
ENDBRANCH  10  34
TORSDOF 4
ENDMDL
MODEL 5
REMARK VINA RESULT:      -5.8      4.544      7.093
REMARK  4 active torsions:
REMARK  status: ('A' for Active; 'I' for Inactive)
REMARK    1  A    between atoms: C_1  and  O_2 
REMARK    2  A    between atoms: O_2  and  C_3 
REMARK    3  A    between atoms: C_6  and  C_9 
REMARK    4  A    between atoms: C_18  and  O_21 
ROOT
ATOM      1  C   LIG d   1       6.610  -2.664  -4.354  0.00  0.00     0.091 C 
ATOM      2  H   LIG d   1       6.607  -2.093  -5.283  0.00  0.00     0.065 H 
ATOM      3  C   LIG d   1       6.686  -1.707  -3.163  0.00  0.00     0.003 C 
ATOM      4  C   LIG d   1       5.383  -0.963  -3.024  0.00  0.00    -0.037 A 
ATOM      5  C   LIG d   1       5.350   0.187  -2.251  0.00  0.00    -0.058 A 
ATOM      6  C   LIG d   1       4.173   0.891  -2.101  0.00  0.00    -0.061 A 
ATOM      7  C   LIG d   1       3.021   0.448  -2.722  0.00  0.00    -0.061 A 
ATOM      8  C   LIG d   1       3.052  -0.697  -3.493  0.00  0.00    -0.053 A 
ATOM      9  C   LIG d   1       4.234  -1.405  -3.648  0.00  0.00     0.011 A 
ATOM     10  C   LIG d   1       4.230  -2.645  -4.502  0.00  0.00     0.184 C 
ATOM     11  H   LIG d   1       3.346  -3.239  -4.270  0.00  0.00     0.096 H 
ATOM     12  O   LIG d   1       5.401  -3.423  -4.250  0.00  0.00    -0.339 OA
ATOM     13  H   LIG d   1       7.496  -0.994  -3.322  0.00  0.00     0.034 H 
ATOM     14  H   LIG d   1       6.878  -2.276  -2.253  0.00  0.00     0.034 H 
ATOM     15  H   LIG d   1       6.251   0.533  -1.765  0.00  0.00     0.062 H 
ATOM     16  H   LIG d   1       4.152   1.787  -1.498  0.00  0.00     0.062 H 
ATOM     17  H   LIG d   1       2.098   0.996  -2.605  0.00  0.00     0.062 H 
ATOM     18  H   LIG d   1       2.152  -1.043  -3.979  0.00  0.00     0.062 H 
ENDROOT
BRANCH   1  19
ATOM     19  C   LIG d   1       7.795  -3.597  -4.332  0.00  0.00    -0.018 A 
ATOM     20  C   LIG d   1       8.768  -3.452  -3.360  0.00  0.00    -0.053 A 
ATOM     21  C   LIG d   1       9.854  -4.306  -3.337  0.00  0.00    -0.020 A 
ATOM     22  H   LIG d   1       8.680  -2.672  -2.619  0.00  0.00     0.062 H 
ATOM     23  C   LIG d   1       9.967  -5.308  -4.290  0.00  0.00     0.120 A 
ATOM     24  H   LIG d   1      10.614  -4.192  -2.579  0.00  0.00     0.065 H 
ATOM     25  C   LIG d   1       8.989  -5.450  -5.263  0.00  0.00    -0.020 A 
ATOM     26  C   LIG d   1       7.902  -4.598  -5.278  0.00  0.00    -0.053 A 
ATOM     27  H   LIG d   1       9.075  -6.230  -6.006  0.00  0.00     0.065 H 
ATOM     28  H   LIG d   1       7.137  -4.711  -6.033  0.00  0.00     0.062 H 
BRANCH  23  29
ATOM     29  O   LIG d   1      11.035  -6.149  -4.270  0.00  0.00    -0.495 OA
BRANCH  29  30
ATOM     30  C   LIG d   1      12.228  -5.669  -3.647  0.00  0.00     0.079 C 
ATOM     31  H   LIG d   1      11.998  -4.781  -3.059  0.00  0.00     0.066 H 
ATOM     32  H   LIG d   1      12.634  -6.443  -2.995  0.00  0.00     0.066 H 
ATOM     33  H   LIG d   1      12.961  -5.418  -4.413  0.00  0.00     0.066 H 
ENDBRANCH  29  30
ENDBRANCH  23  29
ENDBRANCH   1  19
BRANCH  10  34
ATOM     34  O   LIG d   1       4.198  -2.271  -5.880  0.00  0.00    -0.363 OA
ATOM     35  H   LIG d   1       3.468  -1.681  -6.111  0.00  0.00     0.213 HD
ENDBRANCH  10  34
TORSDOF 4
ENDMDL
MODEL 6
REMARK VINA RESULT:      -5.7      5.345      7.277
REMARK  4 active torsions:
REMARK  status: ('A' for Active; 'I' for Inactive)
REMARK    1  A    between atoms: C_1  and  O_2 
REMARK    2  A    between atoms: O_2  and  C_3 
REMARK    3  A    between atoms: C_6  and  C_9 
REMARK    4  A    between atoms: C_18  and  O_21 
ROOT
ATOM      1  C   LIG d   1       7.517   0.988  -4.568  0.00  0.00     0.091 C 
ATOM      2  H   LIG d   1       6.916   1.013  -5.478  0.00  0.00     0.065 H 
ATOM      3  C   LIG d   1       6.616   1.205  -3.351  0.00  0.00     0.003 C 
ATOM      4  C   LIG d   1       5.747  -0.008  -3.139  0.00  0.00    -0.037 A 
ATOM      5  C   LIG d   1       4.627   0.106  -2.329  0.00  0.00    -0.058 A 
ATOM      6  C   LIG d   1       3.811  -0.985  -2.112  0.00  0.00    -0.061 A 
ATOM      7  C   LIG d   1       4.111  -2.198  -2.703  0.00  0.00    -0.061 A 
ATOM      8  C   LIG d   1       5.225  -2.313  -3.511  0.00  0.00    -0.053 A 
ATOM      9  C   LIG d   1       6.045  -1.217  -3.732  0.00  0.00     0.011 A 
ATOM     10  C   LIG d   1       7.247  -1.381  -4.625  0.00  0.00     0.184 C 
ATOM     11  H   LIG d   1       7.755  -2.314  -4.379  0.00  0.00     0.096 H 
ATOM     12  O   LIG d   1       8.150  -0.290  -4.442  0.00  0.00    -0.339 OA
ATOM     13  H   LIG d   1       5.985   2.078  -3.518  0.00  0.00     0.034 H 
ATOM     14  H   LIG d   1       7.233   1.367  -2.468  0.00  0.00     0.034 H 
ATOM     15  H   LIG d   1       4.394   1.054  -1.867  0.00  0.00     0.062 H 
ATOM     16  H   LIG d   1       2.940  -0.892  -1.480  0.00  0.00     0.062 H 
ATOM     17  H   LIG d   1       3.475  -3.054  -2.534  0.00  0.00     0.062 H 
ATOM     18  H   LIG d   1       5.459  -3.261  -3.972  0.00  0.00     0.062 H 
ENDROOT
BRANCH   1  19
ATOM     19  C   LIG d   1       8.567   2.069  -4.621  0.00  0.00    -0.018 A 
ATOM     20  C   LIG d   1       8.830   2.717  -5.813  0.00  0.00    -0.053 A 
ATOM     21  C   LIG d   1       9.791   3.708  -5.864  0.00  0.00    -0.020 A 
ATOM     22  H   LIG d   1       8.284   2.449  -6.706  0.00  0.00     0.062 H 
ATOM     23  C   LIG d   1      10.493   4.052  -4.718  0.00  0.00     0.120 A 
ATOM     24  H   LIG d   1       9.997   4.214  -6.796  0.00  0.00     0.065 H 
ATOM     25  C   LIG d   1      10.226   3.399  -3.523  0.00  0.00    -0.020 A 
ATOM     26  C   LIG d   1       9.260   2.414  -3.476  0.00  0.00    -0.053 A 
ATOM     27  H   LIG d   1      10.771   3.665  -2.628  0.00  0.00     0.065 H 
ATOM     28  H   LIG d   1       9.049   1.908  -2.544  0.00  0.00     0.062 H 
BRANCH  23  29
ATOM     29  O   LIG d   1      11.439   5.026  -4.765  0.00  0.00    -0.495 OA
BRANCH  29  30
ATOM     30  C   LIG d   1      11.483   5.942  -3.670  0.00  0.00     0.079 C 
ATOM     31  H   LIG d   1      12.098   5.526  -2.872  0.00  0.00     0.066 H 
ATOM     32  H   LIG d   1      11.911   6.888  -4.004  0.00  0.00     0.066 H 
ATOM     33  H   LIG d   1      10.472   6.112  -3.299  0.00  0.00     0.066 H 
ENDBRANCH  29  30
ENDBRANCH  23  29
ENDBRANCH   1  19
BRANCH  10  34
ATOM     34  O   LIG d   1       6.823  -1.421  -5.989  0.00  0.00    -0.363 OA
ATOM     35  H   LIG d   1       6.760  -0.552  -6.407  0.00  0.00     0.213 HD
ENDBRANCH  10  34
TORSDOF 4
ENDMDL
MODEL 7
REMARK VINA RESULT:      -5.6      4.819      5.817
REMARK  4 active torsions:
REMARK  status: ('A' for Active; 'I' for Inactive)
REMARK    1  A    between atoms: C_1  and  O_2 
REMARK    2  A    between atoms: O_2  and  C_3 
REMARK    3  A    between atoms: C_6  and  C_9 
REMARK    4  A    between atoms: C_18  and  O_21 
ROOT
ATOM      1  C   LIG d   1       5.052  -3.074  -4.717  0.00  0.00     0.091 C 
ATOM      2  H   LIG d   1       4.378  -2.608  -5.436  0.00  0.00     0.065 H 
ATOM      3  C   LIG d   1       6.315  -2.224  -4.571  0.00  0.00     0.003 C 
ATOM      4  C   LIG d   1       5.986  -0.943  -3.849  0.00  0.00    -0.037 A 
ATOM      5  C   LIG d   1       6.882   0.113  -3.920  0.00  0.00    -0.058 A 
ATOM      6  C   LIG d   1       6.613   1.300  -3.270  0.00  0.00    -0.061 A 
ATOM      7  C   LIG d   1       5.445   1.437  -2.543  0.00  0.00    -0.061 A 
ATOM      8  C   LIG d   1       4.551   0.387  -2.472  0.00  0.00    -0.053 A 
ATOM      9  C   LIG d   1       4.819  -0.805  -3.127  0.00  0.00     0.011 A 
ATOM     10  C   LIG d   1       3.816  -1.925  -3.031  0.00  0.00     0.184 C 
ATOM     11  H   LIG d   1       3.472  -2.014  -2.001  0.00  0.00     0.096 H 
ATOM     12  O   LIG d   1       4.411  -3.157  -3.439  0.00  0.00    -0.339 OA
ATOM     13  H   LIG d   1       6.712  -1.992  -5.560  0.00  0.00     0.034 H 
ATOM     14  H   LIG d   1       7.061  -2.779  -4.003  0.00  0.00     0.034 H 
ATOM     15  H   LIG d   1       7.795   0.005  -4.488  0.00  0.00     0.062 H 
ATOM     16  H   LIG d   1       7.314   2.119  -3.327  0.00  0.00     0.062 H 
ATOM     17  H   LIG d   1       5.233   2.364  -2.031  0.00  0.00     0.062 H 
ATOM     18  H   LIG d   1       3.639   0.495  -1.904  0.00  0.00     0.062 H 
ENDROOT
BRANCH   1  19
ATOM     19  C   LIG d   1       5.423  -4.458  -5.186  0.00  0.00    -0.018 A 
ATOM     20  C   LIG d   1       6.752  -4.792  -5.364  0.00  0.00    -0.053 A 
ATOM     21  C   LIG d   1       7.095  -6.060  -5.794  0.00  0.00    -0.020 A 
ATOM     22  H   LIG d   1       7.524  -4.063  -5.167  0.00  0.00     0.062 H 
ATOM     23  C   LIG d   1       6.104  -6.996  -6.047  0.00  0.00     0.120 A 
ATOM     24  H   LIG d   1       8.133  -6.321  -5.933  0.00  0.00     0.065 H 
ATOM     25  C   LIG d   1       4.770  -6.658  -5.867  0.00  0.00    -0.020 A 
ATOM     26  C   LIG d   1       4.434  -5.391  -5.432  0.00  0.00    -0.053 A 
ATOM     27  H   LIG d   1       3.996  -7.386  -6.064  0.00  0.00     0.065 H 
ATOM     28  H   LIG d   1       3.395  -5.128  -5.288  0.00  0.00     0.062 H 
BRANCH  23  29
ATOM     29  O   LIG d   1       6.438  -8.244  -6.470  0.00  0.00    -0.495 OA
BRANCH  29  30
ATOM     30  C   LIG d   1       6.966  -8.361  -7.792  0.00  0.00     0.079 C 
ATOM     31  H   LIG d   1       8.011  -8.667  -7.740  0.00  0.00     0.066 H 
ATOM     32  H   LIG d   1       6.396  -9.107  -8.347  0.00  0.00     0.066 H 
ATOM     33  H   LIG d   1       6.895  -7.399  -8.298  0.00  0.00     0.066 H 
ENDBRANCH  29  30
ENDBRANCH  23  29
ENDBRANCH   1  19
BRANCH  10  34
ATOM     34  O   LIG d   1       2.701  -1.635  -3.876  0.00  0.00    -0.363 OA
ATOM     35  H   LIG d   1       2.606  -0.698  -4.096  0.00  0.00     0.213 HD
ENDBRANCH  10  34
TORSDOF 4
ENDMDL
MODEL 8
REMARK VINA RESULT:      -5.4     10.800     12.162
REMARK  4 active torsions:
REMARK  status: ('A' for Active; 'I' for Inactive)
REMARK    1  A    between atoms: C_1  and  O_2 
REMARK    2  A    between atoms: O_2  and  C_3 
REMARK    3  A    between atoms: C_6  and  C_9 
REMARK    4  A    between atoms: C_18  and  O_21 
ROOT
ATOM      1  C   LIG d   1       9.859   7.989  -2.049  0.00  0.00     0.091 C 
ATOM      2  H   LIG d   1       9.658   8.745  -2.808  0.00  0.00     0.065 H 
ATOM      3  C   LIG d   1      11.239   8.230  -1.436  0.00  0.00     0.003 C 
ATOM      4  C   LIG d   1      11.207   9.472  -0.583  0.00  0.00    -0.037 A 
ATOM      5  C   LIG d   1      12.407  10.068  -0.227  0.00  0.00    -0.058 A 
ATOM      6  C   LIG d   1      12.414  11.206   0.555  0.00  0.00    -0.061 A 
ATOM      7  C   LIG d   1      11.220  11.753   0.985  0.00  0.00    -0.061 A 
ATOM      8  C   LIG d   1      10.024  11.161   0.630  0.00  0.00    -0.053 A 
ATOM      9  C   LIG d   1      10.015  10.020  -0.157  0.00  0.00     0.011 A 
ATOM     10  C   LIG d   1       8.690   9.408  -0.529  0.00  0.00     0.184 C 
ATOM     11  H   LIG d   1       8.044   9.386   0.348  0.00  0.00     0.096 H 
ATOM     12  O   LIG d   1       8.879   8.076  -1.009  0.00  0.00    -0.339 OA
ATOM     13  H   LIG d   1      11.973   8.355  -2.232  0.00  0.00     0.034 H 
ATOM     14  H   LIG d   1      11.517   7.375  -0.820  0.00  0.00     0.034 H 
ATOM     15  H   LIG d   1      13.340   9.640  -0.562  0.00  0.00     0.062 H 
ATOM     16  H   LIG d   1      13.351  11.667   0.831  0.00  0.00     0.062 H 
ATOM     17  H   LIG d   1      11.222  12.642   1.598  0.00  0.00     0.062 H 
ATOM     18  H   LIG d   1       9.092  11.589   0.966  0.00  0.00     0.062 H 
ENDROOT
BRANCH   1  19
ATOM     19  C   LIG d   1       9.813   6.616  -2.671  0.00  0.00    -0.018 A 
ATOM     20  C   LIG d   1      10.256   5.519  -1.955  0.00  0.00    -0.053 A 
ATOM     21  C   LIG d   1      10.214   4.260  -2.523  0.00  0.00    -0.020 A 
ATOM     22  H   LIG d   1      10.634   5.645  -0.952  0.00  0.00     0.062 H 
ATOM     23  C   LIG d   1       9.729   4.098  -3.812  0.00  0.00     0.120 A 
ATOM     24  H   LIG d   1      10.561   3.404  -1.964  0.00  0.00     0.065 H 
ATOM     25  C   LIG d   1       9.286   5.201  -4.528  0.00  0.00    -0.020 A 
ATOM     26  C   LIG d   1       9.324   6.456  -3.953  0.00  0.00    -0.053 A 
ATOM     27  H   LIG d   1       8.907   5.077  -5.533  0.00  0.00     0.065 H 
ATOM     28  H   LIG d   1       8.974   7.315  -4.509  0.00  0.00     0.062 H 
BRANCH  23  29
ATOM     29  O   LIG d   1       9.688   2.861  -4.374  0.00  0.00    -0.495 OA
BRANCH  29  30
ATOM     30  C   LIG d   1       8.679   1.967  -3.900  0.00  0.00     0.079 C 
ATOM     31  H   LIG d   1       7.730   2.204  -4.380  0.00  0.00     0.066 H 
ATOM     32  H   LIG d   1       8.961   0.941  -4.140  0.00  0.00     0.066 H 
ATOM     33  H   LIG d   1       8.578   2.073  -2.821  0.00  0.00     0.066 H 
ENDBRANCH  29  30
ENDBRANCH  23  29
ENDBRANCH   1  19
BRANCH  10  34
ATOM     34  O   LIG d   1       8.074  10.195  -1.550  0.00  0.00    -0.363 OA
ATOM     35  H   LIG d   1       8.439  11.086  -1.634  0.00  0.00     0.213 HD
ENDBRANCH  10  34
TORSDOF 4
ENDMDL
MODEL 9
REMARK VINA RESULT:      -5.3      9.642     10.966
REMARK  4 active torsions:
REMARK  status: ('A' for Active; 'I' for Inactive)
REMARK    1  A    between atoms: C_1  and  O_2 
REMARK    2  A    between atoms: O_2  and  C_3 
REMARK    3  A    between atoms: C_6  and  C_9 
REMARK    4  A    between atoms: C_18  and  O_21 
ROOT
ATOM      1  C   LIG d   1      10.177   5.512  -1.600  0.00  0.00     0.091 C 
ATOM      2  H   LIG d   1       9.357   5.317  -0.909  0.00  0.00     0.065 H 
ATOM      3  C   LIG d   1      10.131   6.972  -2.054  0.00  0.00     0.003 C 
ATOM      4  C   LIG d   1      10.516   7.873  -0.909  0.00  0.00    -0.037 A 
ATOM      5  C   LIG d   1      10.204   9.222  -0.987  0.00  0.00    -0.058 A 
ATOM      6  C   LIG d   1      10.545  10.075   0.042  0.00  0.00    -0.061 A 
ATOM      7  C   LIG d   1      11.200   9.584   1.156  0.00  0.00    -0.061 A 
ATOM      8  C   LIG d   1      11.511   8.242   1.236  0.00  0.00    -0.053 A 
ATOM      9  C   LIG d   1      11.167   7.382   0.204  0.00  0.00     0.011 A 
ATOM     10  C   LIG d   1      11.517   5.922   0.330  0.00  0.00     0.184 C 
ATOM     11  H   LIG d   1      12.534   5.827   0.711  0.00  0.00     0.096 H 
ATOM     12  O   LIG d   1      11.428   5.281  -0.942  0.00  0.00    -0.339 OA
ATOM     13  H   LIG d   1       9.121   7.217  -2.384  0.00  0.00     0.034 H 
ATOM     14  H   LIG d   1      10.827   7.117  -2.880  0.00  0.00     0.034 H 
ATOM     15  H   LIG d   1       9.693   9.605  -1.858  0.00  0.00     0.062 H 
ATOM     16  H   LIG d   1      10.301  11.125  -0.022  0.00  0.00     0.062 H 
ATOM     17  H   LIG d   1      11.470  10.251   1.963  0.00  0.00     0.062 H 
ATOM     18  H   LIG d   1      12.023   7.859   2.106  0.00  0.00     0.062 H 
ENDROOT
BRANCH   1  19
ATOM     19  C   LIG d   1      10.062   4.604  -2.798  0.00  0.00    -0.018 A 
ATOM     20  C   LIG d   1       9.620   5.111  -4.006  0.00  0.00    -0.053 A 
ATOM     21  C   LIG d   1       9.514   4.281  -5.106  0.00  0.00    -0.020 A 
ATOM     22  H   LIG d   1       9.358   6.155  -4.092  0.00  0.00     0.062 H 
ATOM     23  C   LIG d   1       9.850   2.940  -4.997  0.00  0.00     0.120 A 
ATOM     24  H   LIG d   1       9.168   4.677  -6.050  0.00  0.00     0.065 H 
ATOM     25  C   LIG d   1      10.293   2.435  -3.783  0.00  0.00    -0.020 A 
ATOM     26  C   LIG d   1      10.403   3.270  -2.688  0.00  0.00    -0.053 A 
ATOM     27  H   LIG d   1      10.555   1.390  -3.695  0.00  0.00     0.065 H 
ATOM     28  H   LIG d   1      10.752   2.878  -1.743  0.00  0.00     0.062 H 
BRANCH  23  29
ATOM     29  O   LIG d   1       9.746   2.121  -6.077  0.00  0.00    -0.495 OA
BRANCH  29  30
ATOM     30  C   LIG d   1       8.432   1.879  -6.583  0.00  0.00     0.079 C 
ATOM     31  H   LIG d   1       8.488   1.667  -7.651  0.00  0.00     0.066 H 
ATOM     32  H   LIG d   1       7.995   1.025  -6.065  0.00  0.00     0.066 H 
ATOM     33  H   LIG d   1       7.812   2.759  -6.420  0.00  0.00     0.066 H 
ENDBRANCH  29  30
ENDBRANCH  23  29
ENDBRANCH   1  19
BRANCH  10  34
ATOM     34  O   LIG d   1      10.612   5.296   1.241  0.00  0.00    -0.363 OA
ATOM     35  H   LIG d   1      10.423   5.819   2.032  0.00  0.00     0.213 HD
ENDBRANCH  10  34
TORSDOF 4
ENDMDL
MODEL 10
REMARK VINA RESULT:      -5.2     11.607     14.166
REMARK  4 active torsions:
REMARK  status: ('A' for Active; 'I' for Inactive)
REMARK    1  A    between atoms: C_1  and  O_2 
REMARK    2  A    between atoms: O_2  and  C_3 
REMARK    3  A    between atoms: C_6  and  C_9 
REMARK    4  A    between atoms: C_18  and  O_21 
ROOT
ATOM      1  C   LIG d   1       9.885   8.969  -2.341  0.00  0.00     0.091 C 
ATOM      2  H   LIG d   1       8.798   9.033  -2.295  0.00  0.00     0.065 H 
ATOM      3  C   LIG d   1      10.294   7.744  -3.161  0.00  0.00     0.003 C 
ATOM      4  C   LIG d   1       9.971   7.974  -4.615  0.00  0.00    -0.037 A 
ATOM      5  C   LIG d   1       9.926   6.883  -5.469  0.00  0.00    -0.058 A 
ATOM      6  C   LIG d   1       9.636   7.058  -6.807  0.00  0.00    -0.061 A 
ATOM      7  C   LIG d   1       9.388   8.327  -7.298  0.00  0.00    -0.061 A 
ATOM      8  C   LIG d   1       9.431   9.413  -6.448  0.00  0.00    -0.053 A 
ATOM      9  C   LIG d   1       9.720   9.240  -5.103  0.00  0.00     0.011 A 
ATOM     10  C   LIG d   1       9.751  10.449  -4.207  0.00  0.00     0.184 C 
ATOM     11  H   LIG d   1      10.285  11.256  -4.708  0.00  0.00     0.096 H 
ATOM     12  O   LIG d   1      10.411  10.138  -2.979  0.00  0.00    -0.339 OA
ATOM     13  H   LIG d   1       9.750   6.870  -2.802  0.00  0.00     0.034 H 
ATOM     14  H   LIG d   1      11.365   7.574  -3.050  0.00  0.00     0.034 H 
ATOM     15  H   LIG d   1      10.120   5.892  -5.085  0.00  0.00     0.062 H 
ATOM     16  H   LIG d   1       9.603   6.206  -7.469  0.00  0.00     0.062 H 
ATOM     17  H   LIG d   1       9.162   8.467  -8.345  0.00  0.00     0.062 H 
ATOM     18  H   LIG d   1       9.238  10.404  -6.832  0.00  0.00     0.062 H 
ENDROOT
BRANCH   1  19
ATOM     19  C   LIG d   1      10.449   8.858  -0.948  0.00  0.00    -0.018 A 
ATOM     20  C   LIG d   1      10.811  10.000  -0.257  0.00  0.00    -0.053 A 
ATOM     21  C   LIG d   1      11.327   9.901   1.021  0.00  0.00    -0.020 A 
ATOM     22  H   LIG d   1      10.689  10.970  -0.715  0.00  0.00     0.062 H 
ATOM     23  C   LIG d   1      11.483   8.655   1.610  0.00  0.00     0.120 A 
ATOM     24  H   LIG d   1      11.610  10.793   1.560  0.00  0.00     0.065 H 
ATOM     25  C   LIG d   1      11.120   7.511   0.914  0.00  0.00    -0.020 A 
ATOM     26  C   LIG d   1      10.598   7.616  -0.360  0.00  0.00    -0.053 A 
ATOM     27  H   LIG d   1      11.241   6.539   1.371  0.00  0.00     0.065 H 
ATOM     28  H   LIG d   1      10.311   6.725  -0.901  0.00  0.00     0.062 H 
BRANCH  23  29
ATOM     29  O   LIG d   1      11.992   8.554   2.866  0.00  0.00    -0.495 OA
BRANCH  29  30
ATOM     30  C   LIG d   1      12.453   9.760   3.479  0.00  0.00     0.079 C 
ATOM     31  H   LIG d   1      13.478   9.624   3.821  0.00  0.00     0.066 H 
ATOM     32  H   LIG d   1      12.416  10.573   2.753  0.00  0.00     0.066 H 
ATOM     33  H   LIG d   1      11.815  10.002   4.328  0.00  0.00     0.066 H 
ENDBRANCH  29  30
ENDBRANCH  23  29
ENDBRANCH   1  19
BRANCH  10  34
ATOM     34  O   LIG d   1       8.414  10.869  -3.931  0.00  0.00    -0.363 OA
ATOM     35  H   LIG d   1       7.940  11.206  -4.704  0.00  0.00     0.213 HD
ENDBRANCH  10  34
TORSDOF 4
ENDMDL
