MODEL 1
REMARK VINA RESULT:      -7.9      0.000      0.000
REMARK  6 active torsions:
REMARK  status: ('A' for Active; 'I' for Inactive)
REMARK    1  A    between atoms: C_1  and  C_2 
REMARK    2  A    between atoms: C_10  and  C_14 
REMARK    3  A    between atoms: C_18  and  C_20 
REMARK    4  A    between atoms: C_20  and  N_21 
REMARK    5  A    between atoms: N_24  and  C_27 
REMARK    6  A    between atoms: C_27  and  C_28 
ROOT
ATOM      1  C   LIG d   1       3.240   0.655  -3.769  0.00  0.00    -0.073 C 
ATOM      2  C   LIG d   1       3.721  -0.547  -3.872  0.00  0.00    -0.064 C 
ATOM      3  C   LIG d   1       3.493  -1.326  -5.150  0.00  0.00    -0.024 C 
ATOM      4  C   LIG d   1       4.839  -1.778  -5.729  0.00  0.00     0.014 C 
ATOM      5  H   LIG d   1       5.300  -0.902  -6.208  0.00  0.00     0.035 H 
ATOM      6  C   LIG d   1       5.723  -2.423  -4.647  0.00  0.00     0.108 C 
ATOM      7  H   LIG d   1       6.772  -2.554  -4.950  0.00  0.00     0.074 H 
ATOM      8  C   LIG d   1       5.879  -1.602  -3.393  0.00  0.00    -0.006 C 
ATOM      9  C   LIG d   1       4.519  -1.231  -2.797  0.00  0.00    -0.007 C 
ATOM     10  C   LIG d   1       4.694  -0.391  -1.548  0.00  0.00    -0.043 C 
ATOM     11  C   LIG d   1       4.772   1.097  -1.889  0.00  0.00    -0.049 C 
ATOM     12  C   LIG d   1       3.450   1.510  -2.549  0.00  0.00    -0.032 C 
ATOM     13  O   LIG d   1       5.107  -3.723  -4.430  0.00  0.00    -0.461 OA
ATOM     14  C   LIG d   1       4.760  -4.202  -5.647  0.00  0.00     0.312 C 
ATOM     15  O   LIG d   1       4.652  -5.371  -5.934  0.00  0.00    -0.251 OA
ATOM     16  C   LIG d   1       4.531  -3.039  -6.595  0.00  0.00     0.075 C 
ATOM     17  H   LIG d   1       3.516  -3.052  -7.017  0.00  0.00     0.043 H 
ATOM     18  H   LIG d   1       2.874  -2.209  -4.936  0.00  0.00     0.031 H 
ATOM     19  H   LIG d   1       2.979  -0.687  -5.882  0.00  0.00     0.031 H 
ATOM     20  H   LIG d   1       6.443  -2.179  -2.645  0.00  0.00     0.031 H 
ATOM     21  H   LIG d   1       6.422  -0.675  -3.628  0.00  0.00     0.031 H 
ATOM     22  H   LIG d   1       3.840  -0.552  -0.874  0.00  0.00     0.027 H 
ATOM     23  H   LIG d   1       5.625  -0.681  -1.038  0.00  0.00     0.027 H 
ATOM     24  H   LIG d   1       4.929   1.677  -0.967  0.00  0.00     0.027 H 
ATOM     25  H   LIG d   1       5.609   1.272  -2.581  0.00  0.00     0.027 H 
ATOM     26  H   LIG d   1       3.492   2.568  -2.845  0.00  0.00     0.031 H 
ATOM     27  H   LIG d   1       2.616   1.358  -1.848  0.00  0.00     0.031 H 
ENDROOT
BRANCH  16  28
ATOM     28  C   LIG d   1       5.490  -3.119  -7.784  0.00  0.00     0.013 C 
ATOM     29  H   LIG d   1       6.105  -2.208  -7.821  0.00  0.00     0.043 H 
ATOM     30  H   LIG d   1       6.141  -3.998  -7.671  0.00  0.00     0.043 H 
BRANCH  28  31
ATOM     31  N   LIG d   1       4.717  -3.240  -9.028  0.00  0.00    -0.292 N 
ATOM     32  C   LIG d   1       3.450  -2.502  -8.934  0.00  0.00     0.039 C 
ATOM     33  C   LIG d   1       2.714  -2.586 -10.273  0.00  0.00    -0.018 C 
ATOM     34  H   LIG d   1       2.826  -2.944  -8.143  0.00  0.00     0.048 H 
ATOM     35  H   LIG d   1       3.656  -1.448  -8.693  0.00  0.00     0.048 H 
ATOM     36  N   LIG d   1       2.475  -3.997 -10.610  0.00  0.00     0.240 N 
ATOM     37  H   LIG d   1       3.326  -2.120 -11.059  0.00  0.00     0.083 H 
ATOM     38  H   LIG d   1       1.751  -2.060 -10.198  0.00  0.00     0.083 H 
ATOM     39  C   LIG d   1       3.743  -4.735 -10.704  0.00  0.00    -0.018 C 
ATOM     40  H   LIG d   1       1.881  -4.444  -9.800  0.00  0.00     0.204 HD
ATOM     41  C   LIG d   1       4.479  -4.650  -9.364  0.00  0.00     0.039 C 
ATOM     42  H   LIG d   1       4.368  -4.293 -11.494  0.00  0.00     0.083 H 
ATOM     43  H   LIG d   1       3.538  -5.788 -10.944  0.00  0.00     0.083 H 
ATOM     44  H   LIG d   1       5.441  -5.177  -9.440  0.00  0.00     0.048 H 
ATOM     45  H   LIG d   1       3.867  -5.117  -8.579  0.00  0.00     0.048 H 
BRANCH  36  46
ATOM     46  C   LIG d   1       1.703  -4.118 -11.854  0.00  0.00    -0.006 C 
ATOM     47  H   LIG d   1       1.770  -3.177 -12.420  0.00  0.00     0.087 H 
ATOM     48  H   LIG d   1       2.110  -4.940 -12.460  0.00  0.00     0.087 H 
BRANCH  46  49
ATOM     49  C   LIG d   1       0.261  -4.403 -11.524  0.00  0.00     0.001 A 
ATOM     50  C   LIG d   1      -0.063  -5.020 -10.329  0.00  0.00    -0.008 A 
ATOM     51  C   LIG d   1      -1.389  -5.284 -10.023  0.00  0.00     0.167 A 
ATOM     52  H   LIG d   1       0.716  -5.296  -9.635  0.00  0.00     0.066 H 
ATOM     53  C   LIG d   1      -2.392  -4.926 -10.921  0.00  0.00     0.166 A 
ATOM     54  O   LIG d   1      -1.966  -5.869  -8.933  0.00  0.00    -0.453 OA
ATOM     55  C   LIG d   1      -2.059  -4.309 -12.115  0.00  0.00    -0.016 A 
ATOM     56  O   LIG d   1      -3.598  -5.288 -10.393  0.00  0.00    -0.453 OA
ATOM     57  C   LIG d   1      -0.735  -4.049 -12.415  0.00  0.00    -0.050 A 
ATOM     58  H   LIG d   1      -2.835  -4.031 -12.814  0.00  0.00     0.066 H 
ATOM     59  H   LIG d   1      -0.478  -3.564 -13.345  0.00  0.00     0.062 H 
ATOM     60  C   LIG d   1      -3.294  -6.236  -9.353  0.00  0.00     0.233 C 
ATOM     61  H   LIG d   1      -3.289  -7.272  -9.722  0.00  0.00     0.117 H 
ATOM     62  H   LIG d   1      -3.984  -6.154  -8.501  0.00  0.00     0.117 H 
ENDBRANCH  46  49
ENDBRANCH  36  46
ENDBRANCH  28  31
ENDBRANCH  16  28
BRANCH   1  63
ATOM     63  C   LIG d   1       2.440   1.216  -4.917  0.00  0.00    -0.043 C 
ATOM     64  H   LIG d   1       2.879   2.173  -5.236  0.00  0.00     0.027 H 
ATOM     65  H   LIG d   1       1.401   1.378  -4.596  0.00  0.00     0.027 H 
ATOM     66  H   LIG d   1       2.458   0.506  -5.758  0.00  0.00     0.027 H 
ENDBRANCH   1  63
BRANCH   9  67
ATOM     67  C   LIG d   1       3.796  -2.521  -2.404  0.00  0.00    -0.056 C 
ATOM     68  H   LIG d   1       3.955  -2.719  -1.334  0.00  0.00     0.024 H 
ATOM     69  H   LIG d   1       4.193  -3.359  -2.995  0.00  0.00     0.024 H 
ATOM     70  H   LIG d   1       2.719  -2.411  -2.600  0.00  0.00     0.024 H 
ENDBRANCH   9  67
TORSDOF 6
ENDMDL
MODEL 2
REMARK VINA RESULT:      -7.5      7.685     13.578
REMARK  6 active torsions:
REMARK  status: ('A' for Active; 'I' for Inactive)
REMARK    1  A    between atoms: C_1  and  C_2 
REMARK    2  A    between atoms: C_10  and  C_14 
REMARK    3  A    between atoms: C_18  and  C_20 
REMARK    4  A    between atoms: C_20  and  N_21 
REMARK    5  A    between atoms: N_24  and  C_27 
REMARK    6  A    between atoms: C_27  and  C_28 
ROOT
ATOM      1  C   LIG d   1       4.593  -0.173  -2.561  0.00  0.00    -0.073 C 
ATOM      2  C   LIG d   1       5.371  -0.123  -3.600  0.00  0.00    -0.064 C 
ATOM      3  C   LIG d   1       6.304   1.057  -3.767  0.00  0.00    -0.024 C 
ATOM      4  C   LIG d   1       7.747   0.562  -3.913  0.00  0.00     0.014 C 
ATOM      5  H   LIG d   1       8.099   0.276  -2.911  0.00  0.00     0.035 H 
ATOM      6  C   LIG d   1       7.844  -0.576  -4.945  0.00  0.00     0.108 C 
ATOM      7  H   LIG d   1       8.801  -1.117  -4.922  0.00  0.00     0.074 H 
ATOM      8  C   LIG d   1       6.864  -1.701  -4.731  0.00  0.00    -0.006 C 
ATOM      9  C   LIG d   1       5.426  -1.183  -4.665  0.00  0.00    -0.007 C 
ATOM     10  C   LIG d   1       4.457  -2.324  -4.431  0.00  0.00    -0.043 C 
ATOM     11  C   LIG d   1       4.261  -2.587  -2.938  0.00  0.00    -0.049 C 
ATOM     12  C   LIG d   1       3.662  -1.326  -2.301  0.00  0.00    -0.032 C 
ATOM     13  O   LIG d   1       7.693   0.104  -6.222  0.00  0.00    -0.461 OA
ATOM     14  C   LIG d   1       8.410   1.249  -6.145  0.00  0.00     0.312 C 
ATOM     15  O   LIG d   1       8.895   1.835  -7.084  0.00  0.00    -0.251 OA
ATOM     16  C   LIG d   1       8.507   1.679  -4.693  0.00  0.00     0.075 C 
ATOM     17  H   LIG d   1       8.096   2.688  -4.539  0.00  0.00     0.043 H 
ATOM     18  H   LIG d   1       6.021   1.625  -4.666  0.00  0.00     0.031 H 
ATOM     19  H   LIG d   1       6.232   1.710  -2.885  0.00  0.00     0.031 H 
ATOM     20  H   LIG d   1       6.941  -2.416  -5.563  0.00  0.00     0.031 H 
ATOM     21  H   LIG d   1       7.095  -2.212  -3.785  0.00  0.00     0.031 H 
ATOM     22  H   LIG d   1       3.481  -2.075  -4.873  0.00  0.00     0.027 H 
ATOM     23  H   LIG d   1       4.849  -3.240  -4.898  0.00  0.00     0.027 H 
ATOM     24  H   LIG d   1       3.578  -3.438  -2.802  0.00  0.00     0.027 H 
ATOM     25  H   LIG d   1       5.232  -2.817  -2.475  0.00  0.00     0.027 H 
ATOM     26  H   LIG d   1       3.550  -1.470  -1.217  0.00  0.00     0.031 H 
ATOM     27  H   LIG d   1       2.680  -1.111  -2.747  0.00  0.00     0.031 H 
ENDROOT
BRANCH  16  28
ATOM     28  C   LIG d   1       9.970   1.742  -4.250  0.00  0.00     0.013 C 
ATOM     29  H   LIG d   1      10.078   1.249  -3.272  0.00  0.00     0.043 H 
ATOM     30  H   LIG d   1      10.600   1.229  -4.991  0.00  0.00     0.043 H 
BRANCH  28  31
ATOM     31  N   LIG d   1      10.388   3.146  -4.139  0.00  0.00    -0.292 N 
ATOM     32  C   LIG d   1      11.439   3.303  -3.123  0.00  0.00     0.039 C 
ATOM     33  C   LIG d   1      11.902   4.762  -3.094  0.00  0.00    -0.018 C 
ATOM     34  H   LIG d   1      11.040   3.025  -2.136  0.00  0.00     0.048 H 
ATOM     35  H   LIG d   1      12.290   2.652  -3.372  0.00  0.00     0.048 H 
ATOM     36  N   LIG d   1      10.754   5.632  -2.800  0.00  0.00     0.240 N 
ATOM     37  H   LIG d   1      12.326   5.032  -4.072  0.00  0.00     0.083 H 
ATOM     38  H   LIG d   1      12.667   4.890  -2.315  0.00  0.00     0.083 H 
ATOM     39  C   LIG d   1       9.703   5.474  -3.816  0.00  0.00    -0.018 C 
ATOM     40  H   LIG d   1      10.336   5.328  -1.830  0.00  0.00     0.204 HD
ATOM     41  C   LIG d   1       9.240   4.015  -3.845  0.00  0.00     0.039 C 
ATOM     42  H   LIG d   1      10.102   5.752  -4.803  0.00  0.00     0.083 H 
ATOM     43  H   LIG d   1       8.852   6.124  -3.568  0.00  0.00     0.083 H 
ATOM     44  H   LIG d   1       8.475   3.888  -4.624  0.00  0.00     0.048 H 
ATOM     45  H   LIG d   1       8.816   3.745  -2.867  0.00  0.00     0.048 H 
BRANCH  36  46
ATOM     46  C   LIG d   1      11.172   7.036  -2.689  0.00  0.00    -0.006 C 
ATOM     47  H   LIG d   1      12.141   7.171  -3.193  0.00  0.00     0.087 H 
ATOM     48  H   LIG d   1      10.419   7.681  -3.165  0.00  0.00     0.087 H 
BRANCH  46  49
ATOM     49  C   LIG d   1      11.306   7.406  -1.235  0.00  0.00     0.001 A 
ATOM     50  C   LIG d   1      11.806   8.647  -0.883  0.00  0.00    -0.008 A 
ATOM     51  C   LIG d   1      11.930   8.990   0.454  0.00  0.00     0.167 A 
ATOM     52  H   LIG d   1      12.099   9.348  -1.649  0.00  0.00     0.066 H 
ATOM     53  C   LIG d   1      11.550   8.083   1.440  0.00  0.00     0.166 A 
ATOM     54  O   LIG d   1      12.384  10.127   1.057  0.00  0.00    -0.453 OA
ATOM     55  C   LIG d   1      11.050   6.842   1.079  0.00  0.00    -0.016 A 
ATOM     56  O   LIG d   1      11.766   8.652   2.662  0.00  0.00    -0.453 OA
ATOM     57  C   LIG d   1      10.930   6.506  -0.255  0.00  0.00    -0.050 A 
ATOM     58  H   LIG d   1      10.755   6.136   1.842  0.00  0.00     0.066 H 
ATOM     59  H   LIG d   1      10.536   5.540  -0.535  0.00  0.00     0.062 H 
ATOM     60  C   LIG d   1      12.661   9.754   2.420  0.00  0.00     0.233 C 
ATOM     61  H   LIG d   1      13.717   9.461   2.512  0.00  0.00     0.117 H 
ATOM     62  H   LIG d   1      12.458  10.608   3.083  0.00  0.00     0.117 H 
ENDBRANCH  46  49
ENDBRANCH  36  46
ENDBRANCH  28  31
ENDBRANCH  16  28
BRANCH   1  63
ATOM     63  C   LIG d   1       4.624   0.968  -1.577  0.00  0.00    -0.043 C 
ATOM     64  H   LIG d   1       3.692   1.545  -1.656  0.00  0.00     0.027 H 
ATOM     65  H   LIG d   1       5.481   1.621  -1.799  0.00  0.00     0.027 H 
ATOM     66  H   LIG d   1       4.722   0.569  -0.556  0.00  0.00     0.027 H 
ENDBRANCH   1  63
BRANCH   9  67
ATOM     67  C   LIG d   1       5.083  -0.537  -6.009  0.00  0.00    -0.056 C 
ATOM     68  H   LIG d   1       4.627   0.449  -5.836  0.00  0.00     0.024 H 
ATOM     69  H   LIG d   1       4.374  -1.179  -6.554  0.00  0.00     0.024 H 
ATOM     70  H   LIG d   1       6.001  -0.418  -6.603  0.00  0.00     0.024 H 
ENDBRANCH   9  67
TORSDOF 6
ENDMDL
MODEL 3
REMARK VINA RESULT:      -7.4      8.052     13.169
REMARK  6 active torsions:
REMARK  status: ('A' for Active; 'I' for Inactive)
REMARK    1  A    between atoms: C_1  and  C_2 
REMARK    2  A    between atoms: C_10  and  C_14 
REMARK    3  A    between atoms: C_18  and  C_20 
REMARK    4  A    between atoms: C_20  and  N_21 
REMARK    5  A    between atoms: N_24  and  C_27 
REMARK    6  A    between atoms: C_27  and  C_28 
ROOT
ATOM      1  C   LIG d   1       4.475  -0.104  -2.526  0.00  0.00    -0.073 C 
ATOM      2  C   LIG d   1       5.333   0.024  -3.493  0.00  0.00    -0.064 C 
ATOM      3  C   LIG d   1       6.142   1.300  -3.597  0.00  0.00    -0.024 C 
ATOM      4  C   LIG d   1       7.638   0.966  -3.608  0.00  0.00     0.014 C 
ATOM      5  H   LIG d   1       7.928   0.729  -2.574  0.00  0.00     0.035 H 
ATOM      6  C   LIG d   1       7.951  -0.161  -4.608  0.00  0.00     0.108 C 
ATOM      7  H   LIG d   1       8.955  -0.592  -4.491  0.00  0.00     0.074 H 
ATOM      8  C   LIG d   1       7.085  -1.386  -4.461  0.00  0.00    -0.006 C 
ATOM      9  C   LIG d   1       5.599  -1.029  -4.531  0.00  0.00    -0.007 C 
ATOM     10  C   LIG d   1       4.743  -2.270  -4.364  0.00  0.00    -0.043 C 
ATOM     11  C   LIG d   1       4.445  -2.542  -2.890  0.00  0.00    -0.049 C 
ATOM     12  C   LIG d   1       3.657  -1.351  -2.330  0.00  0.00    -0.032 C 
ATOM     13  O   LIG d   1       7.841   0.490  -5.904  0.00  0.00    -0.461 OA
ATOM     14  C   LIG d   1       8.417   1.708  -5.783  0.00  0.00     0.312 C 
ATOM     15  O   LIG d   1       8.918   2.337  -6.685  0.00  0.00    -0.251 OA
ATOM     16  C   LIG d   1       8.338   2.156  -4.336  0.00  0.00     0.075 C 
ATOM     17  H   LIG d   1       7.806   3.114  -4.235  0.00  0.00     0.043 H 
ATOM     18  H   LIG d   1       5.879   1.827  -4.526  0.00  0.00     0.031 H 
ATOM     19  H   LIG d   1       5.920   1.946  -2.735  0.00  0.00     0.031 H 
ATOM     20  H   LIG d   1       7.313  -2.094  -5.272  0.00  0.00     0.031 H 
ATOM     21  H   LIG d   1       7.285  -1.862  -3.491  0.00  0.00     0.031 H 
ATOM     22  H   LIG d   1       3.790  -2.133  -4.895  0.00  0.00     0.027 H 
ATOM     23  H   LIG d   1       5.273  -3.140  -4.780  0.00  0.00     0.027 H 
ATOM     24  H   LIG d   1       3.850  -3.462  -2.800  0.00  0.00     0.027 H 
ATOM     25  H   LIG d   1       5.391  -2.660  -2.340  0.00  0.00     0.027 H 
ATOM     26  H   LIG d   1       3.465  -1.499  -1.258  0.00  0.00     0.031 H 
ATOM     27  H   LIG d   1       2.701  -1.249  -2.864  0.00  0.00     0.031 H 
ENDROOT
BRANCH  16  28
ATOM     28  C   LIG d   1       9.739   2.383  -3.767  0.00  0.00     0.013 C 
ATOM     29  H   LIG d   1       9.982   1.577  -3.059  0.00  0.00     0.043 H 
ATOM     30  H   LIG d   1      10.472   2.385  -4.587  0.00  0.00     0.043 H 
BRANCH  28  31
ATOM     31  N   LIG d   1       9.780   3.676  -3.070  0.00  0.00    -0.292 N 
ATOM     32  C   LIG d   1       9.571   4.787  -4.009  0.00  0.00     0.039 C 
ATOM     33  C   LIG d   1       9.543   6.107  -3.235  0.00  0.00    -0.018 C 
ATOM     34  H   LIG d   1      10.393   4.808  -4.741  0.00  0.00     0.048 H 
ATOM     35  H   LIG d   1       8.615   4.648  -4.535  0.00  0.00     0.048 H 
ATOM     36  N   LIG d   1      10.808   6.270  -2.503  0.00  0.00     0.240 N 
ATOM     37  H   LIG d   1       8.705   6.097  -2.523  0.00  0.00     0.083 H 
ATOM     38  H   LIG d   1       9.417   6.943  -3.937  0.00  0.00     0.083 H 
ATOM     39  C   LIG d   1      11.016   5.158  -1.564  0.00  0.00    -0.018 C 
ATOM     40  H   LIG d   1      11.628   6.255  -3.234  0.00  0.00     0.204 HD
ATOM     41  C   LIG d   1      11.044   3.838  -2.338  0.00  0.00     0.039 C 
ATOM     42  H   LIG d   1      10.194   5.137  -0.832  0.00  0.00     0.083 H 
ATOM     43  H   LIG d   1      11.972   5.296  -1.039  0.00  0.00     0.083 H 
ATOM     44  H   LIG d   1      11.171   3.003  -1.635  0.00  0.00     0.048 H 
ATOM     45  H   LIG d   1      11.882   3.848  -3.050  0.00  0.00     0.048 H 
BRANCH  36  46
ATOM     46  C   LIG d   1      10.849   7.563  -1.806  0.00  0.00    -0.006 C 
ATOM     47  H   LIG d   1       9.936   7.685  -1.205  0.00  0.00     0.087 H 
ATOM     48  H   LIG d   1      11.729   7.595  -1.147  0.00  0.00     0.087 H 
BRANCH  46  49
ATOM     49  C   LIG d   1      10.938   8.676  -2.818  0.00  0.00     0.001 A 
ATOM     50  C   LIG d   1       9.913   9.599  -2.918  0.00  0.00    -0.008 A 
ATOM     51  C   LIG d   1       9.992  10.623  -3.848  0.00  0.00     0.167 A 
ATOM     52  H   LIG d   1       9.052   9.522  -2.272  0.00  0.00     0.066 H 
ATOM     53  C   LIG d   1      11.105  10.720  -4.679  0.00  0.00     0.166 A 
ATOM     54  O   LIG d   1       9.135  11.645  -4.143  0.00  0.00    -0.453 OA
ATOM     55  C   LIG d   1      12.127   9.791  -4.574  0.00  0.00    -0.016 A 
ATOM     56  O   LIG d   1      10.945  11.802  -5.497  0.00  0.00    -0.453 OA
ATOM     57  C   LIG d   1      12.042   8.772  -3.644  0.00  0.00    -0.050 A 
ATOM     58  H   LIG d   1      12.991   9.863  -5.218  0.00  0.00     0.066 H 
ATOM     59  H   LIG d   1      12.842   8.050  -3.560  0.00  0.00     0.062 H 
ATOM     60  C   LIG d   1       9.543  12.125  -5.438  0.00  0.00     0.233 C 
ATOM     61  H   LIG d   1       8.964  11.610  -6.219  0.00  0.00     0.117 H 
ATOM     62  H   LIG d   1       9.363  13.208  -5.501  0.00  0.00     0.117 H 
ENDBRANCH  46  49
ENDBRANCH  36  46
ENDBRANCH  28  31
ENDBRANCH  16  28
BRANCH   1  63
ATOM     63  C   LIG d   1       4.293   1.040  -1.562  0.00  0.00    -0.043 C 
ATOM     64  H   LIG d   1       3.988   1.940  -2.115  0.00  0.00     0.027 H 
ATOM     65  H   LIG d   1       5.241   1.234  -1.039  0.00  0.00     0.027 H 
ATOM     66  H   LIG d   1       3.516   0.780  -0.827  0.00  0.00     0.027 H 
ENDBRANCH   1  63
BRANCH   9  67
ATOM     67  C   LIG d   1       5.308  -0.435  -5.911  0.00  0.00    -0.056 C 
ATOM     68  H   LIG d   1       6.159   0.183  -6.230  0.00  0.00     0.024 H 
ATOM     69  H   LIG d   1       4.402   0.187  -5.858  0.00  0.00     0.024 H 
ATOM     70  H   LIG d   1       5.153  -1.248  -6.635  0.00  0.00     0.024 H 
ENDBRANCH   9  67
TORSDOF 6
ENDMDL
MODEL 4
REMARK VINA RESULT:      -7.2      5.977      9.439
REMARK  6 active torsions:
REMARK  status: ('A' for Active; 'I' for Inactive)
REMARK    1  A    between atoms: C_1  and  C_2 
REMARK    2  A    between atoms: C_10  and  C_14 
REMARK    3  A    between atoms: C_18  and  C_20 
REMARK    4  A    between atoms: C_20  and  N_21 
REMARK    5  A    between atoms: N_24  and  C_27 
REMARK    6  A    between atoms: C_27  and  C_28 
ROOT
ATOM      1  C   LIG d   1       9.378  -9.965  -1.082  0.00  0.00    -0.073 C 
ATOM      2  C   LIG d   1       8.227 -10.272  -1.599  0.00  0.00    -0.064 C 
ATOM      3  C   LIG d   1       7.503  -9.250  -2.449  0.00  0.00    -0.024 C 
ATOM      4  C   LIG d   1       7.194  -9.846  -3.827  0.00  0.00     0.014 C 
ATOM      5  H   LIG d   1       8.130  -9.836  -4.405  0.00  0.00     0.035 H 
ATOM      6  C   LIG d   1       6.564 -11.244  -3.702  0.00  0.00     0.108 C 
ATOM      7  H   LIG d   1       6.536 -11.805  -4.647  0.00  0.00     0.074 H 
ATOM      8  C   LIG d   1       7.326 -12.197  -2.816  0.00  0.00    -0.006 C 
ATOM      9  C   LIG d   1       7.551 -11.604  -1.424  0.00  0.00    -0.007 C 
ATOM     10  C   LIG d   1       8.334 -12.567  -0.553  0.00  0.00    -0.043 C 
ATOM     11  C   LIG d   1       9.840 -12.358  -0.712  0.00  0.00    -0.049 C 
ATOM     12  C   LIG d   1      10.179 -10.933  -0.255  0.00  0.00    -0.032 C 
ATOM     13  O   LIG d   1       5.209 -10.971  -3.250  0.00  0.00    -0.461 OA
ATOM     14  C   LIG d   1       4.771  -9.897  -3.946  0.00  0.00     0.312 C 
ATOM     15  O   LIG d   1       3.614  -9.648  -4.192  0.00  0.00    -0.251 OA
ATOM     16  C   LIG d   1       5.961  -9.057  -4.369  0.00  0.00     0.075 C 
ATOM     17  H   LIG d   1       5.889  -8.028  -3.988  0.00  0.00     0.043 H 
ATOM     18  H   LIG d   1       6.562  -8.963  -1.957  0.00  0.00     0.031 H 
ATOM     19  H   LIG d   1       8.137  -8.360  -2.572  0.00  0.00     0.031 H 
ATOM     20  H   LIG d   1       6.756 -13.132  -2.710  0.00  0.00     0.031 H 
ATOM     21  H   LIG d   1       8.305 -12.413  -3.267  0.00  0.00     0.031 H 
ATOM     22  H   LIG d   1       8.067 -12.408   0.502  0.00  0.00     0.027 H 
ATOM     23  H   LIG d   1       8.092 -13.601  -0.841  0.00  0.00     0.027 H 
ATOM     24  H   LIG d   1      10.378 -13.089  -0.092  0.00  0.00     0.027 H 
ATOM     25  H   LIG d   1      10.120 -12.492  -1.767  0.00  0.00     0.027 H 
ATOM     26  H   LIG d   1      11.251 -10.739  -0.398  0.00  0.00     0.031 H 
ATOM     27  H   LIG d   1       9.921 -10.808   0.807  0.00  0.00     0.031 H 
ENDROOT
BRANCH  16  28
ATOM     28  C   LIG d   1       6.024  -8.946  -5.893  0.00  0.00     0.013 C 
ATOM     29  H   LIG d   1       6.943  -9.429  -6.258  0.00  0.00     0.043 H 
ATOM     30  H   LIG d   1       5.148  -9.443  -6.334  0.00  0.00     0.043 H 
BRANCH  28  31
ATOM     31  N   LIG d   1       6.029  -7.528  -6.280  0.00  0.00    -0.292 N 
ATOM     32  C   LIG d   1       6.955  -6.756  -5.440  0.00  0.00     0.039 C 
ATOM     33  C   LIG d   1       6.990  -5.305  -5.925  0.00  0.00    -0.018 C 
ATOM     34  H   LIG d   1       6.613  -6.786  -4.394  0.00  0.00     0.048 H 
ATOM     35  H   LIG d   1       7.963  -7.192  -5.508  0.00  0.00     0.048 H 
ATOM     36  N   LIG d   1       5.635  -4.739  -5.868  0.00  0.00     0.240 N 
ATOM     37  H   LIG d   1       7.359  -5.273  -6.961  0.00  0.00     0.083 H 
ATOM     38  H   LIG d   1       7.659  -4.718  -5.280  0.00  0.00     0.083 H 
ATOM     39  C   LIG d   1       4.709  -5.512  -6.709  0.00  0.00    -0.018 C 
ATOM     40  H   LIG d   1       5.283  -4.803  -4.829  0.00  0.00     0.204 HD
ATOM     41  C   LIG d   1       4.674  -6.963  -6.224  0.00  0.00     0.039 C 
ATOM     42  H   LIG d   1       5.052  -5.483  -7.754  0.00  0.00     0.083 H 
ATOM     43  H   LIG d   1       3.702  -5.078  -6.640  0.00  0.00     0.083 H 
ATOM     44  H   LIG d   1       4.005  -7.550  -6.869  0.00  0.00     0.048 H 
ATOM     45  H   LIG d   1       4.306  -6.995  -5.188  0.00  0.00     0.048 H 
BRANCH  36  46
ATOM     46  C   LIG d   1       5.640  -3.322  -6.256  0.00  0.00    -0.006 C 
ATOM     47  H   LIG d   1       6.676  -2.987  -6.409  0.00  0.00     0.087 H 
ATOM     48  H   LIG d   1       5.072  -3.195  -7.189  0.00  0.00     0.087 H 
BRANCH  46  49
ATOM     49  C   LIG d   1       5.003  -2.501  -5.164  0.00  0.00     0.001 A 
ATOM     50  C   LIG d   1       4.711  -1.168  -5.386  0.00  0.00    -0.008 A 
ATOM     51  C   LIG d   1       4.125  -0.411  -4.384  0.00  0.00     0.167 A 
ATOM     52  H   LIG d   1       4.939  -0.716  -6.340  0.00  0.00     0.066 H 
ATOM     53  C   LIG d   1       3.832  -0.997  -3.155  0.00  0.00     0.166 A 
ATOM     54  O   LIG d   1       3.742   0.899  -4.346  0.00  0.00    -0.453 OA
ATOM     55  C   LIG d   1       4.128  -2.333  -2.940  0.00  0.00    -0.016 A 
ATOM     56  O   LIG d   1       3.266  -0.053  -2.347  0.00  0.00    -0.453 OA
ATOM     57  C   LIG d   1       4.712  -3.082  -3.944  0.00  0.00    -0.050 A 
ATOM     58  H   LIG d   1       3.902  -2.790  -1.988  0.00  0.00     0.066 H 
ATOM     59  H   LIG d   1       4.939  -4.125  -3.776  0.00  0.00     0.062 H 
ATOM     60  C   LIG d   1       3.588   1.214  -2.949  0.00  0.00     0.233 C 
ATOM     61  H   LIG d   1       4.529   1.631  -2.562  0.00  0.00     0.117 H 
ATOM     62  H   LIG d   1       2.781   1.951  -2.827  0.00  0.00     0.117 H 
ENDBRANCH  46  49
ENDBRANCH  36  46
ENDBRANCH  28  31
ENDBRANCH  16  28
BRANCH   1  63
ATOM     63  C   LIG d   1       9.934  -8.585  -1.321  0.00  0.00    -0.043 C 
ATOM     64  H   LIG d   1      10.762  -8.643  -2.043  0.00  0.00     0.027 H 
ATOM     65  H   LIG d   1      10.303  -8.168  -0.373  0.00  0.00     0.027 H 
ATOM     66  H   LIG d   1       9.142  -7.935  -1.724  0.00  0.00     0.027 H 
ENDBRANCH   1  63
BRANCH   9  67
ATOM     67  C   LIG d   1       6.188 -11.373  -0.769  0.00  0.00    -0.056 C 
ATOM     68  H   LIG d   1       5.866 -12.293  -0.259  0.00  0.00     0.024 H 
ATOM     69  H   LIG d   1       5.451 -11.106  -1.542  0.00  0.00     0.024 H 
ATOM     70  H   LIG d   1       6.266 -10.556  -0.038  0.00  0.00     0.024 H 
ENDBRANCH   9  67
TORSDOF 6
ENDMDL
MODEL 5
REMARK VINA RESULT:      -7.1      2.717      3.275
REMARK  6 active torsions:
REMARK  status: ('A' for Active; 'I' for Inactive)
REMARK    1  A    between atoms: C_1  and  C_2 
REMARK    2  A    between atoms: C_10  and  C_14 
REMARK    3  A    between atoms: C_18  and  C_20 
REMARK    4  A    between atoms: C_20  and  N_21 
REMARK    5  A    between atoms: N_24  and  C_27 
REMARK    6  A    between atoms: C_27  and  C_28 
ROOT
ATOM      1  C   LIG d   1       3.420   0.476  -4.005  0.00  0.00    -0.073 C 
ATOM      2  C   LIG d   1       4.141  -0.600  -4.106  0.00  0.00    -0.064 C 
ATOM      3  C   LIG d   1       4.373  -1.206  -5.473  0.00  0.00    -0.024 C 
ATOM      4  C   LIG d   1       5.878  -1.336  -5.734  0.00  0.00     0.014 C 
ATOM      5  H   LIG d   1       6.255  -0.334  -5.986  0.00  0.00     0.035 H 
ATOM      6  C   LIG d   1       6.599  -1.979  -4.535  0.00  0.00     0.108 C 
ATOM      7  H   LIG d   1       7.694  -1.886  -4.573  0.00  0.00     0.074 H 
ATOM      8  C   LIG d   1       6.294  -1.339  -3.205  0.00  0.00    -0.006 C 
ATOM      9  C   LIG d   1       4.788  -1.294  -2.940  0.00  0.00    -0.007 C 
ATOM     10  C   LIG d   1       4.499  -0.631  -1.608  0.00  0.00    -0.043 C 
ATOM     11  C   LIG d   1       4.357   0.882  -1.762  0.00  0.00    -0.049 C 
ATOM     12  C   LIG d   1       3.169   1.163  -2.690  0.00  0.00    -0.032 C 
ATOM     13  O   LIG d   1       6.219  -3.381  -4.618  0.00  0.00    -0.461 OA
ATOM     14  C   LIG d   1       6.266  -3.724  -5.926  0.00  0.00     0.312 C 
ATOM     15  O   LIG d   1       6.460  -4.839  -6.350  0.00  0.00    -0.251 OA
ATOM     16  C   LIG d   1       6.036  -2.488  -6.775  0.00  0.00     0.075 C 
ATOM     17  H   LIG d   1       5.169  -2.607  -7.441  0.00  0.00     0.043 H 
ATOM     18  H   LIG d   1       3.909  -2.203  -5.517  0.00  0.00     0.031 H 
ATOM     19  H   LIG d   1       3.926  -0.560  -6.242  0.00  0.00     0.031 H 
ATOM     20  H   LIG d   1       6.773  -1.919  -2.402  0.00  0.00     0.031 H 
ATOM     21  H   LIG d   1       6.683  -0.310  -3.196  0.00  0.00     0.031 H 
ATOM     22  H   LIG d   1       3.562  -1.031  -1.194  0.00  0.00     0.027 H 
ATOM     23  H   LIG d   1       5.326  -0.835  -0.910  0.00  0.00     0.027 H 
ATOM     24  H   LIG d   1       4.178   1.336  -0.776  0.00  0.00     0.027 H 
ATOM     25  H   LIG d   1       5.279   1.296  -2.195  0.00  0.00     0.027 H 
ATOM     26  H   LIG d   1       3.068   2.245  -2.855  0.00  0.00     0.031 H 
ATOM     27  H   LIG d   1       2.243   0.771  -2.244  0.00  0.00     0.031 H 
ENDROOT
BRANCH  16  28
ATOM     28  C   LIG d   1       7.239  -2.229  -7.682  0.00  0.00     0.013 C 
ATOM     29  H   LIG d   1       7.805  -1.365  -7.304  0.00  0.00     0.043 H 
ATOM     30  H   LIG d   1       7.889  -3.117  -7.692  0.00  0.00     0.043 H 
BRANCH  28  31
ATOM     31  N   LIG d   1       6.772  -1.950  -9.047  0.00  0.00    -0.292 N 
ATOM     32  C   LIG d   1       6.576  -0.508  -9.251  0.00  0.00     0.039 C 
ATOM     33  C   LIG d   1       6.167  -0.253 -10.704  0.00  0.00    -0.018 C 
ATOM     34  H   LIG d   1       5.785  -0.146  -8.578  0.00  0.00     0.048 H 
ATOM     35  H   LIG d   1       7.514   0.025  -9.034  0.00  0.00     0.048 H 
ATOM     36  N   LIG d   1       4.935  -0.997 -11.002  0.00  0.00     0.240 N 
ATOM     37  H   LIG d   1       6.970  -0.589 -11.376  0.00  0.00     0.083 H 
ATOM     38  H   LIG d   1       5.991   0.822 -10.853  0.00  0.00     0.083 H 
ATOM     39  C   LIG d   1       5.132  -2.439 -10.797  0.00  0.00    -0.018 C 
ATOM     40  H   LIG d   1       4.156  -0.658 -10.304  0.00  0.00     0.204 HD
ATOM     41  C   LIG d   1       5.541  -2.694  -9.344  0.00  0.00     0.039 C 
ATOM     42  H   LIG d   1       5.924  -2.801 -11.469  0.00  0.00     0.083 H 
ATOM     43  H   LIG d   1       4.195  -2.972 -11.013  0.00  0.00     0.083 H 
ATOM     44  H   LIG d   1       5.717  -3.769  -9.196  0.00  0.00     0.048 H 
ATOM     45  H   LIG d   1       4.738  -2.358  -8.672  0.00  0.00     0.048 H 
BRANCH  36  46
ATOM     46  C   LIG d   1       4.468  -0.717 -12.366  0.00  0.00    -0.006 C 
ATOM     47  H   LIG d   1       4.544   0.362 -12.567  0.00  0.00     0.087 H 
ATOM     48  H   LIG d   1       5.091  -1.269 -13.086  0.00  0.00     0.087 H 
BRANCH  46  49
ATOM     49  C   LIG d   1       3.033  -1.154 -12.505  0.00  0.00     0.001 A 
ATOM     50  C   LIG d   1       2.644  -1.907 -13.598  0.00  0.00    -0.008 A 
ATOM     51  C   LIG d   1       1.325  -2.310 -13.728  0.00  0.00     0.167 A 
ATOM     52  H   LIG d   1       3.368  -2.181 -14.350  0.00  0.00     0.066 H 
ATOM     53  C   LIG d   1       0.393  -1.955 -12.755  0.00  0.00     0.166 A 
ATOM     54  O   LIG d   1       0.694  -3.045 -14.690  0.00  0.00    -0.453 OA
ATOM     55  C   LIG d   1       0.790  -1.201 -11.663  0.00  0.00    -0.016 A 
ATOM     56  O   LIG d   1      -0.822  -2.467 -13.108  0.00  0.00    -0.453 OA
ATOM     57  C   LIG d   1       2.107  -0.802 -11.540  0.00  0.00    -0.050 A 
ATOM     58  H   LIG d   1       0.070  -0.923 -10.908  0.00  0.00     0.066 H 
ATOM     59  H   LIG d   1       2.417  -0.217 -10.686  0.00  0.00     0.062 H 
ATOM     60  C   LIG d   1      -0.712  -2.790 -14.507  0.00  0.00     0.233 C 
ATOM     61  H   LIG d   1      -1.020  -1.955 -15.153  0.00  0.00     0.117 H 
ATOM     62  H   LIG d   1      -1.285  -3.690 -14.773  0.00  0.00     0.117 H 
ENDBRANCH  46  49
ENDBRANCH  36  46
ENDBRANCH  28  31
ENDBRANCH  16  28
BRANCH   1  63
ATOM     63  C   LIG d   1       2.812   1.061  -5.254  0.00  0.00    -0.043 C 
ATOM     64  H   LIG d   1       3.535   1.739  -5.730  0.00  0.00     0.027 H 
ATOM     65  H   LIG d   1       1.901   1.619  -4.993  0.00  0.00     0.027 H 
ATOM     66  H   LIG d   1       2.557   0.249  -5.952  0.00  0.00     0.027 H 
ENDBRANCH   1  63
BRANCH   9  67
ATOM     67  C   LIG d   1       4.264  -2.730  -2.879  0.00  0.00    -0.056 C 
ATOM     68  H   LIG d   1       3.303  -2.747  -2.345  0.00  0.00     0.024 H 
ATOM     69  H   LIG d   1       4.990  -3.363  -2.349  0.00  0.00     0.024 H 
ATOM     70  H   LIG d   1       4.122  -3.112  -3.901  0.00  0.00     0.024 H 
ENDBRANCH   9  67
TORSDOF 6
ENDMDL
MODEL 6
REMARK VINA RESULT:      -7.1      5.307      7.428
REMARK  6 active torsions:
REMARK  status: ('A' for Active; 'I' for Inactive)
REMARK    1  A    between atoms: C_1  and  C_2 
REMARK    2  A    between atoms: C_10  and  C_14 
REMARK    3  A    between atoms: C_18  and  C_20 
REMARK    4  A    between atoms: C_20  and  N_21 
REMARK    5  A    between atoms: N_24  and  C_27 
REMARK    6  A    between atoms: C_27  and  C_28 
ROOT
ATOM      1  C   LIG d   1       4.618  -1.041  -2.474  0.00  0.00    -0.073 C 
ATOM      2  C   LIG d   1       5.523  -1.162  -3.398  0.00  0.00    -0.064 C 
ATOM      3  C   LIG d   1       5.754  -2.518  -4.031  0.00  0.00    -0.024 C 
ATOM      4  C   LIG d   1       5.597  -2.413  -5.552  0.00  0.00     0.014 C 
ATOM      5  H   LIG d   1       4.519  -2.367  -5.768  0.00  0.00     0.035 H 
ATOM      6  C   LIG d   1       6.388  -1.219  -6.115  0.00  0.00     0.108 C 
ATOM      7  H   LIG d   1       6.129  -0.963  -7.152  0.00  0.00     0.074 H 
ATOM      8  C   LIG d   1       6.127   0.090  -5.414  0.00  0.00    -0.006 C 
ATOM      9  C   LIG d   1       6.367  -0.027  -3.908  0.00  0.00    -0.007 C 
ATOM     10  C   LIG d   1       6.082   1.292  -3.217  0.00  0.00    -0.043 C 
ATOM     11  C   LIG d   1       4.612   1.400  -2.814  0.00  0.00    -0.049 C 
ATOM     12  C   LIG d   1       4.301   0.275  -1.819  0.00  0.00    -0.032 C 
ATOM     13  O   LIG d   1       7.772  -1.660  -6.047  0.00  0.00    -0.461 OA
ATOM     14  C   LIG d   1       7.791  -2.956  -6.436  0.00  0.00     0.312 C 
ATOM     15  O   LIG d   1       8.736  -3.523  -6.933  0.00  0.00    -0.251 OA
ATOM     16  C   LIG d   1       6.439  -3.583  -6.152  0.00  0.00     0.075 C 
ATOM     17  H   LIG d   1       6.526  -4.455  -5.487  0.00  0.00     0.043 H 
ATOM     18  H   LIG d   1       6.770  -2.866  -3.794  0.00  0.00     0.031 H 
ATOM     19  H   LIG d   1       5.020  -3.236  -3.639  0.00  0.00     0.031 H 
ATOM     20  H   LIG d   1       6.801   0.861  -5.817  0.00  0.00     0.031 H 
ATOM     21  H   LIG d   1       5.082   0.392  -5.580  0.00  0.00     0.031 H 
ATOM     22  H   LIG d   1       6.701   1.375  -2.312  0.00  0.00     0.027 H 
ATOM     23  H   LIG d   1       6.319   2.122  -3.900  0.00  0.00     0.027 H 
ATOM     24  H   LIG d   1       4.431   2.378  -2.344  0.00  0.00     0.027 H 
ATOM     25  H   LIG d   1       3.978   1.299  -3.707  0.00  0.00     0.027 H 
ATOM     26  H   LIG d   1       3.238   0.301  -1.543  0.00  0.00     0.031 H 
ATOM     27  H   LIG d   1       4.918   0.392  -0.916  0.00  0.00     0.031 H 
ENDROOT
BRANCH  16  28
ATOM     28  C   LIG d   1       5.802  -4.093  -7.445  0.00  0.00     0.013 C 
ATOM     29  H   LIG d   1       4.897  -3.507  -7.665  0.00  0.00     0.043 H 
ATOM     30  H   LIG d   1       6.518  -3.987  -8.274  0.00  0.00     0.043 H 
BRANCH  28  31
ATOM     31  N   LIG d   1       5.442  -5.509  -7.288  0.00  0.00    -0.292 N 
ATOM     32  C   LIG d   1       5.229  -5.844  -5.873  0.00  0.00     0.039 C 
ATOM     33  C   LIG d   1       4.781  -7.303  -5.759  0.00  0.00    -0.018 C 
ATOM     34  H   LIG d   1       6.169  -5.704  -5.318  0.00  0.00     0.048 H 
ATOM     35  H   LIG d   1       4.454  -5.187  -5.453  0.00  0.00     0.048 H 
ATOM     36  N   LIG d   1       5.802  -8.175  -6.356  0.00  0.00     0.240 N 
ATOM     37  H   LIG d   1       3.828  -7.436  -6.291  0.00  0.00     0.083 H 
ATOM     38  H   LIG d   1       4.649  -7.566  -4.700  0.00  0.00     0.083 H 
ATOM     39  C   LIG d   1       6.015  -7.839  -7.772  0.00  0.00    -0.018 C 
ATOM     40  H   LIG d   1       6.748  -8.007  -5.821  0.00  0.00     0.204 HD
ATOM     41  C   LIG d   1       6.463  -6.380  -7.885  0.00  0.00     0.039 C 
ATOM     42  H   LIG d   1       5.075  -7.978  -8.327  0.00  0.00     0.083 H 
ATOM     43  H   LIG d   1       6.790  -8.496  -8.192  0.00  0.00     0.083 H 
ATOM     44  H   LIG d   1       6.595  -6.119  -8.945  0.00  0.00     0.048 H 
ATOM     45  H   LIG d   1       7.417  -6.247  -7.354  0.00  0.00     0.048 H 
BRANCH  36  46
ATOM     46  C   LIG d   1       5.443  -9.591  -6.199  0.00  0.00    -0.006 C 
ATOM     47  H   LIG d   1       4.409  -9.747  -6.543  0.00  0.00     0.087 H 
ATOM     48  H   LIG d   1       6.126 -10.211  -6.798  0.00  0.00     0.087 H 
BRANCH  46  49
ATOM     49  C   LIG d   1       5.553  -9.978  -4.747  0.00  0.00     0.001 A 
ATOM     50  C   LIG d   1       6.715  -9.706  -4.048  0.00  0.00    -0.008 A 
ATOM     51  C   LIG d   1       6.819 -10.062  -2.713  0.00  0.00     0.167 A 
ATOM     52  H   LIG d   1       7.541  -9.217  -4.542  0.00  0.00     0.066 H 
ATOM     53  C   LIG d   1       5.752 -10.692  -2.078  0.00  0.00     0.166 A 
ATOM     54  O   LIG d   1       7.834  -9.910  -1.813  0.00  0.00    -0.453 OA
ATOM     55  C   LIG d   1       4.592 -10.962  -2.785  0.00  0.00    -0.016 A 
ATOM     56  O   LIG d   1       6.099 -10.936  -0.781  0.00  0.00    -0.453 OA
ATOM     57  C   LIG d   1       4.494 -10.605  -4.117  0.00  0.00    -0.050 A 
ATOM     58  H   LIG d   1       3.762 -11.451  -2.296  0.00  0.00     0.066 H 
ATOM     59  H   LIG d   1       3.587 -10.812  -4.666  0.00  0.00     0.062 H 
ATOM     60  C   LIG d   1       7.533 -10.818  -0.737  0.00  0.00     0.233 C 
ATOM     61  H   LIG d   1       8.035 -11.779  -0.917  0.00  0.00     0.117 H 
ATOM     62  H   LIG d   1       7.887 -10.391   0.213  0.00  0.00     0.117 H 
ENDBRANCH  46  49
ENDBRANCH  36  46
ENDBRANCH  28  31
ENDBRANCH  16  28
BRANCH   1  63
ATOM     63  C   LIG d   1       3.856  -2.267  -2.042  0.00  0.00    -0.043 C 
ATOM     64  H   LIG d   1       3.866  -3.010  -2.853  0.00  0.00     0.027 H 
ATOM     65  H   LIG d   1       2.816  -1.991  -1.811  0.00  0.00     0.027 H 
ATOM     66  H   LIG d   1       4.328  -2.696  -1.146  0.00  0.00     0.027 H 
ENDBRANCH   1  63
BRANCH   9  67
ATOM     67  C   LIG d   1       7.839  -0.375  -3.677  0.00  0.00    -0.056 C 
ATOM     68  H   LIG d   1       7.928  -1.023  -2.794  0.00  0.00     0.024 H 
ATOM     69  H   LIG d   1       8.413   0.549  -3.514  0.00  0.00     0.024 H 
ATOM     70  H   LIG d   1       8.233  -0.901  -4.559  0.00  0.00     0.024 H 
ENDBRANCH   9  67
TORSDOF 6
ENDMDL
MODEL 7
REMARK VINA RESULT:      -7.0      6.395     11.701
REMARK  6 active torsions:
REMARK  status: ('A' for Active; 'I' for Inactive)
REMARK    1  A    between atoms: C_1  and  C_2 
REMARK    2  A    between atoms: C_10  and  C_14 
REMARK    3  A    between atoms: C_18  and  C_20 
REMARK    4  A    between atoms: C_20  and  N_21 
REMARK    5  A    between atoms: N_24  and  C_27 
REMARK    6  A    between atoms: C_27  and  C_28 
ROOT
ATOM      1  C   LIG d   1       3.414  -0.284  -4.948  0.00  0.00    -0.073 C 
ATOM      2  C   LIG d   1       4.643  -0.680  -4.800  0.00  0.00    -0.064 C 
ATOM      3  C   LIG d   1       5.613  -0.517  -5.950  0.00  0.00    -0.024 C 
ATOM      4  C   LIG d   1       6.834   0.287  -5.489  0.00  0.00     0.014 C 
ATOM      5  H   LIG d   1       6.532   1.343  -5.441  0.00  0.00     0.035 H 
ATOM      6  C   LIG d   1       7.388  -0.255  -4.159  0.00  0.00     0.108 C 
ATOM      7  H   LIG d   1       8.110   0.417  -3.671  0.00  0.00     0.074 H 
ATOM      8  C   LIG d   1       6.357  -0.418  -3.072  0.00  0.00    -0.006 C 
ATOM      9  C   LIG d   1       5.188  -1.287  -3.538  0.00  0.00    -0.007 C 
ATOM     10  C   LIG d   1       4.152  -1.425  -2.439  0.00  0.00    -0.043 C 
ATOM     11  C   LIG d   1       3.127  -0.294  -2.500  0.00  0.00    -0.049 C 
ATOM     12  C   LIG d   1       2.395  -0.378  -3.845  0.00  0.00    -0.032 C 
ATOM     13  O   LIG d   1       8.047  -1.494  -4.540  0.00  0.00    -0.461 OA
ATOM     14  C   LIG d   1       8.699  -1.252  -5.700  0.00  0.00     0.312 C 
ATOM     15  O   LIG d   1       9.681  -1.841  -6.086  0.00  0.00    -0.251 OA
ATOM     16  C   LIG d   1       8.003  -0.124  -6.438  0.00  0.00     0.075 C 
ATOM     17  H   LIG d   1       7.673  -0.436  -7.440  0.00  0.00     0.043 H 
ATOM     18  H   LIG d   1       5.940  -1.507  -6.299  0.00  0.00     0.031 H 
ATOM     19  H   LIG d   1       5.118   0.017  -6.775  0.00  0.00     0.031 H 
ATOM     20  H   LIG d   1       6.821  -0.896  -2.196  0.00  0.00     0.031 H 
ATOM     21  H   LIG d   1       5.966   0.570  -2.786  0.00  0.00     0.031 H 
ATOM     22  H   LIG d   1       3.624  -2.384  -2.551  0.00  0.00     0.027 H 
ATOM     23  H   LIG d   1       4.652  -1.393  -1.459  0.00  0.00     0.027 H 
ATOM     24  H   LIG d   1       2.409  -0.405  -1.674  0.00  0.00     0.027 H 
ATOM     25  H   LIG d   1       3.643   0.674  -2.411  0.00  0.00     0.027 H 
ATOM     26  H   LIG d   1       1.679   0.451  -3.935  0.00  0.00     0.031 H 
ATOM     27  H   LIG d   1       1.860  -1.336  -3.922  0.00  0.00     0.031 H 
ENDROOT
BRANCH  16  28
ATOM     28  C   LIG d   1       8.960   1.050  -6.650  0.00  0.00     0.013 C 
ATOM     29  H   LIG d   1       9.849   0.704  -7.197  0.00  0.00     0.043 H 
ATOM     30  H   LIG d   1       8.454   1.835  -7.230  0.00  0.00     0.043 H 
BRANCH  28  31
ATOM     31  N   LIG d   1       9.366   1.591  -5.346  0.00  0.00    -0.292 N 
ATOM     32  C   LIG d   1       8.788   2.924  -5.126  0.00  0.00     0.039 C 
ATOM     33  C   LIG d   1       9.170   3.418  -3.728  0.00  0.00    -0.018 C 
ATOM     34  H   LIG d   1       9.179   3.622  -5.882  0.00  0.00     0.048 H 
ATOM     35  H   LIG d   1       7.693   2.868  -5.210  0.00  0.00     0.048 H 
ATOM     36  N   LIG d   1      10.635   3.455  -3.607  0.00  0.00     0.240 N 
ATOM     37  H   LIG d   1       8.756   2.736  -2.972  0.00  0.00     0.083 H 
ATOM     38  H   LIG d   1       8.764   4.428  -3.572  0.00  0.00     0.083 H 
ATOM     39  C   LIG d   1      11.212   2.121  -3.827  0.00  0.00    -0.018 C 
ATOM     40  H   LIG d   1      11.023   4.126  -4.386  0.00  0.00     0.204 HD
ATOM     41  C   LIG d   1      10.830   1.627  -5.225  0.00  0.00     0.039 C 
ATOM     42  H   LIG d   1      10.821   1.423  -3.072  0.00  0.00     0.083 H 
ATOM     43  H   LIG d   1      12.307   2.177  -3.744  0.00  0.00     0.083 H 
ATOM     44  H   LIG d   1      11.236   0.618  -5.381  0.00  0.00     0.048 H 
ATOM     45  H   LIG d   1      11.244   2.310  -5.981  0.00  0.00     0.048 H 
BRANCH  36  46
ATOM     46  C   LIG d   1      11.041   3.996  -2.303  0.00  0.00    -0.006 C 
ATOM     47  H   LIG d   1      10.453   3.516  -1.507  0.00  0.00     0.087 H 
ATOM     48  H   LIG d   1      12.111   3.796  -2.141  0.00  0.00     0.087 H 
BRANCH  46  49
ATOM     49  C   LIG d   1      10.799   5.483  -2.279  0.00  0.00     0.001 A 
ATOM     50  C   LIG d   1       9.951   6.028  -1.333  0.00  0.00    -0.008 A 
ATOM     51  C   LIG d   1       9.726   7.395  -1.309  0.00  0.00     0.167 A 
ATOM     52  H   LIG d   1       9.463   5.389  -0.612  0.00  0.00     0.066 H 
ATOM     53  C   LIG d   1      10.357   8.217  -2.239  0.00  0.00     0.166 A 
ATOM     54  O   LIG d   1       8.952   8.171  -0.495  0.00  0.00    -0.453 OA
ATOM     55  C   LIG d   1      11.205   7.664  -3.185  0.00  0.00    -0.016 A 
ATOM     56  O   LIG d   1       9.977   9.508  -2.008  0.00  0.00    -0.453 OA
ATOM     57  C   LIG d   1      11.424   6.300  -3.203  0.00  0.00    -0.050 A 
ATOM     58  H   LIG d   1      11.695   8.299  -3.908  0.00  0.00     0.066 H 
ATOM     59  H   LIG d   1      12.089   5.870  -3.939  0.00  0.00     0.062 H 
ATOM     60  C   LIG d   1       8.795   9.421  -1.191  0.00  0.00     0.233 C 
ATOM     61  H   LIG d   1       7.874   9.393  -1.792  0.00  0.00     0.117 H 
ATOM     62  H   LIG d   1       8.732  10.242  -0.462  0.00  0.00     0.117 H 
ENDBRANCH  46  49
ENDBRANCH  36  46
ENDBRANCH  28  31
ENDBRANCH  16  28
BRANCH   1  63
ATOM     63  C   LIG d   1       2.993   0.291  -6.275  0.00  0.00    -0.043 C 
ATOM     64  H   LIG d   1       3.553  -0.202  -7.083  0.00  0.00     0.027 H 
ATOM     65  H   LIG d   1       3.202   1.371  -6.290  0.00  0.00     0.027 H 
ATOM     66  H   LIG d   1       1.915   0.125  -6.422  0.00  0.00     0.027 H 
ENDBRANCH   1  63
BRANCH   9  67
ATOM     67  C   LIG d   1       5.723  -2.683  -3.864  0.00  0.00    -0.056 C 
ATOM     68  H   LIG d   1       5.205  -3.076  -4.751  0.00  0.00     0.024 H 
ATOM     69  H   LIG d   1       5.546  -3.353  -3.009  0.00  0.00     0.024 H 
ATOM     70  H   LIG d   1       6.803  -2.623  -4.065  0.00  0.00     0.024 H 
ENDBRANCH   9  67
TORSDOF 6
ENDMDL
MODEL 8
REMARK VINA RESULT:      -7.0      4.436      8.396
REMARK  6 active torsions:
REMARK  status: ('A' for Active; 'I' for Inactive)
REMARK    1  A    between atoms: C_1  and  C_2 
REMARK    2  A    between atoms: C_10  and  C_14 
REMARK    3  A    between atoms: C_18  and  C_20 
REMARK    4  A    between atoms: C_20  and  N_21 
REMARK    5  A    between atoms: N_24  and  C_27 
REMARK    6  A    between atoms: C_27  and  C_28 
ROOT
ATOM      1  C   LIG d   1       3.032  -1.316 -10.383  0.00  0.00    -0.073 C 
ATOM      2  C   LIG d   1       3.482  -0.798  -9.281  0.00  0.00    -0.064 C 
ATOM      3  C   LIG d   1       3.629  -1.678  -8.058  0.00  0.00    -0.024 C 
ATOM      4  C   LIG d   1       5.071  -1.613  -7.542  0.00  0.00     0.014 C 
ATOM      5  H   LIG d   1       5.686  -2.236  -8.208  0.00  0.00     0.035 H 
ATOM      6  C   LIG d   1       5.562  -0.158  -7.438  0.00  0.00     0.108 C 
ATOM      7  H   LIG d   1       6.648  -0.064  -7.297  0.00  0.00     0.074 H 
ATOM      8  C   LIG d   1       5.354   0.664  -8.684  0.00  0.00    -0.006 C 
ATOM      9  C   LIG d   1       3.891   0.641  -9.130  0.00  0.00    -0.007 C 
ATOM     10  C   LIG d   1       3.704   1.456 -10.394  0.00  0.00    -0.043 C 
ATOM     11  C   LIG d   1       3.931   0.603 -11.641  0.00  0.00    -0.049 C 
ATOM     12  C   LIG d   1       2.888  -0.522 -11.652  0.00  0.00    -0.032 C 
ATOM     13  O   LIG d   1       4.866   0.356  -6.268  0.00  0.00    -0.461 OA
ATOM     14  C   LIG d   1       4.891  -0.622  -5.334  0.00  0.00     0.312 C 
ATOM     15  O   LIG d   1       4.837  -0.449  -4.139  0.00  0.00    -0.251 OA
ATOM     16  C   LIG d   1       5.001  -1.968  -6.024  0.00  0.00     0.075 C 
ATOM     17  H   LIG d   1       4.163  -2.631  -5.761  0.00  0.00     0.043 H 
ATOM     18  H   LIG d   1       2.945  -1.329  -7.270  0.00  0.00     0.031 H 
ATOM     19  H   LIG d   1       3.384  -2.717  -8.322  0.00  0.00     0.031 H 
ATOM     20  H   LIG d   1       5.644   1.707  -8.488  0.00  0.00     0.031 H 
ATOM     21  H   LIG d   1       5.974   0.258  -9.498  0.00  0.00     0.031 H 
ATOM     22  H   LIG d   1       2.680   1.857 -10.425  0.00  0.00     0.027 H 
ATOM     23  H   LIG d   1       4.425   2.288 -10.404  0.00  0.00     0.027 H 
ATOM     24  H   LIG d   1       3.818   1.229 -12.539  0.00  0.00     0.027 H 
ATOM     25  H   LIG d   1       4.945   0.177 -11.615  0.00  0.00     0.027 H 
ATOM     26  H   LIG d   1       3.054  -1.179 -12.518  0.00  0.00     0.031 H 
ATOM     27  H   LIG d   1       1.876  -0.095 -11.704  0.00  0.00     0.031 H 
ENDROOT
BRANCH  16  28
ATOM     28  C   LIG d   1       6.273  -2.695  -5.585  0.00  0.00     0.013 C 
ATOM     29  H   LIG d   1       7.139  -2.272  -6.117  0.00  0.00     0.043 H 
ATOM     30  H   LIG d   1       6.411  -2.568  -4.501  0.00  0.00     0.043 H 
BRANCH  28  31
ATOM     31  N   LIG d   1       6.155  -4.125  -5.900  0.00  0.00    -0.292 N 
ATOM     32  C   LIG d   1       4.937  -4.695  -5.306  0.00  0.00     0.039 C 
ATOM     33  C   LIG d   1       4.809  -6.162  -5.722  0.00  0.00    -0.018 C 
ATOM     34  H   LIG d   1       4.997  -4.627  -4.210  0.00  0.00     0.048 H 
ATOM     35  H   LIG d   1       4.059  -4.134  -5.661  0.00  0.00     0.048 H 
ATOM     36  N   LIG d   1       6.002  -6.899  -5.281  0.00  0.00     0.240 N 
ATOM     37  H   LIG d   1       4.722  -6.228  -6.816  0.00  0.00     0.083 H 
ATOM     38  H   LIG d   1       3.915  -6.600  -5.256  0.00  0.00     0.083 H 
ATOM     39  C   LIG d   1       7.220  -6.329  -5.874  0.00  0.00    -0.018 C 
ATOM     40  H   LIG d   1       6.078  -6.800  -4.188  0.00  0.00     0.204 HD
ATOM     41  C   LIG d   1       7.347  -4.861  -5.459  0.00  0.00     0.039 C 
ATOM     42  H   LIG d   1       7.160  -6.395  -6.971  0.00  0.00     0.083 H 
ATOM     43  H   LIG d   1       8.098  -6.888  -5.520  0.00  0.00     0.083 H 
ATOM     44  H   LIG d   1       8.241  -4.424  -5.924  0.00  0.00     0.048 H 
ATOM     45  H   LIG d   1       7.435  -4.796  -4.364  0.00  0.00     0.048 H 
BRANCH  36  46
ATOM     46  C   LIG d   1       5.883  -8.330  -5.595  0.00  0.00    -0.006 C 
ATOM     47  H   LIG d   1       4.954  -8.506  -6.157  0.00  0.00     0.087 H 
ATOM     48  H   LIG d   1       6.744  -8.643  -6.204  0.00  0.00     0.087 H 
BRANCH  46  49
ATOM     49  C   LIG d   1       5.856  -9.124  -4.316  0.00  0.00     0.001 A 
ATOM     50  C   LIG d   1       6.995  -9.219  -3.539  0.00  0.00    -0.008 A 
ATOM     51  C   LIG d   1       6.973  -9.949  -2.361  0.00  0.00     0.167 A 
ATOM     52  H   LIG d   1       7.903  -8.724  -3.848  0.00  0.00     0.066 H 
ATOM     53  C   LIG d   1       5.799 -10.586  -1.964  0.00  0.00     0.166 A 
ATOM     54  O   LIG d   1       7.940 -10.195  -1.430  0.00  0.00    -0.453 OA
ATOM     55  C   LIG d   1       4.662 -10.487  -2.748  0.00  0.00    -0.016 A 
ATOM     56  O   LIG d   1       6.033 -11.232  -0.783  0.00  0.00    -0.453 OA
ATOM     57  C   LIG d   1       4.692  -9.758  -3.921  0.00  0.00    -0.050 A 
ATOM     58  H   LIG d   1       3.751 -10.981  -2.443  0.00  0.00     0.066 H 
ATOM     59  H   LIG d   1       3.802  -9.678  -4.530  0.00  0.00     0.062 H 
ATOM     60  C   LIG d   1       7.465 -11.323  -0.671  0.00  0.00     0.233 C 
ATOM     61  H   LIG d   1       7.859 -12.251  -1.109  0.00  0.00     0.117 H 
ATOM     62  H   LIG d   1       7.807 -11.234   0.370  0.00  0.00     0.117 H 
ENDBRANCH  46  49
ENDBRANCH  36  46
ENDBRANCH  28  31
ENDBRANCH  16  28
BRANCH   1  63
ATOM     63  C   LIG d   1       2.640  -2.771 -10.392  0.00  0.00    -0.043 C 
ATOM     64  H   LIG d   1       3.331  -3.341  -9.754  0.00  0.00     0.027 H 
ATOM     65  H   LIG d   1       2.687  -3.159 -11.420  0.00  0.00     0.027 H 
ATOM     66  H   LIG d   1       1.614  -2.877 -10.007  0.00  0.00     0.027 H 
ENDBRANCH   1  63
BRANCH   9  67
ATOM     67  C   LIG d   1       3.039   1.274  -8.027  0.00  0.00    -0.056 C 
ATOM     68  H   LIG d   1       2.543   0.482  -7.447  0.00  0.00     0.024 H 
ATOM     69  H   LIG d   1       2.279   1.928  -8.480  0.00  0.00     0.024 H 
ATOM     70  H   LIG d   1       3.684   1.867  -7.362  0.00  0.00     0.024 H 
ENDBRANCH   9  67
TORSDOF 6
ENDMDL
MODEL 9
REMARK VINA RESULT:      -6.8      5.663     11.516
REMARK  6 active torsions:
REMARK  status: ('A' for Active; 'I' for Inactive)
REMARK    1  A    between atoms: C_1  and  C_2 
REMARK    2  A    between atoms: C_10  and  C_14 
REMARK    3  A    between atoms: C_18  and  C_20 
REMARK    4  A    between atoms: C_20  and  N_21 
REMARK    5  A    between atoms: N_24  and  C_27 
REMARK    6  A    between atoms: C_27  and  C_28 
ROOT
ATOM      1  C   LIG d   1       5.337   0.462  -9.770  0.00  0.00    -0.073 C 
ATOM      2  C   LIG d   1       5.094  -0.287  -8.737  0.00  0.00    -0.064 C 
ATOM      3  C   LIG d   1       6.255  -0.893  -7.976  0.00  0.00    -0.024 C 
ATOM      4  C   LIG d   1       6.169  -0.497  -6.498  0.00  0.00     0.014 C 
ATOM      5  H   LIG d   1       6.510   0.546  -6.418  0.00  0.00     0.035 H 
ATOM      6  C   LIG d   1       4.753  -0.725  -5.940  0.00  0.00     0.108 C 
ATOM      7  H   LIG d   1       4.578  -0.248  -4.965  0.00  0.00     0.074 H 
ATOM      8  C   LIG d   1       3.649  -0.117  -6.768  0.00  0.00    -0.006 C 
ATOM      9  C   LIG d   1       3.716  -0.592  -8.221  0.00  0.00    -0.007 C 
ATOM     10  C   LIG d   1       2.611   0.042  -9.042  0.00  0.00    -0.043 C 
ATOM     11  C   LIG d   1       3.055   1.382  -9.626  0.00  0.00    -0.049 C 
ATOM     12  C   LIG d   1       4.245   1.130 -10.560  0.00  0.00    -0.032 C 
ATOM     13  O   LIG d   1       4.665  -2.170  -5.806  0.00  0.00    -0.461 OA
ATOM     14  C   LIG d   1       5.853  -2.593  -5.317  0.00  0.00     0.312 C 
ATOM     15  O   LIG d   1       6.025  -3.597  -4.667  0.00  0.00    -0.251 OA
ATOM     16  C   LIG d   1       6.936  -1.605  -5.711  0.00  0.00     0.075 C 
ATOM     17  H   LIG d   1       7.736  -2.089  -6.291  0.00  0.00     0.043 H 
ATOM     18  H   LIG d   1       6.218  -1.989  -8.062  0.00  0.00     0.031 H 
ATOM     19  H   LIG d   1       7.202  -0.525  -8.397  0.00  0.00     0.031 H 
ATOM     20  H   LIG d   1       2.675  -0.410  -6.349  0.00  0.00     0.031 H 
ATOM     21  H   LIG d   1       3.741   0.979  -6.753  0.00  0.00     0.031 H 
ATOM     22  H   LIG d   1       2.337  -0.628  -9.869  0.00  0.00     0.027 H 
ATOM     23  H   LIG d   1       1.732   0.214  -8.402  0.00  0.00     0.027 H 
ATOM     24  H   LIG d   1       2.223   1.830 -10.190  0.00  0.00     0.027 H 
ATOM     25  H   LIG d   1       3.353   2.058  -8.811  0.00  0.00     0.027 H 
ATOM     26  H   LIG d   1       4.615   2.083 -10.964  0.00  0.00     0.031 H 
ATOM     27  H   LIG d   1       3.940   0.474 -11.389  0.00  0.00     0.031 H 
ENDROOT
BRANCH  16  28
ATOM     28  C   LIG d   1       7.604  -1.016  -4.469  0.00  0.00     0.013 C 
ATOM     29  H   LIG d   1       6.863  -0.929  -3.660  0.00  0.00     0.043 H 
ATOM     30  H   LIG d   1       8.423  -1.675  -4.146  0.00  0.00     0.043 H 
BRANCH  28  31
ATOM     31  N   LIG d   1       8.141   0.314  -4.786  0.00  0.00    -0.292 N 
ATOM     32  C   LIG d   1       9.603   0.268  -4.936  0.00  0.00     0.039 C 
ATOM     33  C   LIG d   1      10.114   1.653  -5.342  0.00  0.00    -0.018 C 
ATOM     34  H   LIG d   1      10.061  -0.026  -3.980  0.00  0.00     0.048 H 
ATOM     35  H   LIG d   1       9.869  -0.465  -5.711  0.00  0.00     0.048 H 
ATOM     36  N   LIG d   1       9.722   2.636  -4.322  0.00  0.00     0.240 N 
ATOM     37  H   LIG d   1       9.677   1.935  -6.311  0.00  0.00     0.083 H 
ATOM     38  H   LIG d   1      11.210   1.630  -5.426  0.00  0.00     0.083 H 
ATOM     39  C   LIG d   1       8.260   2.681  -4.173  0.00  0.00    -0.018 C 
ATOM     40  H   LIG d   1      10.152   2.320  -3.362  0.00  0.00     0.204 HD
ATOM     41  C   LIG d   1       7.749   1.296  -3.766  0.00  0.00     0.039 C 
ATOM     42  H   LIG d   1       7.802   2.974  -5.129  0.00  0.00     0.083 H 
ATOM     43  H   LIG d   1       7.993   3.413  -3.397  0.00  0.00     0.083 H 
ATOM     44  H   LIG d   1       6.653   1.320  -3.682  0.00  0.00     0.048 H 
ATOM     45  H   LIG d   1       8.185   1.014  -2.797  0.00  0.00     0.048 H 
BRANCH  36  46
ATOM     46  C   LIG d   1      10.259   3.966  -4.639  0.00  0.00    -0.006 C 
ATOM     47  H   LIG d   1      11.288   3.866  -5.016  0.00  0.00     0.087 H 
ATOM     48  H   LIG d   1       9.632   4.441  -5.408  0.00  0.00     0.087 H 
BRANCH  46  49
ATOM     49  C   LIG d   1      10.261   4.817  -3.396  0.00  0.00     0.001 A 
ATOM     50  C   LIG d   1      11.031   4.446  -2.309  0.00  0.00    -0.008 A 
ATOM     51  C   LIG d   1      11.034   5.227  -1.163  0.00  0.00     0.167 A 
ATOM     52  H   LIG d   1      11.630   3.549  -2.351  0.00  0.00     0.066 H 
ATOM     53  C   LIG d   1      10.260   6.383  -1.112  0.00  0.00     0.166 A 
ATOM     54  O   LIG d   1      11.693   5.088   0.024  0.00  0.00    -0.453 OA
ATOM     55  C   LIG d   1       9.491   6.748  -2.204  0.00  0.00    -0.016 A 
ATOM     56  O   LIG d   1      10.434   6.969   0.109  0.00  0.00    -0.453 OA
ATOM     57  C   LIG d   1       9.492   5.965  -3.343  0.00  0.00    -0.050 A 
ATOM     58  H   LIG d   1       8.889   7.644  -2.167  0.00  0.00     0.066 H 
ATOM     59  H   LIG d   1       8.895   6.252  -4.196  0.00  0.00     0.062 H 
ATOM     60  C   LIG d   1      11.001   5.947   0.950  0.00  0.00     0.233 C 
ATOM     61  H   LIG d   1      10.230   5.368   1.480  0.00  0.00     0.117 H 
ATOM     62  H   LIG d   1      11.717   6.355   1.677  0.00  0.00     0.117 H 
ENDBRANCH  46  49
ENDBRANCH  36  46
ENDBRANCH  28  31
ENDBRANCH  16  28
BRANCH   1  63
ATOM     63  C   LIG d   1       6.768   0.671 -10.193  0.00  0.00    -0.043 C 
ATOM     64  H   LIG d   1       7.334   1.120  -9.364  0.00  0.00     0.027 H 
ATOM     65  H   LIG d   1       6.800   1.342 -11.064  0.00  0.00     0.027 H 
ATOM     66  H   LIG d   1       7.217  -0.297 -10.461  0.00  0.00     0.027 H 
ENDBRANCH   1  63
BRANCH   9  67
ATOM     67  C   LIG d   1       3.514  -2.109  -8.244  0.00  0.00    -0.056 C 
ATOM     68  H   LIG d   1       2.841  -2.401  -7.425  0.00  0.00     0.024 H 
ATOM     69  H   LIG d   1       4.485  -2.610  -8.117  0.00  0.00     0.024 H 
ATOM     70  H   LIG d   1       3.072  -2.404  -9.206  0.00  0.00     0.024 H 
ENDBRANCH   9  67
TORSDOF 6
ENDMDL
MODEL 10
REMARK VINA RESULT:      -6.7      6.113     10.373
REMARK  6 active torsions:
REMARK  status: ('A' for Active; 'I' for Inactive)
REMARK    1  A    between atoms: C_1  and  C_2 
REMARK    2  A    between atoms: C_10  and  C_14 
REMARK    3  A    between atoms: C_18  and  C_20 
REMARK    4  A    between atoms: C_20  and  N_21 
REMARK    5  A    between atoms: N_24  and  C_27 
REMARK    6  A    between atoms: C_27  and  C_28 
ROOT
ATOM      1  C   LIG d   1       5.071   1.437  -8.976  0.00  0.00    -0.073 C 
ATOM      2  C   LIG d   1       4.866   0.431  -8.180  0.00  0.00    -0.064 C 
ATOM      3  C   LIG d   1       6.034  -0.153  -7.414  0.00  0.00    -0.024 C 
ATOM      4  C   LIG d   1       5.724  -0.145  -5.912  0.00  0.00     0.014 C 
ATOM      5  H   LIG d   1       5.855   0.887  -5.556  0.00  0.00     0.035 H 
ATOM      6  C   LIG d   1       4.325  -0.720  -5.628  0.00  0.00     0.108 C 
ATOM      7  H   LIG d   1       3.964  -0.528  -4.607  0.00  0.00     0.074 H 
ATOM      8  C   LIG d   1       3.219  -0.111  -6.451  0.00  0.00    -0.006 C 
ATOM      9  C   LIG d   1       3.522  -0.202  -7.948  0.00  0.00    -0.007 C 
ATOM     10  C   LIG d   1       2.409   0.432  -8.759  0.00  0.00    -0.043 C 
ATOM     11  C   LIG d   1       2.655   1.926  -8.962  0.00  0.00    -0.049 C 
ATOM     12  C   LIG d   1       3.961   2.097  -9.748  0.00  0.00    -0.032 C 
ATOM     13  O   LIG d   1       4.494  -2.151  -5.831  0.00  0.00    -0.461 OA
ATOM     14  C   LIG d   1       5.683  -2.489  -5.281  0.00  0.00     0.312 C 
ATOM     15  O   LIG d   1       5.969  -3.581  -4.852  0.00  0.00    -0.251 OA
ATOM     16  C   LIG d   1       6.597  -1.278  -5.288  0.00  0.00     0.075 C 
ATOM     17  H   LIG d   1       7.529  -1.475  -5.838  0.00  0.00     0.043 H 
ATOM     18  H   LIG d   1       6.210  -1.187  -7.744  0.00  0.00     0.031 H 
ATOM     19  H   LIG d   1       6.934   0.450  -7.602  0.00  0.00     0.031 H 
ATOM     20  H   LIG d   1       2.278  -0.645  -6.252  0.00  0.00     0.031 H 
ATOM     21  H   LIG d   1       3.104   0.949  -6.181  0.00  0.00     0.031 H 
ATOM     22  H   LIG d   1       2.352  -0.052  -9.745  0.00  0.00     0.027 H 
ATOM     23  H   LIG d   1       1.453   0.303  -8.231  0.00  0.00     0.027 H 
ATOM     24  H   LIG d   1       1.817   2.362  -9.527  0.00  0.00     0.027 H 
ATOM     25  H   LIG d   1       2.736   2.422  -7.984  0.00  0.00     0.027 H 
ATOM     26  H   LIG d   1       4.187   3.166  -9.873  0.00  0.00     0.031 H 
ATOM     27  H   LIG d   1       3.870   1.623 -10.736  0.00  0.00     0.031 H 
ENDROOT
BRANCH  16  28
ATOM     28  C   LIG d   1       7.012  -0.911  -3.863  0.00  0.00     0.013 C 
ATOM     29  H   LIG d   1       6.142  -0.516  -3.318  0.00  0.00     0.043 H 
ATOM     30  H   LIG d   1       7.391  -1.807  -3.349  0.00  0.00     0.043 H 
BRANCH  28  31
ATOM     31  N   LIG d   1       8.068   0.110  -3.908  0.00  0.00    -0.292 N 
ATOM     32  C   LIG d   1       7.494   1.462  -3.870  0.00  0.00     0.039 C 
ATOM     33  C   LIG d   1       8.626   2.492  -3.838  0.00  0.00    -0.018 C 
ATOM     34  H   LIG d   1       6.875   1.623  -4.765  0.00  0.00     0.048 H 
ATOM     35  H   LIG d   1       6.871   1.572  -2.969  0.00  0.00     0.048 H 
ATOM     36  N   LIG d   1       9.477   2.317  -5.023  0.00  0.00     0.240 N 
ATOM     37  H   LIG d   1       9.227   2.349  -2.929  0.00  0.00     0.083 H 
ATOM     38  H   LIG d   1       8.200   3.506  -3.840  0.00  0.00     0.083 H 
ATOM     39  C   LIG d   1      10.051   0.964  -5.061  0.00  0.00    -0.018 C 
ATOM     40  H   LIG d   1       8.848   2.444  -5.916  0.00  0.00     0.204 HD
ATOM     41  C   LIG d   1       8.919  -0.066  -5.092  0.00  0.00     0.039 C 
ATOM     42  H   LIG d   1      10.669   0.803  -4.165  0.00  0.00     0.083 H 
ATOM     43  H   LIG d   1      10.673   0.854  -5.961  0.00  0.00     0.083 H 
ATOM     44  H   LIG d   1       9.345  -1.079  -5.091  0.00  0.00     0.048 H 
ATOM     45  H   LIG d   1       8.318   0.078  -6.001  0.00  0.00     0.048 H 
BRANCH  36  46
ATOM     46  C   LIG d   1      10.533   3.338  -5.068  0.00  0.00    -0.006 C 
ATOM     47  H   LIG d   1      10.617   3.823  -4.084  0.00  0.00     0.087 H 
ATOM     48  H   LIG d   1      11.491   2.863  -5.325  0.00  0.00     0.087 H 
BRANCH  46  49
ATOM     49  C   LIG d   1      10.189   4.371  -6.110  0.00  0.00     0.001 A 
ATOM     50  C   LIG d   1      10.198   5.713  -5.778  0.00  0.00    -0.008 A 
ATOM     51  C   LIG d   1       9.881   6.665  -6.734  0.00  0.00     0.167 A 
ATOM     52  H   LIG d   1      10.451   6.021  -4.775  0.00  0.00     0.066 H 
ATOM     53  C   LIG d   1       9.556   6.266  -8.028  0.00  0.00     0.166 A 
ATOM     54  O   LIG d   1       9.818   8.027  -6.669  0.00  0.00    -0.453 OA
ATOM     55  C   LIG d   1       9.549   4.919  -8.353  0.00  0.00    -0.016 A 
ATOM     56  O   LIG d   1       9.287   7.378  -8.773  0.00  0.00    -0.453 OA
ATOM     57  C   LIG d   1       9.865   3.975  -7.394  0.00  0.00    -0.050 A 
ATOM     58  H   LIG d   1       9.296   4.606  -9.355  0.00  0.00     0.066 H 
ATOM     59  H   LIG d   1       9.863   2.925  -7.650  0.00  0.00     0.062 H 
ATOM     60  C   LIG d   1       9.054   8.432  -7.821  0.00  0.00     0.233 C 
ATOM     61  H   LIG d   1       7.993   8.517  -7.545  0.00  0.00     0.117 H 
ATOM     62  H   LIG d   1       9.419   9.405  -8.179  0.00  0.00     0.117 H 
ENDBRANCH  46  49
ENDBRANCH  36  46
ENDBRANCH  28  31
ENDBRANCH  16  28
BRANCH   1  63
ATOM     63  C   LIG d   1       6.474   1.963  -9.132  0.00  0.00    -0.043 C 
ATOM     64  H   LIG d   1       6.548   2.954  -8.660  0.00  0.00     0.027 H 
ATOM     65  H   LIG d   1       6.718   2.047 -10.201  0.00  0.00     0.027 H 
ATOM     66  H   LIG d   1       7.181   1.273  -8.648  0.00  0.00     0.027 H 
ENDBRANCH   1  63
BRANCH   9  67
ATOM     67  C   LIG d   1       3.609  -1.680  -8.335  0.00  0.00    -0.056 C 
ATOM     68  H   LIG d   1       3.861  -1.765  -9.402  0.00  0.00     0.024 H 
ATOM     69  H   LIG d   1       2.640  -2.166  -8.147  0.00  0.00     0.024 H 
ATOM     70  H   LIG d   1       4.388  -2.171  -7.733  0.00  0.00     0.024 H 
ENDBRANCH   9  67
TORSDOF 6
ENDMDL
