MODEL 1
REMARK VINA RESULT:      -7.0      0.000      0.000
REMARK  4 active torsions:
REMARK  status: ('A' for Active; 'I' for Inactive)
REMARK    1  A    between atoms: C_4  and  C_7 
REMARK    2  A    between atoms: N_11  and  C_19 
REMARK    3  A    between atoms: N_12  and  C_13 
REMARK    4  A    between atoms: N_21  and  C_22 
ROOT
ATOM      1  C   LIG d   1       4.863  -2.044 -10.316  0.00  0.00     0.069 C 
ATOM      2  H   LIG d   1       5.436  -1.604 -11.131  0.00  0.00     0.057 H 
ATOM      3  C   LIG d   1       5.484  -3.391  -9.895  0.00  0.00    -0.011 C 
ATOM      4  C   LIG d   1       6.225  -3.038  -8.585  0.00  0.00     0.035 C 
ATOM      5  N   LIG d   1       5.478  -1.885  -8.054  0.00  0.00    -0.231 N 
ATOM      6  N   LIG d   1       4.924  -1.180  -9.130  0.00  0.00    -0.242 N 
ATOM      7  H   LIG d   1       4.707  -4.133  -9.710  0.00  0.00     0.030 H 
ATOM      8  H   LIG d   1       6.186  -3.746 -10.651  0.00  0.00     0.030 H 
ATOM      9  H   LIG d   1       7.259  -2.762  -8.794  0.00  0.00     0.048 H 
ATOM     10  H   LIG d   1       6.186  -3.874  -7.887  0.00  0.00     0.048 H 
ENDROOT
BRANCH   5  11
ATOM     11  C   LIG d   1       5.354  -1.560  -6.752  0.00  0.00     0.154 C 
ATOM     12  S   LIG d   1       6.599  -0.689  -5.964  0.00  0.00    -0.017 SA
ATOM     13  N   LIG d   1       4.249  -1.922  -6.070  0.00  0.00    -0.296 N 
ATOM     14  H   LIG d   1       3.584  -2.490  -6.489  0.00  0.00     0.154 HD
BRANCH  13  15
ATOM     15  C   LIG d   1       4.061  -1.479  -4.756  0.00  0.00     0.033 A 
ATOM     16  C   LIG d   1       3.518  -0.223  -4.516  0.00  0.00    -0.041 A 
ATOM     17  C   LIG d   1       3.335   0.212  -3.218  0.00  0.00    -0.060 A 
ATOM     18  H   LIG d   1       3.240   0.413  -5.345  0.00  0.00     0.064 H 
ATOM     19  C   LIG d   1       3.691  -0.602  -2.159  0.00  0.00    -0.062 A 
ATOM     20  H   LIG d   1       2.912   1.188  -3.032  0.00  0.00     0.062 H 
ATOM     21  C   LIG d   1       4.232  -1.852  -2.394  0.00  0.00    -0.060 A 
ATOM     22  H   LIG d   1       3.546  -0.259  -1.144  0.00  0.00     0.062 H 
ATOM     23  C   LIG d   1       4.413  -2.295  -3.689  0.00  0.00    -0.041 A 
ATOM     24  H   LIG d   1       4.509  -2.484  -1.563  0.00  0.00     0.062 H 
ATOM     25  H   LIG d   1       4.831  -3.273  -3.872  0.00  0.00     0.064 H 
ENDBRANCH  13  15
ENDBRANCH   5  11
BRANCH   6  26
ATOM     26  C   LIG d   1       4.494   0.149  -9.082  0.00  0.00     0.049 A 
ATOM     27  C   LIG d   1       3.176   0.443  -8.759  0.00  0.00    -0.039 A 
ATOM     28  C   LIG d   1       2.755   1.757  -8.712  0.00  0.00    -0.060 A 
ATOM     29  H   LIG d   1       2.480  -0.356  -8.547  0.00  0.00     0.064 H 
ATOM     30  C   LIG d   1       3.645   2.780  -8.985  0.00  0.00    -0.062 A 
ATOM     31  H   LIG d   1       1.730   1.987  -8.462  0.00  0.00     0.062 H 
ATOM     32  C   LIG d   1       4.959   2.490  -9.305  0.00  0.00    -0.060 A 
ATOM     33  H   LIG d   1       3.314   3.808  -8.947  0.00  0.00     0.062 H 
ATOM     34  C   LIG d   1       5.387   1.178  -9.349  0.00  0.00    -0.039 A 
ATOM     35  H   LIG d   1       5.652   3.292  -9.518  0.00  0.00     0.062 H 
ATOM     36  H   LIG d   1       6.414   0.953  -9.596  0.00  0.00     0.064 H 
ENDBRANCH   6  26
BRANCH   1  37
ATOM     37  C   LIG d   1       3.430  -2.244 -10.739  0.00  0.00    -0.025 A 
ATOM     38  C   LIG d   1       2.599  -3.061  -9.998  0.00  0.00    -0.057 A 
ATOM     39  C   LIG d   1       1.285  -3.245 -10.385  0.00  0.00    -0.061 A 
ATOM     40  H   LIG d   1       2.976  -3.556  -9.115  0.00  0.00     0.062 H 
ATOM     41  C   LIG d   1       0.802  -2.611 -11.514  0.00  0.00    -0.062 A 
ATOM     42  H   LIG d   1       0.634  -3.883  -9.805  0.00  0.00     0.062 H 
ATOM     43  C   LIG d   1       1.634  -1.793 -12.257  0.00  0.00    -0.061 A 
ATOM     44  H   LIG d   1      -0.224  -2.754 -11.817  0.00  0.00     0.062 H 
ATOM     45  C   LIG d   1       2.947  -1.606 -11.866  0.00  0.00    -0.057 A 
ATOM     46  H   LIG d   1       1.257  -1.297 -13.139  0.00  0.00     0.062 H 
ATOM     47  H   LIG d   1       3.595  -0.963 -12.443  0.00  0.00     0.062 H 
ENDBRANCH   1  37
TORSDOF 4
ENDMDL
MODEL 2
REMARK VINA RESULT:      -6.4      3.071      6.943
REMARK  4 active torsions:
REMARK  status: ('A' for Active; 'I' for Inactive)
REMARK    1  A    between atoms: C_4  and  C_7 
REMARK    2  A    between atoms: N_11  and  C_19 
REMARK    3  A    between atoms: N_12  and  C_13 
REMARK    4  A    between atoms: N_21  and  C_22 
ROOT
ATOM      1  C   LIG d   1       7.099  -4.618  -5.170  0.00  0.00     0.069 C 
ATOM      2  H   LIG d   1       6.676  -5.342  -4.474  0.00  0.00     0.057 H 
ATOM      3  C   LIG d   1       7.252  -5.249  -6.568  0.00  0.00    -0.011 C 
ATOM      4  C   LIG d   1       6.069  -4.642  -7.356  0.00  0.00     0.035 C 
ATOM      5  N   LIG d   1       5.815  -3.357  -6.681  0.00  0.00    -0.231 N 
ATOM      6  N   LIG d   1       6.184  -3.481  -5.335  0.00  0.00    -0.242 N 
ATOM      7  H   LIG d   1       8.202  -4.963  -7.019  0.00  0.00     0.030 H 
ATOM      8  H   LIG d   1       7.162  -6.334  -6.514  0.00  0.00     0.030 H 
ATOM      9  H   LIG d   1       5.194  -5.289  -7.289  0.00  0.00     0.048 H 
ATOM     10  H   LIG d   1       6.347  -4.479  -8.397  0.00  0.00     0.048 H 
ENDROOT
BRANCH   5  11
ATOM     11  C   LIG d   1       5.309  -2.251  -7.260  0.00  0.00     0.154 C 
ATOM     12  S   LIG d   1       6.351  -1.139  -8.040  0.00  0.00    -0.017 SA
ATOM     13  N   LIG d   1       3.981  -2.019  -7.224  0.00  0.00    -0.296 N 
ATOM     14  H   LIG d   1       3.401  -2.600  -6.709  0.00  0.00     0.154 HD
BRANCH  13  15
ATOM     15  C   LIG d   1       3.440  -0.939  -7.932  0.00  0.00     0.033 A 
ATOM     16  C   LIG d   1       2.917  -1.133  -9.204  0.00  0.00    -0.041 A 
ATOM     17  C   LIG d   1       2.385  -0.064  -9.899  0.00  0.00    -0.060 A 
ATOM     18  H   LIG d   1       2.928  -2.117  -9.649  0.00  0.00     0.064 H 
ATOM     19  C   LIG d   1       2.372   1.195  -9.330  0.00  0.00    -0.062 A 
ATOM     20  H   LIG d   1       1.978  -0.215 -10.888  0.00  0.00     0.062 H 
ATOM     21  C   LIG d   1       2.892   1.391  -8.064  0.00  0.00    -0.060 A 
ATOM     22  H   LIG d   1       1.955   2.029  -9.877  0.00  0.00     0.062 H 
ATOM     23  C   LIG d   1       3.421   0.326  -7.361  0.00  0.00    -0.041 A 
ATOM     24  H   LIG d   1       2.880   2.377  -7.623  0.00  0.00     0.062 H 
ATOM     25  H   LIG d   1       3.822   0.480  -6.371  0.00  0.00     0.064 H 
ENDBRANCH  13  15
ENDBRANCH   5  11
BRANCH   6  26
ATOM     26  C   LIG d   1       5.745  -2.647  -4.304  0.00  0.00     0.049 A 
ATOM     27  C   LIG d   1       6.497  -1.538  -3.937  0.00  0.00    -0.039 A 
ATOM     28  C   LIG d   1       6.059  -0.716  -2.917  0.00  0.00    -0.060 A 
ATOM     29  H   LIG d   1       7.424  -1.320  -4.448  0.00  0.00     0.064 H 
ATOM     30  C   LIG d   1       4.874  -0.995  -2.263  0.00  0.00    -0.062 A 
ATOM     31  H   LIG d   1       6.644   0.146  -2.631  0.00  0.00     0.062 H 
ATOM     32  C   LIG d   1       4.123  -2.098  -2.626  0.00  0.00    -0.060 A 
ATOM     33  H   LIG d   1       4.534  -0.350  -1.465  0.00  0.00     0.062 H 
ATOM     34  C   LIG d   1       4.552  -2.921  -3.649  0.00  0.00    -0.039 A 
ATOM     35  H   LIG d   1       3.197  -2.313  -2.112  0.00  0.00     0.062 H 
ATOM     36  H   LIG d   1       3.962  -3.779  -3.934  0.00  0.00     0.064 H 
ENDBRANCH   6  26
BRANCH   1  37
ATOM     37  C   LIG d   1       8.437  -4.138  -4.669  0.00  0.00    -0.025 A 
ATOM     38  C   LIG d   1       8.885  -4.520  -3.418  0.00  0.00    -0.057 A 
ATOM     39  C   LIG d   1      10.111  -4.080  -2.959  0.00  0.00    -0.061 A 
ATOM     40  H   LIG d   1       8.275  -5.163  -2.801  0.00  0.00     0.062 H 
ATOM     41  C   LIG d   1      10.891  -3.258  -3.749  0.00  0.00    -0.062 A 
ATOM     42  H   LIG d   1      10.462  -4.380  -1.982  0.00  0.00     0.062 H 
ATOM     43  C   LIG d   1      10.444  -2.875  -5.001  0.00  0.00    -0.061 A 
ATOM     44  H   LIG d   1      11.850  -2.914  -3.391  0.00  0.00     0.062 H 
ATOM     45  C   LIG d   1       9.219  -3.319  -5.462  0.00  0.00    -0.057 A 
ATOM     46  H   LIG d   1      11.053  -2.233  -5.619  0.00  0.00     0.062 H 
ATOM     47  H   LIG d   1       8.872  -3.024  -6.441  0.00  0.00     0.062 H 
ENDBRANCH   1  37
TORSDOF 4
ENDMDL
MODEL 3
REMARK VINA RESULT:      -6.3      2.448      7.108
REMARK  4 active torsions:
REMARK  status: ('A' for Active; 'I' for Inactive)
REMARK    1  A    between atoms: C_4  and  C_7 
REMARK    2  A    between atoms: N_11  and  C_19 
REMARK    3  A    between atoms: N_12  and  C_13 
REMARK    4  A    between atoms: N_21  and  C_22 
ROOT
ATOM      1  C   LIG d   1       7.378  -0.310  -4.344  0.00  0.00     0.069 C 
ATOM      2  H   LIG d   1       8.208  -0.866  -3.912  0.00  0.00     0.057 H 
ATOM      3  C   LIG d   1       7.841   1.100  -4.762  0.00  0.00    -0.011 C 
ATOM      4  C   LIG d   1       7.973   0.981  -6.298  0.00  0.00     0.035 C 
ATOM      5  N   LIG d   1       7.020  -0.084  -6.655  0.00  0.00    -0.231 N 
ATOM      6  N   LIG d   1       6.913  -0.967  -5.572  0.00  0.00    -0.242 N 
ATOM      7  H   LIG d   1       7.093   1.847  -4.497  0.00  0.00     0.030 H 
ATOM      8  H   LIG d   1       8.804   1.340  -4.311  0.00  0.00     0.030 H 
ATOM      9  H   LIG d   1       8.988   0.695  -6.573  0.00  0.00     0.048 H 
ATOM     10  H   LIG d   1       7.696   1.919  -6.779  0.00  0.00     0.048 H 
ENDROOT
BRANCH   5  11
ATOM     11  C   LIG d   1       6.365  -0.193  -7.828  0.00  0.00     0.154 C 
ATOM     12  S   LIG d   1       7.042  -1.113  -9.103  0.00  0.00    -0.017 SA
ATOM     13  N   LIG d   1       5.178   0.422  -7.997  0.00  0.00    -0.296 N 
ATOM     14  H   LIG d   1       4.836   1.014  -7.309  0.00  0.00     0.154 HD
BRANCH  13  15
ATOM     15  C   LIG d   1       4.439   0.208  -9.166  0.00  0.00     0.033 A 
ATOM     16  C   LIG d   1       3.476  -0.794  -9.206  0.00  0.00    -0.041 A 
ATOM     17  C   LIG d   1       2.749  -1.003 -10.362  0.00  0.00    -0.060 A 
ATOM     18  H   LIG d   1       3.298  -1.408  -8.335  0.00  0.00     0.064 H 
ATOM     19  C   LIG d   1       2.978  -0.218 -11.476  0.00  0.00    -0.062 A 
ATOM     20  H   LIG d   1       2.001  -1.781 -10.394  0.00  0.00     0.062 H 
ATOM     21  C   LIG d   1       3.935   0.780 -11.439  0.00  0.00    -0.060 A 
ATOM     22  H   LIG d   1       2.408  -0.384 -12.379  0.00  0.00     0.062 H 
ATOM     23  C   LIG d   1       4.662   0.998 -10.285  0.00  0.00    -0.041 A 
ATOM     24  H   LIG d   1       4.111   1.391 -12.311  0.00  0.00     0.062 H 
ATOM     25  H   LIG d   1       5.406   1.780 -10.255  0.00  0.00     0.064 H 
ENDBRANCH  13  15
ENDBRANCH   5  11
BRANCH   6  26
ATOM     26  C   LIG d   1       6.436  -2.277  -5.651  0.00  0.00     0.049 A 
ATOM     27  C   LIG d   1       5.099  -2.516  -5.944  0.00  0.00    -0.039 A 
ATOM     28  C   LIG d   1       4.632  -3.813  -6.021  0.00  0.00    -0.060 A 
ATOM     29  H   LIG d   1       4.426  -1.687  -6.110  0.00  0.00     0.064 H 
ATOM     30  C   LIG d   1       5.493  -4.873  -5.808  0.00  0.00    -0.062 A 
ATOM     31  H   LIG d   1       3.592  -3.999  -6.249  0.00  0.00     0.062 H 
ATOM     32  C   LIG d   1       6.824  -4.639  -5.516  0.00  0.00    -0.060 A 
ATOM     33  H   LIG d   1       5.125  -5.887  -5.869  0.00  0.00     0.062 H 
ATOM     34  C   LIG d   1       7.299  -3.345  -5.444  0.00  0.00    -0.039 A 
ATOM     35  H   LIG d   1       7.494  -5.471  -5.350  0.00  0.00     0.062 H 
ATOM     36  H   LIG d   1       8.340  -3.163  -5.220  0.00  0.00     0.064 H 
ENDBRANCH   6  26
BRANCH   1  37
ATOM     37  C   LIG d   1       6.248  -0.210  -3.350  0.00  0.00    -0.025 A 
ATOM     38  C   LIG d   1       5.726  -1.355  -2.780  0.00  0.00    -0.057 A 
ATOM     39  C   LIG d   1       4.691  -1.264  -1.869  0.00  0.00    -0.061 A 
ATOM     40  H   LIG d   1       6.128  -2.322  -3.046  0.00  0.00     0.062 H 
ATOM     41  C   LIG d   1       4.177  -0.027  -1.528  0.00  0.00    -0.062 A 
ATOM     42  H   LIG d   1       4.284  -2.159  -1.422  0.00  0.00     0.062 H 
ATOM     43  C   LIG d   1       4.699   1.120  -2.099  0.00  0.00    -0.061 A 
ATOM     44  H   LIG d   1       3.368   0.044  -0.817  0.00  0.00     0.062 H 
ATOM     45  C   LIG d   1       5.738   1.028  -3.006  0.00  0.00    -0.057 A 
ATOM     46  H   LIG d   1       4.298   2.086  -1.832  0.00  0.00     0.062 H 
ATOM     47  H   LIG d   1       6.149   1.924  -3.448  0.00  0.00     0.062 H 
ENDBRANCH   1  37
TORSDOF 4
ENDMDL
MODEL 4
REMARK VINA RESULT:      -6.3      4.684      7.317
REMARK  4 active torsions:
REMARK  status: ('A' for Active; 'I' for Inactive)
REMARK    1  A    between atoms: C_4  and  C_7 
REMARK    2  A    between atoms: N_11  and  C_19 
REMARK    3  A    between atoms: N_12  and  C_13 
REMARK    4  A    between atoms: N_21  and  C_22 
ROOT
ATOM      1  C   LIG d   1       9.653  -4.150  -5.185  0.00  0.00     0.069 C 
ATOM      2  H   LIG d   1       9.990  -4.563  -6.135  0.00  0.00     0.057 H 
ATOM      3  C   LIG d   1      10.606  -3.029  -4.724  0.00  0.00    -0.011 C 
ATOM      4  C   LIG d   1       9.812  -1.743  -5.051  0.00  0.00     0.035 C 
ATOM      5  N   LIG d   1       8.403  -2.170  -4.993  0.00  0.00    -0.231 N 
ATOM      6  N   LIG d   1       8.334  -3.524  -5.344  0.00  0.00    -0.242 N 
ATOM      7  H   LIG d   1      10.798  -3.101  -3.653  0.00  0.00     0.030 H 
ATOM      8  H   LIG d   1      11.539  -3.059  -5.287  0.00  0.00     0.030 H 
ATOM      9  H   LIG d   1      10.062  -1.383  -6.050  0.00  0.00     0.048 H 
ATOM     10  H   LIG d   1      10.010  -0.972  -4.306  0.00  0.00     0.048 H 
ENDROOT
BRANCH   5  11
ATOM     11  C   LIG d   1       7.357  -1.388  -4.662  0.00  0.00     0.154 C 
ATOM     12  S   LIG d   1       6.472  -0.580  -5.884  0.00  0.00    -0.017 SA
ATOM     13  N   LIG d   1       7.008  -1.241  -3.368  0.00  0.00    -0.296 N 
ATOM     14  H   LIG d   1       7.560  -1.625  -2.670  0.00  0.00     0.154 HD
BRANCH  13  15
ATOM     15  C   LIG d   1       5.849  -0.533  -3.032  0.00  0.00     0.033 A 
ATOM     16  C   LIG d   1       4.666  -1.215  -2.775  0.00  0.00    -0.041 A 
ATOM     17  C   LIG d   1       3.524  -0.513  -2.445  0.00  0.00    -0.060 A 
ATOM     18  H   LIG d   1       4.641  -2.294  -2.835  0.00  0.00     0.064 H 
ATOM     19  C   LIG d   1       3.557   0.867  -2.370  0.00  0.00    -0.062 A 
ATOM     20  H   LIG d   1       2.605  -1.043  -2.245  0.00  0.00     0.062 H 
ATOM     21  C   LIG d   1       4.732   1.550  -2.625  0.00  0.00    -0.060 A 
ATOM     22  H   LIG d   1       2.661   1.414  -2.111  0.00  0.00     0.062 H 
ATOM     23  C   LIG d   1       5.879   0.853  -2.951  0.00  0.00    -0.041 A 
ATOM     24  H   LIG d   1       4.753   2.627  -2.565  0.00  0.00     0.062 H 
ATOM     25  H   LIG d   1       6.798   1.386  -3.145  0.00  0.00     0.064 H 
ENDBRANCH  13  15
ENDBRANCH   5  11
BRANCH   6  26
ATOM     26  C   LIG d   1       7.181  -4.180  -5.782  0.00  0.00     0.049 A 
ATOM     27  C   LIG d   1       6.111  -4.362  -4.916  0.00  0.00    -0.039 A 
ATOM     28  C   LIG d   1       4.973  -5.010  -5.353  0.00  0.00    -0.060 A 
ATOM     29  H   LIG d   1       6.169  -3.996  -3.901  0.00  0.00     0.064 H 
ATOM     30  C   LIG d   1       4.899  -5.479  -6.652  0.00  0.00    -0.062 A 
ATOM     31  H   LIG d   1       4.140  -5.152  -4.680  0.00  0.00     0.062 H 
ATOM     32  C   LIG d   1       5.962  -5.300  -7.517  0.00  0.00    -0.060 A 
ATOM     33  H   LIG d   1       4.007  -5.986  -6.991  0.00  0.00     0.062 H 
ATOM     34  C   LIG d   1       7.101  -4.647  -7.088  0.00  0.00    -0.039 A 
ATOM     35  H   LIG d   1       5.900  -5.668  -8.531  0.00  0.00     0.062 H 
ATOM     36  H   LIG d   1       7.929  -4.504  -7.766  0.00  0.00     0.064 H 
ENDBRANCH   6  26
BRANCH   1  37
ATOM     37  C   LIG d   1       9.589  -5.237  -4.141  0.00  0.00    -0.025 A 
ATOM     38  C   LIG d   1       9.719  -4.917  -2.803  0.00  0.00    -0.057 A 
ATOM     39  C   LIG d   1       9.661  -5.913  -1.847  0.00  0.00    -0.061 A 
ATOM     40  H   LIG d   1       9.867  -3.889  -2.506  0.00  0.00     0.062 H 
ATOM     41  C   LIG d   1       9.471  -7.228  -2.227  0.00  0.00    -0.062 A 
ATOM     42  H   LIG d   1       9.761  -5.663  -0.800  0.00  0.00     0.062 H 
ATOM     43  C   LIG d   1       9.341  -7.548  -3.567  0.00  0.00    -0.061 A 
ATOM     44  H   LIG d   1       9.426  -8.005  -1.480  0.00  0.00     0.062 H 
ATOM     45  C   LIG d   1       9.395  -6.551  -4.523  0.00  0.00    -0.057 A 
ATOM     46  H   LIG d   1       9.193  -8.574  -3.865  0.00  0.00     0.062 H 
ATOM     47  H   LIG d   1       9.288  -6.800  -5.569  0.00  0.00     0.062 H 
ENDBRANCH   1  37
TORSDOF 4
ENDMDL
MODEL 5
REMARK VINA RESULT:      -6.2      2.628      6.696
REMARK  4 active torsions:
REMARK  status: ('A' for Active; 'I' for Inactive)
REMARK    1  A    between atoms: C_4  and  C_7 
REMARK    2  A    between atoms: N_11  and  C_19 
REMARK    3  A    between atoms: N_12  and  C_13 
REMARK    4  A    between atoms: N_21  and  C_22 
ROOT
ATOM      1  C   LIG d   1       7.482  -1.551  -5.298  0.00  0.00     0.069 C 
ATOM      2  H   LIG d   1       7.657  -2.085  -4.365  0.00  0.00     0.057 H 
ATOM      3  C   LIG d   1       8.366  -2.132  -6.419  0.00  0.00    -0.011 C 
ATOM      4  C   LIG d   1       7.370  -2.981  -7.242  0.00  0.00     0.035 C 
ATOM      5  N   LIG d   1       6.069  -2.333  -7.004  0.00  0.00    -0.231 N 
ATOM      6  N   LIG d   1       6.093  -1.739  -5.736  0.00  0.00    -0.242 N 
ATOM      7  H   LIG d   1       8.788  -1.334  -7.031  0.00  0.00     0.030 H 
ATOM      8  H   LIG d   1       9.155  -2.759  -6.003  0.00  0.00     0.030 H 
ATOM      9  H   LIG d   1       7.357  -4.010  -6.880  0.00  0.00     0.048 H 
ATOM     10  H   LIG d   1       7.625  -2.950  -8.301  0.00  0.00     0.048 H 
ENDROOT
BRANCH   5  11
ATOM     11  C   LIG d   1       5.029  -2.318  -7.861  0.00  0.00     0.154 C 
ATOM     12  S   LIG d   1       3.945  -3.642  -7.915  0.00  0.00    -0.017 SA
ATOM     13  N   LIG d   1       4.843  -1.261  -8.677  0.00  0.00    -0.296 N 
ATOM     14  H   LIG d   1       5.503  -0.552  -8.711  0.00  0.00     0.154 HD
BRANCH  13  15
ATOM     15  C   LIG d   1       3.696  -1.187  -9.476  0.00  0.00     0.033 A 
ATOM     16  C   LIG d   1       2.520  -0.661  -8.958  0.00  0.00    -0.041 A 
ATOM     17  C   LIG d   1       1.390  -0.591  -9.749  0.00  0.00    -0.060 A 
ATOM     18  H   LIG d   1       2.489  -0.310  -7.936  0.00  0.00     0.064 H 
ATOM     19  C   LIG d   1       1.429  -1.042 -11.055  0.00  0.00    -0.062 A 
ATOM     20  H   LIG d   1       0.475  -0.182  -9.346  0.00  0.00     0.062 H 
ATOM     21  C   LIG d   1       2.599  -1.566 -11.574  0.00  0.00    -0.060 A 
ATOM     22  H   LIG d   1       0.544  -0.986 -11.672  0.00  0.00     0.062 H 
ATOM     23  C   LIG d   1       3.734  -1.635 -10.790  0.00  0.00    -0.041 A 
ATOM     24  H   LIG d   1       2.626  -1.917 -12.594  0.00  0.00     0.062 H 
ATOM     25  H   LIG d   1       4.648  -2.039 -11.197  0.00  0.00     0.064 H 
ENDBRANCH  13  15
ENDBRANCH   5  11
BRANCH   6  26
ATOM     26  C   LIG d   1       4.962  -1.381  -4.997  0.00  0.00     0.049 A 
ATOM     27  C   LIG d   1       4.165  -0.321  -5.413  0.00  0.00    -0.039 A 
ATOM     28  C   LIG d   1       3.049   0.030  -4.680  0.00  0.00    -0.060 A 
ATOM     29  H   LIG d   1       4.421   0.228  -6.308  0.00  0.00     0.064 H 
ATOM     30  C   LIG d   1       2.723  -0.673  -3.535  0.00  0.00    -0.062 A 
ATOM     31  H   LIG d   1       2.429   0.854  -5.002  0.00  0.00     0.062 H 
ATOM     32  C   LIG d   1       3.513  -1.729  -3.119  0.00  0.00    -0.060 A 
ATOM     33  H   LIG d   1       1.848  -0.397  -2.964  0.00  0.00     0.062 H 
ATOM     34  C   LIG d   1       4.628  -2.088  -3.850  0.00  0.00    -0.039 A 
ATOM     35  H   LIG d   1       3.255  -2.276  -2.223  0.00  0.00     0.062 H 
ATOM     36  H   LIG d   1       5.243  -2.915  -3.526  0.00  0.00     0.064 H 
ENDBRANCH   6  26
BRANCH   1  37
ATOM     37  C   LIG d   1       7.774  -0.082  -5.117  0.00  0.00    -0.025 A 
ATOM     38  C   LIG d   1       8.205   0.674  -6.190  0.00  0.00    -0.057 A 
ATOM     39  C   LIG d   1       8.472   2.019  -6.024  0.00  0.00    -0.061 A 
ATOM     40  H   LIG d   1       8.332   0.212  -7.159  0.00  0.00     0.062 H 
ATOM     41  C   LIG d   1       8.309   2.609  -4.785  0.00  0.00    -0.062 A 
ATOM     42  H   LIG d   1       8.808   2.611  -6.864  0.00  0.00     0.062 H 
ATOM     43  C   LIG d   1       7.878   1.853  -3.711  0.00  0.00    -0.061 A 
ATOM     44  H   LIG d   1       8.519   3.660  -4.656  0.00  0.00     0.062 H 
ATOM     45  C   LIG d   1       7.605   0.508  -3.878  0.00  0.00    -0.057 A 
ATOM     46  H   LIG d   1       7.750   2.313  -2.743  0.00  0.00     0.062 H 
ATOM     47  H   LIG d   1       7.264  -0.082  -3.040  0.00  0.00     0.062 H 
ENDBRANCH   1  37
TORSDOF 4
ENDMDL
MODEL 6
REMARK VINA RESULT:      -6.1      3.768      5.782
REMARK  4 active torsions:
REMARK  status: ('A' for Active; 'I' for Inactive)
REMARK    1  A    between atoms: C_4  and  C_7 
REMARK    2  A    between atoms: N_11  and  C_19 
REMARK    3  A    between atoms: N_12  and  C_13 
REMARK    4  A    between atoms: N_21  and  C_22 
ROOT
ATOM      1  C   LIG d   1       6.292  -0.068  -6.427  0.00  0.00     0.069 C 
ATOM      2  H   LIG d   1       6.185   0.962  -6.090  0.00  0.00     0.057 H 
ATOM      3  C   LIG d   1       7.535  -0.207  -7.329  0.00  0.00    -0.011 C 
ATOM      4  C   LIG d   1       8.569  -0.878  -6.396  0.00  0.00     0.035 C 
ATOM      5  N   LIG d   1       7.744  -1.624  -5.429  0.00  0.00    -0.231 N 
ATOM      6  N   LIG d   1       6.522  -0.955  -5.279  0.00  0.00    -0.242 N 
ATOM      7  H   LIG d   1       7.320  -0.845  -8.187  0.00  0.00     0.030 H 
ATOM      8  H   LIG d   1       7.888   0.772  -7.654  0.00  0.00     0.030 H 
ATOM      9  H   LIG d   1       9.169  -0.124  -5.887  0.00  0.00     0.048 H 
ATOM     10  H   LIG d   1       9.206  -1.560  -6.960  0.00  0.00     0.048 H 
ENDROOT
BRANCH   5  11
ATOM     11  C   LIG d   1       8.106  -2.754  -4.793  0.00  0.00     0.154 C 
ATOM     12  S   LIG d   1       7.389  -4.248  -5.226  0.00  0.00    -0.017 SA
ATOM     13  N   LIG d   1       9.032  -2.710  -3.814  0.00  0.00    -0.296 N 
ATOM     14  H   LIG d   1       9.373  -1.856  -3.507  0.00  0.00     0.154 HD
BRANCH  13  15
ATOM     15  C   LIG d   1       9.501  -3.897  -3.240  0.00  0.00     0.033 A 
ATOM     16  C   LIG d   1      10.304  -4.757  -3.978  0.00  0.00    -0.041 A 
ATOM     17  C   LIG d   1      10.764  -5.928  -3.408  0.00  0.00    -0.060 A 
ATOM     18  H   LIG d   1      10.567  -4.511  -4.996  0.00  0.00     0.064 H 
ATOM     19  C   LIG d   1      10.426  -6.244  -2.105  0.00  0.00    -0.062 A 
ATOM     20  H   LIG d   1      11.388  -6.597  -3.981  0.00  0.00     0.062 H 
ATOM     21  C   LIG d   1       9.627  -5.390  -1.368  0.00  0.00    -0.060 A 
ATOM     22  H   LIG d   1      10.788  -7.161  -1.662  0.00  0.00     0.062 H 
ATOM     23  C   LIG d   1       9.168  -4.215  -1.930  0.00  0.00    -0.041 A 
ATOM     24  H   LIG d   1       9.366  -5.640  -0.351  0.00  0.00     0.062 H 
ATOM     25  H   LIG d   1       8.548  -3.546  -1.352  0.00  0.00     0.064 H 
ENDBRANCH  13  15
ENDBRANCH   5  11
BRANCH   6  26
ATOM     26  C   LIG d   1       5.652  -1.109  -4.197  0.00  0.00     0.049 A 
ATOM     27  C   LIG d   1       4.776  -2.187  -4.155  0.00  0.00    -0.039 A 
ATOM     28  C   LIG d   1       3.918  -2.335  -3.084  0.00  0.00    -0.060 A 
ATOM     29  H   LIG d   1       4.765  -2.906  -4.961  0.00  0.00     0.064 H 
ATOM     30  C   LIG d   1       3.931  -1.414  -2.053  0.00  0.00    -0.062 A 
ATOM     31  H   LIG d   1       3.236  -3.173  -3.050  0.00  0.00     0.062 H 
ATOM     32  C   LIG d   1       4.802  -0.341  -2.091  0.00  0.00    -0.060 A 
ATOM     33  H   LIG d   1       3.258  -1.533  -1.215  0.00  0.00     0.062 H 
ATOM     34  C   LIG d   1       5.667  -0.189  -3.157  0.00  0.00    -0.039 A 
ATOM     35  H   LIG d   1       4.809   0.377  -1.283  0.00  0.00     0.062 H 
ATOM     36  H   LIG d   1       6.349   0.647  -3.184  0.00  0.00     0.064 H 
ENDBRANCH   6  26
BRANCH   1  37
ATOM     37  C   LIG d   1       5.057  -0.499  -7.176  0.00  0.00    -0.025 A 
ATOM     38  C   LIG d   1       5.058  -1.685  -7.885  0.00  0.00    -0.057 A 
ATOM     39  C   LIG d   1       3.926  -2.081  -8.572  0.00  0.00    -0.061 A 
ATOM     40  H   LIG d   1       5.944  -2.304  -7.902  0.00  0.00     0.062 H 
ATOM     41  C   LIG d   1       2.793  -1.290  -8.551  0.00  0.00    -0.062 A 
ATOM     42  H   LIG d   1       3.926  -3.009  -9.126  0.00  0.00     0.062 H 
ATOM     43  C   LIG d   1       2.791  -0.103  -7.842  0.00  0.00    -0.061 A 
ATOM     44  H   LIG d   1       1.909  -1.598  -9.088  0.00  0.00     0.062 H 
ATOM     45  C   LIG d   1       3.923   0.290  -7.150  0.00  0.00    -0.057 A 
ATOM     46  H   LIG d   1       1.906   0.515  -7.825  0.00  0.00     0.062 H 
ATOM     47  H   LIG d   1       3.920   1.215  -6.592  0.00  0.00     0.062 H 
ENDBRANCH   1  37
TORSDOF 4
ENDMDL
MODEL 7
REMARK VINA RESULT:      -6.0      3.465      7.037
REMARK  4 active torsions:
REMARK  status: ('A' for Active; 'I' for Inactive)
REMARK    1  A    between atoms: C_4  and  C_7 
REMARK    2  A    between atoms: N_11  and  C_19 
REMARK    3  A    between atoms: N_12  and  C_13 
REMARK    4  A    between atoms: N_21  and  C_22 
ROOT
ATOM      1  C   LIG d   1       5.301  -0.644  -5.790  0.00  0.00     0.069 C 
ATOM      2  H   LIG d   1       5.964   0.171  -6.079  0.00  0.00     0.057 H 
ATOM      3  C   LIG d   1       4.017  -0.614  -6.645  0.00  0.00    -0.011 C 
ATOM      4  C   LIG d   1       4.247  -1.758  -7.657  0.00  0.00     0.035 C 
ATOM      5  N   LIG d   1       5.153  -2.681  -6.952  0.00  0.00    -0.231 N 
ATOM      6  N   LIG d   1       5.940  -1.938  -6.062  0.00  0.00    -0.242 N 
ATOM      7  H   LIG d   1       3.139  -0.814  -6.030  0.00  0.00     0.030 H 
ATOM      8  H   LIG d   1       3.919   0.342  -7.160  0.00  0.00     0.030 H 
ATOM      9  H   LIG d   1       4.718  -1.377  -8.564  0.00  0.00     0.048 H 
ATOM     10  H   LIG d   1       3.305  -2.254  -7.894  0.00  0.00     0.048 H 
ENDROOT
BRANCH   5  11
ATOM     11  C   LIG d   1       5.219  -4.014  -7.135  0.00  0.00     0.154 C 
ATOM     12  S   LIG d   1       6.433  -4.681  -8.141  0.00  0.00    -0.017 SA
ATOM     13  N   LIG d   1       4.327  -4.823  -6.528  0.00  0.00    -0.296 N 
ATOM     14  H   LIG d   1       3.587  -4.442  -6.031  0.00  0.00     0.154 HD
BRANCH  13  15
ATOM     15  C   LIG d   1       4.469  -6.212  -6.616  0.00  0.00     0.033 A 
ATOM     16  C   LIG d   1       4.976  -6.929  -5.539  0.00  0.00    -0.041 A 
ATOM     17  C   LIG d   1       5.115  -8.300  -5.630  0.00  0.00    -0.060 A 
ATOM     18  H   LIG d   1       5.261  -6.414  -4.633  0.00  0.00     0.064 H 
ATOM     19  C   LIG d   1       4.751  -8.958  -6.790  0.00  0.00    -0.062 A 
ATOM     20  H   LIG d   1       5.509  -8.858  -4.793  0.00  0.00     0.062 H 
ATOM     21  C   LIG d   1       4.246  -8.248  -7.863  0.00  0.00    -0.060 A 
ATOM     22  H   LIG d   1       4.861 -10.031  -6.857  0.00  0.00     0.062 H 
ATOM     23  C   LIG d   1       4.099  -6.877  -7.777  0.00  0.00    -0.041 A 
ATOM     24  H   LIG d   1       3.962  -8.766  -8.766  0.00  0.00     0.062 H 
ATOM     25  H   LIG d   1       3.700  -6.324  -8.614  0.00  0.00     0.064 H 
ENDBRANCH  13  15
ENDBRANCH   5  11
BRANCH   6  26
ATOM     26  C   LIG d   1       7.152  -2.365  -5.515  0.00  0.00     0.049 A 
ATOM     27  C   LIG d   1       8.353  -1.894  -6.031  0.00  0.00    -0.039 A 
ATOM     28  C   LIG d   1       9.549  -2.319  -5.488  0.00  0.00    -0.060 A 
ATOM     29  H   LIG d   1       8.351  -1.198  -6.857  0.00  0.00     0.064 H 
ATOM     30  C   LIG d   1       9.552  -3.210  -4.431  0.00  0.00    -0.062 A 
ATOM     31  H   LIG d   1      10.484  -1.954  -5.888  0.00  0.00     0.062 H 
ATOM     32  C   LIG d   1       8.359  -3.680  -3.914  0.00  0.00    -0.060 A 
ATOM     33  H   LIG d   1      10.490  -3.541  -4.007  0.00  0.00     0.062 H 
ATOM     34  C   LIG d   1       7.159  -3.255  -4.449  0.00  0.00    -0.039 A 
ATOM     35  H   LIG d   1       8.366  -4.377  -3.088  0.00  0.00     0.062 H 
ATOM     36  H   LIG d   1       6.227  -3.620  -4.043  0.00  0.00     0.064 H 
ENDBRANCH   6  26
BRANCH   1  37
ATOM     37  C   LIG d   1       4.951  -0.534  -4.327  0.00  0.00    -0.025 A 
ATOM     38  C   LIG d   1       4.115  -1.467  -3.745  0.00  0.00    -0.057 A 
ATOM     39  C   LIG d   1       3.795  -1.368  -2.405  0.00  0.00    -0.061 A 
ATOM     40  H   LIG d   1       3.711  -2.275  -4.339  0.00  0.00     0.062 H 
ATOM     41  C   LIG d   1       4.311  -0.335  -1.646  0.00  0.00    -0.062 A 
ATOM     42  H   LIG d   1       3.141  -2.098  -1.949  0.00  0.00     0.062 H 
ATOM     43  C   LIG d   1       5.148   0.600  -2.228  0.00  0.00    -0.061 A 
ATOM     44  H   LIG d   1       4.061  -0.256  -0.598  0.00  0.00     0.062 H 
ATOM     45  C   LIG d   1       5.472   0.496  -3.568  0.00  0.00    -0.057 A 
ATOM     46  H   LIG d   1       5.552   1.407  -1.635  0.00  0.00     0.062 H 
ATOM     47  H   LIG d   1       6.130   1.223  -4.022  0.00  0.00     0.062 H 
ENDBRANCH   1  37
TORSDOF 4
ENDMDL
MODEL 8
REMARK VINA RESULT:      -6.0      1.759      2.465
REMARK  4 active torsions:
REMARK  status: ('A' for Active; 'I' for Inactive)
REMARK    1  A    between atoms: C_4  and  C_7 
REMARK    2  A    between atoms: N_11  and  C_19 
REMARK    3  A    between atoms: N_12  and  C_13 
REMARK    4  A    between atoms: N_21  and  C_22 
ROOT
ATOM      1  C   LIG d   1       6.626  -0.933 -10.380  0.00  0.00     0.069 C 
ATOM      2  H   LIG d   1       7.158  -0.061 -10.758  0.00  0.00     0.057 H 
ATOM      3  C   LIG d   1       7.628  -2.013  -9.925  0.00  0.00    -0.011 C 
ATOM      4  C   LIG d   1       7.599  -1.888  -8.385  0.00  0.00     0.035 C 
ATOM      5  N   LIG d   1       6.258  -1.350  -8.097  0.00  0.00    -0.231 N 
ATOM      6  N   LIG d   1       5.846  -0.574  -9.189  0.00  0.00    -0.242 N 
ATOM      7  H   LIG d   1       7.297  -3.004 -10.237  0.00  0.00     0.030 H 
ATOM      8  H   LIG d   1       8.626  -1.800 -10.310  0.00  0.00     0.030 H 
ATOM      9  H   LIG d   1       8.370  -1.196  -8.044  0.00  0.00     0.048 H 
ATOM     10  H   LIG d   1       7.728  -2.865  -7.919  0.00  0.00     0.048 H 
ENDROOT
BRANCH   5  11
ATOM     11  C   LIG d   1       5.549  -1.565  -6.972  0.00  0.00     0.154 C 
ATOM     12  S   LIG d   1       4.692  -3.032  -6.767  0.00  0.00    -0.017 SA
ATOM     13  N   LIG d   1       5.514  -0.624  -6.007  0.00  0.00    -0.296 N 
ATOM     14  H   LIG d   1       5.926   0.241  -6.158  0.00  0.00     0.154 HD
BRANCH  13  15
ATOM     15  C   LIG d   1       4.885  -0.895  -4.787  0.00  0.00     0.033 A 
ATOM     16  C   LIG d   1       5.585  -1.529  -3.769  0.00  0.00    -0.041 A 
ATOM     17  C   LIG d   1       4.959  -1.796  -2.566  0.00  0.00    -0.060 A 
ATOM     18  H   LIG d   1       6.616  -1.814  -3.918  0.00  0.00     0.064 H 
ATOM     19  C   LIG d   1       3.639  -1.432  -2.376  0.00  0.00    -0.062 A 
ATOM     20  H   LIG d   1       5.503  -2.289  -1.774  0.00  0.00     0.062 H 
ATOM     21  C   LIG d   1       2.940  -0.800  -3.388  0.00  0.00    -0.060 A 
ATOM     22  H   LIG d   1       3.153  -1.642  -1.434  0.00  0.00     0.062 H 
ATOM     23  C   LIG d   1       3.561  -0.526  -4.591  0.00  0.00    -0.041 A 
ATOM     24  H   LIG d   1       1.909  -0.518  -3.235  0.00  0.00     0.062 H 
ATOM     25  H   LIG d   1       3.015  -0.029  -5.379  0.00  0.00     0.064 H 
ENDBRANCH  13  15
ENDBRANCH   5  11
BRANCH   6  26
ATOM     26  C   LIG d   1       4.844   0.398  -9.148  0.00  0.00     0.049 A 
ATOM     27  C   LIG d   1       5.174   1.744  -9.239  0.00  0.00    -0.039 A 
ATOM     28  C   LIG d   1       4.180   2.701  -9.199  0.00  0.00    -0.060 A 
ATOM     29  H   LIG d   1       6.208   2.041  -9.341  0.00  0.00     0.064 H 
ATOM     30  C   LIG d   1       2.857   2.321  -9.069  0.00  0.00    -0.062 A 
ATOM     31  H   LIG d   1       4.436   3.748  -9.269  0.00  0.00     0.062 H 
ATOM     32  C   LIG d   1       2.524   0.982  -8.978  0.00  0.00    -0.060 A 
ATOM     33  H   LIG d   1       2.081   3.073  -9.037  0.00  0.00     0.062 H 
ATOM     34  C   LIG d   1       3.513   0.019  -9.024  0.00  0.00    -0.039 A 
ATOM     35  H   LIG d   1       1.489   0.689  -8.876  0.00  0.00     0.062 H 
ATOM     36  H   LIG d   1       3.252  -1.026  -8.957  0.00  0.00     0.064 H 
ENDBRANCH   6  26
BRANCH   1  37
ATOM     37  C   LIG d   1       5.716  -1.488 -11.447  0.00  0.00    -0.025 A 
ATOM     38  C   LIG d   1       5.435  -0.738 -12.573  0.00  0.00    -0.057 A 
ATOM     39  C   LIG d   1       4.601  -1.246 -13.551  0.00  0.00    -0.061 A 
ATOM     40  H   LIG d   1       5.867   0.245 -12.689  0.00  0.00     0.062 H 
ATOM     41  C   LIG d   1       4.049  -2.505 -13.404  0.00  0.00    -0.062 A 
ATOM     42  H   LIG d   1       4.382  -0.661 -14.432  0.00  0.00     0.062 H 
ATOM     43  C   LIG d   1       4.330  -3.255 -12.277  0.00  0.00    -0.061 A 
ATOM     44  H   LIG d   1       3.397  -2.902 -14.167  0.00  0.00     0.062 H 
ATOM     45  C   LIG d   1       5.168  -2.748 -11.301  0.00  0.00    -0.057 A 
ATOM     46  H   LIG d   1       3.899  -4.238 -12.161  0.00  0.00     0.062 H 
ATOM     47  H   LIG d   1       5.392  -3.337 -10.423  0.00  0.00     0.062 H 
ENDBRANCH   1  37
TORSDOF 4
ENDMDL
MODEL 9
REMARK VINA RESULT:      -5.9      4.272      7.749
REMARK  4 active torsions:
REMARK  status: ('A' for Active; 'I' for Inactive)
REMARK    1  A    between atoms: C_4  and  C_7 
REMARK    2  A    between atoms: N_11  and  C_19 
REMARK    3  A    between atoms: N_12  and  C_13 
REMARK    4  A    between atoms: N_21  and  C_22 
ROOT
ATOM      1  C   LIG d   1       9.790   0.777  -5.163  0.00  0.00     0.069 C 
ATOM      2  H   LIG d   1      10.285   0.111  -4.458  0.00  0.00     0.057 H 
ATOM      3  C   LIG d   1      10.527   0.763  -6.517  0.00  0.00    -0.011 C 
ATOM      4  C   LIG d   1       9.615  -0.118  -7.400  0.00  0.00     0.035 C 
ATOM      5  N   LIG d   1       8.277   0.047  -6.805  0.00  0.00    -0.231 N 
ATOM      6  N   LIG d   1       8.427   0.302  -5.436  0.00  0.00    -0.242 N 
ATOM      7  H   LIG d   1      10.602   1.771  -6.926  0.00  0.00     0.030 H 
ATOM      8  H   LIG d   1      11.515   0.313  -6.414  0.00  0.00     0.030 H 
ATOM      9  H   LIG d   1       9.929  -1.161  -7.352  0.00  0.00     0.048 H 
ATOM     10  H   LIG d   1       9.622   0.237  -8.431  0.00  0.00     0.048 H 
ENDROOT
BRANCH   5  11
ATOM     11  C   LIG d   1       7.106  -0.038  -7.466  0.00  0.00     0.154 C 
ATOM     12  S   LIG d   1       6.582  -1.544  -8.088  0.00  0.00    -0.017 SA
ATOM     13  N   LIG d   1       6.348   1.063  -7.640  0.00  0.00    -0.296 N 
ATOM     14  H   LIG d   1       6.683   1.931  -7.367  0.00  0.00     0.154 HD
BRANCH  13  15
ATOM     15  C   LIG d   1       5.076   0.954  -8.213  0.00  0.00     0.033 A 
ATOM     16  C   LIG d   1       4.044   0.347  -7.509  0.00  0.00    -0.041 A 
ATOM     17  C   LIG d   1       2.791   0.241  -8.079  0.00  0.00    -0.060 A 
ATOM     18  H   LIG d   1       4.223  -0.042  -6.517  0.00  0.00     0.064 H 
ATOM     19  C   LIG d   1       2.563   0.738  -9.348  0.00  0.00    -0.062 A 
ATOM     20  H   LIG d   1       1.988  -0.231  -7.531  0.00  0.00     0.062 H 
ATOM     21  C   LIG d   1       3.588   1.342 -10.053  0.00  0.00    -0.060 A 
ATOM     22  H   LIG d   1       1.581   0.653  -9.792  0.00  0.00     0.062 H 
ATOM     23  C   LIG d   1       4.842   1.457  -9.486  0.00  0.00    -0.041 A 
ATOM     24  H   LIG d   1       3.405   1.729 -11.044  0.00  0.00     0.062 H 
ATOM     25  H   LIG d   1       5.641   1.933 -10.035  0.00  0.00     0.064 H 
ENDBRANCH  13  15
ENDBRANCH   5  11
BRANCH   6  26
ATOM     26  C   LIG d   1       7.429   0.129  -4.474  0.00  0.00     0.049 A 
ATOM     27  C   LIG d   1       7.108  -1.145  -4.024  0.00  0.00    -0.039 A 
ATOM     28  C   LIG d   1       6.121  -1.312  -3.074  0.00  0.00    -0.060 A 
ATOM     29  H   LIG d   1       7.631  -2.005  -4.419  0.00  0.00     0.064 H 
ATOM     30  C   LIG d   1       5.453  -0.212  -2.569  0.00  0.00    -0.062 A 
ATOM     31  H   LIG d   1       5.871  -2.303  -2.723  0.00  0.00     0.062 H 
ATOM     32  C   LIG d   1       5.770   1.058  -3.014  0.00  0.00    -0.060 A 
ATOM     33  H   LIG d   1       4.681  -0.345  -1.824  0.00  0.00     0.062 H 
ATOM     34  C   LIG d   1       6.760   1.232  -3.961  0.00  0.00    -0.039 A 
ATOM     35  H   LIG d   1       5.245   1.916  -2.617  0.00  0.00     0.062 H 
ATOM     36  H   LIG d   1       7.009   2.225  -4.305  0.00  0.00     0.064 H 
ENDBRANCH   6  26
BRANCH   1  37
ATOM     37  C   LIG d   1       9.749   2.180  -4.610  0.00  0.00    -0.025 A 
ATOM     38  C   LIG d   1       9.338   3.227  -5.412  0.00  0.00    -0.057 A 
ATOM     39  C   LIG d   1       9.300   4.512  -4.906  0.00  0.00    -0.061 A 
ATOM     40  H   LIG d   1       9.045   3.040  -6.435  0.00  0.00     0.062 H 
ATOM     41  C   LIG d   1       9.674   4.751  -3.597  0.00  0.00    -0.062 A 
ATOM     42  H   LIG d   1       8.977   5.331  -5.533  0.00  0.00     0.062 H 
ATOM     43  C   LIG d   1      10.086   3.703  -2.794  0.00  0.00    -0.061 A 
ATOM     44  H   LIG d   1       9.645   5.755  -3.201  0.00  0.00     0.062 H 
ATOM     45  C   LIG d   1      10.118   2.417  -3.299  0.00  0.00    -0.057 A 
ATOM     46  H   LIG d   1      10.378   3.889  -1.771  0.00  0.00     0.062 H 
ATOM     47  H   LIG d   1      10.435   1.598  -2.670  0.00  0.00     0.062 H 
ENDBRANCH   1  37
TORSDOF 4
ENDMDL
MODEL 10
REMARK VINA RESULT:      -5.9      2.871      6.709
REMARK  4 active torsions:
REMARK  status: ('A' for Active; 'I' for Inactive)
REMARK    1  A    between atoms: C_4  and  C_7 
REMARK    2  A    between atoms: N_11  and  C_19 
REMARK    3  A    between atoms: N_12  and  C_13 
REMARK    4  A    between atoms: N_21  and  C_22 
ROOT
ATOM      1  C   LIG d   1       5.805  -2.103  -4.207  0.00  0.00     0.069 C 
ATOM      2  H   LIG d   1       5.254  -3.042  -4.221  0.00  0.00     0.057 H 
ATOM      3  C   LIG d   1       7.170  -2.296  -3.517  0.00  0.00    -0.011 C 
ATOM      4  C   LIG d   1       8.158  -2.338  -4.706  0.00  0.00     0.035 C 
ATOM      5  N   LIG d   1       7.485  -1.551  -5.755  0.00  0.00    -0.231 N 
ATOM      6  N   LIG d   1       6.100  -1.668  -5.579  0.00  0.00    -0.242 N 
ATOM      7  H   LIG d   1       7.394  -1.455  -2.861  0.00  0.00     0.030 H 
ATOM      8  H   LIG d   1       7.194  -3.235  -2.964  0.00  0.00     0.030 H 
ATOM      9  H   LIG d   1       8.312  -3.365  -5.038  0.00  0.00     0.048 H 
ATOM     10  H   LIG d   1       9.107  -1.877  -4.431  0.00  0.00     0.048 H 
ENDROOT
BRANCH   5  11
ATOM     11  C   LIG d   1       8.099  -0.844  -6.723  0.00  0.00     0.154 C 
ATOM     12  S   LIG d   1       8.490  -1.591  -8.212  0.00  0.00    -0.017 SA
ATOM     13  N   LIG d   1       8.407   0.453  -6.518  0.00  0.00    -0.296 N 
ATOM     14  H   LIG d   1       8.266   0.853  -5.646  0.00  0.00     0.154 HD
BRANCH  13  15
ATOM     15  C   LIG d   1       8.928   1.222  -7.564  0.00  0.00     0.033 A 
ATOM     16  C   LIG d   1      10.302   1.287  -7.762  0.00  0.00    -0.041 A 
ATOM     17  C   LIG d   1      10.813   2.048  -8.796  0.00  0.00    -0.060 A 
ATOM     18  H   LIG d   1      10.969   0.744  -7.108  0.00  0.00     0.064 H 
ATOM     19  C   LIG d   1       9.960   2.743  -9.631  0.00  0.00    -0.062 A 
ATOM     20  H   LIG d   1      11.881   2.098  -8.950  0.00  0.00     0.062 H 
ATOM     21  C   LIG d   1       8.592   2.681  -9.437  0.00  0.00    -0.060 A 
ATOM     22  H   LIG d   1      10.363   3.338 -10.439  0.00  0.00     0.062 H 
ATOM     23  C   LIG d   1       8.074   1.918  -8.409  0.00  0.00    -0.041 A 
ATOM     24  H   LIG d   1       7.930   3.226 -10.092  0.00  0.00     0.062 H 
ATOM     25  H   LIG d   1       7.006   1.866  -8.261  0.00  0.00     0.064 H 
ENDBRANCH  13  15
ENDBRANCH   5  11
BRANCH   6  26
ATOM     26  C   LIG d   1       5.143  -1.410  -6.563  0.00  0.00     0.049 A 
ATOM     27  C   LIG d   1       4.684  -0.114  -6.766  0.00  0.00    -0.039 A 
ATOM     28  C   LIG d   1       3.738   0.136  -7.740  0.00  0.00    -0.060 A 
ATOM     29  H   LIG d   1       5.067   0.696  -6.161  0.00  0.00     0.064 H 
ATOM     30  C   LIG d   1       3.248  -0.900  -8.513  0.00  0.00    -0.062 A 
ATOM     31  H   LIG d   1       3.381   1.143  -7.898  0.00  0.00     0.062 H 
ATOM     32  C   LIG d   1       3.703  -2.190  -8.314  0.00  0.00    -0.060 A 
ATOM     33  H   LIG d   1       2.508  -0.701  -9.275  0.00  0.00     0.062 H 
ATOM     34  C   LIG d   1       4.654  -2.447  -7.345  0.00  0.00    -0.039 A 
ATOM     35  H   LIG d   1       3.318  -2.998  -8.920  0.00  0.00     0.062 H 
ATOM     36  H   LIG d   1       5.011  -3.455  -7.193  0.00  0.00     0.064 H 
ENDBRANCH   6  26
BRANCH   1  37
ATOM     37  C   LIG d   1       5.007  -1.044  -3.488  0.00  0.00    -0.025 A 
ATOM     38  C   LIG d   1       3.640  -1.188  -3.346  0.00  0.00    -0.057 A 
ATOM     39  C   LIG d   1       2.908  -0.218  -2.687  0.00  0.00    -0.061 A 
ATOM     40  H   LIG d   1       3.144  -2.058  -3.750  0.00  0.00     0.062 H 
ATOM     41  C   LIG d   1       3.543   0.895  -2.170  0.00  0.00    -0.062 A 
ATOM     42  H   LIG d   1       1.840  -0.331  -2.574  0.00  0.00     0.062 H 
ATOM     43  C   LIG d   1       4.911   1.039  -2.313  0.00  0.00    -0.061 A 
ATOM     44  H   LIG d   1       2.972   1.653  -1.656  0.00  0.00     0.062 H 
ATOM     45  C   LIG d   1       5.643   0.066  -2.968  0.00  0.00    -0.057 A 
ATOM     46  H   LIG d   1       5.408   1.909  -1.909  0.00  0.00     0.062 H 
ATOM     47  H   LIG d   1       6.713   0.176  -3.075  0.00  0.00     0.062 H 
ENDBRANCH   1  37
TORSDOF 4
ENDMDL
