MODEL 1
REMARK VINA RESULT:      -5.6      0.000      0.000
REMARK  9 active torsions:
REMARK  status: ('A' for Active; 'I' for Inactive)
REMARK    1  A    between atoms: C_1  and  C_2 
REMARK    2  A    between atoms: C_2  and  C_23 
REMARK    3  A    between atoms: C_3  and  C_4 
REMARK    4  A    between atoms: C_4  and  C_5 
REMARK    5  A    between atoms: C_7  and  C_9 
REMARK    6  A    between atoms: C_7  and  C_10 
REMARK    7  A    between atoms: C_10  and  O_22 
REMARK    8  A    between atoms: C_11  and  O_20 
REMARK    9  A    between atoms: O_20  and  C_21 
ROOT
ATOM      1  C   LIG d   1       4.096  -0.655  -4.709  0.00  0.00     0.161 C 
ATOM      2  C   LIG d   1       4.789   0.382  -3.816  0.00  0.00     0.150 C 
ATOM      3  H   LIG d   1       4.482   1.299  -4.070  0.00  0.00     0.071 H 
ATOM      4  C   LIG d   1       4.429   0.097  -2.376  0.00  0.00     0.165 C 
ATOM      5  O   LIG d   1       3.942   0.957  -1.681  0.00  0.00    -0.294 OA
ATOM      6  C   LIG d   1       4.687  -1.285  -1.821  0.00  0.00     0.011 C 
ATOM      7  C   LIG d   1       3.995  -2.314  -2.725  0.00  0.00    -0.012 C 
ATOM      8  C   LIG d   1       4.405  -2.056  -4.176  0.00  0.00     0.127 A 
ATOM      9  C   LIG d   1       4.328  -3.224  -5.157  0.00  0.00     0.081 A 
ATOM     10  O   LIG d   1       5.571  -2.715  -4.669  0.00  0.00    -0.365 OA
ATOM     11  H   LIG d   1       4.321  -1.346  -0.893  0.00  0.00     0.034 H 
ATOM     12  H   LIG d   1       5.760  -1.479  -1.800  0.00  0.00     0.034 H 
ATOM     13  H   LIG d   1       2.914  -2.216  -2.628  0.00  0.00     0.030 H 
ATOM     14  H   LIG d   1       4.298  -3.319  -2.433  0.00  0.00     0.030 H 
ATOM     15  H   LIG d   1       3.988  -4.187  -4.775  0.00  0.00     0.059 H 
ATOM     16  H   LIG d   1       4.059  -3.004  -6.190  0.00  0.00     0.059 H 
ENDROOT
BRANCH   1  17
ATOM     17  C   LIG d   1       4.618  -0.525  -6.142  0.00  0.00     0.128 A 
ATOM     18  C   LIG d   1       3.622  -0.724  -7.285  0.00  0.00     0.095 A 
ATOM     19  H   LIG d   1       2.588  -0.948  -7.024  0.00  0.00     0.063 H 
ATOM     20  O   LIG d   1       4.133   0.562  -6.932  0.00  0.00    -0.362 OA
BRANCH  18  21
ATOM     21  C   LIG d   1       4.136  -1.367  -8.576  0.00  0.00    -0.005 C 
ATOM     22  H   LIG d   1       4.824  -0.683  -9.073  0.00  0.00     0.033 H 
ATOM     23  H   LIG d   1       4.656  -2.295  -8.337  0.00  0.00     0.033 H 
BRANCH  21  24
ATOM     24  C   LIG d   1       2.973  -1.662  -9.487  0.00  0.00    -0.083 C 
ATOM     25  C   LIG d   1       2.658  -0.820 -10.440  0.00  0.00    -0.080 C 
ATOM     26  H   LIG d   1       2.399  -2.568  -9.355  0.00  0.00     0.057 H 
BRANCH  25  27
ATOM     27  C   LIG d   1       3.560   0.349 -10.741  0.00  0.00    -0.044 C 
ATOM     28  H   LIG d   1       4.042   0.197 -11.707  0.00  0.00     0.027 H 
ATOM     29  H   LIG d   1       2.971   1.265 -10.770  0.00  0.00     0.027 H 
ATOM     30  H   LIG d   1       4.321   0.431  -9.965  0.00  0.00     0.027 H 
ENDBRANCH  25  27
BRANCH  25  31
ATOM     31  C   LIG d   1       1.394  -1.021 -11.236  0.00  0.00    -0.044 C 
ATOM     32  H   LIG d   1       0.540  -1.043 -10.560  0.00  0.00     0.027 H 
ATOM     33  H   LIG d   1       1.277  -0.201 -11.945  0.00  0.00     0.027 H 
ATOM     34  H   LIG d   1       1.453  -1.964 -11.779  0.00  0.00     0.027 H 
ENDBRANCH  25  31
ENDBRANCH  21  24
ENDBRANCH  18  21
BRANCH  17  35
ATOM     35  C   LIG d   1       6.062  -0.981  -6.365  0.00  0.00    -0.030 C 
ATOM     36  H   LIG d   1       6.065  -1.953  -6.857  0.00  0.00     0.026 H 
ATOM     37  H   LIG d   1       6.579  -0.255  -6.993  0.00  0.00     0.026 H 
ATOM     38  H   LIG d   1       6.571  -1.058  -5.404  0.00  0.00     0.026 H 
ENDBRANCH  17  35
ENDBRANCH   1  17
BRANCH   1  39
ATOM     39  O   LIG d   1       2.685  -0.435  -4.690  0.00  0.00    -0.380 OA
ATOM     40  H   LIG d   1       2.304  -0.403  -3.803  0.00  0.00     0.210 HD
ENDBRANCH   1  39
BRANCH   2  41
ATOM     41  O   LIG d   1       6.205   0.290  -3.983  0.00  0.00    -0.369 OA
BRANCH  41  42
ATOM     42  C   LIG d   1       6.919   1.450  -3.551  0.00  0.00     0.037 C 
ATOM     43  H   LIG d   1       6.309   2.338  -3.725  0.00  0.00     0.052 H 
ATOM     44  H   LIG d   1       7.140   1.364  -2.488  0.00  0.00     0.052 H 
ATOM     45  H   LIG d   1       7.850   1.534  -4.111  0.00  0.00     0.052 H 
ENDBRANCH  41  42
ENDBRANCH   2  41
TORSDOF 9
ENDMDL
MODEL 2
REMARK VINA RESULT:      -5.4      2.790      5.884
REMARK  9 active torsions:
REMARK  status: ('A' for Active; 'I' for Inactive)
REMARK    1  A    between atoms: C_1  and  C_2 
REMARK    2  A    between atoms: C_2  and  C_23 
REMARK    3  A    between atoms: C_3  and  C_4 
REMARK    4  A    between atoms: C_4  and  C_5 
REMARK    5  A    between atoms: C_7  and  C_9 
REMARK    6  A    between atoms: C_7  and  C_10 
REMARK    7  A    between atoms: C_10  and  O_22 
REMARK    8  A    between atoms: C_11  and  O_20 
REMARK    9  A    between atoms: O_20  and  C_21 
ROOT
ATOM      1  C   LIG d   1       4.331  -1.050  -4.588  0.00  0.00     0.161 C 
ATOM      2  C   LIG d   1       4.837  -0.882  -6.026  0.00  0.00     0.150 C 
ATOM      3  H   LIG d   1       5.268  -1.732  -6.329  0.00  0.00     0.071 H 
ATOM      4  C   LIG d   1       3.661  -0.551  -6.917  0.00  0.00     0.165 C 
ATOM      5  O   LIG d   1       3.425  -1.217  -7.896  0.00  0.00    -0.294 OA
ATOM      6  C   LIG d   1       2.787   0.629  -6.559  0.00  0.00     0.011 C 
ATOM      7  C   LIG d   1       2.291   0.453  -5.118  0.00  0.00    -0.012 C 
ATOM      8  C   LIG d   1       3.490   0.171  -4.210  0.00  0.00     0.127 A 
ATOM      9  C   LIG d   1       3.358   0.515  -2.727  0.00  0.00     0.081 A 
ATOM     10  O   LIG d   1       4.160   1.287  -3.624  0.00  0.00    -0.365 OA
ATOM     11  H   LIG d   1       2.009   0.670  -7.185  0.00  0.00     0.034 H 
ATOM     12  H   LIG d   1       3.363   1.551  -6.638  0.00  0.00     0.034 H 
ATOM     13  H   LIG d   1       1.594  -0.383  -5.072  0.00  0.00     0.030 H 
ATOM     14  H   LIG d   1       1.790   1.364  -4.790  0.00  0.00     0.030 H 
ATOM     15  H   LIG d   1       2.416   0.947  -2.389  0.00  0.00     0.059 H 
ATOM     16  H   LIG d   1       3.870  -0.125  -2.010  0.00  0.00     0.059 H 
ENDROOT
BRANCH   1  17
ATOM     17  C   LIG d   1       5.523  -1.166  -3.636  0.00  0.00     0.128 A 
ATOM     18  C   LIG d   1       6.854  -1.651  -4.214  0.00  0.00     0.095 A 
ATOM     19  H   LIG d   1       6.888  -1.891  -5.277  0.00  0.00     0.063 H 
ATOM     20  O   LIG d   1       6.631  -0.289  -3.847  0.00  0.00    -0.362 OA
BRANCH  18  21
ATOM     21  C   LIG d   1       7.758  -2.495  -3.313  0.00  0.00    -0.005 C 
ATOM     22  H   LIG d   1       8.623  -1.904  -3.012  0.00  0.00     0.033 H 
ATOM     23  H   LIG d   1       7.202  -2.802  -2.426  0.00  0.00     0.033 H 
BRANCH  21  24
ATOM     24  C   LIG d   1       8.218  -3.716  -4.066  0.00  0.00    -0.083 C 
ATOM     25  C   LIG d   1       9.132  -4.499  -3.547  0.00  0.00    -0.080 C 
ATOM     26  H   LIG d   1       7.795  -3.946  -5.032  0.00  0.00     0.057 H 
BRANCH  25  27
ATOM     27  C   LIG d   1       9.593  -4.282  -2.129  0.00  0.00    -0.044 C 
ATOM     28  H   LIG d   1      10.223  -5.118  -1.820  0.00  0.00     0.027 H 
ATOM     29  H   LIG d   1      10.165  -3.357  -2.069  0.00  0.00     0.027 H 
ATOM     30  H   LIG d   1       8.727  -4.218  -1.470  0.00  0.00     0.027 H 
ENDBRANCH  25  27
BRANCH  25  31
ATOM     31  C   LIG d   1       9.722  -5.616  -4.369  0.00  0.00    -0.044 C 
ATOM     32  H   LIG d   1      10.080  -5.218  -5.319  0.00  0.00     0.027 H 
ATOM     33  H   LIG d   1      10.554  -6.065  -3.827  0.00  0.00     0.027 H 
ATOM     34  H   LIG d   1       8.959  -6.371  -4.555  0.00  0.00     0.027 H 
ENDBRANCH  25  31
ENDBRANCH  21  24
ENDBRANCH  18  21
BRANCH  17  35
ATOM     35  C   LIG d   1       5.186  -1.556  -2.195  0.00  0.00    -0.030 C 
ATOM     36  H   LIG d   1       4.560  -0.784  -1.747  0.00  0.00     0.026 H 
ATOM     37  H   LIG d   1       4.649  -2.504  -2.193  0.00  0.00     0.026 H 
ATOM     38  H   LIG d   1       6.106  -1.657  -1.621  0.00  0.00     0.026 H 
ENDBRANCH  17  35
ENDBRANCH   1  17
BRANCH   1  39
ATOM     39  O   LIG d   1       3.528  -2.229  -4.499  0.00  0.00    -0.380 OA
ATOM     40  H   LIG d   1       2.599  -2.057  -4.295  0.00  0.00     0.210 HD
ENDBRANCH   1  39
BRANCH   2  41
ATOM     41  O   LIG d   1       5.792   0.180  -6.077  0.00  0.00    -0.369 OA
BRANCH  41  42
ATOM     42  C   LIG d   1       6.503   0.264  -7.314  0.00  0.00     0.037 C 
ATOM     43  H   LIG d   1       5.793   0.333  -8.138  0.00  0.00     0.052 H 
ATOM     44  H   LIG d   1       7.140   1.148  -7.307  0.00  0.00     0.052 H 
ATOM     45  H   LIG d   1       7.119  -0.626  -7.439  0.00  0.00     0.052 H 
ENDBRANCH  41  42
ENDBRANCH   2  41
TORSDOF 9
ENDMDL
MODEL 3
REMARK VINA RESULT:      -5.1      1.671      2.847
REMARK  9 active torsions:
REMARK  status: ('A' for Active; 'I' for Inactive)
REMARK    1  A    between atoms: C_1  and  C_2 
REMARK    2  A    between atoms: C_2  and  C_23 
REMARK    3  A    between atoms: C_3  and  C_4 
REMARK    4  A    between atoms: C_4  and  C_5 
REMARK    5  A    between atoms: C_7  and  C_9 
REMARK    6  A    between atoms: C_7  and  C_10 
REMARK    7  A    between atoms: C_10  and  O_22 
REMARK    8  A    between atoms: C_11  and  O_20 
REMARK    9  A    between atoms: O_20  and  C_21 
ROOT
ATOM      1  C   LIG d   1       5.005  -0.335  -4.721  0.00  0.00     0.161 C 
ATOM      2  C   LIG d   1       6.247  -0.735  -5.528  0.00  0.00     0.150 C 
ATOM      3  H   LIG d   1       6.510   0.019  -6.130  0.00  0.00     0.071 H 
ATOM      4  C   LIG d   1       7.371  -1.041  -4.563  0.00  0.00     0.165 C 
ATOM      5  O   LIG d   1       8.435  -0.478  -4.660  0.00  0.00    -0.294 OA
ATOM      6  C   LIG d   1       7.137  -2.064  -3.476  0.00  0.00     0.011 C 
ATOM      7  C   LIG d   1       5.890  -1.658  -2.680  0.00  0.00    -0.012 C 
ATOM      8  C   LIG d   1       4.740  -1.401  -3.656  0.00  0.00     0.127 A 
ATOM      9  C   LIG d   1       3.313  -1.542  -3.128  0.00  0.00     0.081 A 
ATOM     10  O   LIG d   1       3.903  -2.502  -4.007  0.00  0.00    -0.365 OA
ATOM     11  H   LIG d   1       7.932  -2.096  -2.871  0.00  0.00     0.034 H 
ATOM     12  H   LIG d   1       6.983  -3.047  -3.922  0.00  0.00     0.034 H 
ATOM     13  H   LIG d   1       6.098  -0.751  -2.113  0.00  0.00     0.030 H 
ATOM     14  H   LIG d   1       5.616  -2.461  -1.995  0.00  0.00     0.030 H 
ATOM     15  H   LIG d   1       3.183  -1.823  -2.083  0.00  0.00     0.059 H 
ATOM     16  H   LIG d   1       2.551  -0.879  -3.538  0.00  0.00     0.059 H 
ENDROOT
BRANCH   1  17
ATOM     17  C   LIG d   1       3.798  -0.235  -5.657  0.00  0.00     0.128 A 
ATOM     18  C   LIG d   1       4.066   0.001  -7.144  0.00  0.00     0.095 A 
ATOM     19  H   LIG d   1       5.104   0.086  -7.466  0.00  0.00     0.063 H 
ATOM     20  O   LIG d   1       3.629  -1.261  -6.638  0.00  0.00    -0.362 OA
BRANCH  18  21
ATOM     21  C   LIG d   1       3.057   0.844  -7.926  0.00  0.00    -0.005 C 
ATOM     22  H   LIG d   1       2.055   0.438  -7.782  0.00  0.00     0.033 H 
ATOM     23  H   LIG d   1       3.087   1.873  -7.565  0.00  0.00     0.033 H 
BRANCH  21  24
ATOM     24  C   LIG d   1       3.406   0.816  -9.392  0.00  0.00    -0.083 C 
ATOM     25  C   LIG d   1       2.752   0.024 -10.205  0.00  0.00    -0.080 C 
ATOM     26  H   LIG d   1       4.195   1.448  -9.771  0.00  0.00     0.057 H 
BRANCH  25  27
ATOM     27  C   LIG d   1       1.538  -0.724  -9.716  0.00  0.00    -0.044 C 
ATOM     28  H   LIG d   1       1.840  -1.704  -9.346  0.00  0.00     0.027 H 
ATOM     29  H   LIG d   1       1.065  -0.162  -8.911  0.00  0.00     0.027 H 
ATOM     30  H   LIG d   1       0.832  -0.847 -10.537  0.00  0.00     0.027 H 
ENDBRANCH  25  27
BRANCH  25  31
ATOM     31  C   LIG d   1       3.214  -0.141 -11.630  0.00  0.00    -0.044 C 
ATOM     32  H   LIG d   1       3.110   0.807 -12.157  0.00  0.00     0.027 H 
ATOM     33  H   LIG d   1       4.259  -0.450 -11.640  0.00  0.00     0.027 H 
ATOM     34  H   LIG d   1       2.606  -0.900 -12.123  0.00  0.00     0.027 H 
ENDBRANCH  25  31
ENDBRANCH  21  24
ENDBRANCH  18  21
BRANCH  17  35
ATOM     35  C   LIG d   1       2.538   0.387  -5.050  0.00  0.00    -0.030 C 
ATOM     36  H   LIG d   1       2.278  -0.141  -4.133  0.00  0.00     0.026 H 
ATOM     37  H   LIG d   1       2.726   1.436  -4.824  0.00  0.00     0.026 H 
ATOM     38  H   LIG d   1       1.716   0.309  -5.761  0.00  0.00     0.026 H 
ENDBRANCH  17  35
ENDBRANCH   1  17
BRANCH   1  39
ATOM     39  O   LIG d   1       5.229   0.927  -4.090  0.00  0.00    -0.380 OA
ATOM     40  H   LIG d   1       5.641   0.862  -3.218  0.00  0.00     0.210 HD
ENDBRANCH   1  39
BRANCH   2  41
ATOM     41  O   LIG d   1       5.958  -1.894  -6.311  0.00  0.00    -0.369 OA
BRANCH  41  42
ATOM     42  C   LIG d   1       6.998  -2.252  -7.224  0.00  0.00     0.037 C 
ATOM     43  H   LIG d   1       7.816  -2.721  -6.677  0.00  0.00     0.052 H 
ATOM     44  H   LIG d   1       6.606  -2.950  -7.963  0.00  0.00     0.052 H 
ATOM     45  H   LIG d   1       7.363  -1.358  -7.728  0.00  0.00     0.052 H 
ENDBRANCH  41  42
ENDBRANCH   2  41
TORSDOF 9
ENDMDL
MODEL 4
REMARK VINA RESULT:      -5.0      1.672      2.262
REMARK  9 active torsions:
REMARK  status: ('A' for Active; 'I' for Inactive)
REMARK    1  A    between atoms: C_1  and  C_2 
REMARK    2  A    between atoms: C_2  and  C_23 
REMARK    3  A    between atoms: C_3  and  C_4 
REMARK    4  A    between atoms: C_4  and  C_5 
REMARK    5  A    between atoms: C_7  and  C_9 
REMARK    6  A    between atoms: C_7  and  C_10 
REMARK    7  A    between atoms: C_10  and  O_22 
REMARK    8  A    between atoms: C_11  and  O_20 
REMARK    9  A    between atoms: O_20  and  C_21 
ROOT
ATOM      1  C   LIG d   1       4.506  -0.793  -4.645  0.00  0.00     0.161 C 
ATOM      2  C   LIG d   1       5.029   0.333  -3.744  0.00  0.00     0.150 C 
ATOM      3  H   LIG d   1       4.820   1.217  -4.160  0.00  0.00     0.071 H 
ATOM      4  C   LIG d   1       4.356   0.223  -2.395  0.00  0.00     0.165 C 
ATOM      5  O   LIG d   1       3.765   1.165  -1.924  0.00  0.00    -0.294 OA
ATOM      6  C   LIG d   1       4.436  -1.088  -1.646  0.00  0.00     0.011 C 
ATOM      7  C   LIG d   1       3.917  -2.206  -2.559  0.00  0.00    -0.012 C 
ATOM      8  C   LIG d   1       4.639  -2.125  -3.905  0.00  0.00     0.127 A 
ATOM      9  C   LIG d   1       4.731  -3.400  -4.742  0.00  0.00     0.081 A 
ATOM     10  O   LIG d   1       5.858  -2.853  -4.054  0.00  0.00    -0.365 OA
ATOM     11  H   LIG d   1       3.877  -1.034  -0.820  0.00  0.00     0.034 H 
ATOM     12  H   LIG d   1       5.471  -1.291  -1.370  0.00  0.00     0.034 H 
ATOM     13  H   LIG d   1       2.845  -2.084  -2.712  0.00  0.00     0.030 H 
ATOM     14  H   LIG d   1       4.111  -3.174  -2.097  0.00  0.00     0.030 H 
ATOM     15  H   LIG d   1       4.280  -4.306  -4.338  0.00  0.00     0.059 H 
ATOM     16  H   LIG d   1       4.700  -3.300  -5.827  0.00  0.00     0.059 H 
ENDROOT
BRANCH   1  17
ATOM     17  C   LIG d   1       5.330  -0.839  -5.935  0.00  0.00     0.128 A 
ATOM     18  C   LIG d   1       4.591  -1.119  -7.244  0.00  0.00     0.095 A 
ATOM     19  H   LIG d   1       3.512  -1.271  -7.196  0.00  0.00     0.063 H 
ATOM     20  O   LIG d   1       5.094   0.176  -6.912  0.00  0.00    -0.362 OA
BRANCH  18  21
ATOM     21  C   LIG d   1       5.326  -1.916  -8.323  0.00  0.00    -0.005 C 
ATOM     22  H   LIG d   1       6.142  -2.476  -7.867  0.00  0.00     0.033 H 
ATOM     23  H   LIG d   1       4.632  -2.609  -8.799  0.00  0.00     0.033 H 
BRANCH  21  24
ATOM     24  C   LIG d   1       5.881  -0.970  -9.357  0.00  0.00    -0.083 C 
ATOM     25  C   LIG d   1       7.140  -1.052  -9.711  0.00  0.00    -0.080 C 
ATOM     26  H   LIG d   1       5.241  -0.225  -9.806  0.00  0.00     0.057 H 
BRANCH  25  27
ATOM     27  C   LIG d   1       7.987  -2.199  -9.223  0.00  0.00    -0.044 C 
ATOM     28  H   LIG d   1       8.526  -1.896  -8.325  0.00  0.00     0.027 H 
ATOM     29  H   LIG d   1       7.348  -3.051  -8.991  0.00  0.00     0.027 H 
ATOM     30  H   LIG d   1       8.701  -2.479  -9.997  0.00  0.00     0.027 H 
ENDBRANCH  25  27
BRANCH  25  31
ATOM     31  C   LIG d   1       7.741   0.000 -10.606  0.00  0.00    -0.044 C 
ATOM     32  H   LIG d   1       7.275  -0.050 -11.590  0.00  0.00     0.027 H 
ATOM     33  H   LIG d   1       7.572   0.986 -10.173  0.00  0.00     0.027 H 
ATOM     34  H   LIG d   1       8.813  -0.175 -10.702  0.00  0.00     0.027 H 
ENDBRANCH  25  31
ENDBRANCH  21  24
ENDBRANCH  18  21
BRANCH  17  35
ATOM     35  C   LIG d   1       6.756  -1.375  -5.791  0.00  0.00    -0.030 C 
ATOM     36  H   LIG d   1       6.972  -2.060  -6.611  0.00  0.00     0.026 H 
ATOM     37  H   LIG d   1       7.460  -0.543  -5.819  0.00  0.00     0.026 H 
ATOM     38  H   LIG d   1       6.852  -1.902  -4.842  0.00  0.00     0.026 H 
ENDBRANCH  17  35
ENDBRANCH   1  17
BRANCH   1  39
ATOM     39  O   LIG d   1       3.133  -0.555  -4.960  0.00  0.00    -0.380 OA
ATOM     40  H   LIG d   1       2.614  -0.213  -4.220  0.00  0.00     0.210 HD
ENDBRANCH   1  39
BRANCH   2  41
ATOM     41  O   LIG d   1       6.444   0.204  -3.587  0.00  0.00    -0.369 OA
BRANCH  41  42
ATOM     42  C   LIG d   1       7.149   1.446  -3.623  0.00  0.00     0.037 C 
ATOM     43  H   LIG d   1       6.517   2.234  -3.212  0.00  0.00     0.052 H 
ATOM     44  H   LIG d   1       8.060   1.364  -3.031  0.00  0.00     0.052 H 
ATOM     45  H   LIG d   1       7.406   1.688  -4.654  0.00  0.00     0.052 H 
ENDBRANCH  41  42
ENDBRANCH   2  41
TORSDOF 9
ENDMDL
MODEL 5
REMARK VINA RESULT:      -5.0      2.497      5.312
REMARK  9 active torsions:
REMARK  status: ('A' for Active; 'I' for Inactive)
REMARK    1  A    between atoms: C_1  and  C_2 
REMARK    2  A    between atoms: C_2  and  C_23 
REMARK    3  A    between atoms: C_3  and  C_4 
REMARK    4  A    between atoms: C_4  and  C_5 
REMARK    5  A    between atoms: C_7  and  C_9 
REMARK    6  A    between atoms: C_7  and  C_10 
REMARK    7  A    between atoms: C_10  and  O_22 
REMARK    8  A    between atoms: C_11  and  O_20 
REMARK    9  A    between atoms: O_20  and  C_21 
ROOT
ATOM      1  C   LIG d   1       5.516  -0.858  -4.190  0.00  0.00     0.161 C 
ATOM      2  C   LIG d   1       4.056  -0.662  -4.620  0.00  0.00     0.150 C 
ATOM      3  H   LIG d   1       3.673  -1.540  -4.908  0.00  0.00     0.071 H 
ATOM      4  C   LIG d   1       3.276  -0.119  -3.444  0.00  0.00     0.165 C 
ATOM      5  O   LIG d   1       2.280  -0.680  -3.054  0.00  0.00    -0.294 OA
ATOM      6  C   LIG d   1       3.765   1.141  -2.766  0.00  0.00     0.011 C 
ATOM      7  C   LIG d   1       5.226   0.935  -2.347  0.00  0.00    -0.012 C 
ATOM      8  C   LIG d   1       6.025   0.436  -3.553  0.00  0.00     0.127 A 
ATOM      9  C   LIG d   1       7.531   0.694  -3.567  0.00  0.00     0.081 A 
ATOM     10  O   LIG d   1       6.623   1.411  -4.407  0.00  0.00    -0.365 OA
ATOM     11  H   LIG d   1       3.202   1.326  -1.961  0.00  0.00     0.034 H 
ATOM     12  H   LIG d   1       3.697   1.981  -3.457  0.00  0.00     0.034 H 
ATOM     13  H   LIG d   1       5.276   0.198  -1.546  0.00  0.00     0.030 H 
ATOM     14  H   LIG d   1       5.643   1.881  -1.998  0.00  0.00     0.030 H 
ATOM     15  H   LIG d   1       7.963   1.224  -2.718  0.00  0.00     0.059 H 
ATOM     16  H   LIG d   1       8.170  -0.055  -4.032  0.00  0.00     0.059 H 
ENDROOT
BRANCH   1  17
ATOM     17  C   LIG d   1       6.368  -1.195  -5.416  0.00  0.00     0.128 A 
ATOM     18  C   LIG d   1       7.610  -2.063  -5.206  0.00  0.00     0.095 A 
ATOM     19  H   LIG d   1       7.827  -2.401  -4.192  0.00  0.00     0.063 H 
ATOM     20  O   LIG d   1       6.426  -2.561  -5.832  0.00  0.00    -0.362 OA
BRANCH  18  21
ATOM     21  C   LIG d   1       8.827  -1.794  -6.092  0.00  0.00    -0.005 C 
ATOM     22  H   LIG d   1       8.988  -2.643  -6.755  0.00  0.00     0.033 H 
ATOM     23  H   LIG d   1       8.653  -0.896  -6.686  0.00  0.00     0.033 H 
BRANCH  21  24
ATOM     24  C   LIG d   1      10.044  -1.594  -5.226  0.00  0.00    -0.083 C 
ATOM     25  C   LIG d   1      10.738  -0.486  -5.316  0.00  0.00    -0.080 C 
ATOM     26  H   LIG d   1      10.345  -2.364  -4.530  0.00  0.00     0.057 H 
BRANCH  25  27
ATOM     27  C   LIG d   1      10.223   0.659  -6.151  0.00  0.00    -0.044 C 
ATOM     28  H   LIG d   1      10.775   1.566  -5.902  0.00  0.00     0.027 H 
ATOM     29  H   LIG d   1      10.359   0.430  -7.207  0.00  0.00     0.027 H 
ATOM     30  H   LIG d   1       9.163   0.811  -5.945  0.00  0.00     0.027 H 
ENDBRANCH  25  27
BRANCH  25  31
ATOM     31  C   LIG d   1      12.050  -0.356  -4.587  0.00  0.00    -0.044 C 
ATOM     32  H   LIG d   1      12.333  -1.323  -4.173  0.00  0.00     0.027 H 
ATOM     33  H   LIG d   1      12.819  -0.017  -5.281  0.00  0.00     0.027 H 
ATOM     34  H   LIG d   1      11.946   0.369  -3.780  0.00  0.00     0.027 H 
ENDBRANCH  25  31
ENDBRANCH  21  24
ENDBRANCH  18  21
BRANCH  17  35
ATOM     35  C   LIG d   1       6.426  -0.116  -6.500  0.00  0.00    -0.030 C 
ATOM     36  H   LIG d   1       6.688   0.840  -6.047  0.00  0.00     0.026 H 
ATOM     37  H   LIG d   1       7.180  -0.385  -7.239  0.00  0.00     0.026 H 
ATOM     38  H   LIG d   1       5.454  -0.035  -6.985  0.00  0.00     0.026 H 
ENDBRANCH  17  35
ENDBRANCH   1  17
BRANCH   1  39
ATOM     39  O   LIG d   1       5.596  -1.923  -3.241  0.00  0.00    -0.380 OA
ATOM     40  H   LIG d   1       4.889  -1.917  -2.583  0.00  0.00     0.210 HD
ENDBRANCH   1  39
BRANCH   2  41
ATOM     41  O   LIG d   1       3.996   0.264  -5.706  0.00  0.00    -0.369 OA
BRANCH  41  42
ATOM     42  C   LIG d   1       2.764   0.232  -6.430  0.00  0.00     0.037 C 
ATOM     43  H   LIG d   1       2.960  -0.029  -7.470  0.00  0.00     0.052 H 
ATOM     44  H   LIG d   1       2.102  -0.511  -5.987  0.00  0.00     0.052 H 
ATOM     45  H   LIG d   1       2.291   1.213  -6.385  0.00  0.00     0.052 H 
ENDBRANCH  41  42
ENDBRANCH   2  41
TORSDOF 9
ENDMDL
MODEL 6
REMARK VINA RESULT:      -4.9      3.245      4.391
REMARK  9 active torsions:
REMARK  status: ('A' for Active; 'I' for Inactive)
REMARK    1  A    between atoms: C_1  and  C_2 
REMARK    2  A    between atoms: C_2  and  C_23 
REMARK    3  A    between atoms: C_3  and  C_4 
REMARK    4  A    between atoms: C_4  and  C_5 
REMARK    5  A    between atoms: C_7  and  C_9 
REMARK    6  A    between atoms: C_7  and  C_10 
REMARK    7  A    between atoms: C_10  and  O_22 
REMARK    8  A    between atoms: C_11  and  O_20 
REMARK    9  A    between atoms: O_20  and  C_21 
ROOT
ATOM      1  C   LIG d   1       5.459  -0.754  -4.756  0.00  0.00     0.161 C 
ATOM      2  C   LIG d   1       4.539  -0.002  -3.785  0.00  0.00     0.150 C 
ATOM      3  H   LIG d   1       4.130   0.782  -4.253  0.00  0.00     0.071 H 
ATOM      4  C   LIG d   1       3.456  -0.947  -3.316  0.00  0.00     0.165 C 
ATOM      5  O   LIG d   1       2.291  -0.655  -3.436  0.00  0.00    -0.294 OA
ATOM      6  C   LIG d   1       3.860  -2.264  -2.694  0.00  0.00     0.011 C 
ATOM      7  C   LIG d   1       4.783  -3.004  -3.670  0.00  0.00    -0.012 C 
ATOM      8  C   LIG d   1       5.909  -2.062  -4.102  0.00  0.00     0.127 A 
ATOM      9  C   LIG d   1       7.217  -2.688  -4.585  0.00  0.00     0.081 A 
ATOM     10  O   LIG d   1       7.100  -2.040  -3.316  0.00  0.00    -0.365 OA
ATOM     11  H   LIG d   1       3.043  -2.812  -2.515  0.00  0.00     0.034 H 
ATOM     12  H   LIG d   1       4.387  -2.083  -1.757  0.00  0.00     0.034 H 
ATOM     13  H   LIG d   1       4.214  -3.318  -4.545  0.00  0.00     0.030 H 
ATOM     14  H   LIG d   1       5.208  -3.880  -3.178  0.00  0.00     0.030 H 
ATOM     15  H   LIG d   1       7.285  -3.775  -4.595  0.00  0.00     0.059 H 
ATOM     16  H   LIG d   1       7.767  -2.171  -5.370  0.00  0.00     0.059 H 
ENDROOT
BRANCH   1  17
ATOM     17  C   LIG d   1       6.683   0.108  -5.072  0.00  0.00     0.128 A 
ATOM     18  C   LIG d   1       7.459  -0.196  -6.354  0.00  0.00     0.095 A 
ATOM     19  H   LIG d   1       7.102  -1.013  -6.982  0.00  0.00     0.063 H 
ATOM     20  O   LIG d   1       6.623   0.954  -6.222  0.00  0.00    -0.362 OA
BRANCH  18  21
ATOM     21  C   LIG d   1       8.974   0.016  -6.339  0.00  0.00    -0.005 C 
ATOM     22  H   LIG d   1       9.264   0.492  -5.402  0.00  0.00     0.033 H 
ATOM     23  H   LIG d   1       9.477  -0.947  -6.429  0.00  0.00     0.033 H 
BRANCH  21  24
ATOM     24  C   LIG d   1       9.369   0.899  -7.495  0.00  0.00    -0.083 C 
ATOM     25  C   LIG d   1       9.656   2.160  -7.287  0.00  0.00    -0.080 C 
ATOM     26  H   LIG d   1       9.416   0.491  -8.494  0.00  0.00     0.057 H 
BRANCH  25  27
ATOM     27  C   LIG d   1       9.766   2.686  -5.879  0.00  0.00    -0.044 C 
ATOM     28  H   LIG d   1       8.976   3.417  -5.702  0.00  0.00     0.027 H 
ATOM     29  H   LIG d   1       9.664   1.862  -5.174  0.00  0.00     0.027 H 
ATOM     30  H   LIG d   1      10.738   3.162  -5.744  0.00  0.00     0.027 H 
ENDBRANCH  25  27
BRANCH  25  31
ATOM     31  C   LIG d   1       9.876   3.085  -8.456  0.00  0.00    -0.044 C 
ATOM     32  H   LIG d   1       9.792   2.523  -9.385  0.00  0.00     0.027 H 
ATOM     33  H   LIG d   1       9.126   3.876  -8.440  0.00  0.00     0.027 H 
ATOM     34  H   LIG d   1      10.870   3.527  -8.387  0.00  0.00     0.027 H 
ENDBRANCH  25  31
ENDBRANCH  21  24
ENDBRANCH  18  21
BRANCH  17  35
ATOM     35  C   LIG d   1       7.474   0.607  -3.860  0.00  0.00    -0.030 C 
ATOM     36  H   LIG d   1       7.785   1.637  -4.028  0.00  0.00     0.026 H 
ATOM     37  H   LIG d   1       6.844   0.558  -2.972  0.00  0.00     0.026 H 
ATOM     38  H   LIG d   1       8.353  -0.021  -3.717  0.00  0.00     0.026 H 
ENDBRANCH  17  35
ENDBRANCH   1  17
BRANCH   1  39
ATOM     39  O   LIG d   1       4.749  -1.041  -5.962  0.00  0.00    -0.380 OA
ATOM     40  H   LIG d   1       5.179  -0.706  -6.760  0.00  0.00     0.210 HD
ENDBRANCH   1  39
BRANCH   2  41
ATOM     41  O   LIG d   1       5.297   0.456  -2.664  0.00  0.00    -0.369 OA
BRANCH  41  42
ATOM     42  C   LIG d   1       4.519   1.131  -1.673  0.00  0.00     0.037 C 
ATOM     43  H   LIG d   1       4.566   0.577  -0.735  0.00  0.00     0.052 H 
ATOM     44  H   LIG d   1       4.914   2.135  -1.523  0.00  0.00     0.052 H 
ATOM     45  H   LIG d   1       3.483   1.193  -2.005  0.00  0.00     0.052 H 
ENDBRANCH  41  42
ENDBRANCH   2  41
TORSDOF 9
ENDMDL
MODEL 7
REMARK VINA RESULT:      -4.9      2.555      4.815
REMARK  9 active torsions:
REMARK  status: ('A' for Active; 'I' for Inactive)
REMARK    1  A    between atoms: C_1  and  C_2 
REMARK    2  A    between atoms: C_2  and  C_23 
REMARK    3  A    between atoms: C_3  and  C_4 
REMARK    4  A    between atoms: C_4  and  C_5 
REMARK    5  A    between atoms: C_7  and  C_9 
REMARK    6  A    between atoms: C_7  and  C_10 
REMARK    7  A    between atoms: C_10  and  O_22 
REMARK    8  A    between atoms: C_11  and  O_20 
REMARK    9  A    between atoms: O_20  and  C_21 
ROOT
ATOM      1  C   LIG d   1       6.238  -0.720  -3.935  0.00  0.00     0.161 C 
ATOM      2  C   LIG d   1       5.551  -1.685  -4.909  0.00  0.00     0.150 C 
ATOM      3  H   LIG d   1       6.240  -2.253  -5.358  0.00  0.00     0.071 H 
ATOM      4  C   LIG d   1       4.591  -2.556  -4.130  0.00  0.00     0.165 C 
ATOM      5  O   LIG d   1       4.663  -3.760  -4.195  0.00  0.00    -0.294 OA
ATOM      6  C   LIG d   1       3.541  -1.892  -3.269  0.00  0.00     0.011 C 
ATOM      7  C   LIG d   1       4.239  -0.927  -2.303  0.00  0.00    -0.012 C 
ATOM      8  C   LIG d   1       5.169  -0.010  -3.101  0.00  0.00     0.127 A 
ATOM      9  C   LIG d   1       5.521   1.348  -2.497  0.00  0.00     0.081 A 
ATOM     10  O   LIG d   1       4.631   1.211  -3.607  0.00  0.00    -0.365 OA
ATOM     11  H   LIG d   1       3.043  -2.590  -2.754  0.00  0.00     0.034 H 
ATOM     12  H   LIG d   1       2.843  -1.341  -3.899  0.00  0.00     0.034 H 
ATOM     13  H   LIG d   1       4.820  -1.493  -1.576  0.00  0.00     0.030 H 
ATOM     14  H   LIG d   1       3.492  -0.326  -1.784  0.00  0.00     0.030 H 
ATOM     15  H   LIG d   1       5.091   1.600  -1.528  0.00  0.00     0.059 H 
ATOM     16  H   LIG d   1       6.516   1.748  -2.691  0.00  0.00     0.059 H 
ENDROOT
BRANCH   1  17
ATOM     17  C   LIG d   1       7.044   0.315  -4.723  0.00  0.00     0.128 A 
ATOM     18  C   LIG d   1       7.583  -0.094  -6.094  0.00  0.00     0.095 A 
ATOM     19  H   LIG d   1       7.367  -1.104  -6.445  0.00  0.00     0.063 H 
ATOM     20  O   LIG d   1       6.485   0.806  -5.943  0.00  0.00    -0.362 OA
BRANCH  18  21
ATOM     21  C   LIG d   1       8.928   0.488  -6.535  0.00  0.00    -0.005 C 
ATOM     22  H   LIG d   1       9.319   1.132  -5.748  0.00  0.00     0.033 H 
ATOM     23  H   LIG d   1       9.631  -0.324  -6.723  0.00  0.00     0.033 H 
BRANCH  21  24
ATOM     24  C   LIG d   1       8.739   1.291  -7.796  0.00  0.00    -0.083 C 
ATOM     25  C   LIG d   1       8.952   2.583  -7.788  0.00  0.00    -0.080 C 
ATOM     26  H   LIG d   1       8.427   0.800  -8.707  0.00  0.00     0.057 H 
BRANCH  25  27
ATOM     27  C   LIG d   1       9.556   3.239  -6.573  0.00  0.00    -0.044 C 
ATOM     28  H   LIG d   1      10.253   4.016  -6.888  0.00  0.00     0.027 H 
ATOM     29  H   LIG d   1       8.766   3.684  -5.969  0.00  0.00     0.027 H 
ATOM     30  H   LIG d   1      10.088   2.492  -5.983  0.00  0.00     0.027 H 
ENDBRANCH  25  27
BRANCH  25  31
ATOM     31  C   LIG d   1       8.593   3.414  -8.992  0.00  0.00    -0.044 C 
ATOM     32  H   LIG d   1       7.568   3.769  -8.896  0.00  0.00     0.027 H 
ATOM     33  H   LIG d   1       9.269   4.267  -9.060  0.00  0.00     0.027 H 
ATOM     34  H   LIG d   1       8.685   2.806  -9.893  0.00  0.00     0.027 H 
ENDBRANCH  25  31
ENDBRANCH  21  24
ENDBRANCH  18  21
BRANCH  17  35
ATOM     35  C   LIG d   1       7.885   1.279  -3.883  0.00  0.00    -0.030 C 
ATOM     36  H   LIG d   1       8.941   1.041  -4.005  0.00  0.00     0.026 H 
ATOM     37  H   LIG d   1       7.703   2.301  -4.215  0.00  0.00     0.026 H 
ATOM     38  H   LIG d   1       7.608   1.183  -2.834  0.00  0.00     0.026 H 
ENDBRANCH  17  35
ENDBRANCH   1  17
BRANCH   1  39
ATOM     39  O   LIG d   1       7.109  -1.453  -3.071  0.00  0.00    -0.380 OA
ATOM     40  H   LIG d   1       6.767  -1.571  -2.176  0.00  0.00     0.210 HD
ENDBRANCH   1  39
BRANCH   2  41
ATOM     41  O   LIG d   1       4.831  -0.941  -5.894  0.00  0.00    -0.369 OA
BRANCH  41  42
ATOM     42  C   LIG d   1       4.387  -1.723  -7.005  0.00  0.00     0.037 C 
ATOM     43  H   LIG d   1       5.246  -2.019  -7.608  0.00  0.00     0.052 H 
ATOM     44  H   LIG d   1       3.875  -2.613  -6.640  0.00  0.00     0.052 H 
ATOM     45  H   LIG d   1       3.702  -1.133  -7.613  0.00  0.00     0.052 H 
ENDBRANCH  41  42
ENDBRANCH   2  41
TORSDOF 9
ENDMDL
MODEL 8
REMARK VINA RESULT:      -4.8      2.522      4.555
REMARK  9 active torsions:
REMARK  status: ('A' for Active; 'I' for Inactive)
REMARK    1  A    between atoms: C_1  and  C_2 
REMARK    2  A    between atoms: C_2  and  C_23 
REMARK    3  A    between atoms: C_3  and  C_4 
REMARK    4  A    between atoms: C_4  and  C_5 
REMARK    5  A    between atoms: C_7  and  C_9 
REMARK    6  A    between atoms: C_7  and  C_10 
REMARK    7  A    between atoms: C_10  and  O_22 
REMARK    8  A    between atoms: C_11  and  O_20 
REMARK    9  A    between atoms: O_20  and  C_21 
ROOT
ATOM      1  C   LIG d   1       5.591  -0.800  -3.945  0.00  0.00     0.161 C 
ATOM      2  C   LIG d   1       4.157  -0.708  -4.482  0.00  0.00     0.150 C 
ATOM      3  H   LIG d   1       3.812  -1.627  -4.668  0.00  0.00     0.071 H 
ATOM      4  C   LIG d   1       3.294  -0.033  -3.439  0.00  0.00     0.165 C 
ATOM      5  O   LIG d   1       2.289  -0.566  -3.034  0.00  0.00    -0.294 OA
ATOM      6  C   LIG d   1       3.714   1.321  -2.913  0.00  0.00     0.011 C 
ATOM      7  C   LIG d   1       5.150   1.218  -2.385  0.00  0.00    -0.012 C 
ATOM      8  C   LIG d   1       6.032   0.584  -3.463  0.00  0.00     0.127 A 
ATOM      9  C   LIG d   1       7.530   0.882  -3.425  0.00  0.00     0.081 A 
ATOM     10  O   LIG d   1       6.661   1.451  -4.407  0.00  0.00    -0.365 OA
ATOM     11  H   LIG d   1       3.098   1.597  -2.176  0.00  0.00     0.034 H 
ATOM     12  H   LIG d   1       3.670   2.057  -3.716  0.00  0.00     0.034 H 
ATOM     13  H   LIG d   1       5.167   0.599  -1.489  0.00  0.00     0.030 H 
ATOM     14  H   LIG d   1       5.524   2.214  -2.147  0.00  0.00     0.030 H 
ATOM     15  H   LIG d   1       7.898   1.535  -2.634  0.00  0.00     0.059 H 
ATOM     16  H   LIG d   1       8.213   0.096  -3.745  0.00  0.00     0.059 H 
ENDROOT
BRANCH   1  17
ATOM     17  C   LIG d   1       6.525  -1.274  -5.062  0.00  0.00     0.128 A 
ATOM     18  C   LIG d   1       5.923  -2.121  -6.184  0.00  0.00     0.095 A 
ATOM     19  H   LIG d   1       4.857  -2.346  -6.134  0.00  0.00     0.063 H 
ATOM     20  O   LIG d   1       6.307  -0.759  -6.376  0.00  0.00    -0.362 OA
BRANCH  18  21
ATOM     21  C   LIG d   1       6.802  -3.206  -6.809  0.00  0.00    -0.005 C 
ATOM     22  H   LIG d   1       6.937  -2.997  -7.870  0.00  0.00     0.033 H 
ATOM     23  H   LIG d   1       7.774  -3.216  -6.314  0.00  0.00     0.033 H 
BRANCH  21  24
ATOM     24  C   LIG d   1       6.139  -4.549  -6.641  0.00  0.00    -0.083 C 
ATOM     25  C   LIG d   1       6.702  -5.468  -5.896  0.00  0.00    -0.080 C 
ATOM     26  H   LIG d   1       5.200  -4.754  -7.134  0.00  0.00     0.057 H 
BRANCH  25  27
ATOM     27  C   LIG d   1       7.913  -5.128  -5.066  0.00  0.00    -0.044 C 
ATOM     28  H   LIG d   1       7.731  -5.405  -4.027  0.00  0.00     0.027 H 
ATOM     29  H   LIG d   1       8.777  -5.676  -5.441  0.00  0.00     0.027 H 
ATOM     30  H   LIG d   1       8.107  -4.057  -5.127  0.00  0.00     0.027 H 
ENDBRANCH  25  27
BRANCH  25  31
ATOM     31  C   LIG d   1       6.138  -6.865  -5.868  0.00  0.00    -0.044 C 
ATOM     32  H   LIG d   1       6.680  -7.461  -5.134  0.00  0.00     0.027 H 
ATOM     33  H   LIG d   1       5.083  -6.826  -5.599  0.00  0.00     0.027 H 
ATOM     34  H   LIG d   1       6.244  -7.318  -6.854  0.00  0.00     0.027 H 
ENDBRANCH  25  31
ENDBRANCH  21  24
ENDBRANCH  18  21
BRANCH  17  35
ATOM     35  C   LIG d   1       7.967  -1.567  -4.640  0.00  0.00    -0.030 C 
ATOM     36  H   LIG d   1       8.649  -1.232  -5.420  0.00  0.00     0.026 H 
ATOM     37  H   LIG d   1       8.187  -1.039  -3.712  0.00  0.00     0.026 H 
ATOM     38  H   LIG d   1       8.089  -2.639  -4.485  0.00  0.00     0.026 H 
ENDBRANCH  17  35
ENDBRANCH   1  17
BRANCH   1  39
ATOM     39  O   LIG d   1       5.637  -1.723  -2.856  0.00  0.00    -0.380 OA
ATOM     40  H   LIG d   1       4.772  -1.917  -2.469  0.00  0.00     0.210 HD
ENDBRANCH   1  39
BRANCH   2  41
ATOM     41  O   LIG d   1       4.144   0.061  -5.686  0.00  0.00    -0.369 OA
BRANCH  41  42
ATOM     42  C   LIG d   1       2.870   0.105  -6.333  0.00  0.00     0.037 C 
ATOM     43  H   LIG d   1       2.610   1.141  -6.552  0.00  0.00     0.052 H 
ATOM     44  H   LIG d   1       2.915  -0.463  -7.262  0.00  0.00     0.052 H 
ATOM     45  H   LIG d   1       2.115  -0.329  -5.678  0.00  0.00     0.052 H 
ENDBRANCH  41  42
ENDBRANCH   2  41
TORSDOF 9
ENDMDL
MODEL 9
REMARK VINA RESULT:      -4.8      1.405      2.590
REMARK  9 active torsions:
REMARK  status: ('A' for Active; 'I' for Inactive)
REMARK    1  A    between atoms: C_1  and  C_2 
REMARK    2  A    between atoms: C_2  and  C_23 
REMARK    3  A    between atoms: C_3  and  C_4 
REMARK    4  A    between atoms: C_4  and  C_5 
REMARK    5  A    between atoms: C_7  and  C_9 
REMARK    6  A    between atoms: C_7  and  C_10 
REMARK    7  A    between atoms: C_10  and  O_22 
REMARK    8  A    between atoms: C_11  and  O_20 
REMARK    9  A    between atoms: O_20  and  C_21 
ROOT
ATOM      1  C   LIG d   1       5.754  -1.163  -5.476  0.00  0.00     0.161 C 
ATOM      2  C   LIG d   1       4.302  -1.085  -4.989  0.00  0.00     0.150 C 
ATOM      3  H   LIG d   1       3.741  -1.727  -5.511  0.00  0.00     0.071 H 
ATOM      4  C   LIG d   1       4.265  -1.443  -3.520  0.00  0.00     0.165 C 
ATOM      5  O   LIG d   1       3.543  -2.324  -3.120  0.00  0.00    -0.294 OA
ATOM      6  C   LIG d   1       5.149  -0.676  -2.563  0.00  0.00     0.011 C 
ATOM      7  C   LIG d   1       6.597  -0.756  -3.062  0.00  0.00    -0.012 C 
ATOM      8  C   LIG d   1       6.639  -0.342  -4.535  0.00  0.00     0.127 A 
ATOM      9  C   LIG d   1       7.957   0.199  -5.086  0.00  0.00     0.081 A 
ATOM     10  O   LIG d   1       6.829   1.040  -4.835  0.00  0.00    -0.365 OA
ATOM     11  H   LIG d   1       5.079  -1.079  -1.651  0.00  0.00     0.034 H 
ATOM     12  H   LIG d   1       4.831   0.366  -2.523  0.00  0.00     0.034 H 
ATOM     13  H   LIG d   1       6.963  -1.777  -2.960  0.00  0.00     0.030 H 
ATOM     14  H   LIG d   1       7.223  -0.083  -2.475  0.00  0.00     0.030 H 
ATOM     15  H   LIG d   1       8.803   0.267  -4.402  0.00  0.00     0.059 H 
ATOM     16  H   LIG d   1       8.204  -0.024  -6.123  0.00  0.00     0.059 H 
ENDROOT
BRANCH   1  17
ATOM     17  C   LIG d   1       5.849  -0.595  -6.894  0.00  0.00     0.128 A 
ATOM     18  C   LIG d   1       4.559  -0.484  -7.706  0.00  0.00     0.095 A 
ATOM     19  H   LIG d   1       3.632  -0.814  -7.236  0.00  0.00     0.063 H 
ATOM     20  O   LIG d   1       5.214   0.658  -7.153  0.00  0.00    -0.362 OA
BRANCH  18  21
ATOM     21  C   LIG d   1       4.647  -0.695  -9.219  0.00  0.00    -0.005 C 
ATOM     22  H   LIG d   1       4.965   0.232  -9.697  0.00  0.00     0.033 H 
ATOM     23  H   LIG d   1       5.371  -1.481  -9.434  0.00  0.00     0.033 H 
BRANCH  21  24
ATOM     24  C   LIG d   1       3.296  -1.097  -9.750  0.00  0.00    -0.083 C 
ATOM     25  C   LIG d   1       2.848  -0.574 -10.865  0.00  0.00    -0.080 C 
ATOM     26  H   LIG d   1       2.696  -1.817  -9.212  0.00  0.00     0.057 H 
BRANCH  25  27
ATOM     27  C   LIG d   1       3.750   0.290 -11.708  0.00  0.00    -0.044 C 
ATOM     28  H   LIG d   1       4.493   0.770 -11.070  0.00  0.00     0.027 H 
ATOM     29  H   LIG d   1       4.255  -0.327 -12.451  0.00  0.00     0.027 H 
ATOM     30  H   LIG d   1       3.157   1.053 -12.211  0.00  0.00     0.027 H 
ENDBRANCH  25  27
BRANCH  25  31
ATOM     31  C   LIG d   1       1.430  -0.835 -11.304  0.00  0.00    -0.044 C 
ATOM     32  H   LIG d   1       1.373  -1.812 -11.783  0.00  0.00     0.027 H 
ATOM     33  H   LIG d   1       0.772  -0.816 -10.436  0.00  0.00     0.027 H 
ATOM     34  H   LIG d   1       1.122  -0.065 -12.011  0.00  0.00     0.027 H 
ENDBRANCH  25  31
ENDBRANCH  21  24
ENDBRANCH  18  21
BRANCH  17  35
ATOM     35  C   LIG d   1       7.144  -0.909  -7.648  0.00  0.00    -0.030 C 
ATOM     36  H   LIG d   1       7.009  -1.813  -8.241  0.00  0.00     0.026 H 
ATOM     37  H   LIG d   1       7.390  -0.076  -8.307  0.00  0.00     0.026 H 
ATOM     38  H   LIG d   1       7.953  -1.059  -6.933  0.00  0.00     0.026 H 
ENDBRANCH  17  35
ENDBRANCH   1  17
BRANCH   1  39
ATOM     39  O   LIG d   1       6.188  -2.524  -5.473  0.00  0.00    -0.380 OA
ATOM     40  H   LIG d   1       6.768  -2.751  -4.734  0.00  0.00     0.210 HD
ENDBRANCH   1  39
BRANCH   2  41
ATOM     41  O   LIG d   1       3.804   0.241  -5.173  0.00  0.00    -0.369 OA
BRANCH  41  42
ATOM     42  C   LIG d   1       2.418   0.391  -4.859  0.00  0.00     0.037 C 
ATOM     43  H   LIG d   1       2.312   0.683  -3.814  0.00  0.00     0.052 H 
ATOM     44  H   LIG d   1       1.983   1.159  -5.497  0.00  0.00     0.052 H 
ATOM     45  H   LIG d   1       1.904  -0.555  -5.025  0.00  0.00     0.052 H 
ENDBRANCH  41  42
ENDBRANCH   2  41
TORSDOF 9
ENDMDL
MODEL 10
REMARK VINA RESULT:      -4.8      3.408      5.621
REMARK  9 active torsions:
REMARK  status: ('A' for Active; 'I' for Inactive)
REMARK    1  A    between atoms: C_1  and  C_2 
REMARK    2  A    between atoms: C_2  and  C_23 
REMARK    3  A    between atoms: C_3  and  C_4 
REMARK    4  A    between atoms: C_4  and  C_5 
REMARK    5  A    between atoms: C_7  and  C_9 
REMARK    6  A    between atoms: C_7  and  C_10 
REMARK    7  A    between atoms: C_10  and  O_22 
REMARK    8  A    between atoms: C_11  and  O_20 
REMARK    9  A    between atoms: O_20  and  C_21 
ROOT
ATOM      1  C   LIG d   1       5.874  -0.735  -4.697  0.00  0.00     0.161 C 
ATOM      2  C   LIG d   1       4.910   0.087  -3.832  0.00  0.00     0.150 C 
ATOM      3  H   LIG d   1       4.693   0.944  -4.298  0.00  0.00     0.071 H 
ATOM      4  C   LIG d   1       3.648  -0.718  -3.618  0.00  0.00     0.165 C 
ATOM      5  O   LIG d   1       2.569  -0.257  -3.902  0.00  0.00    -0.294 OA
ATOM      6  C   LIG d   1       3.763  -2.112  -3.044  0.00  0.00     0.011 C 
ATOM      7  C   LIG d   1       4.734  -2.922  -3.912  0.00  0.00    -0.012 C 
ATOM      8  C   LIG d   1       6.030  -2.128  -4.083  0.00  0.00     0.127 A 
ATOM      9  C   LIG d   1       7.307  -2.906  -4.395  0.00  0.00     0.081 A 
ATOM     10  O   LIG d   1       7.062  -2.319  -3.116  0.00  0.00    -0.365 OA
ATOM     11  H   LIG d   1       2.863  -2.547  -3.041  0.00  0.00     0.034 H 
ATOM     12  H   LIG d   1       4.142  -2.059  -2.023  0.00  0.00     0.034 H 
ATOM     13  H   LIG d   1       4.286  -3.103  -4.889  0.00  0.00     0.030 H 
ATOM     14  H   LIG d   1       4.949  -3.875  -3.428  0.00  0.00     0.030 H 
ATOM     15  H   LIG d   1       7.233  -3.990  -4.479  0.00  0.00     0.059 H 
ATOM     16  H   LIG d   1       8.047  -2.432  -5.039  0.00  0.00     0.059 H 
ENDROOT
BRANCH   1  17
ATOM     17  C   LIG d   1       7.237  -0.040  -4.744  0.00  0.00     0.128 A 
ATOM     18  C   LIG d   1       7.309   1.422  -4.302  0.00  0.00     0.095 A 
ATOM     19  H   LIG d   1       6.384   1.899  -3.975  0.00  0.00     0.063 H 
ATOM     20  O   LIG d   1       7.825   0.357  -3.504  0.00  0.00    -0.362 OA
BRANCH  18  21
ATOM     21  C   LIG d   1       8.312   2.334  -5.012  0.00  0.00    -0.005 C 
ATOM     22  H   LIG d   1       9.060   1.725  -5.519  0.00  0.00     0.033 H 
ATOM     23  H   LIG d   1       7.788   2.950  -5.744  0.00  0.00     0.033 H 
BRANCH  21  24
ATOM     24  C   LIG d   1       8.987   3.222  -3.999  0.00  0.00    -0.083 C 
ATOM     25  C   LIG d   1      10.189   2.928  -3.569  0.00  0.00    -0.080 C 
ATOM     26  H   LIG d   1       8.481   4.101  -3.629  0.00  0.00     0.057 H 
BRANCH  25  27
ATOM     27  C   LIG d   1      10.967   1.809  -4.212  0.00  0.00    -0.044 C 
ATOM     28  H   LIG d   1      11.878   1.624  -3.641  0.00  0.00     0.027 H 
ATOM     29  H   LIG d   1      10.359   0.904  -4.227  0.00  0.00     0.027 H 
ATOM     30  H   LIG d   1      11.229   2.088  -5.233  0.00  0.00     0.027 H 
ENDBRANCH  25  27
BRANCH  25  31
ATOM     31  C   LIG d   1      10.794   3.707  -2.430  0.00  0.00    -0.044 C 
ATOM     32  H   LIG d   1      11.476   3.066  -1.872  0.00  0.00     0.027 H 
ATOM     33  H   LIG d   1      11.340   4.563  -2.825  0.00  0.00     0.027 H 
ATOM     34  H   LIG d   1      10.001   4.057  -1.769  0.00  0.00     0.027 H 
ENDBRANCH  25  31
ENDBRANCH  21  24
ENDBRANCH  18  21
BRANCH  17  35
ATOM     35  C   LIG d   1       8.175  -0.494  -5.866  0.00  0.00    -0.030 C 
ATOM     36  H   LIG d   1       7.947   0.059  -6.776  0.00  0.00     0.026 H 
ATOM     37  H   LIG d   1       9.207  -0.304  -5.574  0.00  0.00     0.026 H 
ATOM     38  H   LIG d   1       8.037  -1.561  -6.044  0.00  0.00     0.026 H 
ENDBRANCH  17  35
ENDBRANCH   1  17
BRANCH   1  39
ATOM     39  O   LIG d   1       5.349  -0.852  -6.021  0.00  0.00    -0.380 OA
ATOM     40  H   LIG d   1       5.371  -1.751  -6.374  0.00  0.00     0.210 HD
ENDBRANCH   1  39
BRANCH   2  41
ATOM     41  O   LIG d   1       5.519   0.369  -2.571  0.00  0.00    -0.369 OA
BRANCH  41  42
ATOM     42  C   LIG d   1       4.655   1.029  -1.643  0.00  0.00     0.037 C 
ATOM     43  H   LIG d   1       5.110   1.019  -0.653  0.00  0.00     0.052 H 
ATOM     44  H   LIG d   1       4.499   2.059  -1.962  0.00  0.00     0.052 H 
ATOM     45  H   LIG d   1       3.697   0.511  -1.608  0.00  0.00     0.052 H 
ENDBRANCH  41  42
ENDBRANCH   2  41
TORSDOF 9
ENDMDL
