MODEL 1
REMARK VINA RESULT:      -5.9      0.000      0.000
REMARK  11 active torsions:
REMARK  status: ('A' for Active; 'I' for Inactive)
REMARK    1  A    between atoms: C_1  and  O_2 
REMARK    2  A    between atoms: O_2  and  C_3 
REMARK    3  A    between atoms: C_6  and  C_9 
REMARK    4  A    between atoms: C_9  and  C_10 
REMARK    5  A    between atoms: C_14  and  C_16 
REMARK    6  A    between atoms: C_18  and  O_26 
REMARK    7  A    between atoms: C_19  and  O_24 
REMARK    8  A    between atoms: C_20  and  O_22 
REMARK    9  A    between atoms: O_22  and  C_23 
REMARK   10  A    between atoms: O_24  and  C_25 
REMARK   11  A    between atoms: O_26  and  C_27 
ROOT
ATOM      1  C   LIG d   1       9.448   2.033  -4.209  0.00  0.00     0.152 A 
ATOM      2  C   LIG d   1      10.880   1.890  -3.889  0.00  0.00     0.364 A 
ATOM      3  O   LIG d   1      11.585   0.917  -4.078  0.00  0.00    -0.243 OA
ATOM      4  O   LIG d   1      11.241   3.071  -3.342  0.00  0.00    -0.402 OA
ATOM      5  C   LIG d   1      10.164   3.878  -3.306  0.00  0.00     0.232 A 
ATOM      6  N   LIG d   1       9.110   3.292  -3.807  0.00  0.00    -0.205 NA
ENDROOT
BRANCH   5   7
ATOM      7  C   LIG d   1      10.173   5.251  -2.768  0.00  0.00     0.044 A 
ATOM      8  C   LIG d   1      10.303   5.463  -1.393  0.00  0.00    -0.004 A 
ATOM      9  C   LIG d   1      10.311   6.752  -0.891  0.00  0.00     0.166 A 
ATOM     10  H   LIG d   1      10.396   4.622  -0.722  0.00  0.00     0.066 H 
ATOM     11  C   LIG d   1      10.191   7.837  -1.755  0.00  0.00     0.203 A 
ATOM     12  C   LIG d   1      10.062   7.629  -3.125  0.00  0.00     0.166 A 
ATOM     13  C   LIG d   1      10.058   6.343  -3.633  0.00  0.00    -0.004 A 
ATOM     14  H   LIG d   1       9.963   6.182  -4.696  0.00  0.00     0.066 H 
BRANCH   9  15
ATOM     15  O   LIG d   1      10.437   6.960   0.447  0.00  0.00    -0.491 OA
BRANCH  15  16
ATOM     16  C   LIG d   1      11.088   5.936   1.203  0.00  0.00     0.079 C 
ATOM     17  H   LIG d   1      11.292   5.082   0.559  0.00  0.00     0.066 H 
ATOM     18  H   LIG d   1      12.026   6.322   1.604  0.00  0.00     0.066 H 
ATOM     19  H   LIG d   1      10.442   5.627   2.025  0.00  0.00     0.066 H 
ENDBRANCH  15  16
ENDBRANCH   9  15
BRANCH  11  20
ATOM     20  O   LIG d   1      10.199   9.104  -1.259  0.00  0.00    -0.488 OA
BRANCH  20  21
ATOM     21  C   LIG d   1       8.944   9.646  -0.843  0.00  0.00     0.079 C 
ATOM     22  H   LIG d   1       8.405  10.022  -1.713  0.00  0.00     0.066 H 
ATOM     23  H   LIG d   1       8.354   8.868  -0.359  0.00  0.00     0.066 H 
ATOM     24  H   LIG d   1       9.116  10.462  -0.141  0.00  0.00     0.066 H 
ENDBRANCH  20  21
ENDBRANCH  11  20
BRANCH  12  25
ATOM     25  O   LIG d   1       9.945   8.691  -3.965  0.00  0.00    -0.491 OA
BRANCH  25  26
ATOM     26  C   LIG d   1       9.639   8.407  -5.332  0.00  0.00     0.079 C 
ATOM     27  H   LIG d   1      10.538   8.524  -5.938  0.00  0.00     0.066 H 
ATOM     28  H   LIG d   1       9.275   7.383  -5.417  0.00  0.00     0.066 H 
ATOM     29  H   LIG d   1       8.871   9.096  -5.684  0.00  0.00     0.066 H 
ENDBRANCH  25  26
ENDBRANCH  12  25
ENDBRANCH   5   7
BRANCH   1  30
ATOM     30  C   LIG d   1       8.624   1.092  -4.789  0.00  0.00    -0.022 C 
ATOM     31  H   LIG d   1       8.809   0.763  -5.802  0.00  0.00     0.065 H 
BRANCH  30  32
ATOM     32  C   LIG d   1       7.500   0.537  -4.034  0.00  0.00    -0.023 A 
ATOM     33  C   LIG d   1       7.354  -0.852  -3.908  0.00  0.00    -0.051 A 
ATOM     34  C   LIG d   1       6.302  -1.366  -3.194  0.00  0.00    -0.019 A 
ATOM     35  H   LIG d   1       8.071  -1.516  -4.369  0.00  0.00     0.062 H 
ATOM     36  C   LIG d   1       5.375  -0.513  -2.604  0.00  0.00     0.120 A 
ATOM     37  H   LIG d   1       6.191  -2.436  -3.093  0.00  0.00     0.065 H 
ATOM     38  C   LIG d   1       5.514   0.865  -2.725  0.00  0.00    -0.019 A 
ATOM     39  C   LIG d   1       6.564   1.391  -3.433  0.00  0.00    -0.051 A 
ATOM     40  H   LIG d   1       4.794   1.522  -2.262  0.00  0.00     0.065 H 
ATOM     41  H   LIG d   1       6.671   2.462  -3.526  0.00  0.00     0.062 H 
BRANCH  36  42
ATOM     42  O   LIG d   1       4.333  -1.028  -1.903  0.00  0.00    -0.495 OA
BRANCH  42  43
ATOM     43  C   LIG d   1       3.724  -2.212  -2.423  0.00  0.00     0.079 C 
ATOM     44  H   LIG d   1       2.880  -1.940  -3.056  0.00  0.00     0.066 H 
ATOM     45  H   LIG d   1       4.455  -2.767  -3.011  0.00  0.00     0.066 H 
ATOM     46  H   LIG d   1       3.375  -2.833  -1.598  0.00  0.00     0.066 H 
ENDBRANCH  42  43
ENDBRANCH  36  42
ENDBRANCH  30  32
ENDBRANCH   1  30
TORSDOF 11
ENDMDL
MODEL 2
REMARK VINA RESULT:      -5.9      0.081      2.515
REMARK  11 active torsions:
REMARK  status: ('A' for Active; 'I' for Inactive)
REMARK    1  A    between atoms: C_1  and  O_2 
REMARK    2  A    between atoms: O_2  and  C_3 
REMARK    3  A    between atoms: C_6  and  C_9 
REMARK    4  A    between atoms: C_9  and  C_10 
REMARK    5  A    between atoms: C_14  and  C_16 
REMARK    6  A    between atoms: C_18  and  O_26 
REMARK    7  A    between atoms: C_19  and  O_24 
REMARK    8  A    between atoms: C_20  and  O_22 
REMARK    9  A    between atoms: O_22  and  C_23 
REMARK   10  A    between atoms: O_24  and  C_25 
REMARK   11  A    between atoms: O_26  and  C_27 
ROOT
ATOM      1  C   LIG d   1       9.364   2.087  -4.260  0.00  0.00     0.152 A 
ATOM      2  C   LIG d   1      10.793   1.919  -3.941  0.00  0.00     0.364 A 
ATOM      3  O   LIG d   1      11.482   0.935  -4.131  0.00  0.00    -0.243 OA
ATOM      4  O   LIG d   1      11.175   3.094  -3.394  0.00  0.00    -0.402 OA
ATOM      5  C   LIG d   1      10.112   3.919  -3.357  0.00  0.00     0.232 A 
ATOM      6  N   LIG d   1       9.048   3.352  -3.857  0.00  0.00    -0.205 NA
ENDROOT
BRANCH   5   7
ATOM      7  C   LIG d   1      10.145   5.292  -2.818  0.00  0.00     0.044 A 
ATOM      8  C   LIG d   1      10.043   6.385  -3.684  0.00  0.00    -0.004 A 
ATOM      9  C   LIG d   1      10.074   7.671  -3.177  0.00  0.00     0.166 A 
ATOM     10  H   LIG d   1       9.942   6.225  -4.747  0.00  0.00     0.066 H 
ATOM     11  C   LIG d   1      10.206   7.878  -1.807  0.00  0.00     0.203 A 
ATOM     12  C   LIG d   1      10.307   6.791  -0.943  0.00  0.00     0.166 A 
ATOM     13  C   LIG d   1      10.271   5.503  -1.443  0.00  0.00    -0.004 A 
ATOM     14  H   LIG d   1      10.345   4.660  -0.772  0.00  0.00     0.066 H 
BRANCH   9  15
ATOM     15  O   LIG d   1       9.976   8.736  -4.018  0.00  0.00    -0.491 OA
BRANCH  15  16
ATOM     16  C   LIG d   1       9.602   8.461  -5.370  0.00  0.00     0.079 C 
ATOM     17  H   LIG d   1       9.912   9.288  -6.008  0.00  0.00     0.066 H 
ATOM     18  H   LIG d   1      10.087   7.543  -5.701  0.00  0.00     0.066 H 
ATOM     19  H   LIG d   1       8.520   8.342  -5.429  0.00  0.00     0.066 H 
ENDBRANCH  15  16
ENDBRANCH   9  15
BRANCH  11  20
ATOM     20  O   LIG d   1      10.237   9.144  -1.310  0.00  0.00    -0.488 OA
BRANCH  20  21
ATOM     21  C   LIG d   1       8.990   9.711  -0.904  0.00  0.00     0.079 C 
ATOM     22  H   LIG d   1       8.692  10.482  -1.614  0.00  0.00     0.066 H 
ATOM     23  H   LIG d   1       8.229   8.931  -0.874  0.00  0.00     0.066 H 
ATOM     24  H   LIG d   1       9.097  10.153   0.088  0.00  0.00     0.066 H 
ENDBRANCH  20  21
ENDBRANCH  11  20
BRANCH  12  25
ATOM     25  O   LIG d   1      10.435   6.996   0.395  0.00  0.00    -0.491 OA
BRANCH  25  26
ATOM     26  C   LIG d   1      11.097   5.978   1.148  0.00  0.00     0.079 C 
ATOM     27  H   LIG d   1      12.073   5.774   0.706  0.00  0.00     0.066 H 
ATOM     28  H   LIG d   1      11.227   6.314   2.177  0.00  0.00     0.066 H 
ATOM     29  H   LIG d   1      10.495   5.068   1.137  0.00  0.00     0.066 H 
ENDBRANCH  25  26
ENDBRANCH  12  25
ENDBRANCH   5   7
BRANCH   1  30
ATOM     30  C   LIG d   1       8.524   1.160  -4.839  0.00  0.00    -0.022 C 
ATOM     31  H   LIG d   1       8.674   0.863  -5.867  0.00  0.00     0.065 H 
BRANCH  30  32
ATOM     32  C   LIG d   1       7.428   0.578  -4.063  0.00  0.00    -0.023 A 
ATOM     33  C   LIG d   1       7.292  -0.815  -3.973  0.00  0.00    -0.051 A 
ATOM     34  C   LIG d   1       6.266  -1.354  -3.239  0.00  0.00    -0.019 A 
ATOM     35  H   LIG d   1       7.995  -1.461  -4.477  0.00  0.00     0.062 H 
ATOM     36  C   LIG d   1       5.357  -0.524  -2.593  0.00  0.00     0.120 A 
ATOM     37  H   LIG d   1       6.164  -2.427  -3.165  0.00  0.00     0.065 H 
ATOM     38  C   LIG d   1       5.486   0.858  -2.679  0.00  0.00    -0.019 A 
ATOM     39  C   LIG d   1       6.510   1.410  -3.406  0.00  0.00    -0.051 A 
ATOM     40  H   LIG d   1       4.780   1.498  -2.172  0.00  0.00     0.065 H 
ATOM     41  H   LIG d   1       6.609   2.484  -3.471  0.00  0.00     0.062 H 
BRANCH  36  42
ATOM     42  O   LIG d   1       4.341  -1.064  -1.873  0.00  0.00    -0.495 OA
BRANCH  42  43
ATOM     43  C   LIG d   1       3.742  -2.254  -2.389  0.00  0.00     0.079 C 
ATOM     44  H   LIG d   1       4.160  -3.122  -1.881  0.00  0.00     0.066 H 
ATOM     45  H   LIG d   1       2.665  -2.220  -2.223  0.00  0.00     0.066 H 
ATOM     46  H   LIG d   1       3.942  -2.328  -3.458  0.00  0.00     0.066 H 
ENDBRANCH  42  43
ENDBRANCH  36  42
ENDBRANCH  30  32
ENDBRANCH   1  30
TORSDOF 11
ENDMDL
MODEL 3
REMARK VINA RESULT:      -5.9      1.954      8.188
REMARK  11 active torsions:
REMARK  status: ('A' for Active; 'I' for Inactive)
REMARK    1  A    between atoms: C_1  and  O_2 
REMARK    2  A    between atoms: O_2  and  C_3 
REMARK    3  A    between atoms: C_6  and  C_9 
REMARK    4  A    between atoms: C_9  and  C_10 
REMARK    5  A    between atoms: C_14  and  C_16 
REMARK    6  A    between atoms: C_18  and  O_26 
REMARK    7  A    between atoms: C_19  and  O_24 
REMARK    8  A    between atoms: C_20  and  O_22 
REMARK    9  A    between atoms: O_22  and  C_23 
REMARK   10  A    between atoms: O_24  and  C_25 
REMARK   11  A    between atoms: O_26  and  C_27 
ROOT
ATOM      1  C   LIG d   1       9.539   3.839  -4.967  0.00  0.00     0.152 A 
ATOM      2  C   LIG d   1       9.417   3.183  -6.282  0.00  0.00     0.364 A 
ATOM      3  O   LIG d   1       9.904   3.544  -7.336  0.00  0.00    -0.243 OA
ATOM      4  O   LIG d   1       8.649   2.093  -6.064  0.00  0.00    -0.402 OA
ATOM      5  C   LIG d   1       8.309   2.057  -4.762  0.00  0.00     0.232 A 
ATOM      6  N   LIG d   1       8.818   3.065  -4.106  0.00  0.00    -0.205 NA
ENDROOT
BRANCH   5   7
ATOM      7  C   LIG d   1       7.467   1.010  -4.152  0.00  0.00     0.044 A 
ATOM      8  C   LIG d   1       7.708  -0.336  -4.439  0.00  0.00    -0.004 A 
ATOM      9  C   LIG d   1       6.918  -1.316  -3.866  0.00  0.00     0.166 A 
ATOM     10  H   LIG d   1       8.510  -0.612  -5.108  0.00  0.00     0.066 H 
ATOM     11  C   LIG d   1       5.884  -0.961  -3.004  0.00  0.00     0.203 A 
ATOM     12  C   LIG d   1       5.642   0.379  -2.716  0.00  0.00     0.166 A 
ATOM     13  C   LIG d   1       6.432   1.362  -3.282  0.00  0.00    -0.004 A 
ATOM     14  H   LIG d   1       6.248   2.402  -3.055  0.00  0.00     0.066 H 
BRANCH   9  15
ATOM     15  O   LIG d   1       7.151  -2.626  -4.144  0.00  0.00    -0.491 OA
BRANCH  15  16
ATOM     16  C   LIG d   1       6.796  -3.084  -5.451  0.00  0.00     0.079 C 
ATOM     17  H   LIG d   1       7.421  -2.587  -6.192  0.00  0.00     0.066 H 
ATOM     18  H   LIG d   1       6.946  -4.162  -5.511  0.00  0.00     0.066 H 
ATOM     19  H   LIG d   1       5.748  -2.851  -5.644  0.00  0.00     0.066 H 
ENDBRANCH  15  16
ENDBRANCH   9  15
BRANCH  11  20
ATOM     20  O   LIG d   1       5.108  -1.926  -2.441  0.00  0.00    -0.488 OA
BRANCH  20  21
ATOM     21  C   LIG d   1       3.905  -2.274  -3.129  0.00  0.00     0.079 C 
ATOM     22  H   LIG d   1       3.183  -2.675  -2.418  0.00  0.00     0.066 H 
ATOM     23  H   LIG d   1       3.490  -1.387  -3.607  0.00  0.00     0.066 H 
ATOM     24  H   LIG d   1       4.125  -3.027  -3.887  0.00  0.00     0.066 H 
ENDBRANCH  20  21
ENDBRANCH  11  20
BRANCH  12  25
ATOM     25  O   LIG d   1       4.631   0.721  -1.873  0.00  0.00    -0.491 OA
BRANCH  25  26
ATOM     26  C   LIG d   1       3.508   1.393  -2.446  0.00  0.00     0.079 C 
ATOM     27  H   LIG d   1       2.896   0.677  -2.995  0.00  0.00     0.066 H 
ATOM     28  H   LIG d   1       2.913   1.846  -1.653  0.00  0.00     0.066 H 
ATOM     29  H   LIG d   1       3.857   2.170  -3.127  0.00  0.00     0.066 H 
ENDBRANCH  25  26
ENDBRANCH  12  25
ENDBRANCH   5   7
BRANCH   1  30
ATOM     30  C   LIG d   1      10.232   4.994  -4.673  0.00  0.00    -0.022 C 
ATOM     31  H   LIG d   1      10.709   5.554  -5.464  0.00  0.00     0.065 H 
BRANCH  30  32
ATOM     32  C   LIG d   1      10.323   5.461  -3.289  0.00  0.00    -0.023 A 
ATOM     33  C   LIG d   1       9.510   6.515  -2.847  0.00  0.00    -0.051 A 
ATOM     34  C   LIG d   1       9.595   6.944  -1.547  0.00  0.00    -0.019 A 
ATOM     35  H   LIG d   1       8.815   6.984  -3.527  0.00  0.00     0.062 H 
ATOM     36  C   LIG d   1      10.493   6.344  -0.671  0.00  0.00     0.120 A 
ATOM     37  H   LIG d   1       8.966   7.753  -1.205  0.00  0.00     0.065 H 
ATOM     38  C   LIG d   1      11.303   5.299  -1.103  0.00  0.00    -0.019 A 
ATOM     39  C   LIG d   1      11.223   4.858  -2.398  0.00  0.00    -0.051 A 
ATOM     40  H   LIG d   1      11.994   4.834  -0.417  0.00  0.00     0.065 H 
ATOM     41  H   LIG d   1      11.852   4.045  -2.733  0.00  0.00     0.062 H 
BRANCH  36  42
ATOM     42  O   LIG d   1      10.577   6.777   0.613  0.00  0.00    -0.495 OA
BRANCH  42  43
ATOM     43  C   LIG d   1      11.026   5.833   1.587  0.00  0.00     0.079 C 
ATOM     44  H   LIG d   1      10.302   5.774   2.398  0.00  0.00     0.066 H 
ATOM     45  H   LIG d   1      11.130   4.853   1.121  0.00  0.00     0.066 H 
ATOM     46  H   LIG d   1      11.991   6.150   1.983  0.00  0.00     0.066 H 
ENDBRANCH  42  43
ENDBRANCH  36  42
ENDBRANCH  30  32
ENDBRANCH   1  30
TORSDOF 11
ENDMDL
MODEL 4
REMARK VINA RESULT:      -5.8      1.259      1.617
REMARK  11 active torsions:
REMARK  status: ('A' for Active; 'I' for Inactive)
REMARK    1  A    between atoms: C_1  and  O_2 
REMARK    2  A    between atoms: O_2  and  C_3 
REMARK    3  A    between atoms: C_6  and  C_9 
REMARK    4  A    between atoms: C_9  and  C_10 
REMARK    5  A    between atoms: C_14  and  C_16 
REMARK    6  A    between atoms: C_18  and  O_26 
REMARK    7  A    between atoms: C_19  and  O_24 
REMARK    8  A    between atoms: C_20  and  O_22 
REMARK    9  A    between atoms: O_22  and  C_23 
REMARK   10  A    between atoms: O_24  and  C_25 
REMARK   11  A    between atoms: O_26  and  C_27 
ROOT
ATOM      1  C   LIG d   1       9.000   2.160  -4.602  0.00  0.00     0.152 A 
ATOM      2  C   LIG d   1       9.079   2.899  -5.875  0.00  0.00     0.364 A 
ATOM      3  O   LIG d   1       8.910   2.459  -6.996  0.00  0.00    -0.243 OA
ATOM      4  O   LIG d   1       9.378   4.170  -5.529  0.00  0.00    -0.402 OA
ATOM      5  C   LIG d   1       9.488   4.239  -4.189  0.00  0.00     0.232 A 
ATOM      6  N   LIG d   1       9.271   3.079  -3.631  0.00  0.00    -0.205 NA
ENDROOT
BRANCH   5   7
ATOM      7  C   LIG d   1       9.812   5.470  -3.444  0.00  0.00     0.044 A 
ATOM      8  C   LIG d   1       9.856   5.452  -2.048  0.00  0.00    -0.004 A 
ATOM      9  C   LIG d   1      10.161   6.608  -1.352  0.00  0.00     0.166 A 
ATOM     10  H   LIG d   1       9.653   4.536  -1.512  0.00  0.00     0.066 H 
ATOM     11  C   LIG d   1      10.422   7.788  -2.042  0.00  0.00     0.203 A 
ATOM     12  C   LIG d   1      10.378   7.809  -3.433  0.00  0.00     0.166 A 
ATOM     13  C   LIG d   1      10.081   6.655  -4.134  0.00  0.00    -0.004 A 
ATOM     14  H   LIG d   1      10.051   6.671  -5.213  0.00  0.00     0.066 H 
BRANCH   9  15
ATOM     15  O   LIG d   1      10.204   6.591   0.007  0.00  0.00    -0.491 OA
BRANCH  15  16
ATOM     16  C   LIG d   1      11.278   5.867   0.613  0.00  0.00     0.079 C 
ATOM     17  H   LIG d   1      11.710   5.181  -0.115  0.00  0.00     0.066 H 
ATOM     18  H   LIG d   1      12.042   6.567   0.952  0.00  0.00     0.066 H 
ATOM     19  H   LIG d   1      10.898   5.302   1.464  0.00  0.00     0.066 H 
ENDBRANCH  15  16
ENDBRANCH   9  15
BRANCH  11  20
ATOM     20  O   LIG d   1      10.721   8.924  -1.355  0.00  0.00    -0.488 OA
BRANCH  20  21
ATOM     21  C   LIG d   1       9.626   9.763  -0.982  0.00  0.00     0.079 C 
ATOM     22  H   LIG d   1       9.365   9.577   0.060  0.00  0.00     0.066 H 
ATOM     23  H   LIG d   1       9.910  10.808  -1.104  0.00  0.00     0.066 H 
ATOM     24  H   LIG d   1       8.767   9.543  -1.616  0.00  0.00     0.066 H 
ENDBRANCH  20  21
ENDBRANCH  11  20
BRANCH  12  25
ATOM     25  O   LIG d   1      10.635   8.964  -4.103  0.00  0.00    -0.491 OA
BRANCH  25  26
ATOM     26  C   LIG d   1       9.671   9.379  -5.073  0.00  0.00     0.079 C 
ATOM     27  H   LIG d   1       9.326   8.513  -5.637  0.00  0.00     0.066 H 
ATOM     28  H   LIG d   1       8.825   9.844  -4.568  0.00  0.00     0.066 H 
ATOM     29  H   LIG d   1      10.127  10.099  -5.754  0.00  0.00     0.066 H 
ENDBRANCH  25  26
ENDBRANCH  12  25
ENDBRANCH   5   7
BRANCH   1  30
ATOM     30  C   LIG d   1       8.717   0.821  -4.431  0.00  0.00    -0.022 C 
ATOM     31  H   LIG d   1       9.434   0.074  -4.739  0.00  0.00     0.065 H 
BRANCH  30  32
ATOM     32  C   LIG d   1       7.446   0.411  -3.831  0.00  0.00    -0.023 A 
ATOM     33  C   LIG d   1       6.532   1.378  -3.391  0.00  0.00    -0.051 A 
ATOM     34  C   LIG d   1       5.340   0.988  -2.835  0.00  0.00    -0.019 A 
ATOM     35  H   LIG d   1       6.764   2.429  -3.491  0.00  0.00     0.062 H 
ATOM     36  C   LIG d   1       5.041  -0.363  -2.701  0.00  0.00     0.120 A 
ATOM     37  H   LIG d   1       4.633   1.733  -2.500  0.00  0.00     0.065 H 
ATOM     38  C   LIG d   1       5.944  -1.328  -3.136  0.00  0.00    -0.019 A 
ATOM     39  C   LIG d   1       7.137  -0.950  -3.696  0.00  0.00    -0.051 A 
ATOM     40  H   LIG d   1       5.706  -2.375  -3.033  0.00  0.00     0.065 H 
ATOM     41  H   LIG d   1       7.837  -1.700  -4.035  0.00  0.00     0.062 H 
BRANCH  36  42
ATOM     42  O   LIG d   1       3.862  -0.744  -2.146  0.00  0.00    -0.495 OA
BRANCH  42  43
ATOM     43  C   LIG d   1       2.730  -0.812  -3.015  0.00  0.00     0.079 C 
ATOM     44  H   LIG d   1       2.714   0.064  -3.662  0.00  0.00     0.066 H 
ATOM     45  H   LIG d   1       2.795  -1.713  -3.625  0.00  0.00     0.066 H 
ATOM     46  H   LIG d   1       1.817  -0.842  -2.420  0.00  0.00     0.066 H 
ENDBRANCH  42  43
ENDBRANCH  36  42
ENDBRANCH  30  32
ENDBRANCH   1  30
TORSDOF 11
ENDMDL
MODEL 5
REMARK VINA RESULT:      -5.8      2.010      8.184
REMARK  11 active torsions:
REMARK  status: ('A' for Active; 'I' for Inactive)
REMARK    1  A    between atoms: C_1  and  O_2 
REMARK    2  A    between atoms: O_2  and  C_3 
REMARK    3  A    between atoms: C_6  and  C_9 
REMARK    4  A    between atoms: C_9  and  C_10 
REMARK    5  A    between atoms: C_14  and  C_16 
REMARK    6  A    between atoms: C_18  and  O_26 
REMARK    7  A    between atoms: C_19  and  O_24 
REMARK    8  A    between atoms: C_20  and  O_22 
REMARK    9  A    between atoms: O_22  and  C_23 
REMARK   10  A    between atoms: O_24  and  C_25 
REMARK   11  A    between atoms: O_26  and  C_27 
ROOT
ATOM      1  C   LIG d   1       9.456   3.943  -4.858  0.00  0.00     0.152 A 
ATOM      2  C   LIG d   1       9.456   3.253  -6.161  0.00  0.00     0.364 A 
ATOM      3  O   LIG d   1      10.002   3.613  -7.188  0.00  0.00    -0.243 OA
ATOM      4  O   LIG d   1       8.723   2.135  -5.972  0.00  0.00    -0.402 OA
ATOM      5  C   LIG d   1       8.292   2.113  -4.696  0.00  0.00     0.232 A 
ATOM      6  N   LIG d   1       8.709   3.156  -4.032  0.00  0.00    -0.205 NA
ENDROOT
BRANCH   5   7
ATOM      7  C   LIG d   1       7.455   1.043  -4.121  0.00  0.00     0.044 A 
ATOM      8  C   LIG d   1       6.430   1.361  -3.226  0.00  0.00    -0.004 A 
ATOM      9  C   LIG d   1       5.646   0.357  -2.689  0.00  0.00     0.166 A 
ATOM     10  H   LIG d   1       6.250   2.391  -2.954  0.00  0.00     0.066 H 
ATOM     11  C   LIG d   1       5.878  -0.971  -3.038  0.00  0.00     0.203 A 
ATOM     12  C   LIG d   1       6.898  -1.291  -3.930  0.00  0.00     0.166 A 
ATOM     13  C   LIG d   1       7.681  -0.290  -4.475  0.00  0.00    -0.004 A 
ATOM     14  H   LIG d   1       8.469  -0.538  -5.170  0.00  0.00     0.066 H 
BRANCH   9  15
ATOM     15  O   LIG d   1       4.649   0.665  -1.817  0.00  0.00    -0.491 OA
BRANCH  15  16
ATOM     16  C   LIG d   1       3.543   1.409  -2.335  0.00  0.00     0.079 C 
ATOM     17  H   LIG d   1       3.115   0.880  -3.186  0.00  0.00     0.066 H 
ATOM     18  H   LIG d   1       2.786   1.522  -1.558  0.00  0.00     0.066 H 
ATOM     19  H   LIG d   1       3.886   2.394  -2.654  0.00  0.00     0.066 H 
ENDBRANCH  15  16
ENDBRANCH   9  15
BRANCH  11  20
ATOM     20  O   LIG d   1       5.106  -1.957  -2.508  0.00  0.00    -0.488 OA
BRANCH  20  21
ATOM     21  C   LIG d   1       3.932  -2.323  -3.236  0.00  0.00     0.079 C 
ATOM     22  H   LIG d   1       3.821  -1.668  -4.101  0.00  0.00     0.066 H 
ATOM     23  H   LIG d   1       4.020  -3.356  -3.573  0.00  0.00     0.066 H 
ATOM     24  H   LIG d   1       3.058  -2.224  -2.591  0.00  0.00     0.066 H 
ENDBRANCH  20  21
ENDBRANCH  11  20
BRANCH  12  25
ATOM     25  O   LIG d   1       7.121  -2.588  -4.269  0.00  0.00    -0.491 OA
BRANCH  25  26
ATOM     26  C   LIG d   1       8.406  -3.129  -3.958  0.00  0.00     0.079 C 
ATOM     27  H   LIG d   1       8.701  -3.836  -4.734  0.00  0.00     0.066 H 
ATOM     28  H   LIG d   1       9.136  -2.322  -3.905  0.00  0.00     0.066 H 
ATOM     29  H   LIG d   1       8.361  -3.642  -2.997  0.00  0.00     0.066 H 
ENDBRANCH  25  26
ENDBRANCH  12  25
ENDBRANCH   5   7
BRANCH   1  30
ATOM     30  C   LIG d   1      10.076   5.134  -4.545  0.00  0.00    -0.022 C 
ATOM     31  H   LIG d   1      10.449   5.773  -5.332  0.00  0.00     0.065 H 
BRANCH  30  32
ATOM     32  C   LIG d   1      10.229   5.534  -3.145  0.00  0.00    -0.023 A 
ATOM     33  C   LIG d   1      11.057   4.794  -2.288  0.00  0.00    -0.051 A 
ATOM     34  C   LIG d   1      11.202   5.177  -0.979  0.00  0.00    -0.019 A 
ATOM     35  H   LIG d   1      11.582   3.926  -2.659  0.00  0.00     0.062 H 
ATOM     36  C   LIG d   1      10.523   6.291  -0.499  0.00  0.00     0.120 A 
ATOM     37  H   LIG d   1      11.843   4.610  -0.320  0.00  0.00     0.065 H 
ATOM     38  C   LIG d   1       9.700   7.030  -1.343  0.00  0.00    -0.019 A 
ATOM     39  C   LIG d   1       9.551   6.659  -2.655  0.00  0.00    -0.051 A 
ATOM     40  H   LIG d   1       9.179   7.896  -0.966  0.00  0.00     0.065 H 
ATOM     41  H   LIG d   1       8.913   7.234  -3.310  0.00  0.00     0.062 H 
BRANCH  36  42
ATOM     42  O   LIG d   1      10.666   6.663   0.799  0.00  0.00    -0.495 OA
BRANCH  42  43
ATOM     43  C   LIG d   1      11.370   7.881   1.050  0.00  0.00     0.079 C 
ATOM     44  H   LIG d   1      10.769   8.523   1.694  0.00  0.00     0.066 H 
ATOM     45  H   LIG d   1      12.317   7.658   1.541  0.00  0.00     0.066 H 
ATOM     46  H   LIG d   1      11.562   8.391   0.106  0.00  0.00     0.066 H 
ENDBRANCH  42  43
ENDBRANCH  36  42
ENDBRANCH  30  32
ENDBRANCH   1  30
TORSDOF 11
ENDMDL
MODEL 6
REMARK VINA RESULT:      -5.5      7.959     10.773
REMARK  11 active torsions:
REMARK  status: ('A' for Active; 'I' for Inactive)
REMARK    1  A    between atoms: C_1  and  O_2 
REMARK    2  A    between atoms: O_2  and  C_3 
REMARK    3  A    between atoms: C_6  and  C_9 
REMARK    4  A    between atoms: C_9  and  C_10 
REMARK    5  A    between atoms: C_14  and  C_16 
REMARK    6  A    between atoms: C_18  and  O_26 
REMARK    7  A    between atoms: C_19  and  O_24 
REMARK    8  A    between atoms: C_20  and  O_22 
REMARK    9  A    between atoms: O_22  and  C_23 
REMARK   10  A    between atoms: O_24  and  C_25 
REMARK   11  A    between atoms: O_26  and  C_27 
ROOT
ATOM      1  C   LIG d   1       5.199  -7.100  -5.894  0.00  0.00     0.152 A 
ATOM      2  C   LIG d   1       6.435  -6.627  -6.543  0.00  0.00     0.364 A 
ATOM      3  O   LIG d   1       7.300  -7.304  -7.068  0.00  0.00    -0.243 OA
ATOM      4  O   LIG d   1       6.402  -5.282  -6.433  0.00  0.00    -0.402 OA
ATOM      5  C   LIG d   1       5.278  -4.930  -5.779  0.00  0.00     0.232 A 
ATOM      6  N   LIG d   1       4.565  -5.974  -5.458  0.00  0.00    -0.205 NA
ENDROOT
BRANCH   5   7
ATOM      7  C   LIG d   1       4.901  -3.538  -5.466  0.00  0.00     0.044 A 
ATOM      8  C   LIG d   1       5.026  -2.544  -6.440  0.00  0.00    -0.004 A 
ATOM      9  C   LIG d   1       4.672  -1.240  -6.144  0.00  0.00     0.166 A 
ATOM     10  H   LIG d   1       5.400  -2.792  -7.422  0.00  0.00     0.066 H 
ATOM     11  C   LIG d   1       4.190  -0.919  -4.878  0.00  0.00     0.203 A 
ATOM     12  C   LIG d   1       4.064  -1.907  -3.907  0.00  0.00     0.166 A 
ATOM     13  C   LIG d   1       4.412  -3.214  -4.198  0.00  0.00    -0.004 A 
ATOM     14  H   LIG d   1       4.309  -3.981  -3.446  0.00  0.00     0.066 H 
BRANCH   9  15
ATOM     15  O   LIG d   1       4.794  -0.271  -7.090  0.00  0.00    -0.491 OA
BRANCH  15  16
ATOM     16  C   LIG d   1       3.939  -0.369  -8.232  0.00  0.00     0.079 C 
ATOM     17  H   LIG d   1       2.949   0.008  -7.979  0.00  0.00     0.066 H 
ATOM     18  H   LIG d   1       4.356   0.221  -9.049  0.00  0.00     0.066 H 
ATOM     19  H   LIG d   1       3.863  -1.413  -8.539  0.00  0.00     0.066 H 
ENDBRANCH  15  16
ENDBRANCH   9  15
BRANCH  11  20
ATOM     20  O   LIG d   1       3.842   0.364  -4.589  0.00  0.00    -0.488 OA
BRANCH  20  21
ATOM     21  C   LIG d   1       2.486   0.739  -4.839  0.00  0.00     0.079 C 
ATOM     22  H   LIG d   1       1.938   0.768  -3.897  0.00  0.00     0.066 H 
ATOM     23  H   LIG d   1       2.461   1.724  -5.304  0.00  0.00     0.066 H 
ATOM     24  H   LIG d   1       2.024   0.010  -5.505  0.00  0.00     0.066 H 
ENDBRANCH  20  21
ENDBRANCH  11  20
BRANCH  12  25
ATOM     25  O   LIG d   1       3.593  -1.590  -2.671  0.00  0.00    -0.491 OA
BRANCH  25  26
ATOM     26  C   LIG d   1       4.551  -1.168  -1.700  0.00  0.00     0.079 C 
ATOM     27  H   LIG d   1       4.041  -0.657  -0.883  0.00  0.00     0.066 H 
ATOM     28  H   LIG d   1       5.080  -2.038  -1.310  0.00  0.00     0.066 H 
ATOM     29  H   LIG d   1       5.266  -0.488  -2.165  0.00  0.00     0.066 H 
ENDBRANCH  25  26
ENDBRANCH  12  25
ENDBRANCH   5   7
BRANCH   1  30
ATOM     30  C   LIG d   1       4.777  -8.405  -5.754  0.00  0.00    -0.022 C 
ATOM     31  H   LIG d   1       4.206  -8.875  -6.542  0.00  0.00     0.065 H 
BRANCH  30  32
ATOM     32  C   LIG d   1       5.102  -9.155  -4.539  0.00  0.00    -0.023 A 
ATOM     33  C   LIG d   1       4.101  -9.867  -3.863  0.00  0.00    -0.051 A 
ATOM     34  C   LIG d   1       4.413 -10.572  -2.729  0.00  0.00    -0.019 A 
ATOM     35  H   LIG d   1       3.088  -9.863  -4.236  0.00  0.00     0.062 H 
ATOM     36  C   LIG d   1       5.717 -10.575  -2.244  0.00  0.00     0.120 A 
ATOM     37  H   LIG d   1       3.644 -11.125  -2.210  0.00  0.00     0.065 H 
ATOM     38  C   LIG d   1       6.714  -9.871  -2.911  0.00  0.00    -0.019 A 
ATOM     39  C   LIG d   1       6.416  -9.165  -4.048  0.00  0.00    -0.051 A 
ATOM     40  H   LIG d   1       7.725  -9.879  -2.532  0.00  0.00     0.065 H 
ATOM     41  H   LIG d   1       7.191  -8.619  -4.565  0.00  0.00     0.062 H 
BRANCH  36  42
ATOM     42  O   LIG d   1       6.019 -11.271  -1.119  0.00  0.00    -0.495 OA
BRANCH  42  43
ATOM     43  C   LIG d   1       7.399 -11.355  -0.760  0.00  0.00     0.079 C 
ATOM     44  H   LIG d   1       7.489 -11.746   0.253  0.00  0.00     0.066 H 
ATOM     45  H   LIG d   1       7.914 -12.021  -1.453  0.00  0.00     0.066 H 
ATOM     46  H   LIG d   1       7.849 -10.363  -0.808  0.00  0.00     0.066 H 
ENDBRANCH  42  43
ENDBRANCH  36  42
ENDBRANCH  30  32
ENDBRANCH   1  30
TORSDOF 11
ENDMDL
MODEL 7
REMARK VINA RESULT:      -5.5      7.323     13.673
REMARK  11 active torsions:
REMARK  status: ('A' for Active; 'I' for Inactive)
REMARK    1  A    between atoms: C_1  and  O_2 
REMARK    2  A    between atoms: O_2  and  C_3 
REMARK    3  A    between atoms: C_6  and  C_9 
REMARK    4  A    between atoms: C_9  and  C_10 
REMARK    5  A    between atoms: C_14  and  C_16 
REMARK    6  A    between atoms: C_18  and  O_26 
REMARK    7  A    between atoms: C_19  and  O_24 
REMARK    8  A    between atoms: C_20  and  O_22 
REMARK    9  A    between atoms: O_22  and  C_23 
REMARK   10  A    between atoms: O_24  and  C_25 
REMARK   11  A    between atoms: O_26  and  C_27 
ROOT
ATOM      1  C   LIG d   1       5.648  -5.231  -5.583  0.00  0.00     0.152 A 
ATOM      2  C   LIG d   1       4.369  -5.872  -5.940  0.00  0.00     0.364 A 
ATOM      3  O   LIG d   1       3.368  -5.333  -6.373  0.00  0.00    -0.243 OA
ATOM      4  O   LIG d   1       4.548  -7.186  -5.686  0.00  0.00    -0.402 OA
ATOM      5  C   LIG d   1       5.795  -7.368  -5.211  0.00  0.00     0.232 A 
ATOM      6  N   LIG d   1       6.451  -6.242  -5.144  0.00  0.00    -0.205 NA
ENDROOT
BRANCH   5   7
ATOM      7  C   LIG d   1       6.350  -8.677  -4.816  0.00  0.00     0.044 A 
ATOM      8  C   LIG d   1       5.623  -9.846  -5.054  0.00  0.00    -0.004 A 
ATOM      9  C   LIG d   1       6.145 -11.072  -4.684  0.00  0.00     0.166 A 
ATOM     10  H   LIG d   1       4.653  -9.793  -5.527  0.00  0.00     0.066 H 
ATOM     11  C   LIG d   1       7.395 -11.141  -4.074  0.00  0.00     0.203 A 
ATOM     12  C   LIG d   1       8.122  -9.978  -3.836  0.00  0.00     0.166 A 
ATOM     13  C   LIG d   1       7.607  -8.751  -4.210  0.00  0.00    -0.004 A 
ATOM     14  H   LIG d   1       8.173  -7.849  -4.029  0.00  0.00     0.066 H 
BRANCH   9  15
ATOM     15  O   LIG d   1       5.438 -12.210  -4.914  0.00  0.00    -0.491 OA
BRANCH  15  16
ATOM     16  C   LIG d   1       4.251 -12.087  -5.701  0.00  0.00     0.079 C 
ATOM     17  H   LIG d   1       4.454 -12.414  -6.720  0.00  0.00     0.066 H 
ATOM     18  H   LIG d   1       3.464 -12.707  -5.270  0.00  0.00     0.066 H 
ATOM     19  H   LIG d   1       3.929 -11.046  -5.710  0.00  0.00     0.066 H 
ENDBRANCH  15  16
ENDBRANCH   9  15
BRANCH  11  20
ATOM     20  O   LIG d   1       7.907 -12.347  -3.710  0.00  0.00    -0.488 OA
BRANCH  20  21
ATOM     21  C   LIG d   1       7.682 -12.767  -2.363  0.00  0.00     0.079 C 
ATOM     22  H   LIG d   1       6.853 -13.475  -2.336  0.00  0.00     0.066 H 
ATOM     23  H   LIG d   1       8.581 -13.246  -1.976  0.00  0.00     0.066 H 
ATOM     24  H   LIG d   1       7.439 -11.900  -1.748  0.00  0.00     0.066 H 
ENDBRANCH  20  21
ENDBRANCH  11  20
BRANCH  12  25
ATOM     25  O   LIG d   1       9.342 -10.050  -3.240  0.00  0.00    -0.491 OA
BRANCH  25  26
ATOM     26  C   LIG d   1       9.466  -9.466  -1.942  0.00  0.00     0.079 C 
ATOM     27  H   LIG d   1      10.405  -9.784  -1.488  0.00  0.00     0.066 H 
ATOM     28  H   LIG d   1       9.455  -8.379  -2.031  0.00  0.00     0.066 H 
ATOM     29  H   LIG d   1       8.632  -9.787  -1.318  0.00  0.00     0.066 H 
ENDBRANCH  25  26
ENDBRANCH  12  25
ENDBRANCH   5   7
BRANCH   1  30
ATOM     30  C   LIG d   1       5.962  -3.891  -5.670  0.00  0.00    -0.022 C 
ATOM     31  H   LIG d   1       6.470  -3.512  -6.545  0.00  0.00     0.065 H 
BRANCH  30  32
ATOM     32  C   LIG d   1       5.608  -2.982  -4.579  0.00  0.00    -0.023 A 
ATOM     33  C   LIG d   1       6.489  -1.958  -4.202  0.00  0.00    -0.051 A 
ATOM     34  C   LIG d   1       6.149  -1.106  -3.183  0.00  0.00    -0.019 A 
ATOM     35  H   LIG d   1       7.431  -1.838  -4.716  0.00  0.00     0.062 H 
ATOM     36  C   LIG d   1       4.938  -1.261  -2.517  0.00  0.00     0.120 A 
ATOM     37  H   LIG d   1       6.824  -0.314  -2.895  0.00  0.00     0.065 H 
ATOM     38  C   LIG d   1       4.060  -2.275  -2.886  0.00  0.00    -0.019 A 
ATOM     39  C   LIG d   1       4.386  -3.131  -3.906  0.00  0.00    -0.051 A 
ATOM     40  H   LIG d   1       3.119  -2.389  -2.368  0.00  0.00     0.065 H 
ATOM     41  H   LIG d   1       3.704  -3.917  -4.192  0.00  0.00     0.062 H 
BRANCH  36  42
ATOM     42  O   LIG d   1       4.609  -0.418  -1.505  0.00  0.00    -0.495 OA
BRANCH  42  43
ATOM     43  C   LIG d   1       4.415   0.956  -1.845  0.00  0.00     0.079 C 
ATOM     44  H   LIG d   1       4.018   1.492  -0.983  0.00  0.00     0.066 H 
ATOM     45  H   LIG d   1       5.369   1.396  -2.137  0.00  0.00     0.066 H 
ATOM     46  H   LIG d   1       3.713   1.031  -2.675  0.00  0.00     0.066 H 
ENDBRANCH  42  43
ENDBRANCH  36  42
ENDBRANCH  30  32
ENDBRANCH   1  30
TORSDOF 11
ENDMDL
MODEL 8
REMARK VINA RESULT:      -5.5      8.488     13.380
REMARK  11 active torsions:
REMARK  status: ('A' for Active; 'I' for Inactive)
REMARK    1  A    between atoms: C_1  and  O_2 
REMARK    2  A    between atoms: O_2  and  C_3 
REMARK    3  A    between atoms: C_6  and  C_9 
REMARK    4  A    between atoms: C_9  and  C_10 
REMARK    5  A    between atoms: C_14  and  C_16 
REMARK    6  A    between atoms: C_18  and  O_26 
REMARK    7  A    between atoms: C_19  and  O_24 
REMARK    8  A    between atoms: C_20  and  O_22 
REMARK    9  A    between atoms: O_22  and  C_23 
REMARK   10  A    between atoms: O_24  and  C_25 
REMARK   11  A    between atoms: O_26  and  C_27 
ROOT
ATOM      1  C   LIG d   1       2.885   0.552  -8.829  0.00  0.00     0.152 A 
ATOM      2  C   LIG d   1       3.498   0.897 -10.125  0.00  0.00     0.364 A 
ATOM      3  O   LIG d   1       4.323   1.763 -10.345  0.00  0.00    -0.243 OA
ATOM      4  O   LIG d   1       2.947   0.044 -11.016  0.00  0.00    -0.402 OA
ATOM      5  C   LIG d   1       2.074  -0.752 -10.370  0.00  0.00     0.232 A 
ATOM      6  N   LIG d   1       2.024  -0.472  -9.096  0.00  0.00    -0.205 NA
ENDROOT
BRANCH   5   7
ATOM      7  C   LIG d   1       1.275  -1.808 -11.019  0.00  0.00     0.044 A 
ATOM      8  C   LIG d   1       0.669  -1.566 -12.255  0.00  0.00    -0.004 A 
ATOM      9  C   LIG d   1      -0.080  -2.557 -12.862  0.00  0.00     0.166 A 
ATOM     10  H   LIG d   1       0.784  -0.606 -12.735  0.00  0.00     0.066 H 
ATOM     11  C   LIG d   1      -0.230  -3.795 -12.243  0.00  0.00     0.203 A 
ATOM     12  C   LIG d   1       0.372  -4.039 -11.012  0.00  0.00     0.166 A 
ATOM     13  C   LIG d   1       1.127  -3.053 -10.404  0.00  0.00    -0.004 A 
ATOM     14  H   LIG d   1       1.598  -3.244  -9.451  0.00  0.00     0.066 H 
BRANCH   9  15
ATOM     15  O   LIG d   1      -0.671  -2.323 -14.064  0.00  0.00    -0.491 OA
BRANCH  15  16
ATOM     16  C   LIG d   1      -1.826  -1.481 -14.066  0.00  0.00     0.079 C 
ATOM     17  H   LIG d   1      -1.644  -0.614 -13.431  0.00  0.00     0.066 H 
ATOM     18  H   LIG d   1      -2.033  -1.150 -15.084  0.00  0.00     0.066 H 
ATOM     19  H   LIG d   1      -2.681  -2.039 -13.684  0.00  0.00     0.066 H 
ENDBRANCH  15  16
ENDBRANCH   9  15
BRANCH  11  20
ATOM     20  O   LIG d   1      -0.967  -4.769 -12.842  0.00  0.00    -0.488 OA
BRANCH  20  21
ATOM     21  C   LIG d   1      -2.347  -4.854 -12.479  0.00  0.00     0.079 C 
ATOM     22  H   LIG d   1      -2.865  -5.514 -13.174  0.00  0.00     0.066 H 
ATOM     23  H   LIG d   1      -2.433  -5.250 -11.468  0.00  0.00     0.066 H 
ATOM     24  H   LIG d   1      -2.795  -3.860 -12.521  0.00  0.00     0.066 H 
ENDBRANCH  20  21
ENDBRANCH  11  20
BRANCH  12  25
ATOM     25  O   LIG d   1       0.224  -5.249 -10.411  0.00  0.00    -0.491 OA
BRANCH  25  26
ATOM     26  C   LIG d   1       1.410  -6.015 -10.193  0.00  0.00     0.079 C 
ATOM     27  H   LIG d   1       1.229  -7.054 -10.470  0.00  0.00     0.066 H 
ATOM     28  H   LIG d   1       2.220  -5.612 -10.802  0.00  0.00     0.066 H 
ATOM     29  H   LIG d   1       1.688  -5.963  -9.140  0.00  0.00     0.066 H 
ENDBRANCH  25  26
ENDBRANCH  12  25
ENDBRANCH   5   7
BRANCH   1  30
ATOM     30  C   LIG d   1       3.128   1.144  -7.608  0.00  0.00    -0.022 C 
ATOM     31  H   LIG d   1       3.228   2.217  -7.538  0.00  0.00     0.065 H 
BRANCH  30  32
ATOM     32  C   LIG d   1       3.252   0.319  -6.405  0.00  0.00    -0.023 A 
ATOM     33  C   LIG d   1       4.221  -0.692  -6.342  0.00  0.00    -0.051 A 
ATOM     34  C   LIG d   1       4.336  -1.458  -5.210  0.00  0.00    -0.019 A 
ATOM     35  H   LIG d   1       4.879  -0.866  -7.181  0.00  0.00     0.062 H 
ATOM     36  C   LIG d   1       3.488  -1.240  -4.130  0.00  0.00     0.120 A 
ATOM     37  H   LIG d   1       5.086  -2.235  -5.159  0.00  0.00     0.065 H 
ATOM     38  C   LIG d   1       2.524  -0.239  -4.186  0.00  0.00    -0.019 A 
ATOM     39  C   LIG d   1       2.402   0.536  -5.311  0.00  0.00    -0.051 A 
ATOM     40  H   LIG d   1       1.871  -0.071  -3.343  0.00  0.00     0.065 H 
ATOM     41  H   LIG d   1       1.654   1.314  -5.353  0.00  0.00     0.062 H 
BRANCH  36  42
ATOM     42  O   LIG d   1       3.603  -2.004  -3.014  0.00  0.00    -0.495 OA
BRANCH  42  43
ATOM     43  C   LIG d   1       4.372  -1.466  -1.937  0.00  0.00     0.079 C 
ATOM     44  H   LIG d   1       5.375  -1.890  -1.959  0.00  0.00     0.066 H 
ATOM     45  H   LIG d   1       4.433  -0.383  -2.040  0.00  0.00     0.066 H 
ATOM     46  H   LIG d   1       3.893  -1.714  -0.989  0.00  0.00     0.066 H 
ENDBRANCH  42  43
ENDBRANCH  36  42
ENDBRANCH  30  32
ENDBRANCH   1  30
TORSDOF 11
ENDMDL
MODEL 9
REMARK VINA RESULT:      -5.4      2.046      8.561
REMARK  11 active torsions:
REMARK  status: ('A' for Active; 'I' for Inactive)
REMARK    1  A    between atoms: C_1  and  O_2 
REMARK    2  A    between atoms: O_2  and  C_3 
REMARK    3  A    between atoms: C_6  and  C_9 
REMARK    4  A    between atoms: C_9  and  C_10 
REMARK    5  A    between atoms: C_14  and  C_16 
REMARK    6  A    between atoms: C_18  and  O_26 
REMARK    7  A    between atoms: C_19  and  O_24 
REMARK    8  A    between atoms: C_20  and  O_22 
REMARK    9  A    between atoms: O_22  and  C_23 
REMARK   10  A    between atoms: O_24  and  C_25 
REMARK   11  A    between atoms: O_26  and  C_27 
ROOT
ATOM      1  C   LIG d   1      10.196   3.454  -3.333  0.00  0.00     0.152 A 
ATOM      2  C   LIG d   1      10.213   3.734  -4.780  0.00  0.00     0.364 A 
ATOM      3  O   LIG d   1      10.937   4.510  -5.375  0.00  0.00    -0.243 OA
ATOM      4  O   LIG d   1       9.251   2.944  -5.306  0.00  0.00    -0.402 OA
ATOM      5  C   LIG d   1       8.677   2.243  -4.311  0.00  0.00     0.232 A 
ATOM      6  N   LIG d   1       9.213   2.525  -3.155  0.00  0.00    -0.205 NA
ENDROOT
BRANCH   5   7
ATOM      7  C   LIG d   1       7.579   1.277  -4.502  0.00  0.00     0.044 A 
ATOM      8  C   LIG d   1       7.403   0.654  -5.741  0.00  0.00    -0.004 A 
ATOM      9  C   LIG d   1       6.373  -0.252  -5.918  0.00  0.00     0.166 A 
ATOM     10  H   LIG d   1       8.070   0.880  -6.559  0.00  0.00     0.066 H 
ATOM     11  C   LIG d   1       5.512  -0.543  -4.863  0.00  0.00     0.203 A 
ATOM     12  C   LIG d   1       5.685   0.075  -3.628  0.00  0.00     0.166 A 
ATOM     13  C   LIG d   1       6.717   0.977  -3.444  0.00  0.00    -0.004 A 
ATOM     14  H   LIG d   1       6.854   1.453  -2.484  0.00  0.00     0.066 H 
BRANCH   9  15
ATOM     15  O   LIG d   1       6.201  -0.858  -7.123  0.00  0.00    -0.491 OA
BRANCH  15  16
ATOM     16  C   LIG d   1       5.997  -0.007  -8.253  0.00  0.00     0.079 C 
ATOM     17  H   LIG d   1       5.447  -0.549  -9.022  0.00  0.00     0.066 H 
ATOM     18  H   LIG d   1       5.428   0.872  -7.948  0.00  0.00     0.066 H 
ATOM     19  H   LIG d   1       6.964   0.305  -8.650  0.00  0.00     0.066 H 
ENDBRANCH  15  16
ENDBRANCH   9  15
BRANCH  11  20
ATOM     20  O   LIG d   1       4.500  -1.435  -5.039  0.00  0.00    -0.488 OA
BRANCH  20  21
ATOM     21  C   LIG d   1       4.773  -2.798  -4.712  0.00  0.00     0.079 C 
ATOM     22  H   LIG d   1       4.265  -3.451  -5.422  0.00  0.00     0.066 H 
ATOM     23  H   LIG d   1       5.847  -2.976  -4.758  0.00  0.00     0.066 H 
ATOM     24  H   LIG d   1       4.412  -3.009  -3.704  0.00  0.00     0.066 H 
ENDBRANCH  20  21
ENDBRANCH  11  20
BRANCH  12  25
ATOM     25  O   LIG d   1       4.843  -0.213  -2.600  0.00  0.00    -0.491 OA
BRANCH  25  26
ATOM     26  C   LIG d   1       4.507   0.859  -1.717  0.00  0.00     0.079 C 
ATOM     27  H   LIG d   1       3.474   0.747  -1.386  0.00  0.00     0.066 H 
ATOM     28  H   LIG d   1       5.170   0.838  -0.853  0.00  0.00     0.066 H 
ATOM     29  H   LIG d   1       4.621   1.810  -2.239  0.00  0.00     0.066 H 
ENDBRANCH  25  26
ENDBRANCH  12  25
ENDBRANCH   5   7
BRANCH   1  30
ATOM     30  C   LIG d   1      11.002   4.015  -2.366  0.00  0.00    -0.022 C 
ATOM     31  H   LIG d   1      11.897   3.503  -2.044  0.00  0.00     0.065 H 
BRANCH  30  32
ATOM     32  C   LIG d   1      10.646   5.306  -1.773  0.00  0.00    -0.023 A 
ATOM     33  C   LIG d   1       9.779   6.175  -2.450  0.00  0.00    -0.051 A 
ATOM     34  C   LIG d   1       9.444   7.381  -1.887  0.00  0.00    -0.019 A 
ATOM     35  H   LIG d   1       9.373   5.896  -3.411  0.00  0.00     0.062 H 
ATOM     36  C   LIG d   1       9.970   7.745  -0.652  0.00  0.00     0.120 A 
ATOM     37  H   LIG d   1       8.773   8.049  -2.406  0.00  0.00     0.065 H 
ATOM     38  C   LIG d   1      10.830   6.887   0.024  0.00  0.00    -0.019 A 
ATOM     39  C   LIG d   1      11.169   5.677  -0.526  0.00  0.00    -0.051 A 
ATOM     40  H   LIG d   1      11.232   7.172   0.984  0.00  0.00     0.065 H 
ATOM     41  H   LIG d   1      11.837   5.011   0.000  0.00  0.00     0.062 H 
BRANCH  36  42
ATOM     42  O   LIG d   1       9.639   8.941  -0.102  0.00  0.00    -0.495 OA
BRANCH  42  43
ATOM     43  C   LIG d   1       8.884   9.841  -0.915  0.00  0.00     0.079 C 
ATOM     44  H   LIG d   1       9.185  10.866  -0.701  0.00  0.00     0.066 H 
ATOM     45  H   LIG d   1       9.068   9.621  -1.967  0.00  0.00     0.066 H 
ATOM     46  H   LIG d   1       7.822   9.722  -0.700  0.00  0.00     0.066 H 
ENDBRANCH  42  43
ENDBRANCH  36  42
ENDBRANCH  30  32
ENDBRANCH   1  30
TORSDOF 11
ENDMDL
MODEL 10
REMARK VINA RESULT:      -5.4      8.260     10.988
REMARK  11 active torsions:
REMARK  status: ('A' for Active; 'I' for Inactive)
REMARK    1  A    between atoms: C_1  and  O_2 
REMARK    2  A    between atoms: O_2  and  C_3 
REMARK    3  A    between atoms: C_6  and  C_9 
REMARK    4  A    between atoms: C_9  and  C_10 
REMARK    5  A    between atoms: C_14  and  C_16 
REMARK    6  A    between atoms: C_18  and  O_26 
REMARK    7  A    between atoms: C_19  and  O_24 
REMARK    8  A    between atoms: C_20  and  O_22 
REMARK    9  A    between atoms: O_22  and  C_23 
REMARK   10  A    between atoms: O_24  and  C_25 
REMARK   11  A    between atoms: O_26  and  C_27 
ROOT
ATOM      1  C   LIG d   1       4.988  -7.660  -6.028  0.00  0.00     0.152 A 
ATOM      2  C   LIG d   1       5.728  -7.338  -7.261  0.00  0.00     0.364 A 
ATOM      3  O   LIG d   1       6.248  -8.119  -8.036  0.00  0.00    -0.243 OA
ATOM      4  O   LIG d   1       5.705  -5.990  -7.348  0.00  0.00    -0.402 OA
ATOM      5  C   LIG d   1       5.035  -5.501  -6.287  0.00  0.00     0.232 A 
ATOM      6  N   LIG d   1       4.609  -6.457  -5.507  0.00  0.00    -0.205 NA
ENDROOT
BRANCH   5   7
ATOM      7  C   LIG d   1       4.810  -4.065  -6.038  0.00  0.00     0.044 A 
ATOM      8  C   LIG d   1       4.944  -3.550  -4.745  0.00  0.00    -0.004 A 
ATOM      9  C   LIG d   1       4.732  -2.203  -4.514  0.00  0.00     0.166 A 
ATOM     10  H   LIG d   1       5.212  -4.203  -3.928  0.00  0.00     0.066 H 
ATOM     11  C   LIG d   1       4.387  -1.360  -5.567  0.00  0.00     0.203 A 
ATOM     12  C   LIG d   1       4.253  -1.870  -6.855  0.00  0.00     0.166 A 
ATOM     13  C   LIG d   1       4.469  -3.215  -7.093  0.00  0.00    -0.004 A 
ATOM     14  H   LIG d   1       4.369  -3.610  -8.093  0.00  0.00     0.066 H 
BRANCH   9  15
ATOM     15  O   LIG d   1       4.862  -1.700  -3.257  0.00  0.00    -0.491 OA
BRANCH  15  16
ATOM     16  C   LIG d   1       3.847  -2.048  -2.313  0.00  0.00     0.079 C 
ATOM     17  H   LIG d   1       3.393  -2.996  -2.599  0.00  0.00     0.066 H 
ATOM     18  H   LIG d   1       4.290  -2.140  -1.321  0.00  0.00     0.066 H 
ATOM     19  H   LIG d   1       3.084  -1.269  -2.299  0.00  0.00     0.066 H 
ENDBRANCH  15  16
ENDBRANCH   9  15
BRANCH  11  20
ATOM     20  O   LIG d   1       4.179  -0.036  -5.337  0.00  0.00    -0.488 OA
BRANCH  20  21
ATOM     21  C   LIG d   1       2.841   0.369  -5.041  0.00  0.00     0.079 C 
ATOM     22  H   LIG d   1       2.550   1.178  -5.711  0.00  0.00     0.066 H 
ATOM     23  H   LIG d   1       2.167  -0.476  -5.177  0.00  0.00     0.066 H 
ATOM     24  H   LIG d   1       2.787   0.716  -4.008  0.00  0.00     0.066 H 
ENDBRANCH  20  21
ENDBRANCH  11  20
BRANCH  12  25
ATOM     25  O   LIG d   1       3.916  -1.045  -7.881  0.00  0.00    -0.491 OA
BRANCH  25  26
ATOM     26  C   LIG d   1       3.156  -1.614  -8.949  0.00  0.00     0.079 C 
ATOM     27  H   LIG d   1       3.680  -1.458  -9.892  0.00  0.00     0.066 H 
ATOM     28  H   LIG d   1       3.030  -2.682  -8.776  0.00  0.00     0.066 H 
ATOM     29  H   LIG d   1       2.177  -1.136  -8.994  0.00  0.00     0.066 H 
ENDBRANCH  25  26
ENDBRANCH  12  25
ENDBRANCH   5   7
BRANCH   1  30
ATOM     30  C   LIG d   1       4.736  -8.912  -5.509  0.00  0.00    -0.022 C 
ATOM     31  H   LIG d   1       4.059  -9.582  -6.019  0.00  0.00     0.065 H 
BRANCH  30  32
ATOM     32  C   LIG d   1       5.386  -9.336  -4.267  0.00  0.00    -0.023 A 
ATOM     33  C   LIG d   1       4.675 -10.088  -3.322  0.00  0.00    -0.051 A 
ATOM     34  C   LIG d   1       5.291 -10.488  -2.164  0.00  0.00    -0.019 A 
ATOM     35  H   LIG d   1       3.645 -10.357  -3.508  0.00  0.00     0.062 H 
ATOM     36  C   LIG d   1       6.615 -10.139  -1.921  0.00  0.00     0.120 A 
ATOM     37  H   LIG d   1       4.745 -11.072  -1.437  0.00  0.00     0.065 H 
ATOM     38  C   LIG d   1       7.326  -9.392  -2.854  0.00  0.00    -0.019 A 
ATOM     39  C   LIG d   1       6.723  -8.991  -4.018  0.00  0.00    -0.051 A 
ATOM     40  H   LIG d   1       8.355  -9.128  -2.663  0.00  0.00     0.065 H 
ATOM     41  H   LIG d   1       7.276  -8.412  -4.743  0.00  0.00     0.062 H 
BRANCH  36  42
ATOM     42  O   LIG d   1       7.218 -10.533  -0.770  0.00  0.00    -0.495 OA
BRANCH  42  43
ATOM     43  C   LIG d   1       7.498 -11.927  -0.630  0.00  0.00     0.079 C 
ATOM     44  H   LIG d   1       8.216 -12.074   0.177  0.00  0.00     0.066 H 
ATOM     45  H   LIG d   1       6.577 -12.460  -0.397  0.00  0.00     0.066 H 
ATOM     46  H   LIG d   1       7.914 -12.310  -1.561  0.00  0.00     0.066 H 
ENDBRANCH  42  43
ENDBRANCH  36  42
ENDBRANCH  30  32
ENDBRANCH   1  30
TORSDOF 11
ENDMDL
