MODEL 1
REMARK VINA RESULT:      -8.0      0.000      0.000
REMARK  5 active torsions:
REMARK  status: ('A' for Active; 'I' for Inactive)
REMARK    1  A    between atoms: C_1  and  C_2 
REMARK    2  A    between atoms: C_3  and  O_24 
REMARK    3  A    between atoms: C_12  and  C_13 
REMARK    4  A    between atoms: O_24  and  C_25 
REMARK    5  A    between atoms: C_25  and  C_26 
ROOT
ATOM      1  C   LIG d   1      11.387   4.900  -4.323  0.00  0.00     0.034 A 
ATOM      2  C   LIG d   1      11.476   4.714  -2.953  0.00  0.00     0.127 A 
ATOM      3  C   LIG d   1      10.701   3.746  -2.320  0.00  0.00    -0.019 A 
ATOM      4  C   LIG d   1       9.842   2.967  -3.042  0.00  0.00    -0.047 A 
ATOM      5  C   LIG d   1       9.742   3.143  -4.424  0.00  0.00     0.026 A 
ATOM      6  C   LIG d   1      10.520   4.117  -5.071  0.00  0.00     0.146 A 
ATOM      7  O   LIG d   1      10.420   4.285  -6.407  0.00  0.00    -0.422 OA
ATOM      8  C   LIG d   1       9.590   3.542  -7.156  0.00  0.00     0.338 A 
ATOM      9  O   LIG d   1       9.546   3.734  -8.359  0.00  0.00    -0.245 OA
ATOM     10  C   LIG d   1       8.776   2.547  -6.594  0.00  0.00     0.032 A 
ATOM     11  C   LIG d   1       8.824   2.317  -5.229  0.00  0.00     0.006 A 
ATOM     12  H   LIG d   1      10.778   3.610  -1.251  0.00  0.00     0.065 H 
ATOM     13  H   LIG d   1       9.243   2.217  -2.547  0.00  0.00     0.063 H 
ATOM     14  H   LIG d   1       8.118   1.964  -7.221  0.00  0.00     0.070 H 
ENDROOT
BRANCH  11  15
ATOM     15  C   LIG d   1       7.984   1.280  -4.602  0.00  0.00     0.068 A 
ATOM     16  C   LIG d   1       8.266  -0.144  -4.822  0.00  0.00     0.345 A 
ATOM     17  O   LIG d   1       7.499  -1.081  -4.240  0.00  0.00    -0.422 OA
ATOM     18  O   LIG d   1       9.200  -0.475  -5.527  0.00  0.00    -0.244 OA
ATOM     19  C   LIG d   1       6.451  -0.747  -3.456  0.00  0.00     0.139 A 
ATOM     20  C   LIG d   1       6.132   0.600  -3.216  0.00  0.00     0.018 A 
ATOM     21  C   LIG d   1       5.675  -1.744  -2.875  0.00  0.00    -0.019 A 
ATOM     22  C   LIG d   1       6.914   1.631  -3.800  0.00  0.00    -0.036 A 
ATOM     23  C   LIG d   1       5.039   0.922  -2.398  0.00  0.00    -0.051 A 
ATOM     24  H   LIG d   1       6.676   2.670  -3.622  0.00  0.00     0.063 H 
ATOM     25  C   LIG d   1       4.292  -0.075  -1.839  0.00  0.00    -0.061 A 
ATOM     26  H   LIG d   1       4.789   1.956  -2.209  0.00  0.00     0.062 H 
ATOM     27  C   LIG d   1       4.606  -1.406  -2.074  0.00  0.00    -0.058 A 
ATOM     28  H   LIG d   1       3.452   0.175  -1.208  0.00  0.00     0.062 H 
ATOM     29  H   LIG d   1       4.006  -2.184  -1.626  0.00  0.00     0.062 H 
ATOM     30  H   LIG d   1       5.910  -2.783  -3.052  0.00  0.00     0.065 H 
ENDBRANCH  11  15
BRANCH   1  31
ATOM     31  C   LIG d   1      12.230   5.951  -4.999  0.00  0.00    -0.033 C 
ATOM     32  H   LIG d   1      11.599   6.789  -5.293  0.00  0.00     0.028 H 
ATOM     33  H   LIG d   1      12.998   6.300  -4.308  0.00  0.00     0.028 H 
ATOM     34  H   LIG d   1      12.702   5.524  -5.883  0.00  0.00     0.028 H 
ENDBRANCH   1  31
BRANCH   2  35
ATOM     35  O   LIG d   1      12.325   5.481  -2.222  0.00  0.00    -0.487 OA
BRANCH  35  36
ATOM     36  C   LIG d   1      12.072   5.571  -0.819  0.00  0.00     0.117 C 
ATOM     37  H   LIG d   1      11.283   4.871  -0.546  0.00  0.00     0.075 H 
ATOM     38  H   LIG d   1      12.981   5.328  -0.268  0.00  0.00     0.075 H 
BRANCH  36  39
ATOM     39  C   LIG d   1      11.638   6.974  -0.477  0.00  0.00     0.025 A 
ATOM     40  C   LIG d   1      10.337   7.377  -0.730  0.00  0.00     0.131 A 
ATOM     41  C   LIG d   1       9.938   8.663  -0.410  0.00  0.00    -0.008 A 
ATOM     42  F   LIG d   1       9.458   6.514  -1.281  0.00  0.00    -0.205 F 
ATOM     43  C   LIG d   1      10.842   9.549   0.150  0.00  0.00     0.044 A 
ATOM     44  H   LIG d   1       8.923   8.977  -0.601  0.00  0.00     0.066 H 
ATOM     45  C   LIG d   1      12.142   9.146   0.396  0.00  0.00    -0.043 A 
ATOM     46 CL   LIG d   1      10.344  11.164   0.545  0.00  0.00    -0.084 Cl
ATOM     47  C   LIG d   1      12.539   7.859   0.083  0.00  0.00    -0.051 A 
ATOM     48  H   LIG d   1      12.848   9.837   0.832  0.00  0.00     0.063 H 
ATOM     49  H   LIG d   1      13.556   7.546   0.275  0.00  0.00     0.062 H 
ENDBRANCH  36  39
ENDBRANCH  35  36
ENDBRANCH   2  35
TORSDOF 5
ENDMDL
MODEL 2
REMARK VINA RESULT:      -7.8      2.021      2.681
REMARK  5 active torsions:
REMARK  status: ('A' for Active; 'I' for Inactive)
REMARK    1  A    between atoms: C_1  and  C_2 
REMARK    2  A    between atoms: C_3  and  O_24 
REMARK    3  A    between atoms: C_12  and  C_13 
REMARK    4  A    between atoms: O_24  and  C_25 
REMARK    5  A    between atoms: C_25  and  C_26 
ROOT
ATOM      1  C   LIG d   1      11.652   2.513  -4.174  0.00  0.00     0.034 A 
ATOM      2  C   LIG d   1      10.942   3.507  -3.520  0.00  0.00     0.127 A 
ATOM      3  C   LIG d   1       9.569   3.382  -3.323  0.00  0.00    -0.019 A 
ATOM      4  C   LIG d   1       8.904   2.276  -3.773  0.00  0.00    -0.047 A 
ATOM      5  C   LIG d   1       9.606   1.266  -4.434  0.00  0.00     0.026 A 
ATOM      6  C   LIG d   1      10.991   1.384  -4.637  0.00  0.00     0.146 A 
ATOM      7  O   LIG d   1      11.667   0.406  -5.277  0.00  0.00    -0.422 OA
ATOM      8  C   LIG d   1      11.055  -0.697  -5.736  0.00  0.00     0.338 A 
ATOM      9  O   LIG d   1      11.716  -1.550  -6.301  0.00  0.00    -0.245 OA
ATOM     10  C   LIG d   1       9.675  -0.898  -5.577  0.00  0.00     0.032 A 
ATOM     11  C   LIG d   1       8.915   0.063  -4.931  0.00  0.00     0.006 A 
ATOM     12  H   LIG d   1       9.026   4.163  -2.813  0.00  0.00     0.065 H 
ATOM     13  H   LIG d   1       7.840   2.184  -3.619  0.00  0.00     0.063 H 
ATOM     14  H   LIG d   1       9.209  -1.796  -5.957  0.00  0.00     0.070 H 
ENDROOT
BRANCH  11  15
ATOM     15  C   LIG d   1       7.463  -0.113  -4.745  0.00  0.00     0.068 A 
ATOM     16  C   LIG d   1       6.515   0.386  -5.750  0.00  0.00     0.345 A 
ATOM     17  O   LIG d   1       5.195   0.215  -5.574  0.00  0.00    -0.422 OA
ATOM     18  O   LIG d   1       6.928   0.949  -6.746  0.00  0.00    -0.244 OA
ATOM     19  C   LIG d   1       4.704  -0.401  -4.477  0.00  0.00     0.139 A 
ATOM     20  C   LIG d   1       5.565  -0.892  -3.481  0.00  0.00     0.018 A 
ATOM     21  C   LIG d   1       3.330  -0.555  -4.326  0.00  0.00    -0.019 A 
ATOM     22  C   LIG d   1       6.969  -0.745  -3.619  0.00  0.00    -0.036 A 
ATOM     23  C   LIG d   1       5.030  -1.529  -2.351  0.00  0.00    -0.051 A 
ATOM     24  H   LIG d   1       7.639  -1.119  -2.859  0.00  0.00     0.063 H 
ATOM     25  C   LIG d   1       3.678  -1.669  -2.225  0.00  0.00    -0.061 A 
ATOM     26  H   LIG d   1       5.687  -1.910  -1.582  0.00  0.00     0.062 H 
ATOM     27  C   LIG d   1       2.826  -1.184  -3.207  0.00  0.00    -0.058 A 
ATOM     28  H   LIG d   1       3.269  -2.160  -1.354  0.00  0.00     0.062 H 
ATOM     29  H   LIG d   1       1.759  -1.301  -3.094  0.00  0.00     0.062 H 
ATOM     30  H   LIG d   1       2.658  -0.182  -5.084  0.00  0.00     0.065 H 
ENDBRANCH  11  15
BRANCH   1  31
ATOM     31  C   LIG d   1      13.137   2.658  -4.383  0.00  0.00    -0.033 C 
ATOM     32  H   LIG d   1      13.663   2.338  -3.484  0.00  0.00     0.028 H 
ATOM     33  H   LIG d   1      13.447   2.039  -5.225  0.00  0.00     0.028 H 
ATOM     34  H   LIG d   1      13.375   3.701  -4.591  0.00  0.00     0.028 H 
ENDBRANCH   1  31
BRANCH   2  35
ATOM     35  O   LIG d   1      11.589   4.611  -3.067  0.00  0.00    -0.487 OA
BRANCH  35  36
ATOM     36  C   LIG d   1      11.658   4.787  -1.651  0.00  0.00     0.117 C 
ATOM     37  H   LIG d   1      11.086   4.000  -1.158  0.00  0.00     0.075 H 
ATOM     38  H   LIG d   1      12.698   4.737  -1.328  0.00  0.00     0.075 H 
BRANCH  36  39
ATOM     39  C   LIG d   1      11.083   6.131  -1.284  0.00  0.00     0.025 A 
ATOM     40  C   LIG d   1      11.210   6.608   0.010  0.00  0.00     0.131 A 
ATOM     41  C   LIG d   1      10.687   7.845   0.345  0.00  0.00    -0.008 A 
ATOM     42  F   LIG d   1      11.849   5.870   0.943  0.00  0.00    -0.205 F 
ATOM     43  C   LIG d   1      10.027   8.598  -0.610  0.00  0.00     0.044 A 
ATOM     44  H   LIG d   1      10.790   8.221   1.352  0.00  0.00     0.066 H 
ATOM     45  C   LIG d   1       9.897   8.117  -1.900  0.00  0.00    -0.043 A 
ATOM     46 CL   LIG d   1       9.365  10.147  -0.189  0.00  0.00    -0.084 Cl
ATOM     47  C   LIG d   1      10.424   6.885  -2.237  0.00  0.00    -0.051 A 
ATOM     48  H   LIG d   1       9.380   8.705  -2.645  0.00  0.00     0.063 H 
ATOM     49  H   LIG d   1      10.321   6.510  -3.245  0.00  0.00     0.062 H 
ENDBRANCH  36  39
ENDBRANCH  35  36
ENDBRANCH   2  35
TORSDOF 5
ENDMDL
MODEL 3
REMARK VINA RESULT:      -7.5      3.919      6.228
REMARK  5 active torsions:
REMARK  status: ('A' for Active; 'I' for Inactive)
REMARK    1  A    between atoms: C_1  and  C_2 
REMARK    2  A    between atoms: C_3  and  O_24 
REMARK    3  A    between atoms: C_12  and  C_13 
REMARK    4  A    between atoms: O_24  and  C_25 
REMARK    5  A    between atoms: C_25  and  C_26 
ROOT
ATOM      1  C   LIG d   1      10.142   3.865  -7.228  0.00  0.00     0.034 A 
ATOM      2  C   LIG d   1       9.279   3.475  -8.238  0.00  0.00     0.127 A 
ATOM      3  C   LIG d   1       8.271   2.547  -7.989  0.00  0.00    -0.019 A 
ATOM      4  C   LIG d   1       8.122   2.007  -6.742  0.00  0.00    -0.047 A 
ATOM      5  C   LIG d   1       8.985   2.390  -5.713  0.00  0.00     0.026 A 
ATOM      6  C   LIG d   1      10.004   3.326  -5.956  0.00  0.00     0.146 A 
ATOM      7  O   LIG d   1      10.837   3.694  -4.959  0.00  0.00    -0.422 OA
ATOM      8  C   LIG d   1      10.727   3.190  -3.720  0.00  0.00     0.338 A 
ATOM      9  O   LIG d   1      11.503   3.563  -2.858  0.00  0.00    -0.245 OA
ATOM     10  C   LIG d   1       9.739   2.251  -3.387  0.00  0.00     0.032 A 
ATOM     11  C   LIG d   1       8.848   1.825  -4.359  0.00  0.00     0.006 A 
ATOM     12  H   LIG d   1       7.605   2.250  -8.785  0.00  0.00     0.065 H 
ATOM     13  H   LIG d   1       7.340   1.288  -6.553  0.00  0.00     0.063 H 
ATOM     14  H   LIG d   1       9.674   1.862  -2.382  0.00  0.00     0.070 H 
ENDROOT
BRANCH  11  15
ATOM     15  C   LIG d   1       7.796   0.839  -4.048  0.00  0.00     0.068 A 
ATOM     16  C   LIG d   1       7.961  -0.572  -4.419  0.00  0.00     0.345 A 
ATOM     17  O   LIG d   1       7.000  -1.463  -4.126  0.00  0.00    -0.422 OA
ATOM     18  O   LIG d   1       8.974  -0.935  -4.988  0.00  0.00    -0.244 OA
ATOM     19  C   LIG d   1       5.862  -1.092  -3.500  0.00  0.00     0.139 A 
ATOM     20  C   LIG d   1       5.649   0.246  -3.128  0.00  0.00     0.018 A 
ATOM     21  C   LIG d   1       4.886  -2.041  -3.217  0.00  0.00    -0.019 A 
ATOM     22  C   LIG d   1       6.635   1.228  -3.407  0.00  0.00    -0.036 A 
ATOM     23  C   LIG d   1       4.459   0.607  -2.478  0.00  0.00    -0.051 A 
ATOM     24  H   LIG d   1       6.480   2.260  -3.125  0.00  0.00     0.063 H 
ATOM     25  C   LIG d   1       3.515  -0.343  -2.211  0.00  0.00    -0.061 A 
ATOM     26  H   LIG d   1       4.289   1.634  -2.189  0.00  0.00     0.062 H 
ATOM     27  C   LIG d   1       3.724  -1.665  -2.579  0.00  0.00    -0.058 A 
ATOM     28  H   LIG d   1       2.600  -0.063  -1.711  0.00  0.00     0.062 H 
ATOM     29  H   LIG d   1       2.969  -2.405  -2.361  0.00  0.00     0.062 H 
ATOM     30  H   LIG d   1       5.038  -3.073  -3.498  0.00  0.00     0.065 H 
ENDBRANCH  11  15
BRANCH   1  31
ATOM     31  C   LIG d   1      11.230   4.870  -7.508  0.00  0.00    -0.033 C 
ATOM     32  H   LIG d   1      11.053   5.770  -6.921  0.00  0.00     0.028 H 
ATOM     33  H   LIG d   1      12.196   4.444  -7.236  0.00  0.00     0.028 H 
ATOM     34  H   LIG d   1      11.228   5.121  -8.568  0.00  0.00     0.028 H 
ENDBRANCH   1  31
BRANCH   2  35
ATOM     35  O   LIG d   1       9.415   4.003  -9.482  0.00  0.00    -0.487 OA
BRANCH  35  36
ATOM     36  C   LIG d   1       8.467   4.998  -9.871  0.00  0.00     0.117 C 
ATOM     37  H   LIG d   1       7.816   4.596 -10.647  0.00  0.00     0.075 H 
ATOM     38  H   LIG d   1       7.868   5.288  -9.008  0.00  0.00     0.075 H 
BRANCH  36  39
ATOM     39  C   LIG d   1       9.197   6.205 -10.403  0.00  0.00     0.025 A 
ATOM     40  C   LIG d   1       9.487   7.265  -9.561  0.00  0.00     0.131 A 
ATOM     41  C   LIG d   1      10.163   8.370 -10.049  0.00  0.00    -0.008 A 
ATOM     42  F   LIG d   1       9.116   7.218  -8.263  0.00  0.00    -0.205 F 
ATOM     43  C   LIG d   1      10.537   8.420 -11.380  0.00  0.00     0.044 A 
ATOM     44  H   LIG d   1      10.394   9.196  -9.392  0.00  0.00     0.066 H 
ATOM     45  C   LIG d   1      10.241   7.362 -12.221  0.00  0.00    -0.043 A 
ATOM     46 CL   LIG d   1      11.378   9.809 -11.994  0.00  0.00    -0.084 Cl
ATOM     47  C   LIG d   1       9.573   6.255 -11.732  0.00  0.00    -0.051 A 
ATOM     48  H   LIG d   1      10.533   7.401 -13.260  0.00  0.00     0.063 H 
ATOM     49  H   LIG d   1       9.342   5.430 -12.390  0.00  0.00     0.062 H 
ENDBRANCH  36  39
ENDBRANCH  35  36
ENDBRANCH   2  35
TORSDOF 5
ENDMDL
MODEL 4
REMARK VINA RESULT:      -7.4      3.045      3.902
REMARK  5 active torsions:
REMARK  status: ('A' for Active; 'I' for Inactive)
REMARK    1  A    between atoms: C_1  and  C_2 
REMARK    2  A    between atoms: C_3  and  O_24 
REMARK    3  A    between atoms: C_12  and  C_13 
REMARK    4  A    between atoms: O_24  and  C_25 
REMARK    5  A    between atoms: C_25  and  C_26 
ROOT
ATOM      1  C   LIG d   1      11.675   2.622  -4.167  0.00  0.00     0.034 A 
ATOM      2  C   LIG d   1      10.954   3.595  -3.495  0.00  0.00     0.127 A 
ATOM      3  C   LIG d   1       9.585   3.445  -3.287  0.00  0.00    -0.019 A 
ATOM      4  C   LIG d   1       8.935   2.333  -3.746  0.00  0.00    -0.047 A 
ATOM      5  C   LIG d   1       9.649   1.343  -4.425  0.00  0.00     0.026 A 
ATOM      6  C   LIG d   1      11.030   1.488  -4.638  0.00  0.00     0.146 A 
ATOM      7  O   LIG d   1      11.717   0.529  -5.296  0.00  0.00    -0.422 OA
ATOM      8  C   LIG d   1      11.119  -0.579  -5.763  0.00  0.00     0.338 A 
ATOM      9  O   LIG d   1      11.790  -1.413  -6.344  0.00  0.00    -0.245 OA
ATOM     10  C   LIG d   1       9.745  -0.806  -5.595  0.00  0.00     0.032 A 
ATOM     11  C   LIG d   1       8.974   0.135  -4.930  0.00  0.00     0.006 A 
ATOM     12  H   LIG d   1       9.034   4.210  -2.763  0.00  0.00     0.065 H 
ATOM     13  H   LIG d   1       7.874   2.220  -3.582  0.00  0.00     0.063 H 
ATOM     14  H   LIG d   1       9.290  -1.706  -5.981  0.00  0.00     0.070 H 
ENDROOT
BRANCH  11  15
ATOM     15  C   LIG d   1       7.527  -0.068  -4.734  0.00  0.00     0.068 A 
ATOM     16  C   LIG d   1       6.562   0.426  -5.723  0.00  0.00     0.345 A 
ATOM     17  O   LIG d   1       5.246   0.231  -5.538  0.00  0.00    -0.422 OA
ATOM     18  O   LIG d   1       6.956   1.009  -6.716  0.00  0.00    -0.244 OA
ATOM     19  C   LIG d   1       4.775  -0.407  -4.445  0.00  0.00     0.139 A 
ATOM     20  C   LIG d   1       5.654  -0.895  -3.462  0.00  0.00     0.018 A 
ATOM     21  C   LIG d   1       3.406  -0.587  -4.283  0.00  0.00    -0.019 A 
ATOM     22  C   LIG d   1       7.054  -0.722  -3.611  0.00  0.00    -0.036 A 
ATOM     23  C   LIG d   1       5.140  -1.555  -2.335  0.00  0.00    -0.051 A 
ATOM     24  H   LIG d   1       7.738  -1.094  -2.861  0.00  0.00     0.063 H 
ATOM     25  C   LIG d   1       3.792  -1.719  -2.199  0.00  0.00    -0.061 A 
ATOM     26  H   LIG d   1       5.811  -1.933  -1.577  0.00  0.00     0.062 H 
ATOM     27  C   LIG d   1       2.923  -1.237  -3.168  0.00  0.00    -0.058 A 
ATOM     28  H   LIG d   1       3.399  -2.227  -1.331  0.00  0.00     0.062 H 
ATOM     29  H   LIG d   1       1.859  -1.374  -3.047  0.00  0.00     0.062 H 
ATOM     30  H   LIG d   1       2.720  -0.216  -5.031  0.00  0.00     0.065 H 
ENDBRANCH  11  15
BRANCH   1  31
ATOM     31  C   LIG d   1      13.156   2.795  -4.387  0.00  0.00    -0.033 C 
ATOM     32  H   LIG d   1      13.519   2.008  -5.046  0.00  0.00     0.028 H 
ATOM     33  H   LIG d   1      13.344   3.767  -4.844  0.00  0.00     0.028 H 
ATOM     34  H   LIG d   1      13.675   2.737  -3.431  0.00  0.00     0.028 H 
ENDBRANCH   1  31
BRANCH   2  35
ATOM     35  O   LIG d   1      11.587   4.705  -3.034  0.00  0.00    -0.487 OA
BRANCH  35  36
ATOM     36  C   LIG d   1      10.852   5.930  -3.066  0.00  0.00     0.117 C 
ATOM     37  H   LIG d   1       9.819   5.742  -2.776  0.00  0.00     0.075 H 
ATOM     38  H   LIG d   1      11.300   6.642  -2.372  0.00  0.00     0.075 H 
BRANCH  36  39
ATOM     39  C   LIG d   1      10.887   6.500  -4.461  0.00  0.00     0.025 A 
ATOM     40  C   LIG d   1       9.705   6.724  -5.147  0.00  0.00     0.131 A 
ATOM     41  C   LIG d   1       9.737   7.253  -6.426  0.00  0.00    -0.008 A 
ATOM     42  F   LIG d   1       8.521   6.433  -4.565  0.00  0.00    -0.205 F 
ATOM     43  C   LIG d   1      10.951   7.545  -7.023  0.00  0.00     0.044 A 
ATOM     44  H   LIG d   1       8.816   7.433  -6.960  0.00  0.00     0.066 H 
ATOM     45  C   LIG d   1      12.131   7.314  -6.338  0.00  0.00    -0.043 A 
ATOM     46 CL   LIG d   1      10.993   8.201  -8.630  0.00  0.00    -0.084 Cl
ATOM     47  C   LIG d   1      12.098   6.793  -5.059  0.00  0.00    -0.051 A 
ATOM     48  H   LIG d   1      13.078   7.541  -6.805  0.00  0.00     0.063 H 
ATOM     49  H   LIG d   1      13.021   6.613  -4.525  0.00  0.00     0.062 H 
ENDBRANCH  36  39
ENDBRANCH  35  36
ENDBRANCH   2  35
TORSDOF 5
ENDMDL
MODEL 5
REMARK VINA RESULT:      -7.4      9.033     13.215
REMARK  5 active torsions:
REMARK  status: ('A' for Active; 'I' for Inactive)
REMARK    1  A    between atoms: C_1  and  C_2 
REMARK    2  A    between atoms: C_3  and  O_24 
REMARK    3  A    between atoms: C_12  and  C_13 
REMARK    4  A    between atoms: O_24  and  C_25 
REMARK    5  A    between atoms: C_25  and  C_26 
ROOT
ATOM      1  C   LIG d   1       2.448  -1.909 -11.289  0.00  0.00     0.034 A 
ATOM      2  C   LIG d   1       2.341  -3.208 -10.821  0.00  0.00     0.127 A 
ATOM      3  C   LIG d   1       2.723  -3.524  -9.519  0.00  0.00    -0.019 A 
ATOM      4  C   LIG d   1       3.209  -2.555  -8.688  0.00  0.00    -0.047 A 
ATOM      5  C   LIG d   1       3.323  -1.240  -9.146  0.00  0.00     0.026 A 
ATOM      6  C   LIG d   1       2.939  -0.914 -10.457  0.00  0.00     0.146 A 
ATOM      7  O   LIG d   1       3.051   0.359 -10.897  0.00  0.00    -0.422 OA
ATOM      8  C   LIG d   1       3.523   1.342 -10.114  0.00  0.00     0.338 A 
ATOM      9  O   LIG d   1       3.596   2.472 -10.563  0.00  0.00    -0.245 OA
ATOM     10  C   LIG d   1       3.929   1.105  -8.792  0.00  0.00     0.032 A 
ATOM     11  C   LIG d   1       3.844  -0.176  -8.271  0.00  0.00     0.006 A 
ATOM     12  H   LIG d   1       2.635  -4.540  -9.166  0.00  0.00     0.065 H 
ATOM     13  H   LIG d   1       3.504  -2.805  -7.680  0.00  0.00     0.063 H 
ATOM     14  H   LIG d   1       4.305   1.915  -8.185  0.00  0.00     0.070 H 
ENDROOT
BRANCH  11  15
ATOM     15  C   LIG d   1       4.260  -0.463  -6.886  0.00  0.00     0.068 A 
ATOM     16  C   LIG d   1       5.632  -0.898  -6.593  0.00  0.00     0.345 A 
ATOM     17  O   LIG d   1       6.003  -1.151  -5.327  0.00  0.00    -0.422 OA
ATOM     18  O   LIG d   1       6.435  -1.022  -7.498  0.00  0.00    -0.244 OA
ATOM     19  C   LIG d   1       5.135  -1.028  -4.300  0.00  0.00     0.139 A 
ATOM     20  C   LIG d   1       3.808  -0.621  -4.524  0.00  0.00     0.018 A 
ATOM     21  C   LIG d   1       5.552  -1.304  -3.003  0.00  0.00    -0.019 A 
ATOM     22  C   LIG d   1       3.365  -0.334  -5.840  0.00  0.00    -0.036 A 
ATOM     23  C   LIG d   1       2.925  -0.500  -3.440  0.00  0.00    -0.051 A 
ATOM     24  H   LIG d   1       2.346  -0.021  -6.023  0.00  0.00     0.063 H 
ATOM     25  C   LIG d   1       3.358  -0.777  -2.176  0.00  0.00    -0.061 A 
ATOM     26  H   LIG d   1       1.904  -0.188  -3.606  0.00  0.00     0.062 H 
ATOM     27  C   LIG d   1       4.668  -1.179  -1.953  0.00  0.00    -0.058 A 
ATOM     28  H   LIG d   1       2.677  -0.683  -1.343  0.00  0.00     0.062 H 
ATOM     29  H   LIG d   1       4.997  -1.394  -0.947  0.00  0.00     0.062 H 
ATOM     30  H   LIG d   1       6.569  -1.617  -2.818  0.00  0.00     0.065 H 
ENDBRANCH  11  15
BRANCH   1  31
ATOM     31  C   LIG d   1       2.032  -1.577 -12.700  0.00  0.00    -0.033 C 
ATOM     32  H   LIG d   1       1.171  -0.911 -12.677  0.00  0.00     0.028 H 
ATOM     33  H   LIG d   1       2.858  -1.086 -13.215  0.00  0.00     0.028 H 
ATOM     34  H   LIG d   1       1.769  -2.494 -13.226  0.00  0.00     0.028 H 
ENDBRANCH   1  31
BRANCH   2  35
ATOM     35  O   LIG d   1       1.859  -4.181 -11.636  0.00  0.00    -0.487 OA
BRANCH  35  36
ATOM     36  C   LIG d   1       1.049  -5.190 -11.032  0.00  0.00     0.117 C 
ATOM     37  H   LIG d   1       1.274  -6.157 -11.484  0.00  0.00     0.075 H 
ATOM     38  H   LIG d   1       1.255  -5.232  -9.963  0.00  0.00     0.075 H 
BRANCH  36  39
ATOM     39  C   LIG d   1      -0.406  -4.862 -11.250  0.00  0.00     0.025 A 
ATOM     40  C   LIG d   1      -1.354  -5.269 -10.325  0.00  0.00     0.131 A 
ATOM     41  C   LIG d   1      -2.689  -4.961 -10.522  0.00  0.00    -0.008 A 
ATOM     42  F   LIG d   1      -0.974  -5.959  -9.228  0.00  0.00    -0.205 F 
ATOM     43  C   LIG d   1      -3.077  -4.259 -11.649  0.00  0.00     0.044 A 
ATOM     44  H   LIG d   1      -3.428  -5.273  -9.799  0.00  0.00     0.066 H 
ATOM     45  C   LIG d   1      -2.130  -3.859 -12.575  0.00  0.00    -0.043 A 
ATOM     46 CL   LIG d   1      -4.753  -3.879 -11.901  0.00  0.00    -0.084 Cl
ATOM     47  C   LIG d   1      -0.796  -4.160 -12.375  0.00  0.00    -0.051 A 
ATOM     48  H   LIG d   1      -2.433  -3.312 -13.455  0.00  0.00     0.063 H 
ATOM     49  H   LIG d   1      -0.057  -3.847 -13.099  0.00  0.00     0.062 H 
ENDBRANCH  36  39
ENDBRANCH  35  36
ENDBRANCH   2  35
TORSDOF 5
ENDMDL
MODEL 6
REMARK VINA RESULT:      -7.0      7.931     10.990
REMARK  5 active torsions:
REMARK  status: ('A' for Active; 'I' for Inactive)
REMARK    1  A    between atoms: C_1  and  C_2 
REMARK    2  A    between atoms: C_3  and  O_24 
REMARK    3  A    between atoms: C_12  and  C_13 
REMARK    4  A    between atoms: O_24  and  C_25 
REMARK    5  A    between atoms: C_25  and  C_26 
ROOT
ATOM      1  C   LIG d   1       3.198  -0.053  -5.697  0.00  0.00     0.034 A 
ATOM      2  C   LIG d   1       3.396  -0.276  -7.050  0.00  0.00     0.127 A 
ATOM      3  C   LIG d   1       4.491  -1.014  -7.492  0.00  0.00    -0.019 A 
ATOM      4  C   LIG d   1       5.386  -1.528  -6.595  0.00  0.00    -0.047 A 
ATOM      5  C   LIG d   1       5.199  -1.311  -5.228  0.00  0.00     0.026 A 
ATOM      6  C   LIG d   1       4.097  -0.568  -4.774  0.00  0.00     0.146 A 
ATOM      7  O   LIG d   1       3.920  -0.360  -3.451  0.00  0.00    -0.422 OA
ATOM      8  C   LIG d   1       4.772  -0.846  -2.536  0.00  0.00     0.338 A 
ATOM      9  O   LIG d   1       4.560  -0.631  -1.356  0.00  0.00    -0.245 OA
ATOM     10  C   LIG d   1       5.899  -1.599  -2.899  0.00  0.00     0.032 A 
ATOM     11  C   LIG d   1       6.147  -1.853  -4.238  0.00  0.00     0.006 A 
ATOM     12  H   LIG d   1       4.636  -1.181  -8.549  0.00  0.00     0.065 H 
ATOM     13  H   LIG d   1       6.233  -2.100  -6.942  0.00  0.00     0.063 H 
ATOM     14  H   LIG d   1       6.569  -1.977  -2.141  0.00  0.00     0.070 H 
ENDROOT
BRANCH  11  15
ATOM     15  C   LIG d   1       7.320  -2.640  -4.660  0.00  0.00     0.068 A 
ATOM     16  C   LIG d   1       8.587  -1.976  -4.992  0.00  0.00     0.345 A 
ATOM     17  O   LIG d   1       9.651  -2.702  -5.368  0.00  0.00    -0.422 OA
ATOM     18  O   LIG d   1       8.672  -0.764  -4.920  0.00  0.00    -0.244 OA
ATOM     19  C   LIG d   1       9.588  -4.048  -5.463  0.00  0.00     0.139 A 
ATOM     20  C   LIG d   1       8.399  -4.736  -5.163  0.00  0.00     0.018 A 
ATOM     21  C   LIG d   1      10.709  -4.769  -5.862  0.00  0.00    -0.019 A 
ATOM     22  C   LIG d   1       7.247  -4.018  -4.754  0.00  0.00    -0.036 A 
ATOM     23  C   LIG d   1       8.359  -6.135  -5.269  0.00  0.00    -0.051 A 
ATOM     24  H   LIG d   1       6.328  -4.537  -4.521  0.00  0.00     0.063 H 
ATOM     25  C   LIG d   1       9.472  -6.819  -5.662  0.00  0.00    -0.061 A 
ATOM     26  H   LIG d   1       7.448  -6.669  -5.039  0.00  0.00     0.062 H 
ATOM     27  C   LIG d   1      10.647  -6.142  -5.960  0.00  0.00    -0.058 A 
ATOM     28  H   LIG d   1       9.439  -7.896  -5.743  0.00  0.00     0.062 H 
ATOM     29  H   LIG d   1      11.519  -6.697  -6.269  0.00  0.00     0.062 H 
ATOM     30  H   LIG d   1      11.628  -4.252  -6.096  0.00  0.00     0.065 H 
ENDBRANCH  11  15
BRANCH   1  31
ATOM     31  C   LIG d   1       2.010   0.748  -5.229  0.00  0.00    -0.033 C 
ATOM     32  H   LIG d   1       2.281   1.311  -4.337  0.00  0.00     0.028 H 
ATOM     33  H   LIG d   1       1.705   1.439  -6.016  0.00  0.00     0.028 H 
ATOM     34  H   LIG d   1       1.186   0.074  -4.998  0.00  0.00     0.028 H 
ENDBRANCH   1  31
BRANCH   2  35
ATOM     35  O   LIG d   1       2.516   0.228  -7.952  0.00  0.00    -0.487 OA
BRANCH  35  36
ATOM     36  C   LIG d   1       3.065   0.836  -9.123  0.00  0.00     0.117 C 
ATOM     37  H   LIG d   1       2.652   1.838  -9.240  0.00  0.00     0.075 H 
ATOM     38  H   LIG d   1       4.149   0.898  -9.028  0.00  0.00     0.075 H 
BRANCH  36  39
ATOM     39  C   LIG d   1       2.714   0.004 -10.331  0.00  0.00     0.025 A 
ATOM     40  C   LIG d   1       3.583  -0.053 -11.408  0.00  0.00     0.131 A 
ATOM     41  C   LIG d   1       3.263  -0.822 -12.513  0.00  0.00    -0.008 A 
ATOM     42  F   LIG d   1       4.744   0.636 -11.376  0.00  0.00    -0.205 F 
ATOM     43  C   LIG d   1       2.071  -1.522 -12.547  0.00  0.00     0.044 A 
ATOM     44  H   LIG d   1       3.943  -0.871 -13.352  0.00  0.00     0.066 H 
ATOM     45  C   LIG d   1       1.201  -1.459 -11.473  0.00  0.00    -0.043 A 
ATOM     46 CL   LIG d   1       1.666  -2.480 -13.937  0.00  0.00    -0.084 Cl
ATOM     47  C   LIG d   1       1.523  -0.697 -10.366  0.00  0.00    -0.051 A 
ATOM     48  H   LIG d   1       0.270  -2.004 -11.500  0.00  0.00     0.063 H 
ATOM     49  H   LIG d   1       0.843  -0.648  -9.527  0.00  0.00     0.062 H 
ENDBRANCH  36  39
ENDBRANCH  35  36
ENDBRANCH   2  35
TORSDOF 5
ENDMDL
MODEL 7
REMARK VINA RESULT:      -7.0      4.574      8.944
REMARK  5 active torsions:
REMARK  status: ('A' for Active; 'I' for Inactive)
REMARK    1  A    between atoms: C_1  and  C_2 
REMARK    2  A    between atoms: C_3  and  O_24 
REMARK    3  A    between atoms: C_12  and  C_13 
REMARK    4  A    between atoms: O_24  and  C_25 
REMARK    5  A    between atoms: C_25  and  C_26 
ROOT
ATOM      1  C   LIG d   1       9.585   4.258  -4.897  0.00  0.00     0.034 A 
ATOM      2  C   LIG d   1       9.695   2.982  -5.425  0.00  0.00     0.127 A 
ATOM      3  C   LIG d   1       9.832   2.795  -6.798  0.00  0.00    -0.019 A 
ATOM      4  C   LIG d   1       9.858   3.868  -7.643  0.00  0.00    -0.047 A 
ATOM      5  C   LIG d   1       9.748   5.161  -7.125  0.00  0.00     0.026 A 
ATOM      6  C   LIG d   1       9.610   5.358  -5.742  0.00  0.00     0.146 A 
ATOM      7  O   LIG d   1       9.504   6.610  -5.244  0.00  0.00    -0.422 OA
ATOM      8  C   LIG d   1       9.525   7.693  -6.037  0.00  0.00     0.338 A 
ATOM      9  O   LIG d   1       9.431   8.798  -5.532  0.00  0.00    -0.245 OA
ATOM     10  C   LIG d   1       9.659   7.589  -7.430  0.00  0.00     0.032 A 
ATOM     11  C   LIG d   1       9.773   6.337  -8.013  0.00  0.00     0.006 A 
ATOM     12  H   LIG d   1       9.916   1.795  -7.198  0.00  0.00     0.065 H 
ATOM     13  H   LIG d   1       9.963   3.718  -8.707  0.00  0.00     0.063 H 
ATOM     14  H   LIG d   1       9.673   8.478  -8.043  0.00  0.00     0.070 H 
ENDROOT
BRANCH  11  15
ATOM     15  C   LIG d   1       9.915   6.187  -9.472  0.00  0.00     0.068 A 
ATOM     16  C   LIG d   1       8.747   5.890 -10.311  0.00  0.00     0.345 A 
ATOM     17  O   LIG d   1       8.886   5.762 -11.640  0.00  0.00    -0.422 OA
ATOM     18  O   LIG d   1       7.650   5.766  -9.800  0.00  0.00    -0.244 OA
ATOM     19  C   LIG d   1      10.091   5.888 -12.238  0.00  0.00     0.139 A 
ATOM     20  C   LIG d   1      11.244   6.166 -11.483  0.00  0.00     0.018 A 
ATOM     21  C   LIG d   1      10.199   5.743 -13.617  0.00  0.00    -0.019 A 
ATOM     22  C   LIG d   1      11.152   6.318 -10.076  0.00  0.00    -0.036 A 
ATOM     23  C   LIG d   1      12.484   6.293 -12.128  0.00  0.00    -0.051 A 
ATOM     24  H   LIG d   1      12.033   6.531  -9.487  0.00  0.00     0.063 H 
ATOM     25  C   LIG d   1      12.564   6.146 -13.482  0.00  0.00    -0.061 A 
ATOM     26  H   LIG d   1      13.373   6.507 -11.553  0.00  0.00     0.062 H 
ATOM     27  C   LIG d   1      11.427   5.871 -14.229  0.00  0.00    -0.058 A 
ATOM     28  H   LIG d   1      13.520   6.245 -13.976  0.00  0.00     0.062 H 
ATOM     29  H   LIG d   1      11.506   5.758 -15.300  0.00  0.00     0.062 H 
ATOM     30  H   LIG d   1       9.321   5.529 -14.208  0.00  0.00     0.065 H 
ENDBRANCH  11  15
BRANCH   1  31
ATOM     31  C   LIG d   1       9.438   4.450  -3.409  0.00  0.00    -0.033 C 
ATOM     32  H   LIG d   1       9.863   5.411  -3.124  0.00  0.00     0.028 H 
ATOM     33  H   LIG d   1       8.380   4.428  -3.144  0.00  0.00     0.028 H 
ATOM     34  H   LIG d   1       9.961   3.651  -2.886  0.00  0.00     0.028 H 
ENDBRANCH   1  31
BRANCH   2  35
ATOM     35  O   LIG d   1       9.671   1.905  -4.598  0.00  0.00    -0.487 OA
BRANCH  35  36
ATOM     36  C   LIG d   1       9.084   0.708  -5.109  0.00  0.00     0.117 C 
ATOM     37  H   LIG d   1       8.790   0.862  -6.148  0.00  0.00     0.075 H 
ATOM     38  H   LIG d   1       9.807  -0.106  -5.053  0.00  0.00     0.075 H 
BRANCH  36  39
ATOM     39  C   LIG d   1       7.868   0.356  -4.291  0.00  0.00     0.025 A 
ATOM     40  C   LIG d   1       7.536  -0.972  -4.079  0.00  0.00     0.131 A 
ATOM     41  C   LIG d   1       6.424  -1.294  -3.322  0.00  0.00    -0.008 A 
ATOM     42  F   LIG d   1       8.303  -1.951  -4.606  0.00  0.00    -0.205 F 
ATOM     43  C   LIG d   1       5.636  -0.290  -2.787  0.00  0.00     0.044 A 
ATOM     44  H   LIG d   1       6.167  -2.329  -3.152  0.00  0.00     0.066 H 
ATOM     45  C   LIG d   1       5.966   1.036  -3.005  0.00  0.00    -0.043 A 
ATOM     46 CL   LIG d   1       4.236  -0.693  -1.844  0.00  0.00    -0.084 Cl
ATOM     47  C   LIG d   1       7.081   1.358  -3.755  0.00  0.00    -0.051 A 
ATOM     48  H   LIG d   1       5.351   1.820  -2.589  0.00  0.00     0.063 H 
ATOM     49  H   LIG d   1       7.337   2.395  -3.925  0.00  0.00     0.062 H 
ENDBRANCH  36  39
ENDBRANCH  35  36
ENDBRANCH   2  35
TORSDOF 5
ENDMDL
MODEL 8
REMARK VINA RESULT:      -6.9      9.432     13.461
REMARK  5 active torsions:
REMARK  status: ('A' for Active; 'I' for Inactive)
REMARK    1  A    between atoms: C_1  and  C_2 
REMARK    2  A    between atoms: C_3  and  O_24 
REMARK    3  A    between atoms: C_12  and  C_13 
REMARK    4  A    between atoms: O_24  and  C_25 
REMARK    5  A    between atoms: C_25  and  C_26 
ROOT
ATOM      1  C   LIG d   1       3.311  -2.155 -11.896  0.00  0.00     0.034 A 
ATOM      2  C   LIG d   1       2.080  -2.653 -11.504  0.00  0.00     0.127 A 
ATOM      3  C   LIG d   1       1.661  -2.542 -10.181  0.00  0.00    -0.019 A 
ATOM      4  C   LIG d   1       2.462  -1.941  -9.251  0.00  0.00    -0.047 A 
ATOM      5  C   LIG d   1       3.706  -1.433  -9.631  0.00  0.00     0.026 A 
ATOM      6  C   LIG d   1       4.136  -1.541 -10.964  0.00  0.00     0.146 A 
ATOM      7  O   LIG d   1       5.340  -1.050 -11.329  0.00  0.00    -0.422 OA
ATOM      8  C   LIG d   1       6.158  -0.452 -10.449  0.00  0.00     0.338 A 
ATOM      9  O   LIG d   1       7.231  -0.022 -10.836  0.00  0.00    -0.245 OA
ATOM     10  C   LIG d   1       5.811  -0.300  -9.098  0.00  0.00     0.032 A 
ATOM     11  C   LIG d   1       4.590  -0.780  -8.650  0.00  0.00     0.006 A 
ATOM     12  H   LIG d   1       0.699  -2.935  -9.887  0.00  0.00     0.065 H 
ATOM     13  H   LIG d   1       2.133  -1.857  -8.226  0.00  0.00     0.063 H 
ATOM     14  H   LIG d   1       6.489   0.185  -8.413  0.00  0.00     0.070 H 
ENDROOT
BRANCH  11  15
ATOM     15  C   LIG d   1       4.189  -0.640  -7.238  0.00  0.00     0.068 A 
ATOM     16  C   LIG d   1       3.383   0.507  -6.801  0.00  0.00     0.345 A 
ATOM     17  O   LIG d   1       3.017   0.622  -5.514  0.00  0.00    -0.422 OA
ATOM     18  O   LIG d   1       3.041   1.351  -7.608  0.00  0.00    -0.244 OA
ATOM     19  C   LIG d   1       3.385  -0.294  -4.592  0.00  0.00     0.139 A 
ATOM     20  C   LIG d   1       4.162  -1.408  -4.954  0.00  0.00     0.018 A 
ATOM     21  C   LIG d   1       2.993  -0.140  -3.267  0.00  0.00    -0.019 A 
ATOM     22  C   LIG d   1       4.570  -1.582  -6.301  0.00  0.00    -0.036 A 
ATOM     23  C   LIG d   1       4.531  -2.346  -3.978  0.00  0.00    -0.051 A 
ATOM     24  H   LIG d   1       5.168  -2.435  -6.590  0.00  0.00     0.063 H 
ATOM     25  C   LIG d   1       4.135  -2.172  -2.684  0.00  0.00    -0.061 A 
ATOM     26  H   LIG d   1       5.128  -3.205  -4.251  0.00  0.00     0.062 H 
ATOM     27  C   LIG d   1       3.367  -1.073  -2.324  0.00  0.00    -0.058 A 
ATOM     28  H   LIG d   1       4.419  -2.896  -1.934  0.00  0.00     0.062 H 
ATOM     29  H   LIG d   1       3.061  -0.949  -1.296  0.00  0.00     0.062 H 
ATOM     30  H   LIG d   1       2.396   0.712  -2.976  0.00  0.00     0.065 H 
ENDBRANCH  11  15
BRANCH   1  31
ATOM     31  C   LIG d   1       3.756  -2.281 -13.331  0.00  0.00    -0.033 C 
ATOM     32  H   LIG d   1       4.438  -1.467 -13.573  0.00  0.00     0.028 H 
ATOM     33  H   LIG d   1       4.264  -3.235 -13.471  0.00  0.00     0.028 H 
ATOM     34  H   LIG d   1       2.886  -2.233 -13.986  0.00  0.00     0.028 H 
ENDBRANCH   1  31
BRANCH   2  35
ATOM     35  O   LIG d   1       1.274  -3.254 -12.417  0.00  0.00    -0.487 OA
BRANCH  35  36
ATOM     36  C   LIG d   1      -0.008  -3.691 -11.962  0.00  0.00     0.117 C 
ATOM     37  H   LIG d   1      -0.274  -3.152 -11.052  0.00  0.00     0.075 H 
ATOM     38  H   LIG d   1      -0.755  -3.494 -12.732  0.00  0.00     0.075 H 
BRANCH  36  39
ATOM     39  C   LIG d   1       0.039  -5.170 -11.674  0.00  0.00     0.025 A 
ATOM     40  C   LIG d   1      -0.652  -5.686 -10.591  0.00  0.00     0.131 A 
ATOM     41  C   LIG d   1      -0.614  -7.045 -10.332  0.00  0.00    -0.008 A 
ATOM     42  F   LIG d   1      -1.369  -4.866  -9.794  0.00  0.00    -0.205 F 
ATOM     43  C   LIG d   1       0.126  -7.884 -11.146  0.00  0.00     0.044 A 
ATOM     44  H   LIG d   1      -1.157  -7.450  -9.490  0.00  0.00     0.066 H 
ATOM     45  C   LIG d   1       0.821  -7.365 -12.224  0.00  0.00    -0.043 A 
ATOM     46 CL   LIG d   1       0.182  -9.588 -10.816  0.00  0.00    -0.084 Cl
ATOM     47  C   LIG d   1       0.777  -6.009 -12.487  0.00  0.00    -0.051 A 
ATOM     48  H   LIG d   1       1.399  -8.020 -12.859  0.00  0.00     0.063 H 
ATOM     49  H   LIG d   1       1.320  -5.605 -13.329  0.00  0.00     0.062 H 
ENDBRANCH  36  39
ENDBRANCH  35  36
ENDBRANCH   2  35
TORSDOF 5
ENDMDL
MODEL 9
REMARK VINA RESULT:      -6.8      2.463      3.253
REMARK  5 active torsions:
REMARK  status: ('A' for Active; 'I' for Inactive)
REMARK    1  A    between atoms: C_1  and  C_2 
REMARK    2  A    between atoms: C_3  and  O_24 
REMARK    3  A    between atoms: C_12  and  C_13 
REMARK    4  A    between atoms: O_24  and  C_25 
REMARK    5  A    between atoms: C_25  and  C_26 
ROOT
ATOM      1  C   LIG d   1      11.626   2.512  -4.344  0.00  0.00     0.034 A 
ATOM      2  C   LIG d   1      10.915   3.549  -3.764  0.00  0.00     0.127 A 
ATOM      3  C   LIG d   1       9.542   3.439  -3.561  0.00  0.00    -0.019 A 
ATOM      4  C   LIG d   1       8.877   2.305  -3.934  0.00  0.00    -0.047 A 
ATOM      5  C   LIG d   1       9.580   1.250  -4.521  0.00  0.00     0.026 A 
ATOM      6  C   LIG d   1      10.965   1.353  -4.728  0.00  0.00     0.146 A 
ATOM      7  O   LIG d   1      11.642   0.331  -5.296  0.00  0.00    -0.422 OA
ATOM      8  C   LIG d   1      11.030  -0.801  -5.677  0.00  0.00     0.338 A 
ATOM      9  O   LIG d   1      11.692  -1.692  -6.179  0.00  0.00    -0.245 OA
ATOM     10  C   LIG d   1       9.650  -0.990  -5.508  0.00  0.00     0.032 A 
ATOM     11  C   LIG d   1       8.889   0.015  -4.933  0.00  0.00     0.006 A 
ATOM     12  H   LIG d   1       8.998   4.255  -3.109  0.00  0.00     0.065 H 
ATOM     13  H   LIG d   1       7.812   2.224  -3.776  0.00  0.00     0.063 H 
ATOM     14  H   LIG d   1       9.184  -1.911  -5.824  0.00  0.00     0.070 H 
ENDROOT
BRANCH  11  15
ATOM     15  C   LIG d   1       7.437  -0.146  -4.738  0.00  0.00     0.068 A 
ATOM     16  C   LIG d   1       6.488   0.346  -5.745  0.00  0.00     0.345 A 
ATOM     17  O   LIG d   1       5.168   0.189  -5.562  0.00  0.00    -0.422 OA
ATOM     18  O   LIG d   1       6.901   0.893  -6.751  0.00  0.00    -0.244 OA
ATOM     19  C   LIG d   1       4.676  -0.408  -4.454  0.00  0.00     0.139 A 
ATOM     20  C   LIG d   1       5.538  -0.893  -3.455  0.00  0.00     0.018 A 
ATOM     21  C   LIG d   1       3.302  -0.549  -4.295  0.00  0.00    -0.019 A 
ATOM     22  C   LIG d   1       6.942  -0.759  -3.602  0.00  0.00    -0.036 A 
ATOM     23  C   LIG d   1       5.003  -1.510  -2.314  0.00  0.00    -0.051 A 
ATOM     24  H   LIG d   1       7.613  -1.128  -2.839  0.00  0.00     0.063 H 
ATOM     25  C   LIG d   1       3.650  -1.636  -2.181  0.00  0.00    -0.061 A 
ATOM     26  H   LIG d   1       5.661  -1.885  -1.543  0.00  0.00     0.062 H 
ATOM     27  C   LIG d   1       2.798  -1.158  -3.166  0.00  0.00    -0.058 A 
ATOM     28  H   LIG d   1       3.241  -2.112  -1.302  0.00  0.00     0.062 H 
ATOM     29  H   LIG d   1       1.730  -1.265  -3.047  0.00  0.00     0.062 H 
ATOM     30  H   LIG d   1       2.629  -0.181  -5.055  0.00  0.00     0.065 H 
ENDBRANCH  11  15
BRANCH   1  31
ATOM     31  C   LIG d   1      13.112   2.640  -4.559  0.00  0.00    -0.033 C 
ATOM     32  H   LIG d   1      13.318   3.537  -5.141  0.00  0.00     0.028 H 
ATOM     33  H   LIG d   1      13.614   2.710  -3.593  0.00  0.00     0.028 H 
ATOM     34  H   LIG d   1      13.478   1.766  -5.097  0.00  0.00     0.028 H 
ENDBRANCH   1  31
BRANCH   2  35
ATOM     35  O   LIG d   1      11.562   4.682  -3.388  0.00  0.00    -0.487 OA
BRANCH  35  36
ATOM     36  C   LIG d   1      11.364   5.127  -2.045  0.00  0.00     0.117 C 
ATOM     37  H   LIG d   1      10.601   5.904  -2.028  0.00  0.00     0.075 H 
ATOM     38  H   LIG d   1      11.043   4.288  -1.427  0.00  0.00     0.075 H 
BRANCH  36  39
ATOM     39  C   LIG d   1      12.658   5.682  -1.505  0.00  0.00     0.025 A 
ATOM     40  C   LIG d   1      12.668   6.904  -0.853  0.00  0.00     0.131 A 
ATOM     41  C   LIG d   1      13.855   7.410  -0.352  0.00  0.00    -0.008 A 
ATOM     42  F   LIG d   1      11.519   7.598  -0.701  0.00  0.00    -0.205 F 
ATOM     43  C   LIG d   1      15.032   6.701  -0.514  0.00  0.00     0.044 A 
ATOM     44  H   LIG d   1      13.863   8.361   0.161  0.00  0.00     0.066 H 
ATOM     45  C   LIG d   1      15.020   5.483  -1.171  0.00  0.00    -0.043 A 
ATOM     46 CL   LIG d   1      16.522   7.339   0.107  0.00  0.00    -0.084 Cl
ATOM     47  C   LIG d   1      13.834   4.975  -1.665  0.00  0.00    -0.051 A 
ATOM     48  H   LIG d   1      15.939   4.931  -1.298  0.00  0.00     0.063 H 
ATOM     49  H   LIG d   1      13.827   4.024  -2.178  0.00  0.00     0.062 H 
ENDBRANCH  36  39
ENDBRANCH  35  36
ENDBRANCH   2  35
TORSDOF 5
ENDMDL
