MODEL 1
REMARK VINA RESULT:      -5.7      0.000      0.000
REMARK  8 active torsions:
REMARK  status: ('A' for Active; 'I' for Inactive)
REMARK    1  A    between atoms: C_1  and  C_2 
REMARK    2  A    between atoms: C_2  and  O_3 
REMARK    3  A    between atoms: O_3  and  C_4 
REMARK    4  A    between atoms: C_4  and  C_6 
REMARK    5  A    between atoms: C_6  and  C_7 
REMARK    6  A    between atoms: C_7  and  C_9 
REMARK    7  A    between atoms: C_7  and  N_10 
REMARK       I    between atoms: N_10  and  C_11 
REMARK    8  A    between atoms: C_11  and  C_13 
ROOT
ATOM      1  C   LIG d   1       3.564  -1.029  -8.013  0.00  0.00     0.031 C 
ATOM      2  H   LIG d   1       4.493  -0.549  -8.323  0.00  0.00     0.050 H 
ENDROOT
BRANCH   1   3
ATOM      3  C   LIG d   1       2.375  -0.181  -8.471  0.00  0.00     0.063 C 
ATOM      4  H   LIG d   1       2.011  -0.554  -9.429  0.00  0.00     0.040 H 
ATOM      5  H   LIG d   1       1.579  -0.244  -7.730  0.00  0.00     0.040 H 
BRANCH   3   6
ATOM      6  C   LIG d   1       2.810   1.254  -8.622  0.00  0.00     0.309 C 
ATOM      7  O   LIG d   1       2.948   1.949  -7.645  0.00  0.00    -0.251 OA
BRANCH   6   8
ATOM      8  O   LIG d   1       3.043   1.758  -9.844  0.00  0.00    -0.465 OA
BRANCH   8   9
ATOM      9  C   LIG d   1       4.323   1.442 -10.454  0.00  0.00     0.090 C 
ATOM     10  H   LIG d   1       4.768   2.351 -10.857  0.00  0.00     0.069 H 
ATOM     11  H   LIG d   1       4.987   1.013  -9.704  0.00  0.00     0.069 H 
BRANCH   9  12
ATOM     12  C   LIG d   1       4.112   0.433 -11.586  0.00  0.00    -0.031 C 
ATOM     13  H   LIG d   1       3.145   0.613 -12.057  0.00  0.00     0.026 H 
ATOM     14  H   LIG d   1       4.903   0.548 -12.327  0.00  0.00     0.026 H 
ATOM     15  H   LIG d   1       4.136  -0.579 -11.180  0.00  0.00     0.026 H 
ENDBRANCH   9  12
ENDBRANCH   8   9
ENDBRANCH   6   8
ENDBRANCH   3   6
ENDBRANCH   1   3
BRANCH   1  16
ATOM     16  C   LIG d   1       3.473  -2.419  -8.644  0.00  0.00    -0.046 C 
ATOM     17  H   LIG d   1       2.432  -2.646  -8.874  0.00  0.00     0.025 H 
ATOM     18  H   LIG d   1       4.061  -2.441  -9.562  0.00  0.00     0.025 H 
ATOM     19  H   LIG d   1       3.862  -3.161  -7.947  0.00  0.00     0.025 H 
ENDBRANCH   1  16
BRANCH   1  20
ATOM     20  N   LIG d   1       3.542  -1.153  -6.554  0.00  0.00    -0.308 N 
ATOM     21  C   LIG d   1       4.504  -0.567  -5.814  0.00  0.00     0.244 C 
ATOM     22  O   LIG d   1       5.390   0.063  -6.356  0.00  0.00    -0.270 OA
ATOM     23  H   LIG d   1       2.835  -1.656  -6.120  0.00  0.00     0.149 HD
BRANCH  21  24
ATOM     24  C   LIG d   1       4.482  -0.692  -4.339  0.00  0.00     0.037 A 
ATOM     25  C   LIG d   1       4.034  -1.871  -3.743  0.00  0.00    -0.050 A 
ATOM     26  C   LIG d   1       4.017  -1.982  -2.368  0.00  0.00    -0.061 A 
ATOM     27  H   LIG d   1       3.701  -2.696  -4.357  0.00  0.00     0.062 H 
ATOM     28  C   LIG d   1       4.441  -0.925  -1.581  0.00  0.00    -0.062 A 
ATOM     29  H   LIG d   1       3.670  -2.893  -1.905  0.00  0.00     0.062 H 
ATOM     30  C   LIG d   1       4.887   0.246  -2.166  0.00  0.00    -0.061 A 
ATOM     31  H   LIG d   1       4.430  -1.019  -0.505  0.00  0.00     0.062 H 
ATOM     32  C   LIG d   1       4.909   0.370  -3.540  0.00  0.00    -0.050 A 
ATOM     33  H   LIG d   1       5.217   1.067  -1.547  0.00  0.00     0.062 H 
ATOM     34  H   LIG d   1       5.258   1.284  -3.996  0.00  0.00     0.062 H 
ENDBRANCH  21  24
ENDBRANCH   1  20
TORSDOF 8
ENDMDL
MODEL 2
REMARK VINA RESULT:      -5.6      2.012      3.635
REMARK  8 active torsions:
REMARK  status: ('A' for Active; 'I' for Inactive)
REMARK    1  A    between atoms: C_1  and  C_2 
REMARK    2  A    between atoms: C_2  and  O_3 
REMARK    3  A    between atoms: O_3  and  C_4 
REMARK    4  A    between atoms: C_4  and  C_6 
REMARK    5  A    between atoms: C_6  and  C_7 
REMARK    6  A    between atoms: C_7  and  C_9 
REMARK    7  A    between atoms: C_7  and  N_10 
REMARK       I    between atoms: N_10  and  C_11 
REMARK    8  A    between atoms: C_11  and  C_13 
ROOT
ATOM      1  C   LIG d   1       2.683   0.335  -7.565  0.00  0.00     0.031 C 
ATOM      2  H   LIG d   1       1.607   0.243  -7.417  0.00  0.00     0.050 H 
ENDROOT
BRANCH   1   3
ATOM      3  C   LIG d   1       3.168  -0.784  -8.490  0.00  0.00     0.063 C 
ATOM      4  H   LIG d   1       2.378  -1.527  -8.608  0.00  0.00     0.040 H 
ATOM      5  H   LIG d   1       3.419  -0.365  -9.464  0.00  0.00     0.040 H 
BRANCH   3   6
ATOM      6  C   LIG d   1       4.387  -1.437  -7.893  0.00  0.00     0.309 C 
ATOM      7  O   LIG d   1       5.486  -1.000  -8.137  0.00  0.00    -0.251 OA
BRANCH   6   8
ATOM      8  O   LIG d   1       4.251  -2.504  -7.091  0.00  0.00    -0.465 OA
BRANCH   8   9
ATOM      9  C   LIG d   1       5.417  -2.901  -6.320  0.00  0.00     0.090 C 
ATOM     10  H   LIG d   1       6.147  -3.369  -6.980  0.00  0.00     0.069 H 
ATOM     11  H   LIG d   1       5.860  -2.022  -5.852  0.00  0.00     0.069 H 
BRANCH   9  12
ATOM     12  C   LIG d   1       4.996  -3.898  -5.237  0.00  0.00    -0.031 C 
ATOM     13  H   LIG d   1       5.804  -4.610  -5.066  0.00  0.00     0.026 H 
ATOM     14  H   LIG d   1       4.783  -3.362  -4.313  0.00  0.00     0.026 H 
ATOM     15  H   LIG d   1       4.103  -4.432  -5.563  0.00  0.00     0.026 H 
ENDBRANCH   9  12
ENDBRANCH   8   9
ENDBRANCH   6   8
ENDBRANCH   3   6
ENDBRANCH   1   3
BRANCH   1  16
ATOM     16  C   LIG d   1       2.996   1.691  -8.197  0.00  0.00    -0.046 C 
ATOM     17  H   LIG d   1       2.978   1.600  -9.283  0.00  0.00     0.025 H 
ATOM     18  H   LIG d   1       2.249   2.421  -7.881  0.00  0.00     0.025 H 
ATOM     19  H   LIG d   1       3.984   2.022  -7.877  0.00  0.00     0.025 H 
ENDBRANCH   1  16
BRANCH   1  20
ATOM     20  N   LIG d   1       3.364   0.229  -6.273  0.00  0.00    -0.308 N 
ATOM     21  C   LIG d   1       2.646   0.211  -5.132  0.00  0.00     0.244 C 
ATOM     22  O   LIG d   1       1.434   0.285  -5.176  0.00  0.00    -0.270 OA
ATOM     23  H   LIG d   1       4.332   0.170  -6.237  0.00  0.00     0.149 HD
BRANCH  21  24
ATOM     24  C   LIG d   1       3.334   0.104  -3.827  0.00  0.00     0.037 A 
ATOM     25  C   LIG d   1       3.681   1.257  -3.121  0.00  0.00    -0.050 A 
ATOM     26  C   LIG d   1       4.321   1.151  -1.904  0.00  0.00    -0.061 A 
ATOM     27  H   LIG d   1       3.448   2.231  -3.527  0.00  0.00     0.062 H 
ATOM     28  C   LIG d   1       4.620  -0.096  -1.384  0.00  0.00    -0.062 A 
ATOM     29  H   LIG d   1       4.590   2.042  -1.357  0.00  0.00     0.062 H 
ATOM     30  C   LIG d   1       4.279  -1.243  -2.078  0.00  0.00    -0.061 A 
ATOM     31  H   LIG d   1       5.118  -0.175  -0.428  0.00  0.00     0.062 H 
ATOM     32  C   LIG d   1       3.638  -1.151  -3.296  0.00  0.00    -0.050 A 
ATOM     33  H   LIG d   1       4.515  -2.213  -1.667  0.00  0.00     0.062 H 
ATOM     34  H   LIG d   1       3.372  -2.045  -3.837  0.00  0.00     0.062 H 
ENDBRANCH  21  24
ENDBRANCH   1  20
TORSDOF 8
ENDMDL
MODEL 3
REMARK VINA RESULT:      -5.5      1.660      2.535
REMARK  8 active torsions:
REMARK  status: ('A' for Active; 'I' for Inactive)
REMARK    1  A    between atoms: C_1  and  C_2 
REMARK    2  A    between atoms: C_2  and  O_3 
REMARK    3  A    between atoms: O_3  and  C_4 
REMARK    4  A    between atoms: C_4  and  C_6 
REMARK    5  A    between atoms: C_6  and  C_7 
REMARK    6  A    between atoms: C_7  and  C_9 
REMARK    7  A    between atoms: C_7  and  N_10 
REMARK       I    between atoms: N_10  and  C_11 
REMARK    8  A    between atoms: C_11  and  C_13 
ROOT
ATOM      1  C   LIG d   1       2.771   0.363  -7.691  0.00  0.00     0.031 C 
ATOM      2  H   LIG d   1       1.936   1.032  -7.482  0.00  0.00     0.050 H 
ENDROOT
BRANCH   1   3
ATOM      3  C   LIG d   1       2.305  -0.755  -8.627  0.00  0.00     0.063 C 
ATOM      4  H   LIG d   1       1.481  -1.298  -8.164  0.00  0.00     0.040 H 
ATOM      5  H   LIG d   1       1.971  -0.323  -9.570  0.00  0.00     0.040 H 
BRANCH   3   6
ATOM      6  C   LIG d   1       3.448  -1.702  -8.885  0.00  0.00     0.309 C 
ATOM      7  O   LIG d   1       3.800  -2.473  -8.025  0.00  0.00    -0.251 OA
BRANCH   6   8
ATOM      8  O   LIG d   1       4.075  -1.689 -10.072  0.00  0.00    -0.465 OA
BRANCH   8   9
ATOM      9  C   LIG d   1       3.309  -1.228 -11.217  0.00  0.00     0.090 C 
ATOM     10  H   LIG d   1       3.186  -2.048 -11.925  0.00  0.00     0.069 H 
ATOM     11  H   LIG d   1       2.329  -0.885 -10.885  0.00  0.00     0.069 H 
BRANCH   9  12
ATOM     12  C   LIG d   1       4.051  -0.075 -11.896  0.00  0.00    -0.031 C 
ATOM     13  H   LIG d   1       4.761   0.363 -11.194  0.00  0.00     0.026 H 
ATOM     14  H   LIG d   1       4.588  -0.451 -12.767  0.00  0.00     0.026 H 
ATOM     15  H   LIG d   1       3.334   0.684 -12.209  0.00  0.00     0.026 H 
ENDBRANCH   9  12
ENDBRANCH   8   9
ENDBRANCH   6   8
ENDBRANCH   3   6
ENDBRANCH   1   3
BRANCH   1  16
ATOM     16  C   LIG d   1       3.900   1.150  -8.358  0.00  0.00    -0.046 C 
ATOM     17  H   LIG d   1       4.651   1.410  -7.612  0.00  0.00     0.025 H 
ATOM     18  H   LIG d   1       4.358   0.539  -9.136  0.00  0.00     0.025 H 
ATOM     19  H   LIG d   1       3.497   2.060  -8.801  0.00  0.00     0.025 H 
ENDBRANCH   1  16
BRANCH   1  20
ATOM     20  N   LIG d   1       3.256  -0.220  -6.438  0.00  0.00    -0.308 N 
ATOM     21  C   LIG d   1       3.055   0.427  -5.272  0.00  0.00     0.244 C 
ATOM     22  O   LIG d   1       2.473   1.494  -5.261  0.00  0.00    -0.270 OA
ATOM     23  H   LIG d   1       3.720  -1.072  -6.446  0.00  0.00     0.149 HD
BRANCH  21  24
ATOM     24  C   LIG d   1       3.545  -0.162  -4.006  0.00  0.00     0.037 A 
ATOM     25  C   LIG d   1       3.995   0.666  -2.977  0.00  0.00    -0.050 A 
ATOM     26  C   LIG d   1       4.450   0.111  -1.798  0.00  0.00    -0.061 A 
ATOM     27  H   LIG d   1       3.988   1.739  -3.103  0.00  0.00     0.062 H 
ATOM     28  C   LIG d   1       4.461  -1.264  -1.637  0.00  0.00    -0.062 A 
ATOM     29  H   LIG d   1       4.798   0.750  -1.001  0.00  0.00     0.062 H 
ATOM     30  C   LIG d   1       4.016  -2.089  -2.654  0.00  0.00    -0.061 A 
ATOM     31  H   LIG d   1       4.813  -1.693  -0.711  0.00  0.00     0.062 H 
ATOM     32  C   LIG d   1       3.559  -1.547  -3.837  0.00  0.00    -0.050 A 
ATOM     33  H   LIG d   1       4.027  -3.161  -2.522  0.00  0.00     0.062 H 
ATOM     34  H   LIG d   1       3.211  -2.192  -4.630  0.00  0.00     0.062 H 
ENDBRANCH  21  24
ENDBRANCH   1  20
TORSDOF 8
ENDMDL
MODEL 4
REMARK VINA RESULT:      -5.4      1.414      1.613
REMARK  8 active torsions:
REMARK  status: ('A' for Active; 'I' for Inactive)
REMARK    1  A    between atoms: C_1  and  C_2 
REMARK    2  A    between atoms: C_2  and  O_3 
REMARK    3  A    between atoms: O_3  and  C_4 
REMARK    4  A    between atoms: C_4  and  C_6 
REMARK    5  A    between atoms: C_6  and  C_7 
REMARK    6  A    between atoms: C_7  and  C_9 
REMARK    7  A    between atoms: C_7  and  N_10 
REMARK       I    between atoms: N_10  and  C_11 
REMARK    8  A    between atoms: C_11  and  C_13 
ROOT
ATOM      1  C   LIG d   1       2.920   0.022  -8.533  0.00  0.00     0.031 C 
ATOM      2  H   LIG d   1       3.839  -0.401  -8.938  0.00  0.00     0.050 H 
ENDROOT
BRANCH   1   3
ATOM      3  C   LIG d   1       2.912   1.535  -8.761  0.00  0.00     0.063 C 
ATOM      4  H   LIG d   1       1.930   1.844  -9.121  0.00  0.00     0.040 H 
ATOM      5  H   LIG d   1       3.131   2.045  -7.822  0.00  0.00     0.040 H 
BRANCH   3   6
ATOM      6  C   LIG d   1       3.958   1.895  -9.784  0.00  0.00     0.309 C 
ATOM      7  O   LIG d   1       4.915   2.558  -9.462  0.00  0.00    -0.251 OA
BRANCH   6   8
ATOM      8  O   LIG d   1       3.827   1.477 -11.052  0.00  0.00    -0.465 OA
BRANCH   8   9
ATOM      9  C   LIG d   1       4.627   0.334 -11.456  0.00  0.00     0.090 C 
ATOM     10  H   LIG d   1       5.499   0.679 -12.012  0.00  0.00     0.069 H 
ATOM     11  H   LIG d   1       4.953  -0.212 -10.571  0.00  0.00     0.069 H 
BRANCH   9  12
ATOM     12  C   LIG d   1       3.787  -0.588 -12.344  0.00  0.00    -0.031 C 
ATOM     13  H   LIG d   1       3.229   0.012 -13.064  0.00  0.00     0.026 H 
ATOM     14  H   LIG d   1       4.444  -1.275 -12.877  0.00  0.00     0.026 H 
ATOM     15  H   LIG d   1       3.092  -1.154 -11.725  0.00  0.00     0.026 H 
ENDBRANCH   9  12
ENDBRANCH   8   9
ENDBRANCH   6   8
ENDBRANCH   3   6
ENDBRANCH   1   3
BRANCH   1  16
ATOM     16  C   LIG d   1       1.716  -0.606  -9.235  0.00  0.00    -0.046 C 
ATOM     17  H   LIG d   1       1.364   0.062 -10.022  0.00  0.00     0.025 H 
ATOM     18  H   LIG d   1       2.008  -1.561  -9.673  0.00  0.00     0.025 H 
ATOM     19  H   LIG d   1       0.916  -0.768  -8.512  0.00  0.00     0.025 H 
ENDBRANCH   1  16
BRANCH   1  20
ATOM     20  N   LIG d   1       2.847  -0.255  -7.096  0.00  0.00    -0.308 N 
ATOM     21  C   LIG d   1       3.960  -0.600  -6.420  0.00  0.00     0.244 C 
ATOM     22  O   LIG d   1       5.024  -0.683  -7.001  0.00  0.00    -0.270 OA
ATOM     23  H   LIG d   1       1.998  -0.190  -6.632  0.00  0.00     0.149 HD
BRANCH  21  24
ATOM     24  C   LIG d   1       3.886  -0.881  -4.969  0.00  0.00     0.037 A 
ATOM     25  C   LIG d   1       4.663  -1.897  -4.411  0.00  0.00    -0.050 A 
ATOM     26  C   LIG d   1       4.591  -2.153  -3.057  0.00  0.00    -0.061 A 
ATOM     27  H   LIG d   1       5.320  -2.483  -5.038  0.00  0.00     0.062 H 
ATOM     28  C   LIG d   1       3.749  -1.404  -2.253  0.00  0.00    -0.062 A 
ATOM     29  H   LIG d   1       5.191  -2.939  -2.625  0.00  0.00     0.062 H 
ATOM     30  C   LIG d   1       2.977  -0.395  -2.800  0.00  0.00    -0.061 A 
ATOM     31  H   LIG d   1       3.699  -1.605  -1.193  0.00  0.00     0.062 H 
ATOM     32  C   LIG d   1       3.039  -0.129  -4.152  0.00  0.00    -0.050 A 
ATOM     33  H   LIG d   1       2.322   0.185  -2.168  0.00  0.00     0.062 H 
ATOM     34  H   LIG d   1       2.437   0.659  -4.578  0.00  0.00     0.062 H 
ENDBRANCH  21  24
ENDBRANCH   1  20
TORSDOF 8
ENDMDL
MODEL 5
REMARK VINA RESULT:      -5.3      2.022      5.980
REMARK  8 active torsions:
REMARK  status: ('A' for Active; 'I' for Inactive)
REMARK    1  A    between atoms: C_1  and  C_2 
REMARK    2  A    between atoms: C_2  and  O_3 
REMARK    3  A    between atoms: O_3  and  C_4 
REMARK    4  A    between atoms: C_4  and  C_6 
REMARK    5  A    between atoms: C_6  and  C_7 
REMARK    6  A    between atoms: C_7  and  C_9 
REMARK    7  A    between atoms: C_7  and  N_10 
REMARK       I    between atoms: N_10  and  C_11 
REMARK    8  A    between atoms: C_11  and  C_13 
ROOT
ATOM      1  C   LIG d   1       4.593  -1.783  -5.160  0.00  0.00     0.031 C 
ATOM      2  H   LIG d   1       4.341  -2.747  -5.603  0.00  0.00     0.050 H 
ENDROOT
BRANCH   1   3
ATOM      3  C   LIG d   1       3.656  -1.503  -3.983  0.00  0.00     0.063 C 
ATOM      4  H   LIG d   1       2.856  -2.244  -3.970  0.00  0.00     0.040 H 
ATOM      5  H   LIG d   1       4.218  -1.559  -3.051  0.00  0.00     0.040 H 
BRANCH   3   6
ATOM      6  C   LIG d   1       3.062  -0.126  -4.129  0.00  0.00     0.309 C 
ATOM      7  O   LIG d   1       1.928   0.005  -4.522  0.00  0.00    -0.251 OA
BRANCH   6   8
ATOM      8  O   LIG d   1       3.795   0.956  -3.823  0.00  0.00    -0.465 OA
BRANCH   8   9
ATOM      9  C   LIG d   1       3.643   1.498  -2.484  0.00  0.00     0.090 C 
ATOM     10  H   LIG d   1       3.784   2.578  -2.511  0.00  0.00     0.069 H 
ATOM     11  H   LIG d   1       2.644   1.271  -2.111  0.00  0.00     0.069 H 
BRANCH   9  12
ATOM     12  C   LIG d   1       4.688   0.870  -1.559  0.00  0.00    -0.031 C 
ATOM     13  H   LIG d   1       5.607   1.455  -1.600  0.00  0.00     0.026 H 
ATOM     14  H   LIG d   1       4.310   0.861  -0.536  0.00  0.00     0.026 H 
ATOM     15  H   LIG d   1       4.893  -0.151  -1.881  0.00  0.00     0.026 H 
ENDBRANCH   9  12
ENDBRANCH   8   9
ENDBRANCH   6   8
ENDBRANCH   3   6
ENDBRANCH   1   3
BRANCH   1  16
ATOM     16  C   LIG d   1       6.039  -1.813  -4.665  0.00  0.00    -0.046 C 
ATOM     17  H   LIG d   1       6.384  -0.793  -4.488  0.00  0.00     0.025 H 
ATOM     18  H   LIG d   1       6.094  -2.381  -3.736  0.00  0.00     0.025 H 
ATOM     19  H   LIG d   1       6.672  -2.285  -5.417  0.00  0.00     0.025 H 
ENDBRANCH   1  16
BRANCH   1  20
ATOM     20  N   LIG d   1       4.442  -0.729  -6.165  0.00  0.00    -0.308 N 
ATOM     21  C   LIG d   1       4.112  -1.049  -7.432  0.00  0.00     0.244 C 
ATOM     22  O   LIG d   1       3.941  -2.211  -7.741  0.00  0.00    -0.270 OA
ATOM     23  H   LIG d   1       4.579   0.200  -5.919  0.00  0.00     0.149 HD
BRANCH  21  24
ATOM     24  C   LIG d   1       3.960   0.016  -8.448  0.00  0.00     0.037 A 
ATOM     25  C   LIG d   1       4.558  -0.120  -9.701  0.00  0.00    -0.050 A 
ATOM     26  C   LIG d   1       4.411   0.876 -10.645  0.00  0.00    -0.061 A 
ATOM     27  H   LIG d   1       5.134  -1.005  -9.933  0.00  0.00     0.062 H 
ATOM     28  C   LIG d   1       3.674   2.009 -10.349  0.00  0.00    -0.062 A 
ATOM     29  H   LIG d   1       4.873   0.771 -11.615  0.00  0.00     0.062 H 
ATOM     30  C   LIG d   1       3.079   2.151  -9.108  0.00  0.00    -0.061 A 
ATOM     31  H   LIG d   1       3.559   2.784 -11.092  0.00  0.00     0.062 H 
ATOM     32  C   LIG d   1       3.218   1.162  -8.156  0.00  0.00    -0.050 A 
ATOM     33  H   LIG d   1       2.505   3.037  -8.884  0.00  0.00     0.062 H 
ATOM     34  H   LIG d   1       2.753   1.273  -7.189  0.00  0.00     0.062 H 
ENDBRANCH  21  24
ENDBRANCH   1  20
TORSDOF 8
ENDMDL
MODEL 6
REMARK VINA RESULT:      -5.3      2.345      3.486
REMARK  8 active torsions:
REMARK  status: ('A' for Active; 'I' for Inactive)
REMARK    1  A    between atoms: C_1  and  C_2 
REMARK    2  A    between atoms: C_2  and  O_3 
REMARK    3  A    between atoms: O_3  and  C_4 
REMARK    4  A    between atoms: C_4  and  C_6 
REMARK    5  A    between atoms: C_6  and  C_7 
REMARK    6  A    between atoms: C_7  and  C_9 
REMARK    7  A    between atoms: C_7  and  N_10 
REMARK       I    between atoms: N_10  and  C_11 
REMARK    8  A    between atoms: C_11  and  C_13 
ROOT
ATOM      1  C   LIG d   1       7.426   0.931  -7.117  0.00  0.00     0.031 C 
ATOM      2  H   LIG d   1       7.812   1.898  -6.794  0.00  0.00     0.050 H 
ENDROOT
BRANCH   1   3
ATOM      3  C   LIG d   1       6.557   1.119  -8.363  0.00  0.00     0.063 C 
ATOM      4  H   LIG d   1       6.360   2.180  -8.512  0.00  0.00     0.040 H 
ATOM      5  H   LIG d   1       7.080   0.721  -9.233  0.00  0.00     0.040 H 
BRANCH   3   6
ATOM      6  C   LIG d   1       5.253   0.386  -8.181  0.00  0.00     0.309 C 
ATOM      7  O   LIG d   1       5.155  -0.767  -8.529  0.00  0.00    -0.251 OA
BRANCH   6   8
ATOM      8  O   LIG d   1       4.202   1.014  -7.634  0.00  0.00    -0.465 OA
BRANCH   8   9
ATOM      9  C   LIG d   1       3.063   0.192  -7.263  0.00  0.00     0.090 C 
ATOM     10  H   LIG d   1       2.175   0.542  -7.789  0.00  0.00     0.069 H 
ATOM     11  H   LIG d   1       3.260  -0.846  -7.532  0.00  0.00     0.069 H 
BRANCH   9  12
ATOM     12  C   LIG d   1       2.832   0.292  -5.753  0.00  0.00    -0.031 C 
ATOM     13  H   LIG d   1       1.884   0.795  -5.563  0.00  0.00     0.026 H 
ATOM     14  H   LIG d   1       2.804  -0.709  -5.322  0.00  0.00     0.026 H 
ATOM     15  H   LIG d   1       3.643   0.861  -5.298  0.00  0.00     0.026 H 
ENDBRANCH   9  12
ENDBRANCH   8   9
ENDBRANCH   6   8
ENDBRANCH   3   6
ENDBRANCH   1   3
BRANCH   1  16
ATOM     16  C   LIG d   1       8.594  -0.000  -7.445  0.00  0.00    -0.046 C 
ATOM     17  H   LIG d   1       8.232  -1.027  -7.509  0.00  0.00     0.025 H 
ATOM     18  H   LIG d   1       9.034   0.290  -8.399  0.00  0.00     0.025 H 
ATOM     19  H   LIG d   1       9.347   0.071  -6.660  0.00  0.00     0.025 H 
ENDBRANCH   1  16
BRANCH   1  20
ATOM     20  N   LIG d   1       6.620   0.344  -6.044  0.00  0.00    -0.308 N 
ATOM     21  C   LIG d   1       6.721   0.822  -4.788  0.00  0.00     0.244 C 
ATOM     22  O   LIG d   1       7.482   1.738  -4.544  0.00  0.00    -0.270 OA
ATOM     23  H   LIG d   1       6.013  -0.387  -6.237  0.00  0.00     0.149 HD
BRANCH  21  24
ATOM     24  C   LIG d   1       5.907   0.230  -3.703  0.00  0.00     0.037 A 
ATOM     25  C   LIG d   1       5.301   1.052  -2.753  0.00  0.00    -0.050 A 
ATOM     26  C   LIG d   1       4.542   0.494  -1.745  0.00  0.00    -0.061 A 
ATOM     27  H   LIG d   1       5.425   2.124  -2.806  0.00  0.00     0.062 H 
ATOM     28  C   LIG d   1       4.383  -0.880  -1.675  0.00  0.00    -0.062 A 
ATOM     29  H   LIG d   1       4.072   1.129  -1.010  0.00  0.00     0.062 H 
ATOM     30  C   LIG d   1       4.982  -1.700  -2.614  0.00  0.00    -0.061 A 
ATOM     31  H   LIG d   1       3.785  -1.312  -0.887  0.00  0.00     0.062 H 
ATOM     32  C   LIG d   1       5.743  -1.155  -3.627  0.00  0.00    -0.050 A 
ATOM     33  H   LIG d   1       4.854  -2.771  -2.554  0.00  0.00     0.062 H 
ATOM     34  H   LIG d   1       6.209  -1.795  -4.360  0.00  0.00     0.062 H 
ENDBRANCH  21  24
ENDBRANCH   1  20
TORSDOF 8
ENDMDL
MODEL 7
REMARK VINA RESULT:      -5.3      2.815      4.578
REMARK  8 active torsions:
REMARK  status: ('A' for Active; 'I' for Inactive)
REMARK    1  A    between atoms: C_1  and  C_2 
REMARK    2  A    between atoms: C_2  and  O_3 
REMARK    3  A    between atoms: O_3  and  C_4 
REMARK    4  A    between atoms: C_4  and  C_6 
REMARK    5  A    between atoms: C_6  and  C_7 
REMARK    6  A    between atoms: C_7  and  C_9 
REMARK    7  A    between atoms: C_7  and  N_10 
REMARK       I    between atoms: N_10  and  C_11 
REMARK    8  A    between atoms: C_11  and  C_13 
ROOT
ATOM      1  C   LIG d   1       3.750   0.244  -2.611  0.00  0.00     0.031 C 
ATOM      2  H   LIG d   1       2.965  -0.333  -2.122  0.00  0.00     0.050 H 
ENDROOT
BRANCH   1   3
ATOM      3  C   LIG d   1       3.115   1.300  -3.519  0.00  0.00     0.063 C 
ATOM      4  H   LIG d   1       2.278   1.769  -3.001  0.00  0.00     0.040 H 
ATOM      5  H   LIG d   1       3.858   2.057  -3.768  0.00  0.00     0.040 H 
BRANCH   3   6
ATOM      6  C   LIG d   1       2.621   0.645  -4.783  0.00  0.00     0.309 C 
ATOM      7  O   LIG d   1       1.652  -0.074  -4.751  0.00  0.00    -0.251 OA
BRANCH   6   8
ATOM      8  O   LIG d   1       3.259   0.862  -5.943  0.00  0.00    -0.465 OA
BRANCH   8   9
ATOM      9  C   LIG d   1       2.967  -0.050  -7.036  0.00  0.00     0.090 C 
ATOM     10  H   LIG d   1       2.043  -0.587  -6.823  0.00  0.00     0.069 H 
ATOM     11  H   LIG d   1       2.854   0.516  -7.961  0.00  0.00     0.069 H 
BRANCH   9  12
ATOM     12  C   LIG d   1       4.116  -1.050  -7.186  0.00  0.00    -0.031 C 
ATOM     13  H   LIG d   1       3.887  -1.953  -6.619  0.00  0.00     0.026 H 
ATOM     14  H   LIG d   1       4.241  -1.304  -8.239  0.00  0.00     0.026 H 
ATOM     15  H   LIG d   1       5.036  -0.606  -6.807  0.00  0.00     0.026 H 
ENDBRANCH   9  12
ENDBRANCH   8   9
ENDBRANCH   6   8
ENDBRANCH   3   6
ENDBRANCH   1   3
BRANCH   1  16
ATOM     16  C   LIG d   1       4.611   0.933  -1.551  0.00  0.00    -0.046 C 
ATOM     17  H   LIG d   1       5.271   0.200  -1.087  0.00  0.00     0.025 H 
ATOM     18  H   LIG d   1       5.209   1.714  -2.021  0.00  0.00     0.025 H 
ATOM     19  H   LIG d   1       3.968   1.376  -0.791  0.00  0.00     0.025 H 
ENDBRANCH   1  16
BRANCH   1  20
ATOM     20  N   LIG d   1       4.586  -0.651  -3.414  0.00  0.00    -0.308 N 
ATOM     21  C   LIG d   1       4.454  -1.987  -3.291  0.00  0.00     0.244 C 
ATOM     22  O   LIG d   1       3.643  -2.449  -2.513  0.00  0.00    -0.270 OA
ATOM     23  H   LIG d   1       5.235  -0.283  -4.034  0.00  0.00     0.149 HD
BRANCH  21  24
ATOM     24  C   LIG d   1       5.299  -2.891  -4.101  0.00  0.00     0.037 A 
ATOM     25  C   LIG d   1       4.717  -3.931  -4.827  0.00  0.00    -0.050 A 
ATOM     26  C   LIG d   1       5.510  -4.770  -5.582  0.00  0.00    -0.061 A 
ATOM     27  H   LIG d   1       3.647  -4.079  -4.797  0.00  0.00     0.062 H 
ATOM     28  C   LIG d   1       6.881  -4.582  -5.619  0.00  0.00    -0.062 A 
ATOM     29  H   LIG d   1       5.061  -5.575  -6.144  0.00  0.00     0.062 H 
ATOM     30  C   LIG d   1       7.464  -3.553  -4.902  0.00  0.00    -0.061 A 
ATOM     31  H   LIG d   1       7.497  -5.239  -6.215  0.00  0.00     0.062 H 
ATOM     32  C   LIG d   1       6.682  -2.707  -4.144  0.00  0.00    -0.050 A 
ATOM     33  H   LIG d   1       8.534  -3.411  -4.936  0.00  0.00     0.062 H 
ATOM     34  H   LIG d   1       7.138  -1.903  -3.585  0.00  0.00     0.062 H 
ENDBRANCH  21  24
ENDBRANCH   1  20
TORSDOF 8
ENDMDL
MODEL 8
REMARK VINA RESULT:      -5.2      2.214      5.781
REMARK  8 active torsions:
REMARK  status: ('A' for Active; 'I' for Inactive)
REMARK    1  A    between atoms: C_1  and  C_2 
REMARK    2  A    between atoms: C_2  and  O_3 
REMARK    3  A    between atoms: O_3  and  C_4 
REMARK    4  A    between atoms: C_4  and  C_6 
REMARK    5  A    between atoms: C_6  and  C_7 
REMARK    6  A    between atoms: C_7  and  C_9 
REMARK    7  A    between atoms: C_7  and  N_10 
REMARK       I    between atoms: N_10  and  C_11 
REMARK    8  A    between atoms: C_11  and  C_13 
ROOT
ATOM      1  C   LIG d   1       3.802  -0.503  -2.928  0.00  0.00     0.031 C 
ATOM      2  H   LIG d   1       2.834  -0.021  -2.786  0.00  0.00     0.050 H 
ENDROOT
BRANCH   1   3
ATOM      3  C   LIG d   1       4.880   0.290  -2.185  0.00  0.00     0.063 C 
ATOM      4  H   LIG d   1       4.515   1.297  -1.982  0.00  0.00     0.040 H 
ATOM      5  H   LIG d   1       5.114  -0.209  -1.245  0.00  0.00     0.040 H 
BRANCH   3   6
ATOM      6  C   LIG d   1       6.122   0.367  -3.036  0.00  0.00     0.309 C 
ATOM      7  O   LIG d   1       6.863  -0.583  -3.111  0.00  0.00    -0.251 OA
BRANCH   6   8
ATOM      8  O   LIG d   1       6.403   1.493  -3.710  0.00  0.00    -0.465 OA
BRANCH   8   9
ATOM      9  C   LIG d   1       7.807   1.791  -3.938  0.00  0.00     0.090 C 
ATOM     10  H   LIG d   1       8.032   2.788  -3.561  0.00  0.00     0.069 H 
ATOM     11  H   LIG d   1       8.423   1.057  -3.419  0.00  0.00     0.069 H 
BRANCH   9  12
ATOM     12  C   LIG d   1       8.101   1.735  -5.439  0.00  0.00    -0.031 C 
ATOM     13  H   LIG d   1       7.767   2.660  -5.909  0.00  0.00     0.026 H 
ATOM     14  H   LIG d   1       9.174   1.616  -5.595  0.00  0.00     0.026 H 
ATOM     15  H   LIG d   1       7.573   0.891  -5.882  0.00  0.00     0.026 H 
ENDBRANCH   9  12
ENDBRANCH   8   9
ENDBRANCH   6   8
ENDBRANCH   3   6
ENDBRANCH   1   3
BRANCH   1  16
ATOM     16  C   LIG d   1       3.747  -1.929  -2.377  0.00  0.00    -0.046 C 
ATOM     17  H   LIG d   1       2.707  -2.249  -2.301  0.00  0.00     0.025 H 
ATOM     18  H   LIG d   1       4.285  -2.599  -3.048  0.00  0.00     0.025 H 
ATOM     19  H   LIG d   1       4.208  -1.956  -1.390  0.00  0.00     0.025 H 
ENDBRANCH   1  16
BRANCH   1  20
ATOM     20  N   LIG d   1       4.123  -0.544  -4.356  0.00  0.00    -0.308 N 
ATOM     21  C   LIG d   1       3.245  -0.061  -5.258  0.00  0.00     0.244 C 
ATOM     22  O   LIG d   1       2.187   0.407  -4.886  0.00  0.00    -0.270 OA
ATOM     23  H   LIG d   1       4.967  -0.918  -4.654  0.00  0.00     0.149 HD
BRANCH  21  24
ATOM     24  C   LIG d   1       3.568  -0.102  -6.701  0.00  0.00     0.037 A 
ATOM     25  C   LIG d   1       2.551   0.001  -7.650  0.00  0.00    -0.050 A 
ATOM     26  C   LIG d   1       2.860  -0.037  -8.995  0.00  0.00    -0.061 A 
ATOM     27  H   LIG d   1       1.524   0.110  -7.334  0.00  0.00     0.062 H 
ATOM     28  C   LIG d   1       4.175  -0.178  -9.401  0.00  0.00    -0.062 A 
ATOM     29  H   LIG d   1       2.073   0.042  -9.730  0.00  0.00     0.062 H 
ATOM     30  C   LIG d   1       5.188  -0.280  -8.465  0.00  0.00    -0.061 A 
ATOM     31  H   LIG d   1       4.412  -0.203 -10.455  0.00  0.00     0.062 H 
ATOM     32  C   LIG d   1       4.893  -0.244  -7.118  0.00  0.00    -0.050 A 
ATOM     33  H   LIG d   1       6.212  -0.390  -8.789  0.00  0.00     0.062 H 
ATOM     34  H   LIG d   1       5.684  -0.323  -6.388  0.00  0.00     0.062 H 
ENDBRANCH  21  24
ENDBRANCH   1  20
TORSDOF 8
ENDMDL
MODEL 9
REMARK VINA RESULT:      -5.2      4.715      6.674
REMARK  8 active torsions:
REMARK  status: ('A' for Active; 'I' for Inactive)
REMARK    1  A    between atoms: C_1  and  C_2 
REMARK    2  A    between atoms: C_2  and  O_3 
REMARK    3  A    between atoms: O_3  and  C_4 
REMARK    4  A    between atoms: C_4  and  C_6 
REMARK    5  A    between atoms: C_6  and  C_7 
REMARK    6  A    between atoms: C_7  and  C_9 
REMARK    7  A    between atoms: C_7  and  N_10 
REMARK       I    between atoms: N_10  and  C_11 
REMARK    8  A    between atoms: C_11  and  C_13 
ROOT
ATOM      1  C   LIG d   1       8.776   2.174  -5.362  0.00  0.00     0.031 C 
ATOM      2  H   LIG d   1       9.546   1.406  -5.291  0.00  0.00     0.050 H 
ENDROOT
BRANCH   1   3
ATOM      3  C   LIG d   1       9.331   3.502  -4.843  0.00  0.00     0.063 C 
ATOM      4  H   LIG d   1      10.166   3.817  -5.469  0.00  0.00     0.040 H 
ATOM      5  H   LIG d   1       8.548   4.259  -4.874  0.00  0.00     0.040 H 
BRANCH   3   6
ATOM      6  C   LIG d   1       9.806   3.328  -3.424  0.00  0.00     0.309 C 
ATOM      7  O   LIG d   1      10.355   2.305  -3.091  0.00  0.00    -0.251 OA
BRANCH   6   8
ATOM      8  O   LIG d   1       9.619   4.311  -2.529  0.00  0.00    -0.465 OA
BRANCH   8   9
ATOM      9  C   LIG d   1      10.469   5.482  -2.648  0.00  0.00     0.090 C 
ATOM     10  H   LIG d   1      11.113   5.553  -1.772  0.00  0.00     0.069 H 
ATOM     11  H   LIG d   1      11.083   5.396  -3.545  0.00  0.00     0.069 H 
BRANCH   9  12
ATOM     12  C   LIG d   1       9.598   6.737  -2.743  0.00  0.00    -0.031 C 
ATOM     13  H   LIG d   1      10.044   7.535  -2.149  0.00  0.00     0.026 H 
ATOM     14  H   LIG d   1       9.530   7.054  -3.784  0.00  0.00     0.026 H 
ATOM     15  H   LIG d   1       8.600   6.516  -2.365  0.00  0.00     0.026 H 
ENDBRANCH   9  12
ENDBRANCH   8   9
ENDBRANCH   6   8
ENDBRANCH   3   6
ENDBRANCH   1   3
BRANCH   1  16
ATOM     16  C   LIG d   1       8.348   2.334  -6.821  0.00  0.00    -0.046 C 
ATOM     17  H   LIG d   1       9.123   1.929  -7.473  0.00  0.00     0.025 H 
ATOM     18  H   LIG d   1       7.415   1.796  -6.988  0.00  0.00     0.025 H 
ATOM     19  H   LIG d   1       8.203   3.391  -7.043  0.00  0.00     0.025 H 
ENDBRANCH   1  16
BRANCH   1  20
ATOM     20  N   LIG d   1       7.618   1.780  -4.554  0.00  0.00    -0.308 N 
ATOM     21  C   LIG d   1       7.458   0.493  -4.190  0.00  0.00     0.244 C 
ATOM     22  O   LIG d   1       8.273  -0.342  -4.531  0.00  0.00    -0.270 OA
ATOM     23  H   LIG d   1       6.967   2.446  -4.282  0.00  0.00     0.149 HD
BRANCH  21  24
ATOM     24  C   LIG d   1       6.289   0.095  -3.375  0.00  0.00     0.037 A 
ATOM     25  C   LIG d   1       5.938  -1.251  -3.263  0.00  0.00    -0.050 A 
ATOM     26  C   LIG d   1       4.847  -1.616  -2.501  0.00  0.00    -0.061 A 
ATOM     27  H   LIG d   1       6.518  -2.006  -3.774  0.00  0.00     0.062 H 
ATOM     28  C   LIG d   1       4.102  -0.649  -1.848  0.00  0.00    -0.062 A 
ATOM     29  H   LIG d   1       4.575  -2.656  -2.414  0.00  0.00     0.062 H 
ATOM     30  C   LIG d   1       4.446   0.687  -1.954  0.00  0.00    -0.061 A 
ATOM     31  H   LIG d   1       3.252  -0.940  -1.249  0.00  0.00     0.062 H 
ATOM     32  C   LIG d   1       5.534   1.065  -2.713  0.00  0.00    -0.050 A 
ATOM     33  H   LIG d   1       3.860   1.436  -1.442  0.00  0.00     0.062 H 
ATOM     34  H   LIG d   1       5.801   2.107  -2.795  0.00  0.00     0.062 H 
ENDBRANCH  21  24
ENDBRANCH   1  20
TORSDOF 8
ENDMDL
MODEL 10
REMARK VINA RESULT:      -5.2      1.711      2.275
REMARK  8 active torsions:
REMARK  status: ('A' for Active; 'I' for Inactive)
REMARK    1  A    between atoms: C_1  and  C_2 
REMARK    2  A    between atoms: C_2  and  O_3 
REMARK    3  A    between atoms: O_3  and  C_4 
REMARK    4  A    between atoms: C_4  and  C_6 
REMARK    5  A    between atoms: C_6  and  C_7 
REMARK    6  A    between atoms: C_7  and  C_9 
REMARK    7  A    between atoms: C_7  and  N_10 
REMARK       I    between atoms: N_10  and  C_11 
REMARK    8  A    between atoms: C_11  and  C_13 
ROOT
ATOM      1  C   LIG d   1       4.221  -1.273  -8.058  0.00  0.00     0.031 C 
ATOM      2  H   LIG d   1       4.475  -2.316  -7.873  0.00  0.00     0.050 H 
ENDROOT
BRANCH   1   3
ATOM      3  C   LIG d   1       5.249  -0.658  -9.009  0.00  0.00     0.063 C 
ATOM      4  H   LIG d   1       5.937  -1.431  -9.351  0.00  0.00     0.040 H 
ATOM      5  H   LIG d   1       4.736  -0.224  -9.867  0.00  0.00     0.040 H 
BRANCH   3   6
ATOM      6  C   LIG d   1       6.021   0.418  -8.289  0.00  0.00     0.309 C 
ATOM      7  O   LIG d   1       7.034   0.139  -7.694  0.00  0.00    -0.251 OA
BRANCH   6   8
ATOM      8  O   LIG d   1       5.581   1.686  -8.308  0.00  0.00    -0.465 OA
BRANCH   8   9
ATOM      9  C   LIG d   1       4.754   2.079  -9.435  0.00  0.00     0.090 C 
ATOM     10  H   LIG d   1       5.215   2.925  -9.946  0.00  0.00     0.069 H 
ATOM     11  H   LIG d   1       4.661   1.243 -10.128  0.00  0.00     0.069 H 
BRANCH   9  12
ATOM     12  C   LIG d   1       3.366   2.483  -8.932  0.00  0.00    -0.031 C 
ATOM     13  H   LIG d   1       3.467   3.241  -8.156  0.00  0.00     0.026 H 
ATOM     14  H   LIG d   1       2.783   2.887  -9.760  0.00  0.00     0.026 H 
ATOM     15  H   LIG d   1       2.859   1.608  -8.524  0.00  0.00     0.026 H 
ENDBRANCH   9  12
ENDBRANCH   8   9
ENDBRANCH   6   8
ENDBRANCH   3   6
ENDBRANCH   1   3
BRANCH   1  16
ATOM     16  C   LIG d   1       2.830  -1.191  -8.689  0.00  0.00    -0.046 C 
ATOM     17  H   LIG d   1       2.903  -0.724  -9.671  0.00  0.00     0.025 H 
ATOM     18  H   LIG d   1       2.419  -2.196  -8.794  0.00  0.00     0.025 H 
ATOM     19  H   LIG d   1       2.176  -0.596  -8.051  0.00  0.00     0.025 H 
ENDBRANCH   1  16
BRANCH   1  20
ATOM     20  N   LIG d   1       4.226  -0.537  -6.791  0.00  0.00    -0.308 N 
ATOM     21  C   LIG d   1       4.416  -1.196  -5.631  0.00  0.00     0.244 C 
ATOM     22  O   LIG d   1       4.581  -2.400  -5.635  0.00  0.00    -0.270 OA
ATOM     23  H   LIG d   1       4.094   0.424  -6.787  0.00  0.00     0.149 HD
BRANCH  21  24
ATOM     24  C   LIG d   1       4.421  -0.453  -4.351  0.00  0.00     0.037 A 
ATOM     25  C   LIG d   1       3.236  -0.281  -3.636  0.00  0.00    -0.050 A 
ATOM     26  C   LIG d   1       3.247   0.412  -2.443  0.00  0.00    -0.061 A 
ATOM     27  H   LIG d   1       2.310  -0.689  -4.016  0.00  0.00     0.062 H 
ATOM     28  C   LIG d   1       4.432   0.936  -1.956  0.00  0.00    -0.062 A 
ATOM     29  H   LIG d   1       2.331   0.546  -1.889  0.00  0.00     0.062 H 
ATOM     30  C   LIG d   1       5.611   0.768  -2.661  0.00  0.00    -0.061 A 
ATOM     31  H   LIG d   1       4.437   1.474  -1.019  0.00  0.00     0.062 H 
ATOM     32  C   LIG d   1       5.613   0.078  -3.855  0.00  0.00    -0.050 A 
ATOM     33  H   LIG d   1       6.532   1.179  -2.276  0.00  0.00     0.062 H 
ATOM     34  H   LIG d   1       6.533  -0.053  -4.403  0.00  0.00     0.062 H 
ENDBRANCH  21  24
ENDBRANCH   1  20
TORSDOF 8
ENDMDL
