MODEL 1
REMARK VINA RESULT:      -6.9      0.000      0.000
REMARK  12 active torsions:
REMARK  status: ('A' for Active; 'I' for Inactive)
REMARK    1  A    between atoms: C_1  and  C_2 
REMARK    2  A    between atoms: C_15  and  O_36 
REMARK    3  A    between atoms: C_18  and  C_35 
REMARK    4  A    between atoms: C_23  and  C_24 
REMARK    5  A    between atoms: C_23  and  O_34 
REMARK    6  A    between atoms: C_24  and  C_26 
REMARK    7  A    between atoms: C_26  and  S_27 
REMARK    8  A    between atoms: S_27  and  C_28 
REMARK    9  A    between atoms: C_28  and  C_30 
REMARK   10  A    between atoms: C_30  and  C_31 
REMARK   11  A    between atoms: C_30  and  C_32 
REMARK   12  A    between atoms: C_30  and  C_33 
ROOT
ATOM      1  C   LIG d   1       1.952  -2.410 -13.073  0.00  0.00    -0.005 C 
ATOM      2  C   LIG d   1       0.515  -2.824 -13.286  0.00  0.00    -0.037 C 
ATOM      3  C   LIG d   1      -0.067  -2.218 -14.563  0.00  0.00     0.011 C 
ATOM      4  C   LIG d   1       0.848  -2.600 -15.711  0.00  0.00     0.156 C 
ATOM      5  O   LIG d   1       0.429  -3.133 -16.717  0.00  0.00    -0.293 OA
ATOM      6  C   LIG d   1       2.273  -2.287 -15.532  0.00  0.00    -0.019 C 
ATOM      7  C   LIG d   1       2.762  -2.191 -14.298  0.00  0.00    -0.060 C 
ATOM      8  C   LIG d   1       4.224  -1.823 -14.115  0.00  0.00    -0.030 C 
ATOM      9  C   LIG d   1       4.286  -0.619 -13.169  0.00  0.00    -0.046 C 
ATOM     10  C   LIG d   1       3.558  -0.940 -11.865  0.00  0.00    -0.031 C 
ATOM     11  H   LIG d   1       4.002  -1.823 -11.406  0.00  0.00     0.031 H 
ATOM     12  C   LIG d   1       2.068  -1.199 -12.146  0.00  0.00    -0.003 C 
ATOM     13  H   LIG d   1       1.642  -0.333 -12.652  0.00  0.00     0.034 H 
ATOM     14  C   LIG d   1       1.291  -1.464 -10.860  0.00  0.00     0.060 C 
ATOM     15  H   LIG d   1       0.230  -1.547 -11.097  0.00  0.00     0.060 H 
ATOM     16  C   LIG d   1       1.487  -0.334  -9.837  0.00  0.00    -0.018 C 
ATOM     17  C   LIG d   1       2.977  -0.218  -9.576  0.00  0.00     0.009 C 
ATOM     18  C   LIG d   1       3.642   0.231 -10.905  0.00  0.00    -0.029 C 
ATOM     19  H   LIG d   1       3.125   1.099 -11.316  0.00  0.00     0.031 H 
ATOM     20  C   LIG d   1       5.052   0.604 -10.434  0.00  0.00    -0.046 C 
ATOM     21  C   LIG d   1       4.788   1.353  -9.100  0.00  0.00    -0.016 C 
ATOM     22  C   LIG d   1       3.413   0.853  -8.581  0.00  0.00     0.130 C 
ATOM     23  H   LIG d   1      -0.082  -2.495 -12.436  0.00  0.00     0.028 H 
ATOM     24  H   LIG d   1       0.463  -3.910 -13.356  0.00  0.00     0.028 H 
ATOM     25  H   LIG d   1      -0.117  -1.224 -14.469  0.00  0.00     0.035 H 
ATOM     26  H   LIG d   1      -1.067  -2.617 -14.739  0.00  0.00     0.035 H 
ATOM     27  H   LIG d   1       2.913  -2.136 -16.389  0.00  0.00     0.065 H 
ATOM     28  H   LIG d   1       4.663  -1.561 -15.078  0.00  0.00     0.031 H 
ATOM     29  H   LIG d   1       4.765  -2.664 -13.679  0.00  0.00     0.031 H 
ATOM     30  H   LIG d   1       3.812   0.240 -13.646  0.00  0.00     0.027 H 
ATOM     31  H   LIG d   1       5.328  -0.381 -12.953  0.00  0.00     0.027 H 
ATOM     32  H   LIG d   1       0.966  -0.576  -8.910  0.00  0.00     0.030 H 
ATOM     33  H   LIG d   1       1.108   0.604 -10.242  0.00  0.00     0.030 H 
ATOM     34  H   LIG d   1       5.651  -0.290 -10.263  0.00  0.00     0.027 H 
ATOM     35  H   LIG d   1       5.539   1.260 -11.157  0.00  0.00     0.027 H 
ATOM     36  H   LIG d   1       5.568   1.116  -8.376  0.00  0.00     0.030 H 
ATOM     37  H   LIG d   1       4.754   2.428  -9.274  0.00  0.00     0.030 H 
ENDROOT
BRANCH  22  38
ATOM     38  C   LIG d   1       3.555   0.259  -7.204  0.00  0.00     0.175 C 
ATOM     39  O   LIG d   1       2.583   0.136  -6.497  0.00  0.00    -0.293 OA
BRANCH  38  40
ATOM     40  C   LIG d   1       4.908  -0.180  -6.707  0.00  0.00     0.062 C 
ATOM     41  H   LIG d   1       5.399  -0.647  -7.443  0.00  0.00     0.046 H 
ATOM     42  H   LIG d   1       5.477   0.692  -6.386  0.00  0.00     0.046 H 
BRANCH  40  43
ATOM     43  S   LIG d   1       4.699  -1.312  -5.309  0.00  0.00    -0.080 SA
BRANCH  43  44
ATOM     44  C   LIG d   1       4.903  -0.217  -4.008  0.00  0.00     0.195 C 
ATOM     45  O   LIG d   1       5.724   0.672  -4.086  0.00  0.00    -0.285 OA
BRANCH  44  46
ATOM     46  C   LIG d   1       4.060  -0.358  -2.767  0.00  0.00     0.031 C 
BRANCH  46  47
ATOM     47  C   LIG d   1       2.596  -0.556  -3.165  0.00  0.00    -0.052 C 
ATOM     48  H   LIG d   1       2.538  -0.798  -4.226  0.00  0.00     0.024 H 
ATOM     49  H   LIG d   1       2.168  -1.371  -2.582  0.00  0.00     0.024 H 
ATOM     50  H   LIG d   1       2.039   0.361  -2.971  0.00  0.00     0.024 H 
ENDBRANCH  46  47
BRANCH  46  51
ATOM     51  C   LIG d   1       4.537  -1.567  -1.960  0.00  0.00    -0.052 C 
ATOM     52  H   LIG d   1       3.685  -2.034  -1.468  0.00  0.00     0.024 H 
ATOM     53  H   LIG d   1       5.010  -2.287  -2.629  0.00  0.00     0.024 H 
ATOM     54  H   LIG d   1       5.257  -1.241  -1.209  0.00  0.00     0.024 H 
ENDBRANCH  46  51
BRANCH  46  55
ATOM     55  C   LIG d   1       4.190   0.907  -1.916  0.00  0.00    -0.052 C 
ATOM     56  H   LIG d   1       3.787   0.719  -0.921  0.00  0.00     0.024 H 
ATOM     57  H   LIG d   1       5.241   1.184  -1.835  0.00  0.00     0.024 H 
ATOM     58  H   LIG d   1       3.635   1.719  -2.386  0.00  0.00     0.024 H 
ENDBRANCH  46  55
ENDBRANCH  44  46
ENDBRANCH  43  44
ENDBRANCH  40  43
ENDBRANCH  38  40
ENDBRANCH  22  38
BRANCH  22  59
ATOM     59  O   LIG d   1       2.469   1.925  -8.564  0.00  0.00    -0.381 OA
ATOM     60  H   LIG d   1       2.846   2.777  -8.304  0.00  0.00     0.211 HD
ENDBRANCH  22  59
BRANCH  17  61
ATOM     61  C   LIG d   1       3.535  -1.577  -9.151  0.00  0.00    -0.056 C 
ATOM     62  H   LIG d   1       2.887  -2.016  -8.392  0.00  0.00     0.024 H 
ATOM     63  H   LIG d   1       4.536  -1.447  -8.741  0.00  0.00     0.024 H 
ATOM     64  H   LIG d   1       3.579  -2.240 -10.016  0.00  0.00     0.024 H 
ENDBRANCH  17  61
BRANCH  14  65
ATOM     65  O   LIG d   1       1.740  -2.693 -10.289  0.00  0.00    -0.392 OA
ATOM     66  H   LIG d   1       2.702  -2.782 -10.252  0.00  0.00     0.210 HD
ENDBRANCH  14  65
BRANCH   1  67
ATOM     67  C   LIG d   1       2.612  -3.579 -12.341  0.00  0.00    -0.056 C 
ATOM     68  H   LIG d   1       1.973  -4.460 -12.410  0.00  0.00     0.024 H 
ATOM     69  H   LIG d   1       3.578  -3.795 -12.798  0.00  0.00     0.024 H 
ATOM     70  H   LIG d   1       2.757  -3.318 -11.293  0.00  0.00     0.024 H 
ENDBRANCH   1  67
TORSDOF 12
ENDMDL
MODEL 2
REMARK VINA RESULT:      -6.3      5.995      9.792
REMARK  12 active torsions:
REMARK  status: ('A' for Active; 'I' for Inactive)
REMARK    1  A    between atoms: C_1  and  C_2 
REMARK    2  A    between atoms: C_15  and  O_36 
REMARK    3  A    between atoms: C_18  and  C_35 
REMARK    4  A    between atoms: C_23  and  C_24 
REMARK    5  A    between atoms: C_23  and  O_34 
REMARK    6  A    between atoms: C_24  and  C_26 
REMARK    7  A    between atoms: C_26  and  S_27 
REMARK    8  A    between atoms: S_27  and  C_28 
REMARK    9  A    between atoms: C_28  and  C_30 
REMARK   10  A    between atoms: C_30  and  C_31 
REMARK   11  A    between atoms: C_30  and  C_32 
REMARK   12  A    between atoms: C_30  and  C_33 
ROOT
ATOM      1  C   LIG d   1       5.058  -1.549  -4.322  0.00  0.00    -0.005 C 
ATOM      2  C   LIG d   1       3.869  -1.481  -3.393  0.00  0.00    -0.037 C 
ATOM      3  C   LIG d   1       4.269  -1.028  -1.990  0.00  0.00     0.011 C 
ATOM      4  C   LIG d   1       5.005   0.291  -2.125  0.00  0.00     0.156 C 
ATOM      5  O   LIG d   1       4.683   1.275  -1.491  0.00  0.00    -0.293 OA
ATOM      6  C   LIG d   1       6.130   0.308  -3.070  0.00  0.00    -0.019 C 
ATOM      7  C   LIG d   1       6.141  -0.563  -4.075  0.00  0.00    -0.060 C 
ATOM      8  C   LIG d   1       7.327  -0.574  -5.025  0.00  0.00    -0.030 C 
ATOM      9  C   LIG d   1       7.864  -2.008  -5.081  0.00  0.00    -0.046 C 
ATOM     10  C   LIG d   1       6.745  -2.971  -5.475  0.00  0.00    -0.031 C 
ATOM     11  H   LIG d   1       6.325  -2.670  -6.435  0.00  0.00     0.031 H 
ATOM     12  C   LIG d   1       5.642  -2.959  -4.402  0.00  0.00    -0.003 C 
ATOM     13  H   LIG d   1       6.079  -3.210  -3.436  0.00  0.00     0.034 H 
ATOM     14  C   LIG d   1       4.533  -3.955  -4.726  0.00  0.00     0.060 C 
ATOM     15  H   LIG d   1       3.826  -3.980  -3.897  0.00  0.00     0.060 H 
ATOM     16  C   LIG d   1       5.089  -5.370  -4.953  0.00  0.00    -0.018 C 
ATOM     17  C   LIG d   1       6.103  -5.278  -6.077  0.00  0.00     0.009 C 
ATOM     18  C   LIG d   1       7.271  -4.391  -5.569  0.00  0.00    -0.029 C 
ATOM     19  H   LIG d   1       7.617  -4.735  -4.595  0.00  0.00     0.031 H 
ATOM     20  C   LIG d   1       8.335  -4.633  -6.646  0.00  0.00    -0.046 C 
ATOM     21  C   LIG d   1       8.227  -6.161  -6.904  0.00  0.00    -0.016 C 
ATOM     22  C   LIG d   1       6.794  -6.577  -6.479  0.00  0.00     0.130 C 
ATOM     23  H   LIG d   1       3.409  -2.467  -3.328  0.00  0.00     0.028 H 
ATOM     24  H   LIG d   1       3.141  -0.778  -3.797  0.00  0.00     0.028 H 
ATOM     25  H   LIG d   1       4.859  -1.719  -1.571  0.00  0.00     0.035 H 
ATOM     26  H   LIG d   1       3.377  -0.893  -1.377  0.00  0.00     0.035 H 
ATOM     27  H   LIG d   1       6.937   1.016  -2.949  0.00  0.00     0.065 H 
ATOM     28  H   LIG d   1       8.102   0.098  -4.655  0.00  0.00     0.031 H 
ATOM     29  H   LIG d   1       7.008  -0.259  -6.018  0.00  0.00     0.031 H 
ATOM     30  H   LIG d   1       8.254  -2.287  -4.102  0.00  0.00     0.027 H 
ATOM     31  H   LIG d   1       8.667  -2.065  -5.818  0.00  0.00     0.027 H 
ATOM     32  H   LIG d   1       4.281  -6.046  -5.236  0.00  0.00     0.030 H 
ATOM     33  H   LIG d   1       5.573  -5.728  -4.045  0.00  0.00     0.030 H 
ATOM     34  H   LIG d   1       8.103  -4.073  -7.551  0.00  0.00     0.027 H 
ATOM     35  H   LIG d   1       9.326  -4.372  -6.275  0.00  0.00     0.027 H 
ATOM     36  H   LIG d   1       8.379  -6.374  -7.963  0.00  0.00     0.030 H 
ATOM     37  H   LIG d   1       8.966  -6.695  -6.306  0.00  0.00     0.030 H 
ENDROOT
BRANCH  22  38
ATOM     38  C   LIG d   1       6.068  -7.220  -7.632  0.00  0.00     0.175 C 
ATOM     39  O   LIG d   1       6.560  -7.210  -8.735  0.00  0.00    -0.293 OA
BRANCH  38  40
ATOM     40  C   LIG d   1       4.728  -7.874  -7.411  0.00  0.00     0.062 C 
ATOM     41  H   LIG d   1       4.294  -7.478  -6.602  0.00  0.00     0.046 H 
ATOM     42  H   LIG d   1       4.095  -7.706  -8.282  0.00  0.00     0.046 H 
BRANCH  40  43
ATOM     43  S   LIG d   1       4.958  -9.652  -7.165  0.00  0.00    -0.080 SA
BRANCH  43  44
ATOM     44  C   LIG d   1       4.462  -9.792  -5.533  0.00  0.00     0.195 C 
ATOM     45  O   LIG d   1       4.252  -8.795  -4.875  0.00  0.00    -0.285 OA
BRANCH  44  46
ATOM     46  C   LIG d   1       4.285 -11.155  -4.914  0.00  0.00     0.031 C 
BRANCH  46  47
ATOM     47  C   LIG d   1       3.567 -12.075  -5.903  0.00  0.00    -0.052 C 
ATOM     48  H   LIG d   1       3.218 -12.967  -5.382  0.00  0.00     0.024 H 
ATOM     49  H   LIG d   1       2.715 -11.550  -6.335  0.00  0.00     0.024 H 
ATOM     50  H   LIG d   1       4.256 -12.365  -6.696  0.00  0.00     0.024 H 
ENDBRANCH  46  47
BRANCH  46  51
ATOM     51  C   LIG d   1       5.656 -11.743  -4.574  0.00  0.00    -0.052 C 
ATOM     52  H   LIG d   1       5.583 -12.328  -3.657  0.00  0.00     0.024 H 
ATOM     53  H   LIG d   1       5.988 -12.387  -5.389  0.00  0.00     0.024 H 
ATOM     54  H   LIG d   1       6.373 -10.934  -4.434  0.00  0.00     0.024 H 
ENDBRANCH  46  51
BRANCH  46  55
ATOM     55  C   LIG d   1       3.452 -11.031  -3.636  0.00  0.00    -0.052 C 
ATOM     56  H   LIG d   1       3.939 -11.580  -2.830  0.00  0.00     0.024 H 
ATOM     57  H   LIG d   1       3.365  -9.981  -3.360  0.00  0.00     0.024 H 
ATOM     58  H   LIG d   1       2.459 -11.445  -3.809  0.00  0.00     0.024 H 
ENDBRANCH  46  55
ENDBRANCH  44  46
ENDBRANCH  43  44
ENDBRANCH  40  43
ENDBRANCH  38  40
ENDBRANCH  22  38
BRANCH  22  59
ATOM     59  O   LIG d   1       6.847  -7.473  -5.366  0.00  0.00    -0.381 OA
ATOM     60  H   LIG d   1       6.042  -7.482  -4.830  0.00  0.00     0.211 HD
ENDBRANCH  22  59
BRANCH  17  61
ATOM     61  C   LIG d   1       5.458  -4.634  -7.305  0.00  0.00    -0.056 C 
ATOM     62  H   LIG d   1       6.118  -4.749  -8.165  0.00  0.00     0.024 H 
ATOM     63  H   LIG d   1       5.293  -3.573  -7.115  0.00  0.00     0.024 H 
ATOM     64  H   LIG d   1       4.504  -5.119  -7.512  0.00  0.00     0.024 H 
ENDBRANCH  17  61
BRANCH  14  65
ATOM     65  O   LIG d   1       3.852  -3.526  -5.907  0.00  0.00    -0.392 OA
ATOM     66  H   LIG d   1       4.252  -2.756  -6.334  0.00  0.00     0.210 HD
ENDBRANCH  14  65
BRANCH   1  67
ATOM     67  C   LIG d   1       4.512  -1.227  -5.714  0.00  0.00    -0.056 C 
ATOM     68  H   LIG d   1       3.592  -0.649  -5.619  0.00  0.00     0.024 H 
ATOM     69  H   LIG d   1       5.249  -0.647  -6.268  0.00  0.00     0.024 H 
ATOM     70  H   LIG d   1       4.304  -2.155  -6.246  0.00  0.00     0.024 H 
ENDBRANCH   1  67
TORSDOF 12
ENDMDL
MODEL 3
REMARK VINA RESULT:      -6.1      6.899     11.125
REMARK  12 active torsions:
REMARK  status: ('A' for Active; 'I' for Inactive)
REMARK    1  A    between atoms: C_1  and  C_2 
REMARK    2  A    between atoms: C_15  and  O_36 
REMARK    3  A    between atoms: C_18  and  C_35 
REMARK    4  A    between atoms: C_23  and  C_24 
REMARK    5  A    between atoms: C_23  and  O_34 
REMARK    6  A    between atoms: C_24  and  C_26 
REMARK    7  A    between atoms: C_26  and  S_27 
REMARK    8  A    between atoms: S_27  and  C_28 
REMARK    9  A    between atoms: C_28  and  C_30 
REMARK   10  A    between atoms: C_30  and  C_31 
REMARK   11  A    between atoms: C_30  and  C_32 
REMARK   12  A    between atoms: C_30  and  C_33 
ROOT
ATOM      1  C   LIG d   1      11.218   4.750  -3.609  0.00  0.00    -0.005 C 
ATOM      2  C   LIG d   1      12.435   4.698  -2.717  0.00  0.00    -0.037 C 
ATOM      3  C   LIG d   1      13.592   5.519  -3.285  0.00  0.00     0.011 C 
ATOM      4  C   LIG d   1      13.081   6.926  -3.526  0.00  0.00     0.156 C 
ATOM      5  O   LIG d   1      13.650   7.902  -3.082  0.00  0.00    -0.293 OA
ATOM      6  C   LIG d   1      11.856   7.038  -4.330  0.00  0.00    -0.019 C 
ATOM      7  C   LIG d   1      11.011   6.011  -4.364  0.00  0.00    -0.060 C 
ATOM      8  C   LIG d   1       9.767   6.112  -5.231  0.00  0.00    -0.030 C 
ATOM      9  C   LIG d   1       9.741   4.887  -6.151  0.00  0.00    -0.046 C 
ATOM     10  C   LIG d   1       9.816   3.607  -5.320  0.00  0.00    -0.031 C 
ATOM     11  H   LIG d   1       8.990   3.583  -4.610  0.00  0.00     0.031 H 
ATOM     12  C   LIG d   1      11.152   3.554  -4.559  0.00  0.00    -0.003 C 
ATOM     13  H   LIG d   1      11.974   3.631  -5.271  0.00  0.00     0.034 H 
ATOM     14  C   LIG d   1      11.295   2.260  -3.764  0.00  0.00     0.060 C 
ATOM     15  H   LIG d   1      12.290   2.224  -3.320  0.00  0.00     0.060 H 
ATOM     16  C   LIG d   1      11.099   1.023  -4.654  0.00  0.00    -0.018 C 
ATOM     17  C   LIG d   1       9.727   1.140  -5.289  0.00  0.00     0.009 C 
ATOM     18  C   LIG d   1       9.755   2.385  -6.216  0.00  0.00    -0.029 C 
ATOM     19  H   LIG d   1      10.623   2.351  -6.874  0.00  0.00     0.031 H 
ATOM     20  C   LIG d   1       8.456   2.209  -7.011  0.00  0.00    -0.046 C 
ATOM     21  C   LIG d   1       8.438   0.687  -7.316  0.00  0.00    -0.016 C 
ATOM     22  C   LIG d   1       9.311   0.010  -6.226  0.00  0.00     0.130 C 
ATOM     23  H   LIG d   1      12.757   3.661  -2.611  0.00  0.00     0.028 H 
ATOM     24  H   LIG d   1      12.174   5.089  -1.734  0.00  0.00     0.028 H 
ATOM     25  H   LIG d   1      13.906   5.107  -4.140  0.00  0.00     0.035 H 
ATOM     26  H   LIG d   1      14.415   5.542  -2.570  0.00  0.00     0.035 H 
ATOM     27  H   LIG d   1      11.645   7.941  -4.885  0.00  0.00     0.065 H 
ATOM     28  H   LIG d   1       9.807   7.024  -5.828  0.00  0.00     0.031 H 
ATOM     29  H   LIG d   1       8.877   6.122  -4.602  0.00  0.00     0.031 H 
ATOM     30  H   LIG d   1      10.592   4.928  -6.832  0.00  0.00     0.027 H 
ATOM     31  H   LIG d   1       8.817   4.889  -6.730  0.00  0.00     0.027 H 
ATOM     32  H   LIG d   1      11.152   0.117  -4.049  0.00  0.00     0.030 H 
ATOM     33  H   LIG d   1      11.865   0.998  -5.429  0.00  0.00     0.030 H 
ATOM     34  H   LIG d   1       7.593   2.491  -6.408  0.00  0.00     0.027 H 
ATOM     35  H   LIG d   1       8.487   2.789  -7.933  0.00  0.00     0.027 H 
ATOM     36  H   LIG d   1       7.418   0.306  -7.266  0.00  0.00     0.030 H 
ATOM     37  H   LIG d   1       8.859   0.498  -8.304  0.00  0.00     0.030 H 
ENDROOT
BRANCH  22  38
ATOM     38  C   LIG d   1       8.510  -1.022  -5.476  0.00  0.00     0.175 C 
ATOM     39  O   LIG d   1       9.072  -1.828  -4.774  0.00  0.00    -0.293 OA
BRANCH  38  40
ATOM     40  C   LIG d   1       7.009  -1.051  -5.603  0.00  0.00     0.062 C 
ATOM     41  H   LIG d   1       6.677  -0.137  -5.839  0.00  0.00     0.046 H 
ATOM     42  H   LIG d   1       6.724  -1.755  -6.385  0.00  0.00     0.046 H 
BRANCH  40  43
ATOM     43  S   LIG d   1       6.280  -1.570  -4.030  0.00  0.00    -0.080 SA
BRANCH  43  44
ATOM     44  C   LIG d   1       5.071  -0.371  -3.853  0.00  0.00     0.195 C 
ATOM     45  O   LIG d   1       4.938   0.486  -4.700  0.00  0.00    -0.285 OA
BRANCH  44  46
ATOM     46  C   LIG d   1       4.170  -0.383  -2.644  0.00  0.00     0.031 C 
BRANCH  46  47
ATOM     47  C   LIG d   1       2.713  -0.252  -3.093  0.00  0.00    -0.052 C 
ATOM     48  H   LIG d   1       2.102   0.071  -2.249  0.00  0.00     0.024 H 
ATOM     49  H   LIG d   1       2.644   0.483  -3.893  0.00  0.00     0.024 H 
ATOM     50  H   LIG d   1       2.355  -1.217  -3.452  0.00  0.00     0.024 H 
ENDBRANCH  46  47
BRANCH  46  51
ATOM     51  C   LIG d   1       4.354  -1.697  -1.883  0.00  0.00    -0.052 C 
ATOM     52  H   LIG d   1       5.417  -1.885  -1.734  0.00  0.00     0.024 H 
ATOM     53  H   LIG d   1       3.857  -1.629  -0.915  0.00  0.00     0.024 H 
ATOM     54  H   LIG d   1       3.918  -2.514  -2.459  0.00  0.00     0.024 H 
ENDBRANCH  46  51
BRANCH  46  55
ATOM     55  C   LIG d   1       4.529   0.791  -1.729  0.00  0.00    -0.052 C 
ATOM     56  H   LIG d   1       5.326   1.377  -2.186  0.00  0.00     0.024 H 
ATOM     57  H   LIG d   1       3.651   1.420  -1.586  0.00  0.00     0.024 H 
ATOM     58  H   LIG d   1       4.865   0.409  -0.765  0.00  0.00     0.024 H 
ENDBRANCH  46  55
ENDBRANCH  44  46
ENDBRANCH  43  44
ENDBRANCH  40  43
ENDBRANCH  38  40
ENDBRANCH  22  38
BRANCH  22  59
ATOM     59  O   LIG d   1      10.466  -0.591  -6.818  0.00  0.00    -0.381 OA
ATOM     60  H   LIG d   1      10.284  -1.424  -7.275  0.00  0.00     0.211 HD
ENDBRANCH  22  59
BRANCH  17  61
ATOM     61  C   LIG d   1       8.667   1.327  -4.202  0.00  0.00    -0.056 C 
ATOM     62  H   LIG d   1       8.412   2.383  -4.120  0.00  0.00     0.024 H 
ATOM     63  H   LIG d   1       9.059   0.973  -3.248  0.00  0.00     0.024 H 
ATOM     64  H   LIG d   1       7.774   0.758  -4.463  0.00  0.00     0.024 H 
ENDBRANCH  17  61
BRANCH  14  65
ATOM     65  O   LIG d   1      10.318   2.244  -2.722  0.00  0.00    -0.392 OA
ATOM     66  H   LIG d   1       9.482   2.667  -2.959  0.00  0.00     0.210 HD
ENDBRANCH  14  65
BRANCH   1  67
ATOM     67  C   LIG d   1      10.016   4.624  -2.672  0.00  0.00    -0.056 C 
ATOM     68  H   LIG d   1      10.044   3.656  -2.171  0.00  0.00     0.024 H 
ATOM     69  H   LIG d   1      10.051   5.419  -1.927  0.00  0.00     0.024 H 
ATOM     70  H   LIG d   1       9.095   4.708  -3.248  0.00  0.00     0.024 H 
ENDBRANCH   1  67
TORSDOF 12
ENDMDL
MODEL 4
REMARK VINA RESULT:      -5.9      6.569      8.806
REMARK  12 active torsions:
REMARK  status: ('A' for Active; 'I' for Inactive)
REMARK    1  A    between atoms: C_1  and  C_2 
REMARK    2  A    between atoms: C_15  and  O_36 
REMARK    3  A    between atoms: C_18  and  C_35 
REMARK    4  A    between atoms: C_23  and  C_24 
REMARK    5  A    between atoms: C_23  and  O_34 
REMARK    6  A    between atoms: C_24  and  C_26 
REMARK    7  A    between atoms: C_26  and  S_27 
REMARK    8  A    between atoms: S_27  and  C_28 
REMARK    9  A    between atoms: C_28  and  C_30 
REMARK   10  A    between atoms: C_30  and  C_31 
REMARK   11  A    between atoms: C_30  and  C_32 
REMARK   12  A    between atoms: C_30  and  C_33 
ROOT
ATOM      1  C   LIG d   1       5.685  -9.335  -5.581  0.00  0.00    -0.005 C 
ATOM      2  C   LIG d   1       4.949 -10.193  -6.583  0.00  0.00    -0.037 C 
ATOM      3  C   LIG d   1       5.797 -11.375  -7.051  0.00  0.00     0.011 C 
ATOM      4  C   LIG d   1       6.245 -12.136  -5.819  0.00  0.00     0.156 C 
ATOM      5  O   LIG d   1       6.069 -13.331  -5.701  0.00  0.00    -0.293 OA
ATOM      6  C   LIG d   1       6.906 -11.341  -4.774  0.00  0.00    -0.019 C 
ATOM      7  C   LIG d   1       6.641 -10.040  -4.690  0.00  0.00    -0.060 C 
ATOM      8  C   LIG d   1       7.359  -9.211  -3.638  0.00  0.00    -0.030 C 
ATOM      9  C   LIG d   1       8.015  -8.023  -4.350  0.00  0.00    -0.046 C 
ATOM     10  C   LIG d   1       6.966  -7.246  -5.144  0.00  0.00    -0.031 C 
ATOM     11  H   LIG d   1       6.172  -6.913  -4.474  0.00  0.00     0.031 H 
ATOM     12  C   LIG d   1       6.371  -8.141  -6.245  0.00  0.00    -0.003 C 
ATOM     13  H   LIG d   1       7.177  -8.511  -6.879  0.00  0.00     0.034 H 
ATOM     14  C   LIG d   1       5.363  -7.383  -7.102  0.00  0.00     0.060 C 
ATOM     15  H   LIG d   1       5.040  -8.025  -7.922  0.00  0.00     0.060 H 
ATOM     16  C   LIG d   1       5.967  -6.095  -7.683  0.00  0.00    -0.018 C 
ATOM     17  C   LIG d   1       6.447  -5.257  -6.514  0.00  0.00     0.009 C 
ATOM     18  C   LIG d   1       7.595  -6.045  -5.826  0.00  0.00    -0.029 C 
ATOM     19  H   LIG d   1       8.331  -6.367  -6.562  0.00  0.00     0.031 H 
ATOM     20  C   LIG d   1       8.182  -4.983  -4.890  0.00  0.00    -0.046 C 
ATOM     21  C   LIG d   1       8.182  -3.704  -5.771  0.00  0.00    -0.016 C 
ATOM     22  C   LIG d   1       7.092  -3.918  -6.854  0.00  0.00     0.130 C 
ATOM     23  H   LIG d   1       4.683  -9.585  -7.447  0.00  0.00     0.028 H 
ATOM     24  H   LIG d   1       4.037 -10.574  -6.124  0.00  0.00     0.028 H 
ATOM     25  H   LIG d   1       6.588 -11.037  -7.562  0.00  0.00     0.035 H 
ATOM     26  H   LIG d   1       5.202 -12.026  -7.692  0.00  0.00     0.035 H 
ATOM     27  H   LIG d   1       7.597 -11.806  -4.086  0.00  0.00     0.065 H 
ATOM     28  H   LIG d   1       8.122  -9.817  -3.148  0.00  0.00     0.031 H 
ATOM     29  H   LIG d   1       6.643  -8.850  -2.899  0.00  0.00     0.031 H 
ATOM     30  H   LIG d   1       8.785  -8.389  -5.029  0.00  0.00     0.027 H 
ATOM     31  H   LIG d   1       8.471  -7.364  -3.610  0.00  0.00     0.027 H 
ATOM     32  H   LIG d   1       5.208  -5.548  -8.244  0.00  0.00     0.030 H 
ATOM     33  H   LIG d   1       6.807  -6.340  -8.334  0.00  0.00     0.030 H 
ATOM     34  H   LIG d   1       7.548  -4.847  -4.014  0.00  0.00     0.027 H 
ATOM     35  H   LIG d   1       9.196  -5.249  -4.592  0.00  0.00     0.027 H 
ATOM     36  H   LIG d   1       7.940  -2.831  -5.165  0.00  0.00     0.030 H 
ATOM     37  H   LIG d   1       9.158  -3.574  -6.241  0.00  0.00     0.030 H 
ENDROOT
BRANCH  22  38
ATOM     38  C   LIG d   1       6.068  -2.815  -6.795  0.00  0.00     0.175 C 
ATOM     39  O   LIG d   1       5.196  -2.755  -7.628  0.00  0.00    -0.293 OA
BRANCH  38  40
ATOM     40  C   LIG d   1       6.130  -1.786  -5.695  0.00  0.00     0.062 C 
ATOM     41  H   LIG d   1       6.460  -2.216  -4.854  0.00  0.00     0.046 H 
ATOM     42  H   LIG d   1       6.810  -0.985  -5.986  0.00  0.00     0.046 H 
BRANCH  40  43
ATOM     43  S   LIG d   1       4.478  -1.102  -5.415  0.00  0.00    -0.080 SA
BRANCH  43  44
ATOM     44  C   LIG d   1       4.786  -0.139  -4.033  0.00  0.00     0.195 C 
ATOM     45  O   LIG d   1       5.678   0.683  -4.053  0.00  0.00    -0.285 OA
BRANCH  44  46
ATOM     46  C   LIG d   1       3.947  -0.311  -2.793  0.00  0.00     0.031 C 
BRANCH  46  47
ATOM     47  C   LIG d   1       4.019   0.962  -1.947  0.00  0.00    -0.052 C 
ATOM     48  H   LIG d   1       3.766   0.725  -0.913  0.00  0.00     0.024 H 
ATOM     49  H   LIG d   1       5.029   1.370  -1.990  0.00  0.00     0.024 H 
ATOM     50  H   LIG d   1       3.314   1.696  -2.334  0.00  0.00     0.024 H 
ENDBRANCH  46  47
BRANCH  46  51
ATOM     51  C   LIG d   1       2.495  -0.577  -3.191  0.00  0.00    -0.052 C 
ATOM     52  H   LIG d   1       2.339  -1.650  -3.303  0.00  0.00     0.024 H 
ATOM     53  H   LIG d   1       1.829  -0.193  -2.418  0.00  0.00     0.024 H 
ATOM     54  H   LIG d   1       2.280  -0.078  -4.136  0.00  0.00     0.024 H 
ENDBRANCH  46  51
BRANCH  46  55
ATOM     55  C   LIG d   1       4.478  -1.494  -1.979  0.00  0.00    -0.052 C 
ATOM     56  H   LIG d   1       3.823  -2.354  -2.118  0.00  0.00     0.024 H 
ATOM     57  H   LIG d   1       5.483  -1.745  -2.317  0.00  0.00     0.024 H 
ATOM     58  H   LIG d   1       4.505  -1.224  -0.923  0.00  0.00     0.024 H 
ENDBRANCH  46  55
ENDBRANCH  44  46
ENDBRANCH  43  44
ENDBRANCH  40  43
ENDBRANCH  38  40
ENDBRANCH  22  38
BRANCH  22  59
ATOM     59  O   LIG d   1       7.687  -3.972  -8.153  0.00  0.00    -0.381 OA
ATOM     60  H   LIG d   1       8.609  -4.264  -8.151  0.00  0.00     0.211 HD
ENDBRANCH  22  59
BRANCH  17  61
ATOM     61  C   LIG d   1       5.300  -5.043  -5.525  0.00  0.00    -0.056 C 
ATOM     62  H   LIG d   1       5.649  -5.249  -4.513  0.00  0.00     0.024 H 
ATOM     63  H   LIG d   1       4.479  -5.716  -5.769  0.00  0.00     0.024 H 
ATOM     64  H   LIG d   1       4.955  -4.010  -5.586  0.00  0.00     0.024 H 
ENDBRANCH  17  61
BRANCH  14  65
ATOM     65  O   LIG d   1       4.230  -7.046  -6.300  0.00  0.00    -0.392 OA
ATOM     66  H   LIG d   1       4.454  -6.747  -5.408  0.00  0.00     0.210 HD
ENDBRANCH  14  65
BRANCH   1  67
ATOM     67  C   LIG d   1       4.607  -8.759  -4.662  0.00  0.00    -0.056 C 
ATOM     68  H   LIG d   1       3.663  -9.274  -4.841  0.00  0.00     0.024 H 
ATOM     69  H   LIG d   1       4.904  -8.896  -3.623  0.00  0.00     0.024 H 
ATOM     70  H   LIG d   1       4.484  -7.696  -4.868  0.00  0.00     0.024 H 
ENDBRANCH   1  67
TORSDOF 12
ENDMDL
MODEL 5
REMARK VINA RESULT:      -5.9      2.168      3.293
REMARK  12 active torsions:
REMARK  status: ('A' for Active; 'I' for Inactive)
REMARK    1  A    between atoms: C_1  and  C_2 
REMARK    2  A    between atoms: C_15  and  O_36 
REMARK    3  A    between atoms: C_18  and  C_35 
REMARK    4  A    between atoms: C_23  and  C_24 
REMARK    5  A    between atoms: C_23  and  O_34 
REMARK    6  A    between atoms: C_24  and  C_26 
REMARK    7  A    between atoms: C_26  and  S_27 
REMARK    8  A    between atoms: S_27  and  C_28 
REMARK    9  A    between atoms: C_28  and  C_30 
REMARK   10  A    between atoms: C_30  and  C_31 
REMARK   11  A    between atoms: C_30  and  C_32 
REMARK   12  A    between atoms: C_30  and  C_33 
ROOT
ATOM      1  C   LIG d   1       2.951  -1.980 -10.212  0.00  0.00    -0.005 C 
ATOM      2  C   LIG d   1       1.560  -1.467  -9.922  0.00  0.00    -0.037 C 
ATOM      3  C   LIG d   1       0.933  -0.803 -11.147  0.00  0.00     0.011 C 
ATOM      4  C   LIG d   1       0.982  -1.801 -12.287  0.00  0.00     0.156 C 
ATOM      5  O   LIG d   1      -0.007  -2.096 -12.926  0.00  0.00    -0.293 OA
ATOM      6  C   LIG d   1       2.297  -2.390 -12.572  0.00  0.00    -0.019 C 
ATOM      7  C   LIG d   1       3.201  -2.453 -11.598  0.00  0.00    -0.060 C 
ATOM      8  C   LIG d   1       4.576  -3.021 -11.906  0.00  0.00    -0.030 C 
ATOM      9  C   LIG d   1       5.617  -1.990 -11.460  0.00  0.00    -0.046 C 
ATOM     10  C   LIG d   1       5.407  -1.637  -9.988  0.00  0.00    -0.031 C 
ATOM     11  H   LIG d   1       5.466  -2.542  -9.383  0.00  0.00     0.031 H 
ATOM     12  C   LIG d   1       4.029  -0.979  -9.798  0.00  0.00    -0.003 C 
ATOM     13  H   LIG d   1       3.958  -0.104 -10.444  0.00  0.00     0.034 H 
ATOM     14  C   LIG d   1       3.804  -0.555  -8.350  0.00  0.00     0.060 C 
ATOM     15  H   LIG d   1       2.861  -0.011  -8.282  0.00  0.00     0.060 H 
ATOM     16  C   LIG d   1       4.939   0.347  -7.841  0.00  0.00    -0.018 C 
ATOM     17  C   LIG d   1       6.233  -0.427  -8.001  0.00  0.00     0.009 C 
ATOM     18  C   LIG d   1       6.453  -0.643  -9.523  0.00  0.00    -0.029 C 
ATOM     19  H   LIG d   1       6.350   0.299 -10.061  0.00  0.00     0.031 H 
ATOM     20  C   LIG d   1       7.903  -1.140  -9.559  0.00  0.00    -0.046 C 
ATOM     21  C   LIG d   1       8.612  -0.221  -8.527  0.00  0.00    -0.016 C 
ATOM     22  C   LIG d   1       7.510   0.280  -7.556  0.00  0.00     0.130 C 
ATOM     23  H   LIG d   1       1.610  -0.740  -9.112  0.00  0.00     0.028 H 
ATOM     24  H   LIG d   1       0.930  -2.300  -9.612  0.00  0.00     0.028 H 
ATOM     25  H   LIG d   1       1.448   0.023 -11.379  0.00  0.00     0.035 H 
ATOM     26  H   LIG d   1      -0.103  -0.536 -10.932  0.00  0.00     0.035 H 
ATOM     27  H   LIG d   1       2.528  -2.767 -13.558  0.00  0.00     0.065 H 
ATOM     28  H   LIG d   1       4.668  -3.202 -12.978  0.00  0.00     0.031 H 
ATOM     29  H   LIG d   1       4.721  -3.954 -11.361  0.00  0.00     0.031 H 
ATOM     30  H   LIG d   1       5.516  -1.088 -12.066  0.00  0.00     0.027 H 
ATOM     31  H   LIG d   1       6.617  -2.403 -11.594  0.00  0.00     0.027 H 
ATOM     32  H   LIG d   1       4.779   0.589  -6.789  0.00  0.00     0.030 H 
ATOM     33  H   LIG d   1       4.979   1.263  -8.430  0.00  0.00     0.030 H 
ATOM     34  H   LIG d   1       7.961  -2.183  -9.250  0.00  0.00     0.027 H 
ATOM     35  H   LIG d   1       8.331  -1.009 -10.553  0.00  0.00     0.027 H 
ATOM     36  H   LIG d   1       9.365  -0.785  -7.977  0.00  0.00     0.030 H 
ATOM     37  H   LIG d   1       9.076   0.625  -9.036  0.00  0.00     0.030 H 
ENDROOT
BRANCH  22  38
ATOM     38  C   LIG d   1       7.848  -0.097  -6.137  0.00  0.00     0.175 C 
ATOM     39  O   LIG d   1       8.622  -0.998  -5.920  0.00  0.00    -0.293 OA
BRANCH  38  40
ATOM     40  C   LIG d   1       7.220   0.650  -4.988  0.00  0.00     0.062 C 
ATOM     41  H   LIG d   1       7.900   1.255  -4.573  0.00  0.00     0.046 H 
ATOM     42  H   LIG d   1       6.382   1.241  -5.355  0.00  0.00     0.046 H 
BRANCH  40  43
ATOM     43  S   LIG d   1       6.630  -0.533  -3.751  0.00  0.00    -0.080 SA
BRANCH  43  44
ATOM     44  C   LIG d   1       4.947  -0.224  -3.825  0.00  0.00     0.195 C 
ATOM     45  O   LIG d   1       4.432   0.077  -4.880  0.00  0.00    -0.285 OA
BRANCH  44  46
ATOM     46  C   LIG d   1       4.108  -0.327  -2.578  0.00  0.00     0.031 C 
BRANCH  46  47
ATOM     47  C   LIG d   1       2.626  -0.358  -2.962  0.00  0.00    -0.052 C 
ATOM     48  H   LIG d   1       2.048  -0.777  -2.138  0.00  0.00     0.024 H 
ATOM     49  H   LIG d   1       2.284   0.656  -3.167  0.00  0.00     0.024 H 
ATOM     50  H   LIG d   1       2.494  -0.974  -3.850  0.00  0.00     0.024 H 
ENDBRANCH  46  47
BRANCH  46  51
ATOM     51  C   LIG d   1       4.466  -1.609  -1.825  0.00  0.00    -0.052 C 
ATOM     52  H   LIG d   1       3.790  -1.735  -0.979  0.00  0.00     0.024 H 
ATOM     53  H   LIG d   1       4.370  -2.464  -2.496  0.00  0.00     0.024 H 
ATOM     54  H   LIG d   1       5.493  -1.544  -1.464  0.00  0.00     0.024 H 
ENDBRANCH  46  51
BRANCH  46  55
ATOM     55  C   LIG d   1       4.376   0.884  -1.680  0.00  0.00    -0.052 C 
ATOM     56  H   LIG d   1       4.675   0.542  -0.690  0.00  0.00     0.024 H 
ATOM     57  H   LIG d   1       5.175   1.486  -2.113  0.00  0.00     0.024 H 
ATOM     58  H   LIG d   1       3.470   1.484  -1.601  0.00  0.00     0.024 H 
ENDBRANCH  46  55
ENDBRANCH  44  46
ENDBRANCH  43  44
ENDBRANCH  40  43
ENDBRANCH  38  40
ENDBRANCH  22  38
BRANCH  22  59
ATOM     59  O   LIG d   1       7.355   1.697  -7.669  0.00  0.00    -0.381 OA
ATOM     60  H   LIG d   1       7.092   1.994  -8.551  0.00  0.00     0.211 HD
ENDBRANCH  22  59
BRANCH  17  61
ATOM     61  C   LIG d   1       6.119  -1.779  -7.297  0.00  0.00    -0.056 C 
ATOM     62  H   LIG d   1       6.929  -1.884  -6.576  0.00  0.00     0.024 H 
ATOM     63  H   LIG d   1       6.184  -2.580  -8.034  0.00  0.00     0.024 H 
ATOM     64  H   LIG d   1       5.162  -1.840  -6.778  0.00  0.00     0.024 H 
ENDBRANCH  17  61
BRANCH  14  65
ATOM     65  O   LIG d   1       3.731  -1.721  -7.529  0.00  0.00    -0.392 OA
ATOM     66  H   LIG d   1       3.050  -1.678  -6.843  0.00  0.00     0.210 HD
ENDBRANCH  14  65
BRANCH   1  67
ATOM     67  C   LIG d   1       3.132  -3.206  -9.316  0.00  0.00    -0.056 C 
ATOM     68  H   LIG d   1       2.879  -2.946  -8.288  0.00  0.00     0.024 H 
ATOM     69  H   LIG d   1       2.477  -4.007  -9.659  0.00  0.00     0.024 H 
ATOM     70  H   LIG d   1       4.168  -3.540  -9.362  0.00  0.00     0.024 H 
ENDBRANCH   1  67
TORSDOF 12
ENDMDL
MODEL 6
REMARK VINA RESULT:      -5.7      9.526     14.232
REMARK  12 active torsions:
REMARK  status: ('A' for Active; 'I' for Inactive)
REMARK    1  A    between atoms: C_1  and  C_2 
REMARK    2  A    between atoms: C_15  and  O_36 
REMARK    3  A    between atoms: C_18  and  C_35 
REMARK    4  A    between atoms: C_23  and  C_24 
REMARK    5  A    between atoms: C_23  and  O_34 
REMARK    6  A    between atoms: C_24  and  C_26 
REMARK    7  A    between atoms: C_26  and  S_27 
REMARK    8  A    between atoms: S_27  and  C_28 
REMARK    9  A    between atoms: C_28  and  C_30 
REMARK   10  A    between atoms: C_30  and  C_31 
REMARK   11  A    between atoms: C_30  and  C_32 
REMARK   12  A    between atoms: C_30  and  C_33 
ROOT
ATOM      1  C   LIG d   1      11.072   7.115  -3.376  0.00  0.00    -0.005 C 
ATOM      2  C   LIG d   1      11.126   8.267  -2.400  0.00  0.00    -0.037 C 
ATOM      3  C   LIG d   1      10.103   8.109  -1.277  0.00  0.00     0.011 C 
ATOM      4  C   LIG d   1      10.337   6.759  -0.628  0.00  0.00     0.156 C 
ATOM      5  O   LIG d   1      10.491   6.638   0.569  0.00  0.00    -0.293 OA
ATOM      6  C   LIG d   1      10.366   5.604  -1.537  0.00  0.00    -0.019 C 
ATOM      7  C   LIG d   1      10.699   5.794  -2.811  0.00  0.00    -0.060 C 
ATOM      8  C   LIG d   1      10.685   4.606  -3.758  0.00  0.00    -0.030 C 
ATOM      9  C   LIG d   1       9.811   4.979  -4.960  0.00  0.00    -0.046 C 
ATOM     10  C   LIG d   1      10.318   6.273  -5.594  0.00  0.00    -0.031 C 
ATOM     11  H   LIG d   1      11.361   6.152  -5.889  0.00  0.00     0.031 H 
ATOM     12  C   LIG d   1      10.198   7.432  -4.589  0.00  0.00    -0.003 C 
ATOM     13  H   LIG d   1       9.162   7.514  -4.259  0.00  0.00     0.034 H 
ATOM     14  C   LIG d   1      10.637   8.757  -5.204  0.00  0.00     0.060 C 
ATOM     15  H   LIG d   1      10.447   9.559  -4.491  0.00  0.00     0.060 H 
ATOM     16  C   LIG d   1       9.880   9.056  -6.508  0.00  0.00    -0.018 C 
ATOM     17  C   LIG d   1      10.131   7.893  -7.448  0.00  0.00     0.009 C 
ATOM     18  C   LIG d   1       9.483   6.636  -6.807  0.00  0.00    -0.029 C 
ATOM     19  H   LIG d   1       8.454   6.845  -6.514  0.00  0.00     0.031 H 
ATOM     20  C   LIG d   1       9.531   5.637  -7.969  0.00  0.00    -0.046 C 
ATOM     21  C   LIG d   1       9.127   6.504  -9.191  0.00  0.00    -0.016 C 
ATOM     22  C   LIG d   1       9.469   7.972  -8.821  0.00  0.00     0.130 C 
ATOM     23  H   LIG d   1      10.925   9.196  -2.934  0.00  0.00     0.028 H 
ATOM     24  H   LIG d   1      12.124   8.319  -1.964  0.00  0.00     0.028 H 
ATOM     25  H   LIG d   1       9.179   8.162  -1.657  0.00  0.00     0.035 H 
ATOM     26  H   LIG d   1      10.238   8.902  -0.540  0.00  0.00     0.035 H 
ATOM     27  H   LIG d   1      10.121   4.615  -1.175  0.00  0.00     0.065 H 
ATOM     28  H   LIG d   1      10.267   3.735  -3.252  0.00  0.00     0.031 H 
ATOM     29  H   LIG d   1      11.699   4.387  -4.092  0.00  0.00     0.031 H 
ATOM     30  H   LIG d   1       8.781   5.118  -4.629  0.00  0.00     0.027 H 
ATOM     31  H   LIG d   1       9.846   4.176  -5.697  0.00  0.00     0.027 H 
ATOM     32  H   LIG d   1      10.254   9.979  -6.951  0.00  0.00     0.030 H 
ATOM     33  H   LIG d   1       8.813   9.146  -6.305  0.00  0.00     0.030 H 
ATOM     34  H   LIG d   1      10.537   5.239  -8.094  0.00  0.00     0.027 H 
ATOM     35  H   LIG d   1       8.815   4.830  -7.812  0.00  0.00     0.027 H 
ATOM     36  H   LIG d   1       9.694   6.200 -10.071  0.00  0.00     0.030 H 
ATOM     37  H   LIG d   1       8.058   6.406  -9.384  0.00  0.00     0.030 H 
ENDROOT
BRANCH  22  38
ATOM     38  C   LIG d   1      10.422   8.561  -9.827  0.00  0.00     0.175 C 
ATOM     39  O   LIG d   1      10.851   9.678  -9.670  0.00  0.00    -0.293 OA
BRANCH  38  40
ATOM     40  C   LIG d   1      10.841   7.756 -11.031  0.00  0.00     0.062 C 
ATOM     41  H   LIG d   1      11.822   7.871 -11.184  0.00  0.00     0.046 H 
ATOM     42  H   LIG d   1      10.620   6.703 -10.857  0.00  0.00     0.046 H 
BRANCH  40  43
ATOM     43  S   LIG d   1       9.931   8.330 -12.487  0.00  0.00    -0.080 SA
BRANCH  43  44
ATOM     44  C   LIG d   1       9.286   6.843 -13.039  0.00  0.00     0.195 C 
ATOM     45  O   LIG d   1       8.578   6.181 -12.310  0.00  0.00    -0.285 OA
BRANCH  44  46
ATOM     46  C   LIG d   1       9.598   6.358 -14.431  0.00  0.00     0.031 C 
BRANCH  46  47
ATOM     47  C   LIG d   1       8.471   5.443 -14.917  0.00  0.00    -0.052 C 
ATOM     48  H   LIG d   1       8.677   4.418 -14.606  0.00  0.00     0.024 H 
ATOM     49  H   LIG d   1       7.526   5.771 -14.486  0.00  0.00     0.024 H 
ATOM     50  H   LIG d   1       8.411   5.487 -16.004  0.00  0.00     0.024 H 
ENDBRANCH  46  47
BRANCH  46  51
ATOM     51  C   LIG d   1       9.724   7.556 -15.373  0.00  0.00    -0.052 C 
ATOM     52  H   LIG d   1       9.889   7.202 -16.391  0.00  0.00     0.024 H 
ATOM     53  H   LIG d   1       8.807   8.144 -15.339  0.00  0.00     0.024 H 
ATOM     54  H   LIG d   1      10.565   8.176 -15.063  0.00  0.00     0.024 H 
ENDBRANCH  46  51
BRANCH  46  55
ATOM     55  C   LIG d   1      10.916   5.579 -14.417  0.00  0.00    -0.052 C 
ATOM     56  H   LIG d   1      10.734   4.552 -14.731  0.00  0.00     0.024 H 
ATOM     57  H   LIG d   1      11.622   6.049 -15.100  0.00  0.00     0.024 H 
ATOM     58  H   LIG d   1      11.328   5.583 -13.408  0.00  0.00     0.024 H 
ENDBRANCH  46  55
ENDBRANCH  44  46
ENDBRANCH  43  44
ENDBRANCH  40  43
ENDBRANCH  38  40
ENDBRANCH  22  38
BRANCH  22  59
ATOM     59  O   LIG d   1       8.276   8.757  -8.749  0.00  0.00    -0.381 OA
ATOM     60  H   LIG d   1       7.993   8.961  -7.847  0.00  0.00     0.211 HD
ENDBRANCH  22  59
BRANCH  17  61
ATOM     61  C   LIG d   1      11.636   7.674  -7.612  0.00  0.00    -0.056 C 
ATOM     62  H   LIG d   1      11.897   6.671  -7.274  0.00  0.00     0.024 H 
ATOM     63  H   LIG d   1      12.177   8.409  -7.016  0.00  0.00     0.024 H 
ATOM     64  H   LIG d   1      11.908   7.786  -8.662  0.00  0.00     0.024 H 
ENDBRANCH  17  61
BRANCH  14  65
ATOM     65  O   LIG d   1      12.038   8.701  -5.480  0.00  0.00    -0.392 OA
ATOM     66  H   LIG d   1      12.309   7.918  -5.979  0.00  0.00     0.210 HD
ENDBRANCH  14  65
BRANCH   1  67
ATOM     67  C   LIG d   1      12.500   6.954  -3.901  0.00  0.00    -0.056 C 
ATOM     68  H   LIG d   1      12.958   7.936  -4.017  0.00  0.00     0.024 H 
ATOM     69  H   LIG d   1      13.082   6.362  -3.195  0.00  0.00     0.024 H 
ATOM     70  H   LIG d   1      12.477   6.448  -4.866  0.00  0.00     0.024 H 
ENDBRANCH   1  67
TORSDOF 12
ENDMDL
MODEL 7
REMARK VINA RESULT:      -5.7      4.342      9.365
REMARK  12 active torsions:
REMARK  status: ('A' for Active; 'I' for Inactive)
REMARK    1  A    between atoms: C_1  and  C_2 
REMARK    2  A    between atoms: C_15  and  O_36 
REMARK    3  A    between atoms: C_18  and  C_35 
REMARK    4  A    between atoms: C_23  and  C_24 
REMARK    5  A    between atoms: C_23  and  O_34 
REMARK    6  A    between atoms: C_24  and  C_26 
REMARK    7  A    between atoms: C_26  and  S_27 
REMARK    8  A    between atoms: S_27  and  C_28 
REMARK    9  A    between atoms: C_28  and  C_30 
REMARK   10  A    between atoms: C_30  and  C_31 
REMARK   11  A    between atoms: C_30  and  C_32 
REMARK   12  A    between atoms: C_30  and  C_33 
ROOT
ATOM      1  C   LIG d   1       4.906  -1.253  -4.430  0.00  0.00    -0.005 C 
ATOM      2  C   LIG d   1       3.441  -1.097  -4.099  0.00  0.00    -0.037 C 
ATOM      3  C   LIG d   1       3.223  -0.766  -2.623  0.00  0.00     0.011 C 
ATOM      4  C   LIG d   1       4.049   0.464  -2.301  0.00  0.00     0.156 C 
ATOM      5  O   LIG d   1       3.565   1.444  -1.774  0.00  0.00    -0.293 OA
ATOM      6  C   LIG d   1       5.471   0.400  -2.666  0.00  0.00    -0.019 C 
ATOM      7  C   LIG d   1       5.849  -0.414  -3.649  0.00  0.00    -0.060 C 
ATOM      8  C   LIG d   1       7.325  -0.512  -3.994  0.00  0.00    -0.030 C 
ATOM      9  C   LIG d   1       7.715  -1.994  -3.953  0.00  0.00    -0.046 C 
ATOM     10  C   LIG d   1       6.805  -2.799  -4.880  0.00  0.00    -0.031 C 
ATOM     11  H   LIG d   1       6.872  -2.403  -5.893  0.00  0.00     0.031 H 
ATOM     12  C   LIG d   1       5.350  -2.716  -4.388  0.00  0.00    -0.003 C 
ATOM     13  H   LIG d   1       5.299  -3.065  -3.357  0.00  0.00     0.034 H 
ATOM     14  C   LIG d   1       4.416  -3.558  -5.252  0.00  0.00     0.060 C 
ATOM     15  H   LIG d   1       3.418  -3.545  -4.813  0.00  0.00     0.060 H 
ATOM     16  C   LIG d   1       4.898  -5.014  -5.354  0.00  0.00    -0.018 C 
ATOM     17  C   LIG d   1       6.304  -4.982  -5.920  0.00  0.00     0.009 C 
ATOM     18  C   LIG d   1       7.202  -4.263  -4.877  0.00  0.00    -0.029 C 
ATOM     19  H   LIG d   1       7.058  -4.695  -3.887  0.00  0.00     0.031 H 
ATOM     20  C   LIG d   1       8.605  -4.571  -5.411  0.00  0.00    -0.046 C 
ATOM     21  C   LIG d   1       8.497  -6.060  -5.837  0.00  0.00    -0.016 C 
ATOM     22  C   LIG d   1       6.993  -6.330  -6.110  0.00  0.00     0.130 C 
ATOM     23  H   LIG d   1       2.920  -2.025  -4.334  0.00  0.00     0.028 H 
ATOM     24  H   LIG d   1       3.022  -0.294  -4.706  0.00  0.00     0.028 H 
ATOM     25  H   LIG d   1       3.513  -1.541  -2.061  0.00  0.00     0.035 H 
ATOM     26  H   LIG d   1       2.168  -0.561  -2.442  0.00  0.00     0.035 H 
ATOM     27  H   LIG d   1       6.200   1.003  -2.143  0.00  0.00     0.065 H 
ATOM     28  H   LIG d   1       7.913   0.046  -3.264  0.00  0.00     0.031 H 
ATOM     29  H   LIG d   1       7.500  -0.111  -4.992  0.00  0.00     0.031 H 
ATOM     30  H   LIG d   1       7.614  -2.366  -2.933  0.00  0.00     0.027 H 
ATOM     31  H   LIG d   1       8.751  -2.105  -4.276  0.00  0.00     0.027 H 
ATOM     32  H   LIG d   1       4.243  -5.577  -6.020  0.00  0.00     0.030 H 
ATOM     33  H   LIG d   1       4.906  -5.473  -4.365  0.00  0.00     0.030 H 
ATOM     34  H   LIG d   1       8.839  -3.941  -6.269  0.00  0.00     0.027 H 
ATOM     35  H   LIG d   1       9.352  -4.446  -4.627  0.00  0.00     0.027 H 
ATOM     36  H   LIG d   1       9.077  -6.235  -6.743  0.00  0.00     0.030 H 
ATOM     37  H   LIG d   1       8.854  -6.707  -5.035  0.00  0.00     0.030 H 
ENDROOT
BRANCH  22  38
ATOM     38  C   LIG d   1       6.794  -6.824  -7.519  0.00  0.00     0.175 C 
ATOM     39  O   LIG d   1       7.673  -6.688  -8.336  0.00  0.00    -0.293 OA
BRANCH  38  40
ATOM     40  C   LIG d   1       5.498  -7.486  -7.912  0.00  0.00     0.062 C 
ATOM     41  H   LIG d   1       5.603  -8.479  -7.862  0.00  0.00     0.046 H 
ATOM     42  H   LIG d   1       4.709  -7.169  -7.230  0.00  0.00     0.046 H 
BRANCH  40  43
ATOM     43  S   LIG d   1       5.063  -7.007  -9.602  0.00  0.00    -0.080 SA
BRANCH  43  44
ATOM     44  C   LIG d   1       3.787  -5.911  -9.281  0.00  0.00     0.195 C 
ATOM     45  O   LIG d   1       3.176  -5.981  -8.236  0.00  0.00    -0.285 OA
BRANCH  44  46
ATOM     46  C   LIG d   1       3.425  -4.859 -10.298  0.00  0.00     0.031 C 
BRANCH  46  47
ATOM     47  C   LIG d   1       2.843  -3.638  -9.583  0.00  0.00    -0.052 C 
ATOM     48  H   LIG d   1       3.648  -2.945  -9.336  0.00  0.00     0.024 H 
ATOM     49  H   LIG d   1       2.125  -3.143 -10.235  0.00  0.00     0.024 H 
ATOM     50  H   LIG d   1       2.345  -3.956  -8.667  0.00  0.00     0.024 H 
ENDBRANCH  46  47
BRANCH  46  51
ATOM     51  C   LIG d   1       4.676  -4.447 -11.075  0.00  0.00    -0.052 C 
ATOM     52  H   LIG d   1       4.388  -4.078 -12.059  0.00  0.00     0.024 H 
ATOM     53  H   LIG d   1       5.199  -3.660 -10.531  0.00  0.00     0.024 H 
ATOM     54  H   LIG d   1       5.334  -5.309 -11.188  0.00  0.00     0.024 H 
ENDBRANCH  46  51
BRANCH  46  55
ATOM     55  C   LIG d   1       2.385  -5.425 -11.268  0.00  0.00    -0.052 C 
ATOM     56  H   LIG d   1       1.463  -4.849 -11.188  0.00  0.00     0.024 H 
ATOM     57  H   LIG d   1       2.767  -5.360 -12.287  0.00  0.00     0.024 H 
ATOM     58  H   LIG d   1       2.186  -6.467 -11.020  0.00  0.00     0.024 H 
ENDBRANCH  46  55
ENDBRANCH  44  46
ENDBRANCH  43  44
ENDBRANCH  40  43
ENDBRANCH  38  40
ENDBRANCH  22  38
BRANCH  22  59
ATOM     59  O   LIG d   1       6.482  -7.282  -5.175  0.00  0.00    -0.381 OA
ATOM     60  H   LIG d   1       5.738  -7.802  -5.509  0.00  0.00     0.211 HD
ENDBRANCH  22  59
BRANCH  17  61
ATOM     61  C   LIG d   1       6.316  -4.205  -7.237  0.00  0.00    -0.056 C 
ATOM     62  H   LIG d   1       7.195  -4.485  -7.817  0.00  0.00     0.024 H 
ATOM     63  H   LIG d   1       6.345  -3.136  -7.028  0.00  0.00     0.024 H 
ATOM     64  H   LIG d   1       5.416  -4.440  -7.806  0.00  0.00     0.024 H 
ENDBRANCH  17  61
BRANCH  14  65
ATOM     65  O   LIG d   1       4.357  -2.994  -6.562  0.00  0.00    -0.392 OA
ATOM     66  H   LIG d   1       3.597  -2.412  -6.707  0.00  0.00     0.210 HD
ENDBRANCH  14  65
BRANCH   1  67
ATOM     67  C   LIG d   1       5.051  -0.799  -5.883  0.00  0.00    -0.056 C 
ATOM     68  H   LIG d   1       4.541  -1.506  -6.538  0.00  0.00     0.024 H 
ATOM     69  H   LIG d   1       4.607   0.190  -6.001  0.00  0.00     0.024 H 
ATOM     70  H   LIG d   1       6.107  -0.756  -6.147  0.00  0.00     0.024 H 
ENDBRANCH   1  67
TORSDOF 12
ENDMDL
MODEL 8
REMARK VINA RESULT:      -5.7      4.689      9.717
REMARK  12 active torsions:
REMARK  status: ('A' for Active; 'I' for Inactive)
REMARK    1  A    between atoms: C_1  and  C_2 
REMARK    2  A    between atoms: C_15  and  O_36 
REMARK    3  A    between atoms: C_18  and  C_35 
REMARK    4  A    between atoms: C_23  and  C_24 
REMARK    5  A    between atoms: C_23  and  O_34 
REMARK    6  A    between atoms: C_24  and  C_26 
REMARK    7  A    between atoms: C_26  and  S_27 
REMARK    8  A    between atoms: S_27  and  C_28 
REMARK    9  A    between atoms: C_28  and  C_30 
REMARK   10  A    between atoms: C_30  and  C_31 
REMARK   11  A    between atoms: C_30  and  C_32 
REMARK   12  A    between atoms: C_30  and  C_33 
ROOT
ATOM      1  C   LIG d   1       9.483  -4.443  -3.880  0.00  0.00    -0.005 C 
ATOM      2  C   LIG d   1       9.919  -4.251  -2.447  0.00  0.00    -0.037 C 
ATOM      3  C   LIG d   1       9.872  -5.559  -1.658  0.00  0.00     0.011 C 
ATOM      4  C   LIG d   1      10.705  -6.579  -2.410  0.00  0.00     0.156 C 
ATOM      5  O   LIG d   1      11.592  -7.208  -1.871  0.00  0.00    -0.293 OA
ATOM      6  C   LIG d   1      10.376  -6.759  -3.831  0.00  0.00    -0.019 C 
ATOM      7  C   LIG d   1       9.798  -5.759  -4.491  0.00  0.00    -0.060 C 
ATOM      8  C   LIG d   1       9.418  -5.964  -5.948  0.00  0.00    -0.030 C 
ATOM      9  C   LIG d   1       7.935  -5.607  -6.096  0.00  0.00    -0.046 C 
ATOM     10  C   LIG d   1       7.684  -4.190  -5.582  0.00  0.00    -0.031 C 
ATOM     11  H   LIG d   1       8.314  -3.486  -6.126  0.00  0.00     0.031 H 
ATOM     12  C   LIG d   1       8.004  -4.113  -4.079  0.00  0.00    -0.003 C 
ATOM     13  H   LIG d   1       7.408  -4.855  -3.547  0.00  0.00     0.034 H 
ATOM     14  C   LIG d   1       7.707  -2.729  -3.511  0.00  0.00     0.060 C 
ATOM     15  H   LIG d   1       7.858  -2.748  -2.432  0.00  0.00     0.060 H 
ATOM     16  C   LIG d   1       6.264  -2.292  -3.807  0.00  0.00    -0.018 C 
ATOM     17  C   LIG d   1       6.084  -2.329  -5.312  0.00  0.00     0.009 C 
ATOM     18  C   LIG d   1       6.226  -3.810  -5.755  0.00  0.00    -0.029 C 
ATOM     19  H   LIG d   1       5.589  -4.453  -5.148  0.00  0.00     0.031 H 
ATOM     20  C   LIG d   1       5.723  -3.750  -7.203  0.00  0.00    -0.046 C 
ATOM     21  C   LIG d   1       4.493  -2.809  -7.105  0.00  0.00    -0.016 C 
ATOM     22  C   LIG d   1       4.711  -1.930  -5.844  0.00  0.00     0.130 C 
ATOM     23  H   LIG d   1       9.260  -3.526  -1.968  0.00  0.00     0.028 H 
ATOM     24  H   LIG d   1      10.938  -3.866  -2.432  0.00  0.00     0.028 H 
ATOM     25  H   LIG d   1       8.924  -5.868  -1.580  0.00  0.00     0.035 H 
ATOM     26  H   LIG d   1      10.286  -5.405  -0.661  0.00  0.00     0.035 H 
ATOM     27  H   LIG d   1      10.599  -7.690  -4.332  0.00  0.00     0.065 H 
ATOM     28  H   LIG d   1       9.579  -7.006  -6.228  0.00  0.00     0.031 H 
ATOM     29  H   LIG d   1      10.020  -5.313  -6.582  0.00  0.00     0.031 H 
ATOM     30  H   LIG d   1       7.334  -6.312  -5.521  0.00  0.00     0.027 H 
ATOM     31  H   LIG d   1       7.652  -5.666  -7.148  0.00  0.00     0.027 H 
ATOM     32  H   LIG d   1       6.099  -1.279  -3.438  0.00  0.00     0.030 H 
ATOM     33  H   LIG d   1       5.563  -2.979  -3.333  0.00  0.00     0.030 H 
ATOM     34  H   LIG d   1       6.483  -3.325  -7.858  0.00  0.00     0.027 H 
ATOM     35  H   LIG d   1       5.428  -4.740  -7.549  0.00  0.00     0.027 H 
ATOM     36  H   LIG d   1       4.431  -2.178  -7.993  0.00  0.00     0.030 H 
ATOM     37  H   LIG d   1       3.580  -3.395  -7.000  0.00  0.00     0.030 H 
ENDROOT
BRANCH  22  38
ATOM     38  C   LIG d   1       4.697  -0.469  -6.212  0.00  0.00     0.175 C 
ATOM     39  O   LIG d   1       4.541   0.367  -5.355  0.00  0.00    -0.293 OA
BRANCH  38  40
ATOM     40  C   LIG d   1       4.877  -0.051  -7.648  0.00  0.00     0.062 C 
ATOM     41  H   LIG d   1       5.638   0.595  -7.714  0.00  0.00     0.046 H 
ATOM     42  H   LIG d   1       5.092  -0.929  -8.257  0.00  0.00     0.046 H 
BRANCH  40  43
ATOM     43  S   LIG d   1       3.361   0.739  -8.242  0.00  0.00    -0.080 SA
BRANCH  43  44
ATOM     44  C   LIG d   1       2.857  -0.418  -9.399  0.00  0.00     0.195 C 
ATOM     45  O   LIG d   1       2.040  -1.262  -9.096  0.00  0.00    -0.285 OA
BRANCH  44  46
ATOM     46  C   LIG d   1       3.428  -0.387 -10.793  0.00  0.00     0.031 C 
BRANCH  46  47
ATOM     47  C   LIG d   1       3.927   1.025 -11.108  0.00  0.00    -0.052 C 
ATOM     48  H   LIG d   1       5.015   1.017 -11.180  0.00  0.00     0.024 H 
ATOM     49  H   LIG d   1       3.503   1.357 -12.054  0.00  0.00     0.024 H 
ATOM     50  H   LIG d   1       3.621   1.704 -10.313  0.00  0.00     0.024 H 
ENDBRANCH  46  47
BRANCH  46  51
ATOM     51  C   LIG d   1       4.593  -1.373 -10.890  0.00  0.00    -0.052 C 
ATOM     52  H   LIG d   1       4.335  -2.293 -10.364  0.00  0.00     0.024 H 
ATOM     53  H   LIG d   1       4.793  -1.599 -11.938  0.00  0.00     0.024 H 
ATOM     54  H   LIG d   1       5.481  -0.932 -10.437  0.00  0.00     0.024 H 
ENDBRANCH  46  51
BRANCH  46  55
ATOM     55  C   LIG d   1       2.342  -0.779 -11.798  0.00  0.00    -0.052 C 
ATOM     56  H   LIG d   1       2.551  -0.312 -12.760  0.00  0.00     0.024 H 
ATOM     57  H   LIG d   1       2.330  -1.863 -11.915  0.00  0.00     0.024 H 
ATOM     58  H   LIG d   1       1.372  -0.442 -11.433  0.00  0.00     0.024 H 
ENDBRANCH  46  55
ENDBRANCH  44  46
ENDBRANCH  43  44
ENDBRANCH  40  43
ENDBRANCH  38  40
ENDBRANCH  22  38
BRANCH  22  59
ATOM     59  O   LIG d   1       3.704  -2.206  -4.868  0.00  0.00    -0.381 OA
ATOM     60  H   LIG d   1       2.975  -2.750  -5.197  0.00  0.00     0.211 HD
ENDBRANCH  22  59
BRANCH  17  61
ATOM     61  C   LIG d   1       7.165  -1.481  -5.984  0.00  0.00    -0.056 C 
ATOM     62  H   LIG d   1       7.614  -2.045  -6.801  0.00  0.00     0.024 H 
ATOM     63  H   LIG d   1       7.933  -1.226  -5.254  0.00  0.00     0.024 H 
ATOM     64  H   LIG d   1       6.719  -0.567  -6.377  0.00  0.00     0.024 H 
ENDBRANCH  17  61
BRANCH  14  65
ATOM     65  O   LIG d   1       8.608  -1.785  -4.092  0.00  0.00    -0.392 OA
ATOM     66  H   LIG d   1       9.438  -2.172  -4.404  0.00  0.00     0.210 HD
ENDBRANCH  14  65
BRANCH   1  67
ATOM     67  C   LIG d   1      10.269  -3.410  -4.690  0.00  0.00    -0.056 C 
ATOM     68  H   LIG d   1      11.327  -3.474  -4.433  0.00  0.00     0.024 H 
ATOM     69  H   LIG d   1      10.141  -3.609  -5.754  0.00  0.00     0.024 H 
ATOM     70  H   LIG d   1       9.900  -2.411  -4.461  0.00  0.00     0.024 H 
ENDBRANCH   1  67
TORSDOF 12
ENDMDL
MODEL 9
REMARK VINA RESULT:      -5.7      2.295      3.692
REMARK  12 active torsions:
REMARK  status: ('A' for Active; 'I' for Inactive)
REMARK    1  A    between atoms: C_1  and  C_2 
REMARK    2  A    between atoms: C_15  and  O_36 
REMARK    3  A    between atoms: C_18  and  C_35 
REMARK    4  A    between atoms: C_23  and  C_24 
REMARK    5  A    between atoms: C_23  and  O_34 
REMARK    6  A    between atoms: C_24  and  C_26 
REMARK    7  A    between atoms: C_26  and  S_27 
REMARK    8  A    between atoms: S_27  and  C_28 
REMARK    9  A    between atoms: C_28  and  C_30 
REMARK   10  A    between atoms: C_30  and  C_31 
REMARK   11  A    between atoms: C_30  and  C_32 
REMARK   12  A    between atoms: C_30  and  C_33 
ROOT
ATOM      1  C   LIG d   1       3.466  -1.316 -12.151  0.00  0.00    -0.005 C 
ATOM      2  C   LIG d   1       4.316  -0.287 -12.857  0.00  0.00    -0.037 C 
ATOM      3  C   LIG d   1       4.776  -0.775 -14.230  0.00  0.00     0.011 C 
ATOM      4  C   LIG d   1       3.541  -1.177 -15.012  0.00  0.00     0.156 C 
ATOM      5  O   LIG d   1       3.313  -0.743 -16.122  0.00  0.00    -0.293 OA
ATOM      6  C   LIG d   1       2.636  -2.125 -14.346  0.00  0.00    -0.019 C 
ATOM      7  C   LIG d   1       2.626  -2.181 -13.017  0.00  0.00    -0.060 C 
ATOM      8  C   LIG d   1       1.723  -3.193 -12.332  0.00  0.00    -0.030 C 
ATOM      9  C   LIG d   1       2.590  -4.017 -11.374  0.00  0.00    -0.046 C 
ATOM     10  C   LIG d   1       3.329  -3.090 -10.409  0.00  0.00    -0.031 C 
ATOM     11  H   LIG d   1       2.609  -2.482  -9.863  0.00  0.00     0.031 H 
ATOM     12  C   LIG d   1       4.289  -2.177 -11.191  0.00  0.00    -0.003 C 
ATOM     13  H   LIG d   1       4.973  -2.792 -11.776  0.00  0.00     0.034 H 
ATOM     14  C   LIG d   1       5.093  -1.277 -10.258  0.00  0.00     0.060 C 
ATOM     15  H   LIG d   1       5.822  -0.719 -10.846  0.00  0.00     0.060 H 
ATOM     16  C   LIG d   1       5.833  -2.090  -9.185  0.00  0.00    -0.018 C 
ATOM     17  C   LIG d   1       4.789  -2.888  -8.428  0.00  0.00     0.009 C 
ATOM     18  C   LIG d   1       4.164  -3.895  -9.431  0.00  0.00    -0.029 C 
ATOM     19  H   LIG d   1       4.945  -4.443  -9.958  0.00  0.00     0.031 H 
ATOM     20  C   LIG d   1       3.380  -4.821  -8.494  0.00  0.00    -0.046 C 
ATOM     21  C   LIG d   1       4.354  -5.013  -7.300  0.00  0.00    -0.016 C 
ATOM     22  C   LIG d   1       5.299  -3.782  -7.301  0.00  0.00     0.130 C 
ATOM     23  H   LIG d   1       5.193  -0.068 -12.248  0.00  0.00     0.028 H 
ATOM     24  H   LIG d   1       3.736   0.628 -12.984  0.00  0.00     0.028 H 
ATOM     25  H   LIG d   1       5.391  -1.555 -14.118  0.00  0.00     0.035 H 
ATOM     26  H   LIG d   1       5.299   0.028 -14.751  0.00  0.00     0.035 H 
ATOM     27  H   LIG d   1       1.989  -2.766 -14.927  0.00  0.00     0.065 H 
ATOM     28  H   LIG d   1       1.269  -3.847 -13.077  0.00  0.00     0.031 H 
ATOM     29  H   LIG d   1       0.944  -2.674 -11.772  0.00  0.00     0.031 H 
ATOM     30  H   LIG d   1       3.315  -4.594 -11.948  0.00  0.00     0.027 H 
ATOM     31  H   LIG d   1       1.955  -4.698 -10.806  0.00  0.00     0.027 H 
ATOM     32  H   LIG d   1       6.353  -1.418  -8.501  0.00  0.00     0.030 H 
ATOM     33  H   LIG d   1       6.546  -2.766  -9.656  0.00  0.00     0.030 H 
ATOM     34  H   LIG d   1       2.457  -4.345  -8.165  0.00  0.00     0.027 H 
ATOM     35  H   LIG d   1       3.170  -5.773  -8.981  0.00  0.00     0.027 H 
ATOM     36  H   LIG d   1       3.796  -5.055  -6.364  0.00  0.00     0.030 H 
ATOM     37  H   LIG d   1       4.932  -5.929  -7.432  0.00  0.00     0.030 H 
ENDROOT
BRANCH  22  38
ATOM     38  C   LIG d   1       5.219  -3.057  -5.983  0.00  0.00     0.175 C 
ATOM     39  O   LIG d   1       4.296  -3.266  -5.233  0.00  0.00    -0.293 OA
BRANCH  38  40
ATOM     40  C   LIG d   1       6.291  -2.069  -5.599  0.00  0.00     0.062 C 
ATOM     41  H   LIG d   1       6.763  -2.391  -4.779  0.00  0.00     0.046 H 
ATOM     42  H   LIG d   1       7.005  -1.974  -6.417  0.00  0.00     0.046 H 
BRANCH  40  43
ATOM     43  S   LIG d   1       5.536  -0.458  -5.268  0.00  0.00    -0.080 SA
BRANCH  43  44
ATOM     44  C   LIG d   1       5.659  -0.418  -3.560  0.00  0.00     0.195 C 
ATOM     45  O   LIG d   1       6.749  -0.431  -3.030  0.00  0.00    -0.285 OA
BRANCH  44  46
ATOM     46  C   LIG d   1       4.411  -0.368  -2.717  0.00  0.00     0.031 C 
BRANCH  46  47
ATOM     47  C   LIG d   1       4.260  -1.683  -1.949  0.00  0.00    -0.052 C 
ATOM     48  H   LIG d   1       5.244  -2.034  -1.635  0.00  0.00     0.024 H 
ATOM     49  H   LIG d   1       3.634  -1.523  -1.073  0.00  0.00     0.024 H 
ATOM     50  H   LIG d   1       3.799  -2.430  -2.595  0.00  0.00     0.024 H 
ENDBRANCH  46  47
BRANCH  46  51
ATOM     51  C   LIG d   1       4.512   0.792  -1.725  0.00  0.00    -0.052 C 
ATOM     52  H   LIG d   1       4.297   0.430  -0.719  0.00  0.00     0.024 H 
ATOM     53  H   LIG d   1       5.519   1.208  -1.752  0.00  0.00     0.024 H 
ATOM     54  H   LIG d   1       3.792   1.565  -1.994  0.00  0.00     0.024 H 
ENDBRANCH  46  51
BRANCH  46  55
ATOM     55  C   LIG d   1       3.192  -0.162  -3.620  0.00  0.00    -0.052 C 
ATOM     56  H   LIG d   1       3.088   0.897  -3.854  0.00  0.00     0.024 H 
ATOM     57  H   LIG d   1       3.325  -0.728  -4.542  0.00  0.00     0.024 H 
ATOM     58  H   LIG d   1       2.297  -0.511  -3.105  0.00  0.00     0.024 H 
ENDBRANCH  46  55
ENDBRANCH  44  46
ENDBRANCH  43  44
ENDBRANCH  40  43
ENDBRANCH  38  40
ENDBRANCH  22  38
BRANCH  22  59
ATOM     59  O   LIG d   1       6.644  -4.188  -7.563  0.00  0.00    -0.381 OA
ATOM     60  H   LIG d   1       7.236  -4.099  -6.804  0.00  0.00     0.211 HD
ENDBRANCH  22  59
BRANCH  17  61
ATOM     61  C   LIG d   1       3.706  -1.950  -7.894  0.00  0.00    -0.056 C 
ATOM     62  H   LIG d   1       2.834  -1.992  -8.546  0.00  0.00     0.024 H 
ATOM     63  H   LIG d   1       4.090  -0.930  -7.868  0.00  0.00     0.024 H 
ATOM     64  H   LIG d   1       3.422  -2.257  -6.887  0.00  0.00     0.024 H 
ENDBRANCH  17  61
BRANCH  14  65
ATOM     65  O   LIG d   1       4.207  -0.358  -9.619  0.00  0.00    -0.392 OA
ATOM     66  H   LIG d   1       4.623   0.477  -9.363  0.00  0.00     0.210 HD
ENDBRANCH  14  65
BRANCH   1  67
ATOM     67  C   LIG d   1       2.488  -0.519 -11.286  0.00  0.00    -0.056 C 
ATOM     68  H   LIG d   1       1.582  -1.105 -11.127  0.00  0.00     0.024 H 
ATOM     69  H   LIG d   1       2.950  -0.298 -10.324  0.00  0.00     0.024 H 
ATOM     70  H   LIG d   1       2.234   0.413 -11.789  0.00  0.00     0.024 H 
ENDBRANCH   1  67
TORSDOF 12
ENDMDL
