MODEL 1
REMARK VINA RESULT:      -6.7      0.000      0.000
REMARK  7 active torsions:
REMARK  status: ('A' for Active; 'I' for Inactive)
REMARK    1  A    between atoms: C_1  and  C_2 
REMARK    2  A    between atoms: C_6  and  O_9 
REMARK    3  A    between atoms: C_7  and  C_8 
REMARK    4  A    between atoms: O_9  and  C_10 
REMARK    5  A    between atoms: C_10  and  C_12 
REMARK    6  A    between atoms: C_12  and  C_13 
REMARK    7  A    between atoms: C_12  and  C_17 
ROOT
ATOM      1  C   LIG d   1       3.292  -0.816  -8.573  0.00  0.00    -0.044 A 
ATOM      2  C   LIG d   1       3.783  -2.108  -8.538  0.00  0.00    -0.058 A 
ATOM      3  C   LIG d   1       4.345  -2.605  -7.377  0.00  0.00    -0.058 A 
ATOM      4  C   LIG d   1       4.417  -1.812  -6.248  0.00  0.00    -0.019 A 
ATOM      5  C   LIG d   1       3.925  -0.516  -6.281  0.00  0.00     0.135 A 
ATOM      6  C   LIG d   1       3.356  -0.021  -7.446  0.00  0.00    -0.005 A 
ATOM      7  H   LIG d   1       3.728  -2.729  -9.420  0.00  0.00     0.062 H 
ATOM      8  H   LIG d   1       4.729  -3.615  -7.352  0.00  0.00     0.062 H 
ATOM      9  H   LIG d   1       4.856  -2.201  -5.341  0.00  0.00     0.065 H 
ENDROOT
BRANCH   5  10
ATOM     10  O   LIG d   1       3.994   0.266  -5.171  0.00  0.00    -0.425 OA
BRANCH  10  11
ATOM     11  C   LIG d   1       3.102   0.024  -4.197  0.00  0.00     0.333 C 
ATOM     12  O   LIG d   1       1.937  -0.141  -4.473  0.00  0.00    -0.249 OA
BRANCH  11  13
ATOM     13  C   LIG d   1       3.554  -0.050  -2.762  0.00  0.00     0.245 C 
ATOM     14  H   LIG d   1       2.683  -0.041  -2.106  0.00  0.00     0.059 H 
BRANCH  13  15
ATOM     15  C   LIG d   1       4.346  -1.341  -2.542  0.00  0.00     0.411 C 
ATOM     16  F   LIG d   1       5.565  -1.262  -3.223  0.00  0.00    -0.170 F 
ATOM     17  F   LIG d   1       4.586  -1.513  -1.174  0.00  0.00    -0.170 F 
ATOM     18  F   LIG d   1       3.609  -2.427  -3.027  0.00  0.00    -0.170 F 
ENDBRANCH  13  15
BRANCH  13  19
ATOM     19  C   LIG d   1       4.443   1.154  -2.444  0.00  0.00     0.411 C 
ATOM     20  F   LIG d   1       4.611   1.258  -1.059  0.00  0.00    -0.170 F 
ATOM     21  F   LIG d   1       5.691   0.986  -3.054  0.00  0.00    -0.170 F 
ATOM     22  F   LIG d   1       3.839   2.320  -2.929  0.00  0.00    -0.170 F 
ENDBRANCH  13  19
ENDBRANCH  11  13
ENDBRANCH  10  11
ENDBRANCH   5  10
BRANCH   6  23
ATOM     23  C   LIG d   1       2.815   1.386  -7.482  0.00  0.00    -0.036 C 
ATOM     24  H   LIG d   1       3.503   2.026  -8.032  0.00  0.00     0.028 H 
ATOM     25  H   LIG d   1       1.843   1.387  -7.975  0.00  0.00     0.028 H 
ATOM     26  H   LIG d   1       2.706   1.759  -6.464  0.00  0.00     0.028 H 
ENDBRANCH   6  23
BRANCH   1  27
ATOM     27  C   LIG d   1       2.679  -0.277  -9.840  0.00  0.00    -0.039 C 
ATOM     28  H   LIG d   1       2.890   0.789  -9.921  0.00  0.00     0.028 H 
ATOM     29  H   LIG d   1       3.104  -0.797 -10.699  0.00  0.00     0.028 H 
ATOM     30  H   LIG d   1       1.601  -0.434  -9.818  0.00  0.00     0.028 H 
ENDBRANCH   1  27
TORSDOF 7
ENDMDL
MODEL 2
REMARK VINA RESULT:      -6.6      0.533      1.948
REMARK  7 active torsions:
REMARK  status: ('A' for Active; 'I' for Inactive)
REMARK    1  A    between atoms: C_1  and  C_2 
REMARK    2  A    between atoms: C_6  and  O_9 
REMARK    3  A    between atoms: C_7  and  C_8 
REMARK    4  A    between atoms: O_9  and  C_10 
REMARK    5  A    between atoms: C_10  and  C_12 
REMARK    6  A    between atoms: C_12  and  C_13 
REMARK    7  A    between atoms: C_12  and  C_17 
ROOT
ATOM      1  C   LIG d   1       3.630  -1.770  -8.254  0.00  0.00    -0.044 A 
ATOM      2  C   LIG d   1       2.920  -0.848  -9.000  0.00  0.00    -0.058 A 
ATOM      3  C   LIG d   1       2.606   0.387  -8.462  0.00  0.00    -0.058 A 
ATOM      4  C   LIG d   1       3.003   0.703  -7.177  0.00  0.00    -0.019 A 
ATOM      5  C   LIG d   1       3.714  -0.221  -6.426  0.00  0.00     0.135 A 
ATOM      6  C   LIG d   1       4.033  -1.457  -6.971  0.00  0.00    -0.005 A 
ATOM      7  H   LIG d   1       2.609  -1.093 -10.006  0.00  0.00     0.062 H 
ATOM      8  H   LIG d   1       2.051   1.106  -9.047  0.00  0.00     0.062 H 
ATOM      9  H   LIG d   1       2.758   1.667  -6.757  0.00  0.00     0.065 H 
ENDROOT
BRANCH   5  10
ATOM     10  O   LIG d   1       4.106   0.087  -5.161  0.00  0.00    -0.425 OA
BRANCH  10  11
ATOM     11  C   LIG d   1       3.178  -0.010  -4.195  0.00  0.00     0.333 C 
ATOM     12  O   LIG d   1       2.007  -0.056  -4.485  0.00  0.00    -0.249 OA
BRANCH  11  13
ATOM     13  C   LIG d   1       3.600  -0.068  -2.749  0.00  0.00     0.245 C 
ATOM     14  H   LIG d   1       2.715  -0.043  -2.112  0.00  0.00     0.059 H 
BRANCH  13  15
ATOM     15  C   LIG d   1       4.374  -1.363  -2.496  0.00  0.00     0.411 C 
ATOM     16  F   LIG d   1       3.633  -2.451  -2.970  0.00  0.00    -0.170 F 
ATOM     17  F   LIG d   1       5.603  -1.311  -3.164  0.00  0.00    -0.170 F 
ATOM     18  F   LIG d   1       4.596  -1.513  -1.123  0.00  0.00    -0.170 F 
ENDBRANCH  13  15
BRANCH  13  19
ATOM     19  C   LIG d   1       4.492   1.131  -2.429  0.00  0.00     0.411 C 
ATOM     20  F   LIG d   1       4.603   1.274  -1.041  0.00  0.00    -0.170 F 
ATOM     21  F   LIG d   1       5.763   0.929  -2.980  0.00  0.00    -0.170 F 
ATOM     22  F   LIG d   1       3.928   2.291  -2.973  0.00  0.00    -0.170 F 
ENDBRANCH  13  19
ENDBRANCH  11  13
ENDBRANCH  10  11
ENDBRANCH   5  10
BRANCH   6  23
ATOM     23  C   LIG d   1       4.812  -2.461  -6.159  0.00  0.00    -0.036 C 
ATOM     24  H   LIG d   1       5.830  -2.525  -6.541  0.00  0.00     0.028 H 
ATOM     25  H   LIG d   1       4.834  -2.144  -5.116  0.00  0.00     0.028 H 
ATOM     26  H   LIG d   1       4.334  -3.437  -6.232  0.00  0.00     0.028 H 
ENDBRANCH   6  23
BRANCH   1  27
ATOM     27  C   LIG d   1       3.969  -3.114  -8.844  0.00  0.00    -0.039 C 
ATOM     28  H   LIG d   1       4.711  -3.609  -8.217  0.00  0.00     0.028 H 
ATOM     29  H   LIG d   1       3.069  -3.727  -8.893  0.00  0.00     0.028 H 
ATOM     30  H   LIG d   1       4.373  -2.980  -9.847  0.00  0.00     0.028 H 
ENDBRANCH   1  27
TORSDOF 7
ENDMDL
MODEL 3
REMARK VINA RESULT:      -6.4      2.670      4.291
REMARK  7 active torsions:
REMARK  status: ('A' for Active; 'I' for Inactive)
REMARK    1  A    between atoms: C_1  and  C_2 
REMARK    2  A    between atoms: C_6  and  O_9 
REMARK    3  A    between atoms: C_7  and  C_8 
REMARK    4  A    between atoms: O_9  and  C_10 
REMARK    5  A    between atoms: C_10  and  C_12 
REMARK    6  A    between atoms: C_12  and  C_13 
REMARK    7  A    between atoms: C_12  and  C_17 
ROOT
ATOM      1  C   LIG d   1       6.971  -4.253  -4.919  0.00  0.00    -0.044 A 
ATOM      2  C   LIG d   1       7.969  -3.637  -4.188  0.00  0.00    -0.058 A 
ATOM      3  C   LIG d   1       7.720  -2.438  -3.548  0.00  0.00    -0.058 A 
ATOM      4  C   LIG d   1       6.473  -1.851  -3.636  0.00  0.00    -0.019 A 
ATOM      5  C   LIG d   1       5.470  -2.467  -4.370  0.00  0.00     0.135 A 
ATOM      6  C   LIG d   1       5.720  -3.675  -5.007  0.00  0.00    -0.005 A 
ATOM      7  H   LIG d   1       8.945  -4.094  -4.118  0.00  0.00     0.062 H 
ATOM      8  H   LIG d   1       8.502  -1.958  -2.977  0.00  0.00     0.062 H 
ATOM      9  H   LIG d   1       6.279  -0.914  -3.136  0.00  0.00     0.065 H 
ENDROOT
BRANCH   5  10
ATOM     10  O   LIG d   1       4.241  -1.893  -4.459  0.00  0.00    -0.425 OA
BRANCH  10  11
ATOM     11  C   LIG d   1       3.603  -1.635  -3.305  0.00  0.00     0.333 C 
ATOM     12  O   LIG d   1       3.504  -2.497  -2.464  0.00  0.00    -0.249 OA
BRANCH  11  13
ATOM     13  C   LIG d   1       3.017  -0.269  -3.057  0.00  0.00     0.245 C 
ATOM     14  H   LIG d   1       2.121  -0.364  -2.444  0.00  0.00     0.059 H 
BRANCH  13  15
ATOM     15  C   LIG d   1       4.044   0.601  -2.328  0.00  0.00     0.411 C 
ATOM     16  F   LIG d   1       3.411   1.739  -1.817  0.00  0.00    -0.170 F 
ATOM     17  F   LIG d   1       4.611  -0.128  -1.277  0.00  0.00    -0.170 F 
ATOM     18  F   LIG d   1       5.048   0.987  -3.223  0.00  0.00    -0.170 F 
ENDBRANCH  13  15
BRANCH  13  19
ATOM     19  C   LIG d   1       2.654   0.381  -4.393  0.00  0.00     0.411 C 
ATOM     20  F   LIG d   1       1.419  -0.111  -4.831  0.00  0.00    -0.170 F 
ATOM     21  F   LIG d   1       2.572   1.769  -4.230  0.00  0.00    -0.170 F 
ATOM     22  F   LIG d   1       3.638   0.080  -5.341  0.00  0.00    -0.170 F 
ENDBRANCH  13  19
ENDBRANCH  11  13
ENDBRANCH  10  11
ENDBRANCH   5  10
BRANCH   6  23
ATOM     23  C   LIG d   1       4.629  -4.349  -5.800  0.00  0.00    -0.036 C 
ATOM     24  H   LIG d   1       3.678  -4.231  -5.282  0.00  0.00     0.028 H 
ATOM     25  H   LIG d   1       4.565  -3.894  -6.788  0.00  0.00     0.028 H 
ATOM     26  H   LIG d   1       4.858  -5.410  -5.902  0.00  0.00     0.028 H 
ENDBRANCH   6  23
BRANCH   1  27
ATOM     27  C   LIG d   1       7.245  -5.561  -5.616  0.00  0.00    -0.039 C 
ATOM     28  H   LIG d   1       6.329  -5.926  -6.080  0.00  0.00     0.028 H 
ATOM     29  H   LIG d   1       8.006  -5.412  -6.383  0.00  0.00     0.028 H 
ATOM     30  H   LIG d   1       7.601  -6.292  -4.890  0.00  0.00     0.028 H 
ENDBRANCH   1  27
TORSDOF 7
ENDMDL
MODEL 4
REMARK VINA RESULT:      -6.4      0.977      2.482
REMARK  7 active torsions:
REMARK  status: ('A' for Active; 'I' for Inactive)
REMARK    1  A    between atoms: C_1  and  C_2 
REMARK    2  A    between atoms: C_6  and  O_9 
REMARK    3  A    between atoms: C_7  and  C_8 
REMARK    4  A    between atoms: O_9  and  C_10 
REMARK    5  A    between atoms: C_10  and  C_12 
REMARK    6  A    between atoms: C_12  and  C_13 
REMARK    7  A    between atoms: C_12  and  C_17 
ROOT
ATOM      1  C   LIG d   1       3.515  -0.556  -8.769  0.00  0.00    -0.044 A 
ATOM      2  C   LIG d   1       3.998  -1.849  -8.855  0.00  0.00    -0.058 A 
ATOM      3  C   LIG d   1       4.437  -2.502  -7.719  0.00  0.00    -0.058 A 
ATOM      4  C   LIG d   1       4.395  -1.865  -6.494  0.00  0.00    -0.019 A 
ATOM      5  C   LIG d   1       3.911  -0.568  -6.405  0.00  0.00     0.135 A 
ATOM      6  C   LIG d   1       3.465   0.083  -7.546  0.00  0.00    -0.005 A 
ATOM      7  H   LIG d   1       4.031  -2.349  -9.812  0.00  0.00     0.062 H 
ATOM      8  H   LIG d   1       4.815  -3.512  -7.789  0.00  0.00     0.062 H 
ATOM      9  H   LIG d   1       4.739  -2.376  -5.607  0.00  0.00     0.065 H 
ENDROOT
BRANCH   5  10
ATOM     10  O   LIG d   1       3.868   0.061  -5.201  0.00  0.00    -0.425 OA
BRANCH  10  11
ATOM     11  C   LIG d   1       5.020   0.148  -4.516  0.00  0.00     0.333 C 
ATOM     12  O   LIG d   1       6.041   0.446  -5.088  0.00  0.00    -0.249 OA
BRANCH  11  13
ATOM     13  C   LIG d   1       5.037  -0.119  -3.033  0.00  0.00     0.245 C 
ATOM     14  H   LIG d   1       6.061  -0.053  -2.665  0.00  0.00     0.059 H 
BRANCH  13  15
ATOM     15  C   LIG d   1       4.170   0.919  -2.318  0.00  0.00     0.411 C 
ATOM     16  F   LIG d   1       2.842   0.481  -2.296  0.00  0.00    -0.170 F 
ATOM     17  F   LIG d   1       4.628   1.086  -1.006  0.00  0.00    -0.170 F 
ATOM     18  F   LIG d   1       4.248   2.140  -2.998  0.00  0.00    -0.170 F 
ENDBRANCH  13  15
BRANCH  13  19
ATOM     19  C   LIG d   1       4.486  -1.519  -2.760  0.00  0.00     0.411 C 
ATOM     20  F   LIG d   1       3.196  -1.625  -3.290  0.00  0.00    -0.170 F 
ATOM     21  F   LIG d   1       5.316  -2.473  -3.359  0.00  0.00    -0.170 F 
ATOM     22  F   LIG d   1       4.442  -1.742  -1.379  0.00  0.00    -0.170 F 
ENDBRANCH  13  19
ENDBRANCH  11  13
ENDBRANCH  10  11
ENDBRANCH   5  10
BRANCH   6  23
ATOM     23  C   LIG d   1       2.933   1.491  -7.451  0.00  0.00    -0.036 C 
ATOM     24  H   LIG d   1       3.726   2.157  -7.113  0.00  0.00     0.028 H 
ATOM     25  H   LIG d   1       2.581   1.812  -8.432  0.00  0.00     0.028 H 
ATOM     26  H   LIG d   1       2.106   1.520  -6.741  0.00  0.00     0.028 H 
ENDBRANCH   6  23
BRANCH   1  27
ATOM     27  C   LIG d   1       3.036   0.153 -10.010  0.00  0.00    -0.039 C 
ATOM     28  H   LIG d   1       2.214  -0.407 -10.455  0.00  0.00     0.028 H 
ATOM     29  H   LIG d   1       2.693   1.154  -9.747  0.00  0.00     0.028 H 
ATOM     30  H   LIG d   1       3.855   0.226 -10.725  0.00  0.00     0.028 H 
ENDBRANCH   1  27
TORSDOF 7
ENDMDL
MODEL 5
REMARK VINA RESULT:      -6.4      1.404      2.087
REMARK  7 active torsions:
REMARK  status: ('A' for Active; 'I' for Inactive)
REMARK    1  A    between atoms: C_1  and  C_2 
REMARK    2  A    between atoms: C_6  and  O_9 
REMARK    3  A    between atoms: C_7  and  C_8 
REMARK    4  A    between atoms: O_9  and  C_10 
REMARK    5  A    between atoms: C_10  and  C_12 
REMARK    6  A    between atoms: C_12  and  C_13 
REMARK    7  A    between atoms: C_12  and  C_17 
ROOT
ATOM      1  C   LIG d   1       3.179  -1.436  -8.391  0.00  0.00    -0.044 A 
ATOM      2  C   LIG d   1       3.743  -2.697  -8.345  0.00  0.00    -0.058 A 
ATOM      3  C   LIG d   1       4.715  -2.988  -7.405  0.00  0.00    -0.058 A 
ATOM      4  C   LIG d   1       5.123  -2.019  -6.509  0.00  0.00    -0.019 A 
ATOM      5  C   LIG d   1       4.558  -0.753  -6.554  0.00  0.00     0.135 A 
ATOM      6  C   LIG d   1       3.579  -0.465  -7.494  0.00  0.00    -0.005 A 
ATOM      7  H   LIG d   1       3.425  -3.456  -9.045  0.00  0.00     0.062 H 
ATOM      8  H   LIG d   1       5.155  -3.974  -7.371  0.00  0.00     0.062 H 
ATOM      9  H   LIG d   1       5.882  -2.246  -5.775  0.00  0.00     0.065 H 
ENDROOT
BRANCH   5  10
ATOM     10  O   LIG d   1       4.958   0.202  -5.673  0.00  0.00    -0.425 OA
BRANCH  10  11
ATOM     11  C   LIG d   1       4.997  -0.142  -4.375  0.00  0.00     0.333 C 
ATOM     12  O   LIG d   1       5.890   0.263  -3.670  0.00  0.00    -0.249 OA
BRANCH  11  13
ATOM     13  C   LIG d   1       3.924  -1.029  -3.799  0.00  0.00     0.245 C 
ATOM     14  H   LIG d   1       3.618  -1.762  -4.546  0.00  0.00     0.059 H 
BRANCH  13  15
ATOM     15  C   LIG d   1       4.469  -1.754  -2.567  0.00  0.00     0.411 C 
ATOM     16  F   LIG d   1       4.455  -0.886  -1.470  0.00  0.00    -0.170 F 
ATOM     17  F   LIG d   1       3.669  -2.869  -2.289  0.00  0.00    -0.170 F 
ATOM     18  F   LIG d   1       5.782  -2.172  -2.814  0.00  0.00    -0.170 F 
ENDBRANCH  13  15
BRANCH  13  19
ATOM     19  C   LIG d   1       2.719  -0.177  -3.397  0.00  0.00     0.411 C 
ATOM     20  F   LIG d   1       1.989   0.167  -4.540  0.00  0.00    -0.170 F 
ATOM     21  F   LIG d   1       1.902  -0.904  -2.524  0.00  0.00    -0.170 F 
ATOM     22  F   LIG d   1       3.163   0.987  -2.760  0.00  0.00    -0.170 F 
ENDBRANCH  13  19
ENDBRANCH  11  13
ENDBRANCH  10  11
ENDBRANCH   5  10
BRANCH   6  23
ATOM     23  C   LIG d   1       2.959   0.908  -7.541  0.00  0.00    -0.036 C 
ATOM     24  H   LIG d   1       3.641   1.598  -8.037  0.00  0.00     0.028 H 
ATOM     25  H   LIG d   1       2.021   0.864  -8.094  0.00  0.00     0.028 H 
ATOM     26  H   LIG d   1       2.766   1.255  -6.526  0.00  0.00     0.028 H 
ENDBRANCH   6  23
BRANCH   1  27
ATOM     27  C   LIG d   1       2.120  -1.122  -9.417  0.00  0.00    -0.039 C 
ATOM     28  H   LIG d   1       1.140  -1.126  -8.941  0.00  0.00     0.028 H 
ATOM     29  H   LIG d   1       2.311  -0.139  -9.847  0.00  0.00     0.028 H 
ATOM     30  H   LIG d   1       2.144  -1.874 -10.206  0.00  0.00     0.028 H 
ENDBRANCH   1  27
TORSDOF 7
ENDMDL
MODEL 6
REMARK VINA RESULT:      -6.3      1.528      2.492
REMARK  7 active torsions:
REMARK  status: ('A' for Active; 'I' for Inactive)
REMARK    1  A    between atoms: C_1  and  C_2 
REMARK    2  A    between atoms: C_6  and  O_9 
REMARK    3  A    between atoms: C_7  and  C_8 
REMARK    4  A    between atoms: O_9  and  C_10 
REMARK    5  A    between atoms: C_10  and  C_12 
REMARK    6  A    between atoms: C_12  and  C_13 
REMARK    7  A    between atoms: C_12  and  C_17 
ROOT
ATOM      1  C   LIG d   1       2.849  -1.594  -8.846  0.00  0.00    -0.044 A 
ATOM      2  C   LIG d   1       2.310  -0.334  -9.026  0.00  0.00    -0.058 A 
ATOM      3  C   LIG d   1       2.725   0.718  -8.231  0.00  0.00    -0.058 A 
ATOM      4  C   LIG d   1       3.681   0.514  -7.255  0.00  0.00    -0.019 A 
ATOM      5  C   LIG d   1       4.223  -0.750  -7.073  0.00  0.00     0.135 A 
ATOM      6  C   LIG d   1       3.809  -1.803  -7.876  0.00  0.00    -0.005 A 
ATOM      7  H   LIG d   1       1.562  -0.172  -9.789  0.00  0.00     0.062 H 
ATOM      8  H   LIG d   1       2.301   1.702  -8.372  0.00  0.00     0.062 H 
ATOM      9  H   LIG d   1       4.004   1.336  -6.634  0.00  0.00     0.065 H 
ENDROOT
BRANCH   5  10
ATOM     10  O   LIG d   1       5.164  -0.954  -6.113  0.00  0.00    -0.425 OA
BRANCH  10  11
ATOM     11  C   LIG d   1       4.865  -0.549  -4.869  0.00  0.00     0.333 C 
ATOM     12  O   LIG d   1       5.452   0.387  -4.381  0.00  0.00    -0.249 OA
BRANCH  11  13
ATOM     13  C   LIG d   1       3.791  -1.257  -4.083  0.00  0.00     0.245 C 
ATOM     14  H   LIG d   1       3.092  -1.733  -4.772  0.00  0.00     0.059 H 
BRANCH  13  15
ATOM     15  C   LIG d   1       4.431  -2.322  -3.190  0.00  0.00     0.411 C 
ATOM     16  F   LIG d   1       5.641  -1.838  -2.682  0.00  0.00    -0.170 F 
ATOM     17  F   LIG d   1       3.568  -2.623  -2.131  0.00  0.00    -0.170 F 
ATOM     18  F   LIG d   1       4.670  -3.479  -3.941  0.00  0.00    -0.170 F 
ENDBRANCH  13  15
BRANCH  13  19
ATOM     19  C   LIG d   1       3.042  -0.246  -3.215  0.00  0.00     0.411 C 
ATOM     20  F   LIG d   1       3.822   0.081  -2.100  0.00  0.00    -0.170 F 
ATOM     21  F   LIG d   1       2.785   0.910  -3.960  0.00  0.00    -0.170 F 
ATOM     22  F   LIG d   1       1.831  -0.804  -2.788  0.00  0.00    -0.170 F 
ENDBRANCH  13  19
ENDBRANCH  11  13
ENDBRANCH  10  11
ENDBRANCH   5  10
BRANCH   6  23
ATOM     23  C   LIG d   1       4.402  -3.176  -7.684  0.00  0.00    -0.036 C 
ATOM     24  H   LIG d   1       4.586  -3.347  -6.624  0.00  0.00     0.028 H 
ATOM     25  H   LIG d   1       3.707  -3.927  -8.059  0.00  0.00     0.028 H 
ATOM     26  H   LIG d   1       5.342  -3.245  -8.231  0.00  0.00     0.028 H 
ENDBRANCH   6  23
BRANCH   1  27
ATOM     27  C   LIG d   1       2.395  -2.738  -9.715  0.00  0.00    -0.039 C 
ATOM     28  H   LIG d   1       2.481  -2.456 -10.764  0.00  0.00     0.028 H 
ATOM     29  H   LIG d   1       3.018  -3.611  -9.521  0.00  0.00     0.028 H 
ATOM     30  H   LIG d   1       1.356  -2.977  -9.487  0.00  0.00     0.028 H 
ENDBRANCH   1  27
TORSDOF 7
ENDMDL
MODEL 7
REMARK VINA RESULT:      -6.2      1.145      3.005
REMARK  7 active torsions:
REMARK  status: ('A' for Active; 'I' for Inactive)
REMARK    1  A    between atoms: C_1  and  C_2 
REMARK    2  A    between atoms: C_6  and  O_9 
REMARK    3  A    between atoms: C_7  and  C_8 
REMARK    4  A    between atoms: O_9  and  C_10 
REMARK    5  A    between atoms: C_10  and  C_12 
REMARK    6  A    between atoms: C_12  and  C_13 
REMARK    7  A    between atoms: C_12  and  C_17 
ROOT
ATOM      1  C   LIG d   1       3.516  -0.767  -8.960  0.00  0.00    -0.044 A 
ATOM      2  C   LIG d   1       3.003   0.508  -9.113  0.00  0.00    -0.058 A 
ATOM      3  C   LIG d   1       2.775   1.302  -8.005  0.00  0.00    -0.058 A 
ATOM      4  C   LIG d   1       3.059   0.824  -6.740  0.00  0.00    -0.019 A 
ATOM      5  C   LIG d   1       3.573  -0.455  -6.584  0.00  0.00     0.135 A 
ATOM      6  C   LIG d   1       3.807  -1.248  -7.699  0.00  0.00    -0.005 A 
ATOM      7  H   LIG d   1       2.781   0.883 -10.101  0.00  0.00     0.062 H 
ATOM      8  H   LIG d   1       2.374   2.298  -8.127  0.00  0.00     0.062 H 
ATOM      9  H   LIG d   1       2.881   1.444  -5.875  0.00  0.00     0.065 H 
ENDROOT
BRANCH   5  10
ATOM     10  O   LIG d   1       3.854  -0.928  -5.341  0.00  0.00    -0.425 OA
BRANCH  10  11
ATOM     11  C   LIG d   1       4.930  -0.416  -4.722  0.00  0.00     0.333 C 
ATOM     12  O   LIG d   1       5.841   0.037  -5.371  0.00  0.00    -0.249 OA
BRANCH  11  13
ATOM     13  C   LIG d   1       4.996  -0.401  -3.216  0.00  0.00     0.245 C 
ATOM     14  H   LIG d   1       6.020  -0.597  -2.896  0.00  0.00     0.059 H 
BRANCH  13  15
ATOM     15  C   LIG d   1       4.555   0.971  -2.700  0.00  0.00     0.411 C 
ATOM     16  F   LIG d   1       5.569   1.905  -2.936  0.00  0.00    -0.170 F 
ATOM     17  F   LIG d   1       3.391   1.368  -3.369  0.00  0.00    -0.170 F 
ATOM     18  F   LIG d   1       4.301   0.893  -1.327  0.00  0.00    -0.170 F 
ENDBRANCH  13  15
BRANCH  13  19
ATOM     19  C   LIG d   1       4.070  -1.480  -2.653  0.00  0.00     0.411 C 
ATOM     20  F   LIG d   1       2.741  -1.057  -2.761  0.00  0.00    -0.170 F 
ATOM     21  F   LIG d   1       4.243  -2.667  -3.374  0.00  0.00    -0.170 F 
ATOM     22  F   LIG d   1       4.380  -1.703  -1.306  0.00  0.00    -0.170 F 
ENDBRANCH  13  19
ENDBRANCH  11  13
ENDBRANCH  10  11
ENDBRANCH   5  10
BRANCH   6  23
ATOM     23  C   LIG d   1       4.371  -2.636  -7.532  0.00  0.00    -0.036 C 
ATOM     24  H   LIG d   1       5.338  -2.578  -7.033  0.00  0.00     0.028 H 
ATOM     25  H   LIG d   1       3.687  -3.236  -6.930  0.00  0.00     0.028 H 
ATOM     26  H   LIG d   1       4.494  -3.099  -8.511  0.00  0.00     0.028 H 
ENDBRANCH   6  23
BRANCH   1  27
ATOM     27  C   LIG d   1       3.763  -1.630 -10.170  0.00  0.00    -0.039 C 
ATOM     28  H   LIG d   1       2.818  -2.045 -10.521  0.00  0.00     0.028 H 
ATOM     29  H   LIG d   1       4.210  -1.027 -10.961  0.00  0.00     0.028 H 
ATOM     30  H   LIG d   1       4.440  -2.442  -9.906  0.00  0.00     0.028 H 
ENDBRANCH   1  27
TORSDOF 7
ENDMDL
MODEL 8
REMARK VINA RESULT:      -6.2      3.178      4.577
REMARK  7 active torsions:
REMARK  status: ('A' for Active; 'I' for Inactive)
REMARK    1  A    between atoms: C_1  and  C_2 
REMARK    2  A    between atoms: C_6  and  O_9 
REMARK    3  A    between atoms: C_7  and  C_8 
REMARK    4  A    between atoms: O_9  and  C_10 
REMARK    5  A    between atoms: C_10  and  C_12 
REMARK    6  A    between atoms: C_12  and  C_13 
REMARK    7  A    between atoms: C_12  and  C_17 
ROOT
ATOM      1  C   LIG d   1       8.561   2.142  -6.355  0.00  0.00    -0.044 A 
ATOM      2  C   LIG d   1       8.988   2.834  -5.237  0.00  0.00    -0.058 A 
ATOM      3  C   LIG d   1       8.605   2.417  -3.975  0.00  0.00    -0.058 A 
ATOM      4  C   LIG d   1       7.796   1.308  -3.828  0.00  0.00    -0.019 A 
ATOM      5  C   LIG d   1       7.366   0.612  -4.949  0.00  0.00     0.135 A 
ATOM      6  C   LIG d   1       7.756   1.029  -6.214  0.00  0.00    -0.005 A 
ATOM      7  H   LIG d   1       9.621   3.701  -5.349  0.00  0.00     0.062 H 
ATOM      8  H   LIG d   1       8.940   2.960  -3.103  0.00  0.00     0.062 H 
ATOM      9  H   LIG d   1       7.497   0.983  -2.843  0.00  0.00     0.065 H 
ENDROOT
BRANCH   5  10
ATOM     10  O   LIG d   1       6.569  -0.480  -4.807  0.00  0.00    -0.425 OA
BRANCH  10  11
ATOM     11  C   LIG d   1       5.322  -0.271  -4.354  0.00  0.00     0.333 C 
ATOM     12  O   LIG d   1       4.480   0.183  -5.091  0.00  0.00    -0.249 OA
BRANCH  11  13
ATOM     13  C   LIG d   1       4.972  -0.611  -2.928  0.00  0.00     0.245 C 
ATOM     14  H   LIG d   1       5.878  -0.882  -2.387  0.00  0.00     0.059 H 
BRANCH  13  15
ATOM     15  C   LIG d   1       4.321   0.602  -2.260  0.00  0.00     0.411 C 
ATOM     16  F   LIG d   1       4.695   0.649  -0.913  0.00  0.00    -0.170 F 
ATOM     17  F   LIG d   1       4.745   1.771  -2.902  0.00  0.00    -0.170 F 
ATOM     18  F   LIG d   1       2.929   0.497  -2.355  0.00  0.00    -0.170 F 
ENDBRANCH  13  15
BRANCH  13  19
ATOM     19  C   LIG d   1       3.996  -1.788  -2.909  0.00  0.00     0.411 C 
ATOM     20  F   LIG d   1       3.801  -2.211  -1.589  0.00  0.00    -0.170 F 
ATOM     21  F   LIG d   1       2.772  -1.390  -3.457  0.00  0.00    -0.170 F 
ATOM     22  F   LIG d   1       4.523  -2.843  -3.663  0.00  0.00    -0.170 F 
ENDBRANCH  13  19
ENDBRANCH  11  13
ENDBRANCH  10  11
ENDBRANCH   5  10
BRANCH   6  23
ATOM     23  C   LIG d   1       7.295   0.271  -7.433  0.00  0.00    -0.036 C 
ATOM     24  H   LIG d   1       7.877  -0.645  -7.533  0.00  0.00     0.028 H 
ATOM     25  H   LIG d   1       6.239   0.022  -7.327  0.00  0.00     0.028 H 
ATOM     26  H   LIG d   1       7.435   0.889  -8.319  0.00  0.00     0.028 H 
ENDBRANCH   6  23
BRANCH   1  27
ATOM     27  C   LIG d   1       8.980   2.599  -7.728  0.00  0.00    -0.039 C 
ATOM     28  H   LIG d   1      10.020   2.325  -7.902  0.00  0.00     0.028 H 
ATOM     29  H   LIG d   1       8.349   2.121  -8.478  0.00  0.00     0.028 H 
ATOM     30  H   LIG d   1       8.872   3.681  -7.800  0.00  0.00     0.028 H 
ENDBRANCH   1  27
TORSDOF 7
ENDMDL
MODEL 9
REMARK VINA RESULT:      -5.9      1.556      2.956
REMARK  7 active torsions:
REMARK  status: ('A' for Active; 'I' for Inactive)
REMARK    1  A    between atoms: C_1  and  C_2 
REMARK    2  A    between atoms: C_6  and  O_9 
REMARK    3  A    between atoms: C_7  and  C_8 
REMARK    4  A    between atoms: O_9  and  C_10 
REMARK    5  A    between atoms: C_10  and  C_12 
REMARK    6  A    between atoms: C_12  and  C_13 
REMARK    7  A    between atoms: C_12  and  C_17 
ROOT
ATOM      1  C   LIG d   1       4.432   0.067  -9.236  0.00  0.00    -0.044 A 
ATOM      2  C   LIG d   1       4.204   1.369  -9.639  0.00  0.00    -0.058 A 
ATOM      3  C   LIG d   1       3.391   2.196  -8.887  0.00  0.00    -0.058 A 
ATOM      4  C   LIG d   1       2.804   1.723  -7.730  0.00  0.00    -0.019 A 
ATOM      5  C   LIG d   1       3.030   0.416  -7.323  0.00  0.00     0.135 A 
ATOM      6  C   LIG d   1       3.852  -0.410  -8.077  0.00  0.00    -0.005 A 
ATOM      7  H   LIG d   1       4.663   1.741 -10.544  0.00  0.00     0.062 H 
ATOM      8  H   LIG d   1       3.214   3.214  -9.205  0.00  0.00     0.062 H 
ATOM      9  H   LIG d   1       2.168   2.369  -7.143  0.00  0.00     0.065 H 
ENDROOT
BRANCH   5  10
ATOM     10  O   LIG d   1       2.454  -0.052  -6.185  0.00  0.00    -0.425 OA
BRANCH  10  11
ATOM     11  C   LIG d   1       3.034   0.289  -5.023  0.00  0.00     0.333 C 
ATOM     12  O   LIG d   1       2.893   1.405  -4.582  0.00  0.00    -0.249 OA
BRANCH  11  13
ATOM     13  C   LIG d   1       3.855  -0.722  -4.265  0.00  0.00     0.245 C 
ATOM     14  H   LIG d   1       3.870  -1.663  -4.816  0.00  0.00     0.059 H 
BRANCH  13  15
ATOM     15  C   LIG d   1       5.285  -0.202  -4.104  0.00  0.00     0.411 C 
ATOM     16  F   LIG d   1       5.265   1.005  -3.397  0.00  0.00    -0.170 F 
ATOM     17  F   LIG d   1       6.047  -1.141  -3.401  0.00  0.00    -0.170 F 
ATOM     18  F   LIG d   1       5.850   0.007  -5.367  0.00  0.00    -0.170 F 
ENDBRANCH  13  15
BRANCH  13  19
ATOM     19  C   LIG d   1       3.237  -0.951  -2.885  0.00  0.00     0.411 C 
ATOM     20  F   LIG d   1       3.728   0.005  -1.989  0.00  0.00    -0.170 F 
ATOM     21  F   LIG d   1       1.845  -0.836  -2.971  0.00  0.00    -0.170 F 
ATOM     22  F   LIG d   1       3.572  -2.231  -2.430  0.00  0.00    -0.170 F 
ENDBRANCH  13  19
ENDBRANCH  11  13
ENDBRANCH  10  11
ENDBRANCH   5  10
BRANCH   6  23
ATOM     23  C   LIG d   1       4.105  -1.828  -7.634  0.00  0.00    -0.036 C 
ATOM     24  H   LIG d   1       5.177  -1.988  -7.521  0.00  0.00     0.028 H 
ATOM     25  H   LIG d   1       3.609  -2.004  -6.679  0.00  0.00     0.028 H 
ATOM     26  H   LIG d   1       3.712  -2.518  -8.380  0.00  0.00     0.028 H 
ENDBRANCH   6  23
BRANCH   1  27
ATOM     27  C   LIG d   1       5.320  -0.832 -10.058  0.00  0.00    -0.039 C 
ATOM     28  H   LIG d   1       5.091  -1.874  -9.833  0.00  0.00     0.028 H 
ATOM     29  H   LIG d   1       5.147  -0.643 -11.118  0.00  0.00     0.028 H 
ATOM     30  H   LIG d   1       6.363  -0.630  -9.819  0.00  0.00     0.028 H 
ENDBRANCH   1  27
TORSDOF 7
ENDMDL
MODEL 10
REMARK VINA RESULT:      -5.7      2.101      3.829
REMARK  7 active torsions:
REMARK  status: ('A' for Active; 'I' for Inactive)
REMARK    1  A    between atoms: C_1  and  C_2 
REMARK    2  A    between atoms: C_6  and  O_9 
REMARK    3  A    between atoms: C_7  and  C_8 
REMARK    4  A    between atoms: O_9  and  C_10 
REMARK    5  A    between atoms: C_10  and  C_12 
REMARK    6  A    between atoms: C_12  and  C_13 
REMARK    7  A    between atoms: C_12  and  C_17 
ROOT
ATOM      1  C   LIG d   1       7.090  -3.130  -5.855  0.00  0.00    -0.044 A 
ATOM      2  C   LIG d   1       8.271  -2.717  -5.268  0.00  0.00    -0.058 A 
ATOM      3  C   LIG d   1       8.390  -1.430  -4.778  0.00  0.00    -0.058 A 
ATOM      4  C   LIG d   1       7.328  -0.553  -4.873  0.00  0.00    -0.019 A 
ATOM      5  C   LIG d   1       6.141  -0.964  -5.462  0.00  0.00     0.135 A 
ATOM      6  C   LIG d   1       6.022  -2.258  -5.948  0.00  0.00    -0.005 A 
ATOM      7  H   LIG d   1       9.103  -3.403  -5.192  0.00  0.00     0.062 H 
ATOM      8  H   LIG d   1       9.315  -1.110  -4.320  0.00  0.00     0.062 H 
ATOM      9  H   LIG d   1       7.421   0.453  -4.490  0.00  0.00     0.065 H 
ENDROOT
BRANCH   5  10
ATOM     10  O   LIG d   1       5.094  -0.102  -5.557  0.00  0.00    -0.425 OA
BRANCH  10  11
ATOM     11  C   LIG d   1       4.186  -0.134  -4.568  0.00  0.00     0.333 C 
ATOM     12  O   LIG d   1       3.009  -0.050  -4.826  0.00  0.00    -0.249 OA
BRANCH  11  13
ATOM     13  C   LIG d   1       4.635  -0.283  -3.137  0.00  0.00     0.245 C 
ATOM     14  H   LIG d   1       5.721  -0.377  -3.106  0.00  0.00     0.059 H 
BRANCH  13  15
ATOM     15  C   LIG d   1       4.206   0.948  -2.337  0.00  0.00     0.411 C 
ATOM     16  F   LIG d   1       2.819   0.925  -2.155  0.00  0.00    -0.170 F 
ATOM     17  F   LIG d   1       4.839   0.938  -1.090  0.00  0.00    -0.170 F 
ATOM     18  F   LIG d   1       4.566   2.107  -3.034  0.00  0.00    -0.170 F 
ENDBRANCH  13  15
BRANCH  13  19
ATOM     19  C   LIG d   1       3.998  -1.534  -2.530  0.00  0.00     0.411 C 
ATOM     20  F   LIG d   1       4.433  -1.684  -1.208  0.00  0.00    -0.170 F 
ATOM     21  F   LIG d   1       2.605  -1.406  -2.551  0.00  0.00    -0.170 F 
ATOM     22  F   LIG d   1       4.375  -2.658  -3.275  0.00  0.00    -0.170 F 
ENDBRANCH  13  19
ENDBRANCH  11  13
ENDBRANCH  10  11
ENDBRANCH   5  10
BRANCH   6  23
ATOM     23  C   LIG d   1       4.732  -2.710  -6.583  0.00  0.00    -0.036 C 
ATOM     24  H   LIG d   1       4.531  -2.105  -7.467  0.00  0.00     0.028 H 
ATOM     25  H   LIG d   1       4.817  -3.758  -6.870  0.00  0.00     0.028 H 
ATOM     26  H   LIG d   1       3.916  -2.593  -5.870  0.00  0.00     0.028 H 
ENDBRANCH   6  23
BRANCH   1  27
ATOM     27  C   LIG d   1       6.964  -4.534  -6.388  0.00  0.00    -0.039 C 
ATOM     28  H   LIG d   1       7.946  -4.900  -6.685  0.00  0.00     0.028 H 
ATOM     29  H   LIG d   1       6.553  -5.182  -5.613  0.00  0.00     0.028 H 
ATOM     30  H   LIG d   1       6.299  -4.536  -7.252  0.00  0.00     0.028 H 
ENDBRANCH   1  27
TORSDOF 7
ENDMDL
