MODEL 1
REMARK VINA RESULT:      -7.4      0.000      0.000
REMARK  3 active torsions:
REMARK  status: ('A' for Active; 'I' for Inactive)
REMARK    1  A    between atoms: C_3  and  C_9 
REMARK       I    between atoms: C_9  and  N_11 
REMARK    2  A    between atoms: CA_21  and  CB_25 
REMARK    3  A    between atoms: CB_25  and  CG_26 
ROOT
ATOM      1  C   UNK d   1      10.280   5.064  -2.776  0.00  0.00    -0.044 A 
ATOM      2  C   UNK d   1      10.566   4.237  -3.839  0.00  0.00    -0.048 A 
ATOM      3  C   UNK d   1      10.178   4.600  -5.131  0.00  0.00     0.037 A 
ATOM      4  C   UNK d   1       9.499   5.801  -5.344  0.00  0.00    -0.048 A 
ATOM      5  C   UNK d   1       9.212   6.628  -4.281  0.00  0.00    -0.044 A 
ATOM      6  C   UNK d   1       9.600   6.266  -2.989  0.00  0.00     0.052 A 
ATOM      7  C   UNK d   1       9.302   7.125  -1.884  0.00  0.00     0.099 C 
ATOM      8  N   UNK d   1       9.065   7.808  -1.007  0.00  0.00    -0.191 NA
ATOM      9  H   UNK d   1      10.584   4.786  -1.777  0.00  0.00     0.063 H 
ATOM     10  H   UNK d   1      11.092   3.308  -3.673  0.00  0.00     0.062 H 
ATOM     11  H   UNK d   1       9.198   6.080  -6.343  0.00  0.00     0.062 H 
ATOM     12  H   UNK d   1       8.687   7.557  -4.447  0.00  0.00     0.063 H 
ENDROOT
BRANCH   3  13
ATOM     13  C   UNK d   1      10.487   3.712  -6.272  0.00  0.00     0.247 C 
ATOM     14  O   UNK d   1      11.483   3.906  -6.941  0.00  0.00    -0.270 OA
ATOM     15  N   UNK d   1       9.665   2.686  -6.570  0.00  0.00    -0.294 N 
ATOM     16  C   UNK d   1       8.431   2.517  -5.820  0.00  0.00     0.042 C 
ATOM     17  C   UNK d   1      10.028   1.761  -7.636  0.00  0.00     0.031 C 
ATOM     18  C   UNK d   1       8.107   1.084  -5.528  0.00  0.00     0.118 C 
ATOM     19  H   UNK d   1       8.517   3.055  -4.876  0.00  0.00     0.049 H 
ATOM     20  H   UNK d   1       7.610   2.948  -6.392  0.00  0.00     0.049 H 
ATOM     21  N   UNK d   1       8.893   0.075  -6.211  0.00  0.00    -0.285 N 
ATOM     22  H   UNK d   1       7.083   0.944  -5.875  0.00  0.00     0.061 H 
ATOM     23  C   UNK d   1       8.076   0.777  -4.050  0.00  0.00     0.236 C 
ATOM     24  C   UNK d   1       9.977   0.327  -7.141  0.00  0.00     0.031 C 
ATOM     25  C   PHE d   2       8.599  -1.226  -5.899  0.00  0.00     0.237 C 
ATOM     26  H   UNK d   1       9.862  -0.335  -7.998  0.00  0.00     0.048 H 
ATOM     27  H   UNK d   1      10.921   0.095  -6.647  0.00  0.00     0.048 H 
ATOM     28  CA  PHE d   2       7.554  -1.454  -4.828  0.00  0.00     0.100 C 
ATOM     29  O   PHE d   2       9.149  -2.153  -6.457  0.00  0.00    -0.274 OA
ATOM     30  N   PHE d   2       7.814  -0.521  -3.717  0.00  0.00    -0.302 N 
ATOM     31  HA  PHE d   2       7.616  -2.481  -4.466  0.00  0.00     0.059 H 
ATOM     32  H   PHE d   2       7.800  -0.814  -2.793  0.00  0.00     0.149 HD
ATOM     33  O   UNK d   1       8.273   1.630  -3.211  0.00  0.00    -0.274 OA
ATOM     34  H   UNK d   1       9.330   1.878  -8.466  0.00  0.00     0.048 H 
ATOM     35  H   UNK d   1      11.037   1.986  -7.980  0.00  0.00     0.048 H 
BRANCH  28  36
ATOM     36  CB  PHE d   2       6.160  -1.195  -5.403  0.00  0.00    -0.023 C 
ATOM     37  HB1 PHE d   2       6.206  -0.359  -6.101  0.00  0.00     0.029 H 
ATOM     38  HB2 PHE d   2       5.811  -2.085  -5.925  0.00  0.00     0.029 H 
BRANCH  36  39
ATOM     39  CG  PHE d   2       5.193  -0.858  -4.266  0.00  0.00    -0.039 A 
ATOM     40  CD1 PHE d   2       4.025  -0.037  -4.816  0.00  0.00    -0.050 A 
ATOM     41  CE1 PHE d   2       3.058   0.299  -3.678  0.00  0.00    -0.053 A 
ATOM     42 1HD1 PHE d   2       4.405   0.886  -5.255  0.00  0.00     0.027 H 
ATOM     43 2HD1 PHE d   2       3.503  -0.614  -5.578  0.00  0.00     0.027 H 
ATOM     44  CZ  PHE d   2       2.526  -0.996  -3.063  0.00  0.00    -0.053 A 
ATOM     45 1HE1 PHE d   2       3.581   0.877  -2.916  0.00  0.00     0.026 H 
ATOM     46 2HE1 PHE d   2       2.227   0.885  -4.070  0.00  0.00     0.026 H 
ATOM     47  CE2 PHE d   2       3.693  -1.817  -2.513  0.00  0.00    -0.053 A 
ATOM     48  HZ1 PHE d   2       1.837  -0.756  -2.253  0.00  0.00     0.026 H 
ATOM     49  HZ2 PHE d   2       2.002  -1.572  -3.826  0.00  0.00     0.026 H 
ATOM     50  CD2 PHE d   2       4.660  -2.154  -3.650  0.00  0.00    -0.050 A 
ATOM     51 1HE2 PHE d   2       4.216  -1.240  -1.751  0.00  0.00     0.026 H 
ATOM     52 2HE2 PHE d   2       3.313  -2.740  -2.074  0.00  0.00     0.026 H 
ATOM     53 1HD2 PHE d   2       4.137  -2.731  -4.413  0.00  0.00     0.027 H 
ATOM     54 2HD2 PHE d   2       5.492  -2.739  -3.259  0.00  0.00     0.027 H 
ATOM     55  HG  PHE d   2       5.716  -0.282  -3.503  0.00  0.00     0.030 H 
ENDBRANCH  36  39
ENDBRANCH  28  36
ENDBRANCH   3  13
TORSDOF 3
ENDMDL
MODEL 2
REMARK VINA RESULT:      -7.3      1.995      2.582
REMARK  3 active torsions:
REMARK  status: ('A' for Active; 'I' for Inactive)
REMARK    1  A    between atoms: C_3  and  C_9 
REMARK       I    between atoms: C_9  and  N_11 
REMARK    2  A    between atoms: CA_21  and  CB_25 
REMARK    3  A    between atoms: CB_25  and  CG_26 
ROOT
ATOM      1  C   UNK d   1      12.089   6.121  -1.608  0.00  0.00    -0.044 A 
ATOM      2  C   UNK d   1      11.942   5.799  -2.939  0.00  0.00    -0.048 A 
ATOM      3  C   UNK d   1      11.073   6.539  -3.744  0.00  0.00     0.037 A 
ATOM      4  C   UNK d   1      10.354   7.604  -3.199  0.00  0.00    -0.048 A 
ATOM      5  C   UNK d   1      10.500   7.925  -1.868  0.00  0.00    -0.044 A 
ATOM      6  C   UNK d   1      11.369   7.186  -1.062  0.00  0.00     0.052 A 
ATOM      7  C   UNK d   1      11.522   7.519   0.321  0.00  0.00     0.099 C 
ATOM      8  N   UNK d   1      11.643   7.784   1.419  0.00  0.00    -0.191 NA
ATOM      9  H   UNK d   1      12.765   5.551  -0.986  0.00  0.00     0.063 H 
ATOM     10  H   UNK d   1      12.499   4.975  -3.360  0.00  0.00     0.062 H 
ATOM     11  H   UNK d   1       9.681   8.175  -3.822  0.00  0.00     0.062 H 
ATOM     12  H   UNK d   1       9.944   8.749  -1.447  0.00  0.00     0.063 H 
ENDROOT
BRANCH   3  13
ATOM     13  C   UNK d   1      10.916   6.194  -5.173  0.00  0.00     0.247 C 
ATOM     14  O   UNK d   1      11.616   6.732  -6.009  0.00  0.00    -0.270 OA
ATOM     15  N   UNK d   1       9.998   5.283  -5.550  0.00  0.00    -0.294 N 
ATOM     16  C   UNK d   1       9.105   4.712  -4.554  0.00  0.00     0.042 C 
ATOM     17  C   UNK d   1       9.916   4.881  -6.949  0.00  0.00     0.031 C 
ATOM     18  C   UNK d   1       8.844   3.252  -4.761  0.00  0.00     0.118 C 
ATOM     19  H   UNK d   1       9.546   4.852  -3.567  0.00  0.00     0.049 H 
ATOM     20  H   UNK d   1       8.154   5.242  -4.590  0.00  0.00     0.049 H 
ATOM     21  N   UNK d   1       9.291   2.670  -6.012  0.00  0.00    -0.285 N 
ATOM     22  H   UNK d   1       7.759   3.151  -4.760  0.00  0.00     0.061 H 
ATOM     23  C   UNK d   1       9.328   2.400  -3.613  0.00  0.00     0.236 C 
ATOM     24  C   UNK d   1       9.982   3.370  -7.076  0.00  0.00     0.031 C 
ATOM     25  C   PHE d   2       9.069   1.326  -6.159  0.00  0.00     0.237 C 
ATOM     26  H   UNK d   1       9.540   3.080  -8.029  0.00  0.00     0.048 H 
ATOM     27  H   UNK d   1      11.029   3.065  -7.072  0.00  0.00     0.048 H 
ATOM     28  CA  PHE d   2       8.465   0.597  -4.978  0.00  0.00     0.100 C 
ATOM     29  O   PHE d   2       9.344   0.747  -7.190  0.00  0.00    -0.274 OA
ATOM     30  N   PHE d   2       9.144   1.054  -3.752  0.00  0.00    -0.302 N 
ATOM     31  HA  PHE d   2       8.607  -0.478  -5.097  0.00  0.00     0.059 H 
ATOM     32  H   PHE d   2       9.448   0.428  -3.076  0.00  0.00     0.149 HD
ATOM     33  O   UNK d   1       9.848   2.880  -2.628  0.00  0.00    -0.274 OA
ATOM     34  H   UNK d   1       8.975   5.236  -7.370  0.00  0.00     0.048 H 
ATOM     35  H   UNK d   1      10.745   5.324  -7.500  0.00  0.00     0.048 H 
BRANCH  28  36
ATOM     36  CB  PHE d   2       6.970   0.912  -4.887  0.00  0.00    -0.023 C 
ATOM     37  HB1 PHE d   2       6.829   1.992  -4.871  0.00  0.00     0.029 H 
ATOM     38  HB2 PHE d   2       6.457   0.490  -5.750  0.00  0.00     0.029 H 
BRANCH  36  39
ATOM     39  CG  PHE d   2       6.398   0.303  -3.605  0.00  0.00    -0.039 A 
ATOM     40  CD1 PHE d   2       5.366   1.259  -3.003  0.00  0.00    -0.050 A 
ATOM     41  CE1 PHE d   2       4.794   0.651  -1.721  0.00  0.00    -0.053 A 
ATOM     42 1HD1 PHE d   2       5.845   2.212  -2.772  0.00  0.00     0.027 H 
ATOM     43 2HD1 PHE d   2       4.562   1.422  -3.719  0.00  0.00     0.027 H 
ATOM     44  CZ  PHE d   2       4.123  -0.685  -2.047  0.00  0.00    -0.053 A 
ATOM     45 1HE1 PHE d   2       5.600   0.488  -1.005  0.00  0.00     0.026 H 
ATOM     46 2HE1 PHE d   2       4.059   1.332  -1.293  0.00  0.00     0.026 H 
ATOM     47  CE2 PHE d   2       5.155  -1.641  -2.649  0.00  0.00    -0.053 A 
ATOM     48  HZ1 PHE d   2       3.715  -1.118  -1.133  0.00  0.00     0.026 H 
ATOM     49  HZ2 PHE d   2       3.317  -0.521  -2.763  0.00  0.00     0.026 H 
ATOM     50  CD2 PHE d   2       5.727  -1.032  -3.931  0.00  0.00    -0.050 A 
ATOM     51 1HE2 PHE d   2       5.960  -1.803  -1.933  0.00  0.00     0.026 H 
ATOM     52 2HE2 PHE d   2       4.676  -2.593  -2.880  0.00  0.00     0.026 H 
ATOM     53 1HD2 PHE d   2       4.921  -0.869  -4.647  0.00  0.00     0.027 H 
ATOM     54 2HD2 PHE d   2       6.462  -1.714  -4.359  0.00  0.00     0.027 H 
ATOM     55  HG  PHE d   2       7.204   0.140  -2.889  0.00  0.00     0.030 H 
ENDBRANCH  36  39
ENDBRANCH  28  36
ENDBRANCH   3  13
TORSDOF 3
ENDMDL
MODEL 3
REMARK VINA RESULT:      -6.9      6.571      9.970
REMARK  3 active torsions:
REMARK  status: ('A' for Active; 'I' for Inactive)
REMARK    1  A    between atoms: C_3  and  C_9 
REMARK       I    between atoms: C_9  and  N_11 
REMARK    2  A    between atoms: CA_21  and  CB_25 
REMARK    3  A    between atoms: CB_25  and  CG_26 
ROOT
ATOM      1  C   UNK d   1       5.861  -9.693  -4.125  0.00  0.00    -0.044 A 
ATOM      2  C   UNK d   1       6.282  -9.054  -5.269  0.00  0.00    -0.048 A 
ATOM      3  C   UNK d   1       7.540  -8.447  -5.307  0.00  0.00     0.037 A 
ATOM      4  C   UNK d   1       8.368  -8.488  -4.185  0.00  0.00    -0.048 A 
ATOM      5  C   UNK d   1       7.946  -9.126  -3.039  0.00  0.00    -0.044 A 
ATOM      6  C   UNK d   1       6.689  -9.734  -3.001  0.00  0.00     0.052 A 
ATOM      7  C   UNK d   1       6.250 -10.398  -1.812  0.00  0.00     0.099 C 
ATOM      8  N   UNK d   1       5.902 -10.925  -0.867  0.00  0.00    -0.191 NA
ATOM      9  H   UNK d   1       4.889 -10.167  -4.098  0.00  0.00     0.063 H 
ATOM     10  H   UNK d   1       5.641  -9.023  -6.138  0.00  0.00     0.062 H 
ATOM     11  H   UNK d   1       9.340  -8.018  -4.214  0.00  0.00     0.062 H 
ATOM     12  H   UNK d   1       8.588  -9.158  -2.172  0.00  0.00     0.063 H 
ENDROOT
BRANCH   3  13
ATOM     13  C   UNK d   1       7.993  -7.762  -6.537  0.00  0.00     0.247 C 
ATOM     14  O   UNK d   1       8.576  -8.387  -7.401  0.00  0.00    -0.270 OA
ATOM     15  N   UNK d   1       7.759  -6.445  -6.700  0.00  0.00    -0.294 N 
ATOM     16  C   UNK d   1       7.141  -5.688  -5.622  0.00  0.00     0.042 C 
ATOM     17  C   UNK d   1       8.125  -5.799  -7.955  0.00  0.00     0.031 C 
ATOM     18  C   UNK d   1       6.152  -4.672  -6.103  0.00  0.00     0.118 C 
ATOM     19  H   UNK d   1       6.632  -6.383  -4.954  0.00  0.00     0.049 H 
ATOM     20  H   UNK d   1       7.921  -5.174  -5.062  0.00  0.00     0.049 H 
ATOM     21  N   UNK d   1       6.117  -4.406  -7.528  0.00  0.00    -0.285 N 
ATOM     22  H   UNK d   1       6.453  -3.735  -5.636  0.00  0.00     0.061 H 
ATOM     23  C   UNK d   1       4.751  -4.936  -5.609  0.00  0.00     0.236 C 
ATOM     24  C   UNK d   1       6.942  -5.046  -8.534  0.00  0.00     0.031 C 
ATOM     25  C   PHE d   2       5.179  -3.497  -7.944  0.00  0.00     0.237 C 
ATOM     26  H   UNK d   1       7.314  -4.283  -9.217  0.00  0.00     0.048 H 
ATOM     27  H   UNK d   1       6.325  -5.745  -9.098  0.00  0.00     0.048 H 
ATOM     28  CA  PHE d   2       4.244  -2.945  -6.889  0.00  0.00     0.100 C 
ATOM     29  O   PHE d   2       5.102  -3.150  -9.104  0.00  0.00    -0.274 OA
ATOM     30  N   PHE d   2       3.794  -4.060  -6.036  0.00  0.00    -0.302 N 
ATOM     31  HA  PHE d   2       3.383  -2.478  -7.368  0.00  0.00     0.059 H 
ATOM     32  H   PHE d   2       2.862  -4.167  -5.790  0.00  0.00     0.149 HD
ATOM     33  O   UNK d   1       4.489  -5.869  -4.880  0.00  0.00    -0.274 OA
ATOM     34  H   UNK d   1       8.942  -5.101  -7.774  0.00  0.00     0.048 H 
ATOM     35  H   UNK d   1       8.451  -6.557  -8.667  0.00  0.00     0.048 H 
BRANCH  28  36
ATOM     36  CB  PHE d   2       4.983  -1.910  -6.036  0.00  0.00    -0.023 C 
ATOM     37  HB1 PHE d   2       5.998  -2.257  -5.846  0.00  0.00     0.029 H 
ATOM     38  HB2 PHE d   2       5.016  -0.960  -6.568  0.00  0.00     0.029 H 
BRANCH  36  39
ATOM     39  CG  PHE d   2       4.247  -1.726  -4.707  0.00  0.00    -0.039 A 
ATOM     40  CD1 PHE d   2       5.238  -1.876  -3.551  0.00  0.00    -0.050 A 
ATOM     41  CE1 PHE d   2       4.503  -1.692  -2.222  0.00  0.00    -0.053 A 
ATOM     42 1HD1 PHE d   2       5.687  -2.869  -3.584  0.00  0.00     0.027 H 
ATOM     43 2HD1 PHE d   2       6.019  -1.122  -3.643  0.00  0.00     0.027 H 
ATOM     44  CZ  PHE d   2       3.873  -0.298  -2.177  0.00  0.00    -0.053 A 
ATOM     45 1HE1 PHE d   2       3.722  -2.447  -2.132  0.00  0.00     0.026 H 
ATOM     46 2HE1 PHE d   2       5.209  -1.799  -1.399  0.00  0.00     0.026 H 
ATOM     47  CE2 PHE d   2       2.882  -0.148  -3.333  0.00  0.00    -0.053 A 
ATOM     48  HZ1 PHE d   2       3.349  -0.167  -1.230  0.00  0.00     0.026 H 
ATOM     49  HZ2 PHE d   2       4.655   0.456  -2.267  0.00  0.00     0.026 H 
ATOM     50  CD2 PHE d   2       3.618  -0.332  -4.662  0.00  0.00    -0.050 A 
ATOM     51 1HE2 PHE d   2       2.102  -0.903  -3.242  0.00  0.00     0.026 H 
ATOM     52 2HE2 PHE d   2       2.434   0.845  -3.300  0.00  0.00     0.026 H 
ATOM     53 1HD2 PHE d   2       4.399   0.423  -4.753  0.00  0.00     0.027 H 
ATOM     54 2HD2 PHE d   2       2.912  -0.225  -5.485  0.00  0.00     0.027 H 
ATOM     55  HG  PHE d   2       3.465  -2.481  -4.617  0.00  0.00     0.030 H 
ENDBRANCH  36  39
ENDBRANCH  28  36
ENDBRANCH   3  13
TORSDOF 3
ENDMDL
MODEL 4
REMARK VINA RESULT:      -6.7      2.651      3.276
REMARK  3 active torsions:
REMARK  status: ('A' for Active; 'I' for Inactive)
REMARK    1  A    between atoms: C_3  and  C_9 
REMARK       I    between atoms: C_9  and  N_11 
REMARK    2  A    between atoms: CA_21  and  CB_25 
REMARK    3  A    between atoms: CB_25  and  CG_26 
ROOT
ATOM      1  C   UNK d   1      13.856   5.075  -2.853  0.00  0.00    -0.044 A 
ATOM      2  C   UNK d   1      13.131   4.908  -4.012  0.00  0.00    -0.048 A 
ATOM      3  C   UNK d   1      12.425   5.984  -4.555  0.00  0.00     0.037 A 
ATOM      4  C   UNK d   1      12.453   7.227  -3.923  0.00  0.00    -0.048 A 
ATOM      5  C   UNK d   1      13.177   7.395  -2.763  0.00  0.00    -0.044 A 
ATOM      6  C   UNK d   1      13.884   6.320  -2.220  0.00  0.00     0.052 A 
ATOM      7  C   UNK d   1      14.637   6.493  -1.015  0.00  0.00     0.099 C 
ATOM      8  N   UNK d   1      15.235   6.631  -0.059  0.00  0.00    -0.191 NA
ATOM      9  H   UNK d   1      14.407   4.244  -2.436  0.00  0.00     0.063 H 
ATOM     10  H   UNK d   1      13.109   3.945  -4.501  0.00  0.00     0.062 H 
ATOM     11  H   UNK d   1      11.905   8.059  -4.342  0.00  0.00     0.062 H 
ATOM     12  H   UNK d   1      13.199   8.358  -2.275  0.00  0.00     0.063 H 
ENDROOT
BRANCH   3  13
ATOM     13  C   UNK d   1      11.647   5.804  -5.800  0.00  0.00     0.247 C 
ATOM     14  O   UNK d   1      12.087   6.214  -6.856  0.00  0.00    -0.270 OA
ATOM     15  N   UNK d   1      10.451   5.183  -5.764  0.00  0.00    -0.294 N 
ATOM     16  C   UNK d   1       9.894   4.776  -4.484  0.00  0.00     0.042 C 
ATOM     17  C   UNK d   1       9.737   4.927  -7.009  0.00  0.00     0.031 C 
ATOM     18  C   UNK d   1       9.202   3.448  -4.535  0.00  0.00     0.118 C 
ATOM     19  H   UNK d   1      10.699   4.723  -3.752  0.00  0.00     0.049 H 
ATOM     20  H   UNK d   1       9.176   5.528  -4.158  0.00  0.00     0.049 H 
ATOM     21  N   UNK d   1       8.966   2.875  -5.846  0.00  0.00    -0.285 N 
ATOM     22  H   UNK d   1       8.215   3.622  -4.108  0.00  0.00     0.061 H 
ATOM     23  C   UNK d   1       9.849   2.414  -3.647  0.00  0.00     0.236 C 
ATOM     24  C   UNK d   1       9.352   3.463  -7.114  0.00  0.00     0.031 C 
ATOM     25  C   PHE d   2       8.362   1.645  -5.861  0.00  0.00     0.237 C 
ATOM     26  H   UNK d   1       8.520   3.369  -7.810  0.00  0.00     0.048 H 
ATOM     27  H   UNK d   1      10.202   2.906  -7.512  0.00  0.00     0.048 H 
ATOM     28  CA  PHE d   2       8.091   0.998  -4.519  0.00  0.00     0.100 C 
ATOM     29  O   PHE d   2       8.059   1.100  -6.902  0.00  0.00    -0.274 OA
ATOM     30  N   PHE d   2       9.282   1.172  -3.669  0.00  0.00    -0.302 N 
ATOM     31  HA  PHE d   2       7.890  -0.065  -4.657  0.00  0.00     0.059 H 
ATOM     32  H   PHE d   2       9.647   0.439  -3.150  0.00  0.00     0.149 HD
ATOM     33  O   UNK d   1      10.813   2.670  -2.956  0.00  0.00    -0.274 OA
ATOM     34  H   UNK d   1       8.834   5.538  -7.037  0.00  0.00     0.048 H 
ATOM     35  H   UNK d   1      10.376   5.191  -7.851  0.00  0.00     0.048 H 
BRANCH  28  36
ATOM     36  CB  PHE d   2       6.884   1.668  -3.859  0.00  0.00    -0.023 C 
ATOM     37  HB1 PHE d   2       7.190   2.115  -2.913  0.00  0.00     0.029 H 
ATOM     38  HB2 PHE d   2       6.493   2.443  -4.518  0.00  0.00     0.029 H 
BRANCH  36  39
ATOM     39  CG  PHE d   2       5.797   0.622  -3.601  0.00  0.00    -0.039 A 
ATOM     40  CD1 PHE d   2       6.451  -0.716  -3.252  0.00  0.00    -0.050 A 
ATOM     41  CE1 PHE d   2       5.364  -1.762  -2.995  0.00  0.00    -0.053 A 
ATOM     42 1HD1 PHE d   2       7.079  -1.041  -4.083  0.00  0.00     0.027 H 
ATOM     43 2HD1 PHE d   2       7.062  -0.599  -2.359  0.00  0.00     0.027 H 
ATOM     44  CZ  PHE d   2       4.484  -1.306  -1.830  0.00  0.00    -0.053 A 
ATOM     45 1HE1 PHE d   2       4.753  -1.879  -3.889  0.00  0.00     0.026 H 
ATOM     46 2HE1 PHE d   2       5.830  -2.716  -2.747  0.00  0.00     0.026 H 
ATOM     47  CE2 PHE d   2       3.830   0.033  -2.179  0.00  0.00    -0.053 A 
ATOM     48  HZ1 PHE d   2       3.710  -2.052  -1.646  0.00  0.00     0.026 H 
ATOM     49  HZ2 PHE d   2       5.096  -1.190  -0.935  0.00  0.00     0.026 H 
ATOM     50  CD2 PHE d   2       4.917   1.079  -2.436  0.00  0.00    -0.050 A 
ATOM     51 1HE2 PHE d   2       3.219  -0.084  -3.074  0.00  0.00     0.026 H 
ATOM     52 2HE2 PHE d   2       3.202   0.357  -1.349  0.00  0.00     0.026 H 
ATOM     53 1HD2 PHE d   2       5.528   1.195  -1.542  0.00  0.00     0.027 H 
ATOM     54 2HD2 PHE d   2       4.451   2.032  -2.685  0.00  0.00     0.027 H 
ATOM     55  HG  PHE d   2       5.185   0.506  -4.496  0.00  0.00     0.030 H 
ENDBRANCH  36  39
ENDBRANCH  28  36
ENDBRANCH   3  13
TORSDOF 3
ENDMDL
MODEL 5
REMARK VINA RESULT:      -6.7      6.814     10.197
REMARK  3 active torsions:
REMARK  status: ('A' for Active; 'I' for Inactive)
REMARK    1  A    between atoms: C_3  and  C_9 
REMARK       I    between atoms: C_9  and  N_11 
REMARK    2  A    between atoms: CA_21  and  CB_25 
REMARK    3  A    between atoms: CB_25  and  CG_26 
ROOT
ATOM      1  C   UNK d   1       0.063  -2.130 -12.792  0.00  0.00    -0.044 A 
ATOM      2  C   UNK d   1       1.322  -1.594 -12.644  0.00  0.00    -0.048 A 
ATOM      3  C   UNK d   1       2.448  -2.359 -12.958  0.00  0.00     0.037 A 
ATOM      4  C   UNK d   1       2.296  -3.667 -13.420  0.00  0.00    -0.048 A 
ATOM      5  C   UNK d   1       1.037  -4.204 -13.568  0.00  0.00    -0.044 A 
ATOM      6  C   UNK d   1      -0.090  -3.439 -13.255  0.00  0.00     0.052 A 
ATOM      7  C   UNK d   1      -1.399  -3.996 -13.408  0.00  0.00     0.099 C 
ATOM      8  N   UNK d   1      -2.438  -4.439 -13.530  0.00  0.00    -0.191 NA
ATOM      9  H   UNK d   1      -0.809  -1.536 -12.554  0.00  0.00     0.063 H 
ATOM     10  H   UNK d   1       1.440  -0.581 -12.286  0.00  0.00     0.062 H 
ATOM     11  H   UNK d   1       3.167  -4.258 -13.662  0.00  0.00     0.062 H 
ATOM     12  H   UNK d   1       0.920  -5.215 -13.926  0.00  0.00     0.063 H 
ENDROOT
BRANCH   3  13
ATOM     13  C   UNK d   1       3.801  -1.782 -12.800  0.00  0.00     0.247 C 
ATOM     14  O   UNK d   1       4.403  -1.370 -13.772  0.00  0.00    -0.270 OA
ATOM     15  N   UNK d   1       4.366  -1.712 -11.578  0.00  0.00    -0.294 N 
ATOM     16  C   UNK d   1       3.675  -2.290 -10.436  0.00  0.00     0.042 C 
ATOM     17  C   UNK d   1       5.658  -1.057 -11.420  0.00  0.00     0.031 C 
ATOM     18  C   UNK d   1       3.799  -1.466  -9.191  0.00  0.00     0.118 C 
ATOM     19  H   UNK d   1       2.618  -2.394 -10.682  0.00  0.00     0.049 H 
ATOM     20  H   UNK d   1       4.086  -3.279 -10.240  0.00  0.00     0.049 H 
ATOM     21  N   UNK d   1       4.755  -0.377  -9.211  0.00  0.00    -0.285 N 
ATOM     22  H   UNK d   1       4.155  -2.156  -8.425  0.00  0.00     0.061 H 
ATOM     23  C   UNK d   1       2.471  -0.957  -8.688  0.00  0.00     0.236 C 
ATOM     24  C   UNK d   1       5.592   0.000 -10.333  0.00  0.00     0.031 C 
ATOM     25  C   PHE d   2       4.824   0.380  -8.071  0.00  0.00     0.237 C 
ATOM     26  H   UNK d   1       6.601   0.189  -9.968  0.00  0.00     0.048 H 
ATOM     27  H   UNK d   1       5.202   0.922 -10.766  0.00  0.00     0.048 H 
ATOM     28  CA  PHE d   2       3.845   0.045  -6.966  0.00  0.00     0.100 C 
ATOM     29  O   PHE d   2       5.632   1.277  -7.952  0.00  0.00    -0.274 OA
ATOM     30  N   PHE d   2       2.518  -0.175  -7.570  0.00  0.00    -0.302 N 
ATOM     31  HA  PHE d   2       3.792   0.872  -6.256  0.00  0.00     0.059 H 
ATOM     32  H   PHE d   2       1.716   0.218  -7.191  0.00  0.00     0.149 HD
ATOM     33  O   UNK d   1       1.426  -1.224  -9.243  0.00  0.00    -0.274 OA
ATOM     34  H   UNK d   1       6.408  -1.801 -11.152  0.00  0.00     0.048 H 
ATOM     35  H   UNK d   1       5.940  -0.586 -12.362  0.00  0.00     0.048 H 
BRANCH  28  36
ATOM     36  CB  PHE d   2       4.299  -1.225  -6.243  0.00  0.00    -0.023 C 
ATOM     37  HB1 PHE d   2       3.898  -2.098  -6.758  0.00  0.00     0.029 H 
ATOM     38  HB2 PHE d   2       5.387  -1.273  -6.240  0.00  0.00     0.029 H 
BRANCH  36  39
ATOM     39  CG  PHE d   2       3.786  -1.203  -4.801  0.00  0.00    -0.039 A 
ATOM     40  CD1 PHE d   2       4.524  -2.262  -3.981  0.00  0.00    -0.050 A 
ATOM     41  CE1 PHE d   2       4.011  -2.240  -2.540  0.00  0.00    -0.053 A 
ATOM     42 1HD1 PHE d   2       4.345  -3.247  -4.415  0.00  0.00     0.027 H 
ATOM     43 2HD1 PHE d   2       5.592  -2.050  -3.990  0.00  0.00     0.027 H 
ATOM     44  CZ  PHE d   2       4.261  -0.858  -1.931  0.00  0.00    -0.053 A 
ATOM     45 1HE1 PHE d   2       2.942  -2.453  -2.531  0.00  0.00     0.026 H 
ATOM     46 2HE1 PHE d   2       4.536  -2.995  -1.955  0.00  0.00     0.026 H 
ATOM     47  CE2 PHE d   2       3.523   0.201  -2.752  0.00  0.00    -0.053 A 
ATOM     48  HZ1 PHE d   2       3.896  -0.843  -0.904  0.00  0.00     0.026 H 
ATOM     49  HZ2 PHE d   2       5.331  -0.646  -1.940  0.00  0.00     0.026 H 
ATOM     50  CD2 PHE d   2       4.036   0.179  -4.193  0.00  0.00    -0.050 A 
ATOM     51 1HE2 PHE d   2       2.454  -0.012  -2.743  0.00  0.00     0.026 H 
ATOM     52 2HE2 PHE d   2       3.702   1.186  -2.318  0.00  0.00     0.026 H 
ATOM     53 1HD2 PHE d   2       5.105   0.392  -4.202  0.00  0.00     0.027 H 
ATOM     54 2HD2 PHE d   2       3.511   0.934  -4.777  0.00  0.00     0.027 H 
ATOM     55  HG  PHE d   2       2.716  -1.415  -4.793  0.00  0.00     0.030 H 
ENDBRANCH  36  39
ENDBRANCH  28  36
ENDBRANCH   3  13
TORSDOF 3
ENDMDL
MODEL 6
REMARK VINA RESULT:      -6.7      2.117      2.584
REMARK  3 active torsions:
REMARK  status: ('A' for Active; 'I' for Inactive)
REMARK    1  A    between atoms: C_3  and  C_9 
REMARK       I    between atoms: C_9  and  N_11 
REMARK    2  A    between atoms: CA_21  and  CB_25 
REMARK    3  A    between atoms: CB_25  and  CG_26 
ROOT
ATOM      1  C   UNK d   1       9.387   6.465  -8.495  0.00  0.00    -0.044 A 
ATOM      2  C   UNK d   1       9.635   5.181  -8.927  0.00  0.00    -0.048 A 
ATOM      3  C   UNK d   1      10.255   4.266  -8.073  0.00  0.00     0.037 A 
ATOM      4  C   UNK d   1      10.626   4.653  -6.785  0.00  0.00    -0.048 A 
ATOM      5  C   UNK d   1      10.380   5.938  -6.354  0.00  0.00    -0.044 A 
ATOM      6  C   UNK d   1       9.758   6.854  -7.206  0.00  0.00     0.052 A 
ATOM      7  C   UNK d   1       9.502   8.189  -6.759  0.00  0.00     0.099 C 
ATOM      8  N   UNK d   1       9.298   9.249  -6.403  0.00  0.00    -0.191 NA
ATOM      9  H   UNK d   1       8.902   7.172  -9.154  0.00  0.00     0.063 H 
ATOM     10  H   UNK d   1       9.347   4.882  -9.923  0.00  0.00     0.062 H 
ATOM     11  H   UNK d   1      11.107   3.946  -6.126  0.00  0.00     0.062 H 
ATOM     12  H   UNK d   1      10.666   6.237  -5.357  0.00  0.00     0.063 H 
ENDROOT
BRANCH   3  13
ATOM     13  C   UNK d   1      10.520   2.887  -8.536  0.00  0.00     0.247 C 
ATOM     14  O   UNK d   1      11.470   2.660  -9.260  0.00  0.00    -0.270 OA
ATOM     15  N   UNK d   1       9.708   1.880  -8.156  0.00  0.00    -0.294 N 
ATOM     16  C   UNK d   1       8.524   2.175  -7.365  0.00  0.00     0.042 C 
ATOM     17  C   UNK d   1      10.031   0.511  -8.540  0.00  0.00     0.031 C 
ATOM     18  C   UNK d   1       8.255   1.157  -6.300  0.00  0.00     0.118 C 
ATOM     19  H   UNK d   1       8.652   3.150  -6.893  0.00  0.00     0.049 H 
ATOM     20  H   UNK d   1       7.661   2.220  -8.028  0.00  0.00     0.049 H 
ATOM     21  N   UNK d   1       9.025  -0.070  -6.347  0.00  0.00    -0.285 N 
ATOM     22  H   UNK d   1       7.216   0.859  -6.444  0.00  0.00     0.061 H 
ATOM     23  C   UNK d   1       8.318   1.733  -4.906  0.00  0.00     0.236 C 
ATOM     24  C   UNK d   1      10.046  -0.396  -7.324  0.00  0.00     0.031 C 
ATOM     25  C   PHE d   2       8.782  -0.969  -5.342  0.00  0.00     0.237 C 
ATOM     26  H   UNK d   1       9.898  -1.424  -7.653  0.00  0.00     0.048 H 
ATOM     27  H   UNK d   1      11.023  -0.322  -6.845  0.00  0.00     0.048 H 
ATOM     28  CA  PHE d   2       7.808  -0.544  -4.264  0.00  0.00     0.100 C 
ATOM     29  O   PHE d   2       9.323  -2.055  -5.317  0.00  0.00    -0.274 OA
ATOM     30  N   PHE d   2       8.108   0.849  -3.887  0.00  0.00    -0.302 N 
ATOM     31  HA  PHE d   2       7.917  -1.191  -3.393  0.00  0.00     0.059 H 
ATOM     32  H   PHE d   2       8.156   1.126  -2.958  0.00  0.00     0.149 HD
ATOM     33  O   UNK d   1       8.541   2.908  -4.704  0.00  0.00    -0.274 OA
ATOM     34  H   UNK d   1       9.284   0.151  -9.247  0.00  0.00     0.048 H 
ATOM     35  H   UNK d   1      11.013   0.493  -9.013  0.00  0.00     0.048 H 
BRANCH  28  36
ATOM     36  CB  PHE d   2       6.376  -0.636  -4.797  0.00  0.00    -0.023 C 
ATOM     37  HB1 PHE d   2       6.163   0.238  -5.412  0.00  0.00     0.029 H 
ATOM     38  HB2 PHE d   2       6.270  -1.538  -5.398  0.00  0.00     0.029 H 
BRANCH  36  39
ATOM     39  CG  PHE d   2       5.397  -0.686  -3.623  0.00  0.00    -0.039 A 
ATOM     40  CD1 PHE d   2       4.309   0.371  -3.821  0.00  0.00    -0.050 A 
ATOM     41  CE1 PHE d   2       3.329   0.320  -2.647  0.00  0.00    -0.053 A 
ATOM     42 1HD1 PHE d   2       4.768   1.359  -3.870  0.00  0.00     0.027 H 
ATOM     43 2HD1 PHE d   2       3.775   0.173  -4.749  0.00  0.00     0.027 H 
ATOM     44  CZ  PHE d   2       2.686  -1.066  -2.579  0.00  0.00    -0.053 A 
ATOM     45 1HE1 PHE d   2       3.864   0.519  -1.718  0.00  0.00     0.026 H 
ATOM     46 2HE1 PHE d   2       2.554   1.074  -2.788  0.00  0.00     0.026 H 
ATOM     47  CE2 PHE d   2       3.774  -2.124  -2.382  0.00  0.00    -0.053 A 
ATOM     48  HZ1 PHE d   2       1.988  -1.102  -1.743  0.00  0.00     0.026 H 
ATOM     49  HZ2 PHE d   2       2.151  -1.264  -3.508  0.00  0.00     0.026 H 
ATOM     50  CD2 PHE d   2       4.754  -2.073  -3.556  0.00  0.00    -0.050 A 
ATOM     51 1HE2 PHE d   2       4.309  -1.925  -1.453  0.00  0.00     0.026 H 
ATOM     52 2HE2 PHE d   2       3.315  -3.112  -2.333  0.00  0.00     0.026 H 
ATOM     53 1HD2 PHE d   2       4.218  -2.272  -4.484  0.00  0.00     0.027 H 
ATOM     54 2HD2 PHE d   2       5.528  -2.827  -3.415  0.00  0.00     0.027 H 
ATOM     55  HG  PHE d   2       5.932  -0.489  -2.694  0.00  0.00     0.030 H 
ENDBRANCH  36  39
ENDBRANCH  28  36
ENDBRANCH   3  13
TORSDOF 3
ENDMDL
MODEL 7
REMARK VINA RESULT:      -6.4      4.759      7.944
REMARK  3 active torsions:
REMARK  status: ('A' for Active; 'I' for Inactive)
REMARK    1  A    between atoms: C_3  and  C_9 
REMARK       I    between atoms: C_9  and  N_11 
REMARK    2  A    between atoms: CA_21  and  CB_25 
REMARK    3  A    between atoms: CB_25  and  CG_26 
ROOT
ATOM      1  C   UNK d   1       3.456  -0.419 -11.921  0.00  0.00    -0.044 A 
ATOM      2  C   UNK d   1       4.501   0.223 -11.294  0.00  0.00    -0.048 A 
ATOM      3  C   UNK d   1       4.359   0.666  -9.977  0.00  0.00     0.037 A 
ATOM      4  C   UNK d   1       3.157   0.459  -9.297  0.00  0.00    -0.048 A 
ATOM      5  C   UNK d   1       2.112  -0.182  -9.924  0.00  0.00    -0.044 A 
ATOM      6  C   UNK d   1       2.254  -0.626 -11.241  0.00  0.00     0.052 A 
ATOM      7  C   UNK d   1       1.168  -1.293 -11.893  0.00  0.00     0.099 C 
ATOM      8  N   UNK d   1       0.306  -1.822 -12.410  0.00  0.00    -0.191 NA
ATOM      9  H   UNK d   1       3.568  -0.766 -12.938  0.00  0.00     0.063 H 
ATOM     10  H   UNK d   1       5.430   0.383 -11.821  0.00  0.00     0.062 H 
ATOM     11  H   UNK d   1       3.047   0.803  -8.280  0.00  0.00     0.062 H 
ATOM     12  H   UNK d   1       1.183  -0.342  -9.398  0.00  0.00     0.063 H 
ENDROOT
BRANCH   3  13
ATOM     13  C   UNK d   1       5.481   1.355  -9.304  0.00  0.00     0.247 C 
ATOM     14  O   UNK d   1       5.630   2.553  -9.444  0.00  0.00    -0.270 OA
ATOM     15  N   UNK d   1       6.338   0.654  -8.535  0.00  0.00    -0.294 N 
ATOM     16  C   UNK d   1       6.203  -0.791  -8.446  0.00  0.00     0.042 C 
ATOM     17  C   UNK d   1       7.383   1.357  -7.801  0.00  0.00     0.031 C 
ATOM     18  C   UNK d   1       6.454  -1.326  -7.070  0.00  0.00     0.118 C 
ATOM     19  H   UNK d   1       5.194  -1.068  -8.750  0.00  0.00     0.049 H 
ATOM     20  H   UNK d   1       6.913  -1.253  -9.132  0.00  0.00     0.049 H 
ATOM     21  N   UNK d   1       7.019  -0.410  -6.097  0.00  0.00    -0.285 N 
ATOM     22  H   UNK d   1       7.197  -2.113  -7.199  0.00  0.00     0.061 H 
ATOM     23  C   UNK d   1       5.246  -2.005  -6.474  0.00  0.00     0.236 C 
ATOM     24  C   UNK d   1       7.349   0.982  -6.331  0.00  0.00     0.031 C 
ATOM     25  C   PHE d   2       7.206  -0.917  -4.838  0.00  0.00     0.237 C 
ATOM     26  H   UNK d   1       8.326   1.187  -5.895  0.00  0.00     0.048 H 
ATOM     27  H   UNK d   1       6.608   1.605  -5.829  0.00  0.00     0.048 H 
ATOM     28  CA  PHE d   2       6.730  -2.332  -4.590  0.00  0.00     0.100 C 
ATOM     29  O   PHE d   2       7.730  -0.261  -3.962  0.00  0.00    -0.274 OA
ATOM     30  N   PHE d   2       5.401  -2.491  -5.207  0.00  0.00    -0.302 N 
ATOM     31  HA  PHE d   2       6.661  -2.515  -3.517  0.00  0.00     0.059 H 
ATOM     32  H   PHE d   2       4.670  -2.920  -4.735  0.00  0.00     0.149 HD
ATOM     33  O   UNK d   1       4.202  -2.113  -7.081  0.00  0.00    -0.274 OA
ATOM     34  H   UNK d   1       8.355   1.090  -8.216  0.00  0.00     0.048 H 
ATOM     35  H   UNK d   1       7.233   2.432  -7.901  0.00  0.00     0.048 H 
BRANCH  28  36
ATOM     36  CB  PHE d   2       7.712  -3.324  -5.219  0.00  0.00    -0.023 C 
ATOM     37  HB1 PHE d   2       7.212  -3.870  -6.019  0.00  0.00     0.029 H 
ATOM     38  HB2 PHE d   2       8.564  -2.782  -5.626  0.00  0.00     0.029 H 
BRANCH  36  39
ATOM     39  CG  PHE d   2       8.195  -4.309  -4.153  0.00  0.00    -0.039 A 
ATOM     40  CD1 PHE d   2       8.748  -5.564  -4.831  0.00  0.00    -0.050 A 
ATOM     41  CE1 PHE d   2       9.232  -6.548  -3.764  0.00  0.00    -0.053 A 
ATOM     42 1HD1 PHE d   2       7.964  -6.030  -5.427  0.00  0.00     0.027 H 
ATOM     43 2HD1 PHE d   2       9.581  -5.289  -5.477  0.00  0.00     0.027 H 
ATOM     44  CZ  PHE d   2      10.333  -5.894  -2.927  0.00  0.00    -0.053 A 
ATOM     45 1HE1 PHE d   2       8.398  -6.822  -3.118  0.00  0.00     0.026 H 
ATOM     46 2HE1 PHE d   2       9.625  -7.442  -4.247  0.00  0.00     0.026 H 
ATOM     47  CE2 PHE d   2       9.779  -4.639  -2.249  0.00  0.00    -0.053 A 
ATOM     48  HZ1 PHE d   2      10.677  -6.596  -2.168  0.00  0.00     0.026 H 
ATOM     49  HZ2 PHE d   2      11.166  -5.620  -3.574  0.00  0.00     0.026 H 
ATOM     50  CD2 PHE d   2       9.296  -3.654  -3.316  0.00  0.00    -0.050 A 
ATOM     51 1HE2 PHE d   2       8.945  -4.913  -1.603  0.00  0.00     0.026 H 
ATOM     52 2HE2 PHE d   2      10.564  -4.172  -1.653  0.00  0.00     0.026 H 
ATOM     53 1HD2 PHE d   2      10.130  -3.380  -3.962  0.00  0.00     0.027 H 
ATOM     54 2HD2 PHE d   2       8.902  -2.760  -2.832  0.00  0.00     0.027 H 
ATOM     55  HG  PHE d   2       7.361  -4.582  -3.505  0.00  0.00     0.030 H 
ENDBRANCH  36  39
ENDBRANCH  28  36
ENDBRANCH   3  13
TORSDOF 3
ENDMDL
MODEL 8
REMARK VINA RESULT:      -6.2      5.564      8.173
REMARK  3 active torsions:
REMARK  status: ('A' for Active; 'I' for Inactive)
REMARK    1  A    between atoms: C_3  and  C_9 
REMARK       I    between atoms: C_9  and  N_11 
REMARK    2  A    between atoms: CA_21  and  CB_25 
REMARK    3  A    between atoms: CB_25  and  CG_26 
ROOT
ATOM      1  C   UNK d   1      10.351  10.860   0.405  0.00  0.00    -0.044 A 
ATOM      2  C   UNK d   1      10.399   9.488   0.299  0.00  0.00    -0.048 A 
ATOM      3  C   UNK d   1      11.597   8.811   0.539  0.00  0.00     0.037 A 
ATOM      4  C   UNK d   1      12.745   9.525   0.886  0.00  0.00    -0.048 A 
ATOM      5  C   UNK d   1      12.697  10.898   0.991  0.00  0.00    -0.044 A 
ATOM      6  C   UNK d   1      11.499  11.576   0.752  0.00  0.00     0.052 A 
ATOM      7  C   UNK d   1      11.449  13.002   0.861  0.00  0.00     0.099 C 
ATOM      8  N   UNK d   1      11.410  14.134   0.949  0.00  0.00    -0.191 NA
ATOM      9  H   UNK d   1       9.423  11.384   0.224  0.00  0.00     0.063 H 
ATOM     10  H   UNK d   1       9.510   8.936   0.031  0.00  0.00     0.062 H 
ATOM     11  H   UNK d   1      13.671   9.001   1.070  0.00  0.00     0.062 H 
ATOM     12  H   UNK d   1      13.585  11.449   1.260  0.00  0.00     0.063 H 
ENDROOT
BRANCH   3  13
ATOM     13  C   UNK d   1      11.648   7.337   0.426  0.00  0.00     0.247 C 
ATOM     14  O   UNK d   1      11.614   6.650   1.428  0.00  0.00    -0.270 OA
ATOM     15  N   UNK d   1      11.730   6.757  -0.787  0.00  0.00    -0.294 N 
ATOM     16  C   UNK d   1      11.860   7.590  -1.972  0.00  0.00     0.042 C 
ATOM     17  C   UNK d   1      11.684   5.303  -0.893  0.00  0.00     0.031 C 
ATOM     18  C   UNK d   1      11.074   7.082  -3.142  0.00  0.00     0.118 C 
ATOM     19  H   UNK d   1      11.519   8.597  -1.732  0.00  0.00     0.049 H 
ATOM     20  H   UNK d   1      12.911   7.636  -2.256  0.00  0.00     0.049 H 
ATOM     21  N   UNK d   1      10.507   5.752  -3.031  0.00  0.00    -0.285 N 
ATOM     22  H   UNK d   1      11.785   7.032  -3.966  0.00  0.00     0.061 H 
ATOM     23  C   UNK d   1      10.004   8.046  -3.593  0.00  0.00     0.236 C 
ATOM     24  C   UNK d   1      10.619   4.873  -1.884  0.00  0.00     0.031 C 
ATOM     25  C   PHE d   2       9.765   5.327  -4.102  0.00  0.00     0.237 C 
ATOM     26  H   UNK d   1      10.854   3.869  -2.236  0.00  0.00     0.048 H 
ATOM     27  H   UNK d   1       9.657   4.844  -1.371  0.00  0.00     0.048 H 
ATOM     28  CA  PHE d   2       9.556   6.318  -5.227  0.00  0.00     0.100 C 
ATOM     29  O   PHE d   2       9.297   4.209  -4.145  0.00  0.00    -0.274 OA
ATOM     30  N   PHE d   2       9.231   7.630  -4.639  0.00  0.00    -0.302 N 
ATOM     31  HA  PHE d   2       8.733   5.986  -5.862  0.00  0.00     0.059 H 
ATOM     32  H   PHE d   2       8.503   8.172  -4.979  0.00  0.00     0.149 HD
ATOM     33  O   UNK d   1       9.838   9.122  -3.059  0.00  0.00    -0.274 OA
ATOM     34  H   UNK d   1      12.655   4.937  -1.229  0.00  0.00     0.048 H 
ATOM     35  H   UNK d   1      11.458   4.878   0.084  0.00  0.00     0.048 H 
BRANCH  28  36
ATOM     36  CB  PHE d   2      10.836   6.429  -6.060  0.00  0.00    -0.023 C 
ATOM     37  HB1 PHE d   2      11.255   7.428  -5.947  0.00  0.00     0.029 H 
ATOM     38  HB2 PHE d   2      11.558   5.690  -5.715  0.00  0.00     0.029 H 
BRANCH  36  39
ATOM     39  CG  PHE d   2      10.509   6.175  -7.533  0.00  0.00    -0.039 A 
ATOM     40  CD1 PHE d   2       9.735   4.862  -7.664  0.00  0.00    -0.050 A 
ATOM     41  CE1 PHE d   2       9.409   4.607  -9.137  0.00  0.00    -0.053 A 
ATOM     42 1HD1 PHE d   2      10.342   4.042  -7.279  0.00  0.00     0.027 H 
ATOM     43 2HD1 PHE d   2       8.810   4.927  -7.093  0.00  0.00     0.027 H 
ATOM     44  CZ  PHE d   2       8.556   5.758  -9.677  0.00  0.00    -0.053 A 
ATOM     45 1HE1 PHE d   2      10.335   4.541  -9.709  0.00  0.00     0.026 H 
ATOM     46 2HE1 PHE d   2       8.857   3.672  -9.231  0.00  0.00     0.026 H 
ATOM     47  CE2 PHE d   2       9.331   7.071  -9.545  0.00  0.00    -0.053 A 
ATOM     48  HZ1 PHE d   2       8.324   5.576 -10.726  0.00  0.00     0.026 H 
ATOM     49  HZ2 PHE d   2       7.630   5.823  -9.105  0.00  0.00     0.026 H 
ATOM     50  CD2 PHE d   2       9.657   7.325  -8.072  0.00  0.00    -0.050 A 
ATOM     51 1HE2 PHE d   2      10.257   7.005 -10.116  0.00  0.00     0.026 H 
ATOM     52 2HE2 PHE d   2       8.723   7.891  -9.930  0.00  0.00     0.026 H 
ATOM     53 1HD2 PHE d   2       8.731   7.391  -7.501  0.00  0.00     0.027 H 
ATOM     54 2HD2 PHE d   2      10.208   8.261  -7.979  0.00  0.00     0.027 H 
ATOM     55  HG  PHE d   2      11.435   6.110  -8.105  0.00  0.00     0.030 H 
ENDBRANCH  36  39
ENDBRANCH  28  36
ENDBRANCH   3  13
TORSDOF 3
ENDMDL
MODEL 9
REMARK VINA RESULT:      -6.2      5.255      8.706
REMARK  3 active torsions:
REMARK  status: ('A' for Active; 'I' for Inactive)
REMARK    1  A    between atoms: C_3  and  C_9 
REMARK       I    between atoms: C_9  and  N_11 
REMARK    2  A    between atoms: CA_21  and  CB_25 
REMARK    3  A    between atoms: CB_25  and  CG_26 
ROOT
ATOM      1  C   UNK d   1       9.094  11.762  -4.811  0.00  0.00    -0.044 A 
ATOM      2  C   UNK d   1       9.468  11.435  -3.527  0.00  0.00    -0.048 A 
ATOM      3  C   UNK d   1      10.699  11.865  -3.027  0.00  0.00     0.037 A 
ATOM      4  C   UNK d   1      11.552  12.624  -3.831  0.00  0.00    -0.048 A 
ATOM      5  C   UNK d   1      11.179  12.950  -5.116  0.00  0.00    -0.044 A 
ATOM      6  C   UNK d   1       9.947  12.521  -5.616  0.00  0.00     0.052 A 
ATOM      7  C   UNK d   1       9.559  12.859  -6.952  0.00  0.00     0.099 C 
ATOM      8  N   UNK d   1       9.251  13.128  -8.011  0.00  0.00    -0.191 NA
ATOM      9  H   UNK d   1       8.139  11.433  -5.196  0.00  0.00     0.063 H 
ATOM     10  H   UNK d   1       8.808  10.848  -2.905  0.00  0.00     0.062 H 
ATOM     11  H   UNK d   1      12.504  12.955  -3.445  0.00  0.00     0.062 H 
ATOM     12  H   UNK d   1      11.838  13.537  -5.737  0.00  0.00     0.063 H 
ENDROOT
BRANCH   3  13
ATOM     13  C   UNK d   1      11.099  11.516  -1.647  0.00  0.00     0.247 C 
ATOM     14  O   UNK d   1      11.009  12.342  -0.761  0.00  0.00    -0.270 OA
ATOM     15  N   UNK d   1      11.563  10.280  -1.372  0.00  0.00    -0.294 N 
ATOM     16  C   UNK d   1      11.751   9.328  -2.455  0.00  0.00     0.042 C 
ATOM     17  C   UNK d   1      11.865   9.917   0.007  0.00  0.00     0.031 C 
ATOM     18  C   UNK d   1      11.361   7.930  -2.088  0.00  0.00     0.118 C 
ATOM     19  H   UNK d   1      11.152   9.645  -3.308  0.00  0.00     0.049 H 
ATOM     20  H   UNK d   1      12.801   9.331  -2.746  0.00  0.00     0.049 H 
ATOM     21  N   UNK d   1      11.095   7.662  -0.688  0.00  0.00    -0.285 N 
ATOM     22  H   UNK d   1      12.224   7.314  -2.346  0.00  0.00     0.061 H 
ATOM     23  C   UNK d   1      10.224   7.397  -2.924  0.00  0.00     0.236 C 
ATOM     24  C   UNK d   1      11.155   8.631   0.389  0.00  0.00     0.031 C 
ATOM     25  C   PHE d   2      10.708   6.383  -0.386  0.00  0.00     0.237 C 
ATOM     26  H   UNK d   1      11.676   8.182   1.234  0.00  0.00     0.048 H 
ATOM     27  H   UNK d   1      10.137   8.873   0.698  0.00  0.00     0.048 H 
ATOM     28  CA  PHE d   2      10.526   5.430  -1.548  0.00  0.00     0.100 C 
ATOM     29  O   PHE d   2      10.521   6.031   0.760  0.00  0.00    -0.274 OA
ATOM     30  N   PHE d   2       9.802   6.135  -2.620  0.00  0.00    -0.302 N 
ATOM     31  HA  PHE d   2       9.951   4.561  -1.225  0.00  0.00     0.059 H 
ATOM     32  H   PHE d   2       9.059   5.722  -3.088  0.00  0.00     0.149 HD
ATOM     33  O   UNK d   1       9.714   8.050  -3.810  0.00  0.00    -0.274 OA
ATOM     34  H   UNK d   1      12.941   9.778   0.115  0.00  0.00     0.048 H 
ATOM     35  H   UNK d   1      11.538  10.718   0.670  0.00  0.00     0.048 H 
BRANCH  28  36
ATOM     36  CB  PHE d   2      11.895   4.977  -2.062  0.00  0.00    -0.023 C 
ATOM     37  HB1 PHE d   2      12.453   5.844  -2.416  0.00  0.00     0.029 H 
ATOM     38  HB2 PHE d   2      12.445   4.495  -1.255  0.00  0.00     0.029 H 
BRANCH  36  39
ATOM     39  CG  PHE d   2      11.706   3.987  -3.213  0.00  0.00    -0.039 A 
ATOM     40  CD1 PHE d   2      13.060   3.390  -3.601  0.00  0.00    -0.050 A 
ATOM     41  CE1 PHE d   2      12.870   2.400  -4.752  0.00  0.00    -0.053 A 
ATOM     42 1HD1 PHE d   2      13.733   4.189  -3.915  0.00  0.00     0.027 H 
ATOM     43 2HD1 PHE d   2      13.487   2.873  -2.742  0.00  0.00     0.027 H 
ATOM     44  CZ  PHE d   2      11.927   1.280  -4.310  0.00  0.00    -0.053 A 
ATOM     45 1HE1 PHE d   2      12.443   2.919  -5.610  0.00  0.00     0.026 H 
ATOM     46 2HE1 PHE d   2      13.835   1.975  -5.027  0.00  0.00     0.026 H 
ATOM     47  CE2 PHE d   2      10.572   1.877  -3.923  0.00  0.00    -0.053 A 
ATOM     48  HZ1 PHE d   2      11.792   0.575  -5.130  0.00  0.00     0.026 H 
ATOM     49  HZ2 PHE d   2      12.355   0.762  -3.452  0.00  0.00     0.026 H 
ATOM     50  CD2 PHE d   2      10.762   2.867  -2.772  0.00  0.00    -0.050 A 
ATOM     51 1HE2 PHE d   2      10.145   2.396  -4.781  0.00  0.00     0.026 H 
ATOM     52 2HE2 PHE d   2       9.900   1.078  -3.609  0.00  0.00     0.026 H 
ATOM     53 1HD2 PHE d   2      11.189   2.349  -1.913  0.00  0.00     0.027 H 
ATOM     54 2HD2 PHE d   2       9.797   3.292  -2.496  0.00  0.00     0.027 H 
ATOM     55  HG  PHE d   2      11.277   4.506  -4.072  0.00  0.00     0.030 H 
ENDBRANCH  36  39
ENDBRANCH  28  36
ENDBRANCH   3  13
TORSDOF 3
ENDMDL
MODEL 10
REMARK VINA RESULT:      -6.2      6.187      9.224
REMARK  3 active torsions:
REMARK  status: ('A' for Active; 'I' for Inactive)
REMARK    1  A    between atoms: C_3  and  C_9 
REMARK       I    between atoms: C_9  and  N_11 
REMARK    2  A    between atoms: CA_21  and  CB_25 
REMARK    3  A    between atoms: CB_25  and  CG_26 
ROOT
ATOM      1  C   UNK d   1       3.173  -0.683 -12.291  0.00  0.00    -0.044 A 
ATOM      2  C   UNK d   1       3.564  -0.178 -11.071  0.00  0.00    -0.048 A 
ATOM      3  C   UNK d   1       2.801  -0.440  -9.930  0.00  0.00     0.037 A 
ATOM      4  C   UNK d   1       1.642  -1.212 -10.028  0.00  0.00    -0.048 A 
ATOM      5  C   UNK d   1       1.250  -1.717 -11.248  0.00  0.00    -0.044 A 
ATOM      6  C   UNK d   1       2.013  -1.456 -12.389  0.00  0.00     0.052 A 
ATOM      7  C   UNK d   1       1.607  -1.980 -13.658  0.00  0.00     0.099 C 
ATOM      8  N   UNK d   1       1.284  -2.396 -14.664  0.00  0.00    -0.191 NA
ATOM      9  H   UNK d   1       3.766  -0.485 -13.173  0.00  0.00     0.063 H 
ATOM     10  H   UNK d   1       4.460   0.419 -10.996  0.00  0.00     0.062 H 
ATOM     11  H   UNK d   1       1.052  -1.413  -9.146  0.00  0.00     0.062 H 
ATOM     12  H   UNK d   1       0.355  -2.314 -11.323  0.00  0.00     0.063 H 
ENDROOT
BRANCH   3  13
ATOM     13  C   UNK d   1       3.222   0.101  -8.620  0.00  0.00     0.247 C 
ATOM     14  O   UNK d   1       2.771   1.160  -8.228  0.00  0.00    -0.270 OA
ATOM     15  N   UNK d   1       4.103  -0.579  -7.861  0.00  0.00    -0.294 N 
ATOM     16  C   UNK d   1       4.703  -1.798  -8.379  0.00  0.00     0.042 C 
ATOM     17  C   UNK d   1       4.439  -0.084  -6.531  0.00  0.00     0.031 C 
ATOM     18  C   UNK d   1       4.854  -2.870  -7.343  0.00  0.00     0.118 C 
ATOM     19  H   UNK d   1       4.080  -2.179  -9.188  0.00  0.00     0.049 H 
ATOM     20  H   UNK d   1       5.688  -1.562  -8.780  0.00  0.00     0.049 H 
ATOM     21  N   UNK d   1       4.627  -2.492  -5.962  0.00  0.00    -0.285 N 
ATOM     22  H   UNK d   1       5.899  -3.175  -7.397  0.00  0.00     0.061 H 
ATOM     23  C   UNK d   1       4.056  -4.110  -7.660  0.00  0.00     0.236 C 
ATOM     24  C   UNK d   1       4.250  -1.173  -5.492  0.00  0.00     0.031 C 
ATOM     25  C   PHE d   2       4.739  -3.499  -5.040  0.00  0.00     0.237 C 
ATOM     26  H   UNK d   1       4.852  -0.930  -4.617  0.00  0.00     0.048 H 
ATOM     27  H   UNK d   1       3.201  -1.195  -5.195  0.00  0.00     0.048 H 
ATOM     28  CA  PHE d   2       5.003  -4.891  -5.574  0.00  0.00     0.100 C 
ATOM     29  O   PHE d   2       4.632  -3.285  -3.850  0.00  0.00    -0.274 OA
ATOM     30  N   PHE d   2       4.129  -5.116  -6.740  0.00  0.00    -0.302 N 
ATOM     31  HA  PHE d   2       4.783  -5.630  -4.802  0.00  0.00     0.059 H 
ATOM     32  H   PHE d   2       3.628  -5.940  -6.848  0.00  0.00     0.149 HD
ATOM     33  O   UNK d   1       3.390  -4.208  -8.669  0.00  0.00    -0.274 OA
ATOM     34  H   UNK d   1       5.478   0.245  -6.522  0.00  0.00     0.048 H 
ATOM     35  H   UNK d   1       3.793   0.760  -6.288  0.00  0.00     0.048 H 
BRANCH  28  36
ATOM     36  CB  PHE d   2       6.469  -5.011  -5.998  0.00  0.00    -0.023 C 
ATOM     37  HB1 PHE d   2       6.603  -5.922  -6.581  0.00  0.00     0.029 H 
ATOM     38  HB2 PHE d   2       6.743  -4.148  -6.604  0.00  0.00     0.029 H 
BRANCH  36  39
ATOM     39  CG  PHE d   2       7.357  -5.064  -4.754  0.00  0.00    -0.039 A 
ATOM     40  CD1 PHE d   2       8.306  -6.259  -4.855  0.00  0.00    -0.050 A 
ATOM     41  CE1 PHE d   2       9.195  -6.312  -3.611  0.00  0.00    -0.053 A 
ATOM     42 1HD1 PHE d   2       7.725  -7.179  -4.927  0.00  0.00     0.027 H 
ATOM     43 2HD1 PHE d   2       8.929  -6.154  -5.743  0.00  0.00     0.027 H 
ATOM     44  CZ  PHE d   2      10.010  -5.021  -3.511  0.00  0.00    -0.053 A 
ATOM     45 1HE1 PHE d   2       8.571  -6.418  -2.723  0.00  0.00     0.026 H 
ATOM     46 2HE1 PHE d   2       9.870  -7.164  -3.683  0.00  0.00     0.026 H 
ATOM     47  CE2 PHE d   2       9.060  -3.826  -3.410  0.00  0.00    -0.053 A 
ATOM     48  HZ1 PHE d   2      10.643  -5.059  -2.625  0.00  0.00     0.026 H 
ATOM     49  HZ2 PHE d   2      10.634  -4.917  -4.399  0.00  0.00     0.026 H 
ATOM     50  CD2 PHE d   2       8.172  -3.773  -4.655  0.00  0.00    -0.050 A 
ATOM     51 1HE2 PHE d   2       8.437  -3.931  -2.522  0.00  0.00     0.026 H 
ATOM     52 2HE2 PHE d   2       9.642  -2.906  -3.338  0.00  0.00     0.026 H 
ATOM     53 1HD2 PHE d   2       8.796  -3.667  -5.542  0.00  0.00     0.027 H 
ATOM     54 2HD2 PHE d   2       7.496  -2.921  -4.582  0.00  0.00     0.027 H 
ATOM     55  HG  PHE d   2       6.733  -5.168  -3.866  0.00  0.00     0.030 H 
ENDBRANCH  36  39
ENDBRANCH  28  36
ENDBRANCH   3  13
TORSDOF 3
ENDMDL
