MODEL 1
REMARK VINA RESULT:      -7.1      0.000      0.000
REMARK  5 active torsions:
REMARK  status: ('A' for Active; 'I' for Inactive)
REMARK    1  A    between atoms: C_1  and  C_2 
REMARK    2  A    between atoms: C_3  and  C_23 
REMARK    3  A    between atoms: C_9  and  O_13 
REMARK    4  A    between atoms: O_13  and  C_14 
REMARK    5  A    between atoms: C_14  and  C_15 
ROOT
ATOM      1  C   LIG d   1       4.182  -0.139  -9.717  0.00  0.00     0.114 A 
ATOM      2  C   LIG d   1       3.558  -1.329  -9.923  0.00  0.00     0.067 A 
ATOM      3  C   LIG d   1       3.781  -2.420  -8.958  0.00  0.00     0.200 A 
ATOM      4  O   LIG d   1       3.249  -3.508  -9.090  0.00  0.00    -0.286 OA
ATOM      5  C   LIG d   1       4.679  -2.131  -7.824  0.00  0.00     0.065 A 
ATOM      6  C   LIG d   1       4.955  -3.097  -6.855  0.00  0.00    -0.044 A 
ATOM      7  C   LIG d   1       5.790  -2.797  -5.818  0.00  0.00    -0.019 A 
ATOM      8  C   LIG d   1       6.368  -1.532  -5.724  0.00  0.00     0.124 A 
ATOM      9  C   LIG d   1       6.104  -0.563  -6.678  0.00  0.00     0.023 A 
ATOM     10  C   LIG d   1       5.256  -0.852  -7.740  0.00  0.00     0.142 A 
ATOM     11  O   LIG d   1       4.984   0.080  -8.672  0.00  0.00    -0.459 OA
ATOM     12  H   LIG d   1       4.509  -4.078  -6.925  0.00  0.00     0.063 H 
ATOM     13  H   LIG d   1       6.005  -3.543  -5.067  0.00  0.00     0.065 H 
ATOM     14  H   LIG d   1       6.556   0.414  -6.597  0.00  0.00     0.069 H 
ENDROOT
BRANCH   8  15
ATOM     15  O   LIG d   1       7.197  -1.247  -4.688  0.00  0.00    -0.487 OA
BRANCH  15  16
ATOM     16  C   LIG d   1       6.708  -1.516  -3.372  0.00  0.00     0.119 C 
ATOM     17  H   LIG d   1       6.321  -2.534  -3.331  0.00  0.00     0.075 H 
ATOM     18  H   LIG d   1       7.521  -1.407  -2.654  0.00  0.00     0.075 H 
BRANCH  16  19
ATOM     19  C   LIG d   1       5.607  -0.544  -3.035  0.00  0.00     0.043 A 
ATOM     20  C   LIG d   1       4.335  -1.011  -2.757  0.00  0.00     0.050 A 
ATOM     21  C   LIG d   1       3.323  -0.118  -2.447  0.00  0.00    -0.043 A 
ATOM     22 CL   LIG d   1       4.007  -2.715  -2.796  0.00  0.00    -0.083 Cl
ATOM     23  C   LIG d   1       3.584   1.239  -2.416  0.00  0.00    -0.058 A 
ATOM     24  H   LIG d   1       2.330  -0.483  -2.231  0.00  0.00     0.063 H 
ATOM     25  C   LIG d   1       4.855   1.707  -2.695  0.00  0.00    -0.026 A 
ATOM     26  H   LIG d   1       2.794   1.934  -2.175  0.00  0.00     0.062 H 
ATOM     27  C   LIG d   1       5.869   0.814  -2.999  0.00  0.00     0.131 A 
ATOM     28  H   LIG d   1       5.057   2.767  -2.671  0.00  0.00     0.065 H 
ATOM     29  F   LIG d   1       7.112   1.270  -3.264  0.00  0.00    -0.205 F 
ENDBRANCH  16  19
ENDBRANCH  15  16
ENDBRANCH   8  15
BRANCH   1  30
ATOM     30  C   LIG d   1       3.955   0.976 -10.704  0.00  0.00    -0.006 C 
ATOM     31  H   LIG d   1       2.890   1.204 -10.756  0.00  0.00     0.031 H 
ATOM     32  H   LIG d   1       4.502   1.863 -10.383  0.00  0.00     0.031 H 
ATOM     33  H   LIG d   1       4.308   0.668 -11.689  0.00  0.00     0.031 H 
ENDBRANCH   1  30
BRANCH   2  34
ATOM     34  C   LIG d   1       2.672  -1.526 -11.095  0.00  0.00    -0.011 A 
ATOM     35  C   LIG d   1       3.194  -2.011 -12.293  0.00  0.00    -0.054 A 
ATOM     36  C   LIG d   1       2.365  -2.194 -13.380  0.00  0.00    -0.061 A 
ATOM     37  H   LIG d   1       4.247  -2.242 -12.370  0.00  0.00     0.062 H 
ATOM     38  C   LIG d   1       1.017  -1.898 -13.283  0.00  0.00    -0.062 A 
ATOM     39  H   LIG d   1       2.768  -2.569 -14.310  0.00  0.00     0.062 H 
ATOM     40  C   LIG d   1       0.493  -1.417 -12.096  0.00  0.00    -0.061 A 
ATOM     41  H   LIG d   1       0.371  -2.042 -14.137  0.00  0.00     0.062 H 
ATOM     42  C   LIG d   1       1.312  -1.235 -11.001  0.00  0.00    -0.054 A 
ATOM     43  H   LIG d   1      -0.560  -1.186 -12.026  0.00  0.00     0.062 H 
ATOM     44  H   LIG d   1       0.902  -0.865 -10.073  0.00  0.00     0.062 H 
ENDBRANCH   2  34
TORSDOF 5
ENDMDL
MODEL 2
REMARK VINA RESULT:      -6.8      5.850      9.828
REMARK  5 active torsions:
REMARK  status: ('A' for Active; 'I' for Inactive)
REMARK    1  A    between atoms: C_1  and  C_2 
REMARK    2  A    between atoms: C_3  and  C_23 
REMARK    3  A    between atoms: C_9  and  O_13 
REMARK    4  A    between atoms: O_13  and  C_14 
REMARK    5  A    between atoms: C_14  and  C_15 
ROOT
ATOM      1  C   LIG d   1      10.284   4.959  -2.660  0.00  0.00     0.114 A 
ATOM      2  C   LIG d   1      10.729   5.568  -3.790  0.00  0.00     0.067 A 
ATOM      3  C   LIG d   1      10.388   4.974  -5.095  0.00  0.00     0.200 A 
ATOM      4  O   LIG d   1      10.759   5.476  -6.141  0.00  0.00    -0.286 OA
ATOM      5  C   LIG d   1       9.577   3.743  -5.072  0.00  0.00     0.065 A 
ATOM      6  C   LIG d   1       9.202   3.101  -6.253  0.00  0.00    -0.044 A 
ATOM      7  C   LIG d   1       8.450   1.963  -6.197  0.00  0.00    -0.019 A 
ATOM      8  C   LIG d   1       8.058   1.440  -4.967  0.00  0.00     0.124 A 
ATOM      9  C   LIG d   1       8.423   2.064  -3.786  0.00  0.00     0.023 A 
ATOM     10  C   LIG d   1       9.188   3.223  -3.825  0.00  0.00     0.142 A 
ATOM     11  O   LIG d   1       9.546   3.846  -2.686  0.00  0.00    -0.459 OA
ATOM     12  H   LIG d   1       9.504   3.505  -7.209  0.00  0.00     0.063 H 
ATOM     13  H   LIG d   1       8.158   1.466  -7.111  0.00  0.00     0.065 H 
ATOM     14  H   LIG d   1       8.115   1.651  -2.837  0.00  0.00     0.069 H 
ENDROOT
BRANCH   8  15
ATOM     15  O   LIG d   1       7.311   0.307  -4.926  0.00  0.00    -0.487 OA
BRANCH  15  16
ATOM     16  C   LIG d   1       7.386  -0.479  -3.735  0.00  0.00     0.119 C 
ATOM     17  H   LIG d   1       7.991  -1.365  -3.923  0.00  0.00     0.075 H 
ATOM     18  H   LIG d   1       7.843   0.111  -2.939  0.00  0.00     0.075 H 
BRANCH  16  19
ATOM     19  C   LIG d   1       5.999  -0.894  -3.317  0.00  0.00     0.043 A 
ATOM     20  C   LIG d   1       5.532  -2.158  -3.633  0.00  0.00     0.050 A 
ATOM     21  C   LIG d   1       4.258  -2.540  -3.250  0.00  0.00    -0.043 A 
ATOM     22 CL   LIG d   1       6.544  -3.264  -4.510  0.00  0.00    -0.083 Cl
ATOM     23  C   LIG d   1       3.453  -1.659  -2.553  0.00  0.00    -0.058 A 
ATOM     24  H   LIG d   1       3.894  -3.526  -3.497  0.00  0.00     0.063 H 
ATOM     25  C   LIG d   1       3.917  -0.396  -2.237  0.00  0.00    -0.026 A 
ATOM     26  H   LIG d   1       2.459  -1.959  -2.255  0.00  0.00     0.062 H 
ATOM     27  C   LIG d   1       5.194  -0.015  -2.615  0.00  0.00     0.131 A 
ATOM     28  H   LIG d   1       3.288   0.291  -1.693  0.00  0.00     0.065 H 
ATOM     29  F   LIG d   1       5.651   1.216  -2.301  0.00  0.00    -0.205 F 
ENDBRANCH  16  19
ENDBRANCH  15  16
ENDBRANCH   8  15
BRANCH   1  30
ATOM     30  C   LIG d   1      10.632   5.566  -1.326  0.00  0.00    -0.006 C 
ATOM     31  H   LIG d   1      11.337   4.917  -0.805  0.00  0.00     0.031 H 
ATOM     32  H   LIG d   1      11.085   6.546  -1.479  0.00  0.00     0.031 H 
ATOM     33  H   LIG d   1       9.727   5.672  -0.727  0.00  0.00     0.031 H 
ENDBRANCH   1  30
BRANCH   2  34
ATOM     34  C   LIG d   1      11.541   6.806  -3.713  0.00  0.00    -0.011 A 
ATOM     35  C   LIG d   1      10.917   8.053  -3.707  0.00  0.00    -0.054 A 
ATOM     36  C   LIG d   1      11.678   9.202  -3.634  0.00  0.00    -0.061 A 
ATOM     37  H   LIG d   1       9.840   8.119  -3.760  0.00  0.00     0.062 H 
ATOM     38  C   LIG d   1      13.057   9.118  -3.566  0.00  0.00    -0.062 A 
ATOM     39  H   LIG d   1      11.196  10.168  -3.629  0.00  0.00     0.062 H 
ATOM     40  C   LIG d   1      13.682   7.883  -3.572  0.00  0.00    -0.061 A 
ATOM     41  H   LIG d   1      13.649  10.020  -3.510  0.00  0.00     0.062 H 
ATOM     42  C   LIG d   1      12.930   6.728  -3.639  0.00  0.00    -0.054 A 
ATOM     43  H   LIG d   1      14.759   7.823  -3.520  0.00  0.00     0.062 H 
ATOM     44  H   LIG d   1      13.418   5.764  -3.638  0.00  0.00     0.062 H 
ENDBRANCH   2  34
TORSDOF 5
ENDMDL
MODEL 3
REMARK VINA RESULT:      -6.7      2.404      3.445
REMARK  5 active torsions:
REMARK  status: ('A' for Active; 'I' for Inactive)
REMARK    1  A    between atoms: C_1  and  C_2 
REMARK    2  A    between atoms: C_3  and  C_23 
REMARK    3  A    between atoms: C_9  and  O_13 
REMARK    4  A    between atoms: O_13  and  C_14 
REMARK    5  A    between atoms: C_14  and  C_15 
ROOT
ATOM      1  C   LIG d   1       5.463  -0.840 -12.129  0.00  0.00     0.114 A 
ATOM      2  C   LIG d   1       4.236  -1.021 -12.683  0.00  0.00     0.067 A 
ATOM      3  C   LIG d   1       3.045  -0.879 -11.827  0.00  0.00     0.200 A 
ATOM      4  O   LIG d   1       1.920  -1.030 -12.268  0.00  0.00    -0.286 OA
ATOM      5  C   LIG d   1       3.282  -0.546 -10.410  0.00  0.00     0.065 A 
ATOM      6  C   LIG d   1       2.222  -0.389  -9.516  0.00  0.00    -0.044 A 
ATOM      7  C   LIG d   1       2.476  -0.079  -8.211  0.00  0.00    -0.019 A 
ATOM      8  C   LIG d   1       3.789   0.080  -7.769  0.00  0.00     0.124 A 
ATOM      9  C   LIG d   1       4.851  -0.073  -8.644  0.00  0.00     0.023 A 
ATOM     10  C   LIG d   1       4.610  -0.388  -9.975  0.00  0.00     0.142 A 
ATOM     11  O   LIG d   1       5.632  -0.534 -10.840  0.00  0.00    -0.459 OA
ATOM     12  H   LIG d   1       1.204  -0.512  -9.856  0.00  0.00     0.063 H 
ATOM     13  H   LIG d   1       1.657   0.043  -7.518  0.00  0.00     0.065 H 
ATOM     14  H   LIG d   1       5.864   0.052  -8.292  0.00  0.00     0.069 H 
ENDROOT
BRANCH   8  15
ATOM     15  O   LIG d   1       4.027   0.387  -6.469  0.00  0.00    -0.487 OA
BRANCH  15  16
ATOM     16  C   LIG d   1       2.985   0.103  -5.532  0.00  0.00     0.119 C 
ATOM     17  H   LIG d   1       2.212   0.866  -5.607  0.00  0.00     0.075 H 
ATOM     18  H   LIG d   1       2.555  -0.874  -5.754  0.00  0.00     0.075 H 
BRANCH  16  19
ATOM     19  C   LIG d   1       3.552   0.095  -4.136  0.00  0.00     0.043 A 
ATOM     20  C   LIG d   1       4.169  -1.042  -3.647  0.00  0.00     0.050 A 
ATOM     21  C   LIG d   1       4.690  -1.050  -2.365  0.00  0.00    -0.043 A 
ATOM     22 CL   LIG d   1       4.292  -2.460  -4.642  0.00  0.00    -0.083 Cl
ATOM     23  C   LIG d   1       4.592   0.079  -1.572  0.00  0.00    -0.058 A 
ATOM     24  H   LIG d   1       5.171  -1.938  -1.984  0.00  0.00     0.063 H 
ATOM     25  C   LIG d   1       3.974   1.215  -2.059  0.00  0.00    -0.026 A 
ATOM     26  H   LIG d   1       4.998   0.071  -0.571  0.00  0.00     0.062 H 
ATOM     27  C   LIG d   1       3.459   1.226  -3.344  0.00  0.00     0.131 A 
ATOM     28  H   LIG d   1       3.899   2.096  -1.439  0.00  0.00     0.065 H 
ATOM     29  F   LIG d   1       2.862   2.339  -3.823  0.00  0.00    -0.205 F 
ENDBRANCH  16  19
ENDBRANCH  15  16
ENDBRANCH   8  15
BRANCH   1  30
ATOM     30  C   LIG d   1       6.681  -0.987 -13.004  0.00  0.00    -0.006 C 
ATOM     31  H   LIG d   1       6.757  -2.017 -13.352  0.00  0.00     0.031 H 
ATOM     32  H   LIG d   1       6.595  -0.319 -13.861  0.00  0.00     0.031 H 
ATOM     33  H   LIG d   1       7.573  -0.731 -12.431  0.00  0.00     0.031 H 
ENDBRANCH   1  30
BRANCH   2  34
ATOM     34  C   LIG d   1       4.097  -1.356 -14.121  0.00  0.00    -0.011 A 
ATOM     35  C   LIG d   1       3.967  -2.686 -14.520  0.00  0.00    -0.054 A 
ATOM     36  C   LIG d   1       3.836  -2.992 -15.859  0.00  0.00    -0.061 A 
ATOM     37  H   LIG d   1       3.968  -3.475 -13.782  0.00  0.00     0.062 H 
ATOM     38  C   LIG d   1       3.833  -1.982 -16.805  0.00  0.00    -0.062 A 
ATOM     39  H   LIG d   1       3.735  -4.021 -16.170  0.00  0.00     0.062 H 
ATOM     40  C   LIG d   1       3.963  -0.661 -16.414  0.00  0.00    -0.061 A 
ATOM     41  H   LIG d   1       3.732  -2.227 -17.852  0.00  0.00     0.062 H 
ATOM     42  C   LIG d   1       4.088  -0.343 -15.078  0.00  0.00    -0.054 A 
ATOM     43  H   LIG d   1       3.962   0.123 -17.157  0.00  0.00     0.062 H 
ATOM     44  H   LIG d   1       4.184   0.689 -14.774  0.00  0.00     0.062 H 
ENDBRANCH   2  34
TORSDOF 5
ENDMDL
MODEL 4
REMARK VINA RESULT:      -6.7      4.898      7.156
REMARK  5 active torsions:
REMARK  status: ('A' for Active; 'I' for Inactive)
REMARK    1  A    between atoms: C_1  and  C_2 
REMARK    2  A    between atoms: C_3  and  C_23 
REMARK    3  A    between atoms: C_9  and  O_13 
REMARK    4  A    between atoms: O_13  and  C_14 
REMARK    5  A    between atoms: C_14  and  C_15 
ROOT
ATOM      1  C   LIG d   1       7.208  -8.058  -5.250  0.00  0.00     0.114 A 
ATOM      2  C   LIG d   1       5.997  -8.412  -5.754  0.00  0.00     0.067 A 
ATOM      3  C   LIG d   1       5.015  -7.352  -6.044  0.00  0.00     0.200 A 
ATOM      4  O   LIG d   1       3.914  -7.609  -6.497  0.00  0.00    -0.286 OA
ATOM      5  C   LIG d   1       5.430  -5.966  -5.760  0.00  0.00     0.065 A 
ATOM      6  C   LIG d   1       4.573  -4.891  -5.999  0.00  0.00    -0.044 A 
ATOM      7  C   LIG d   1       4.989  -3.620  -5.725  0.00  0.00    -0.019 A 
ATOM      8  C   LIG d   1       6.263  -3.393  -5.208  0.00  0.00     0.124 A 
ATOM      9  C   LIG d   1       7.124  -4.449  -4.965  0.00  0.00     0.023 A 
ATOM     10  C   LIG d   1       6.717  -5.749  -5.238  0.00  0.00     0.142 A 
ATOM     11  O   LIG d   1       7.544  -6.787  -5.012  0.00  0.00    -0.459 OA
ATOM     12  H   LIG d   1       3.585  -5.064  -6.400  0.00  0.00     0.063 H 
ATOM     13  H   LIG d   1       4.328  -2.786  -5.911  0.00  0.00     0.065 H 
ATOM     14  H   LIG d   1       8.109  -4.263  -4.563  0.00  0.00     0.069 H 
ENDROOT
BRANCH   8  15
ATOM     15  O   LIG d   1       6.663  -2.124  -4.940  0.00  0.00    -0.487 OA
BRANCH  15  16
ATOM     16  C   LIG d   1       6.864  -1.781  -3.568  0.00  0.00     0.119 C 
ATOM     17  H   LIG d   1       6.835  -2.685  -2.960  0.00  0.00     0.075 H 
ATOM     18  H   LIG d   1       7.835  -1.298  -3.453  0.00  0.00     0.075 H 
BRANCH  16  19
ATOM     19  C   LIG d   1       5.779  -0.837  -3.120  0.00  0.00     0.043 A 
ATOM     20  C   LIG d   1       5.996   0.529  -3.148  0.00  0.00     0.050 A 
ATOM     21  C   LIG d   1       4.999   1.397  -2.737  0.00  0.00    -0.043 A 
ATOM     22 CL   LIG d   1       7.518   1.156  -3.702  0.00  0.00    -0.083 Cl
ATOM     23  C   LIG d   1       3.787   0.899  -2.296  0.00  0.00    -0.058 A 
ATOM     24  H   LIG d   1       5.169   2.463  -2.760  0.00  0.00     0.063 H 
ATOM     25  C   LIG d   1       3.570  -0.466  -2.265  0.00  0.00    -0.026 A 
ATOM     26  H   LIG d   1       3.011   1.577  -1.974  0.00  0.00     0.062 H 
ATOM     27  C   LIG d   1       4.564  -1.335  -2.683  0.00  0.00     0.131 A 
ATOM     28  H   LIG d   1       2.623  -0.854  -1.921  0.00  0.00     0.065 H 
ATOM     29  F   LIG d   1       4.349  -2.668  -2.659  0.00  0.00    -0.205 F 
ENDBRANCH  16  19
ENDBRANCH  15  16
ENDBRANCH   8  15
BRANCH   1  30
ATOM     30  C   LIG d   1       8.213  -9.141  -4.952  0.00  0.00    -0.006 C 
ATOM     31  H   LIG d   1       7.845  -9.762  -4.135  0.00  0.00     0.031 H 
ATOM     32  H   LIG d   1       8.358  -9.756  -5.840  0.00  0.00     0.031 H 
ATOM     33  H   LIG d   1       9.162  -8.687  -4.664  0.00  0.00     0.031 H 
ENDBRANCH   1  30
BRANCH   2  34
ATOM     34  C   LIG d   1       5.670  -9.835  -6.006  0.00  0.00    -0.011 A 
ATOM     35  C   LIG d   1       6.004 -10.425  -7.225  0.00  0.00    -0.054 A 
ATOM     36  C   LIG d   1       5.698 -11.750  -7.454  0.00  0.00    -0.061 A 
ATOM     37  H   LIG d   1       6.502  -9.844  -7.988  0.00  0.00     0.062 H 
ATOM     38  C   LIG d   1       5.060 -12.494  -6.478  0.00  0.00    -0.062 A 
ATOM     39  H   LIG d   1       5.956 -12.208  -8.398  0.00  0.00     0.062 H 
ATOM     40  C   LIG d   1       4.725 -11.915  -5.266  0.00  0.00    -0.061 A 
ATOM     41  H   LIG d   1       4.821 -13.532  -6.662  0.00  0.00     0.062 H 
ATOM     42  C   LIG d   1       5.032 -10.592  -5.024  0.00  0.00    -0.054 A 
ATOM     43  H   LIG d   1       4.227 -12.500  -4.508  0.00  0.00     0.062 H 
ATOM     44  H   LIG d   1       4.776 -10.142  -4.077  0.00  0.00     0.062 H 
ENDBRANCH   2  34
TORSDOF 5
ENDMDL
MODEL 5
REMARK VINA RESULT:      -6.7      3.664      8.816
REMARK  5 active torsions:
REMARK  status: ('A' for Active; 'I' for Inactive)
REMARK    1  A    between atoms: C_1  and  C_2 
REMARK    2  A    between atoms: C_3  and  C_23 
REMARK    3  A    between atoms: C_9  and  O_13 
REMARK    4  A    between atoms: O_13  and  C_14 
REMARK    5  A    between atoms: C_14  and  C_15 
ROOT
ATOM      1  C   LIG d   1       5.787  -0.829  -6.465  0.00  0.00     0.114 A 
ATOM      2  C   LIG d   1       4.639  -0.537  -5.799  0.00  0.00     0.067 A 
ATOM      3  C   LIG d   1       3.475  -0.063  -6.569  0.00  0.00     0.200 A 
ATOM      4  O   LIG d   1       2.421   0.215  -6.027  0.00  0.00    -0.286 OA
ATOM      5  C   LIG d   1       3.650   0.059  -8.028  0.00  0.00     0.065 A 
ATOM      6  C   LIG d   1       2.609   0.499  -8.847  0.00  0.00    -0.044 A 
ATOM      7  C   LIG d   1       2.804   0.600 -10.195  0.00  0.00    -0.019 A 
ATOM      8  C   LIG d   1       4.037   0.267 -10.754  0.00  0.00     0.124 A 
ATOM      9  C   LIG d   1       5.078  -0.170  -9.955  0.00  0.00     0.023 A 
ATOM     10  C   LIG d   1       4.897  -0.279  -8.582  0.00  0.00     0.142 A 
ATOM     11  O   LIG d   1       5.899  -0.709  -7.791  0.00  0.00    -0.459 OA
ATOM     12  H   LIG d   1       1.653   0.758  -8.417  0.00  0.00     0.063 H 
ATOM     13  H   LIG d   1       2.000   0.940 -10.830  0.00  0.00     0.065 H 
ATOM     14  H   LIG d   1       6.030  -0.426 -10.397  0.00  0.00     0.069 H 
ENDROOT
BRANCH   8  15
ATOM     15  O   LIG d   1       4.216   0.373 -12.095  0.00  0.00    -0.487 OA
BRANCH  15  16
ATOM     16  C   LIG d   1       4.708  -0.782 -12.778  0.00  0.00     0.119 C 
ATOM     17  H   LIG d   1       5.590  -0.512 -13.358  0.00  0.00     0.075 H 
ATOM     18  H   LIG d   1       4.973  -1.549 -12.050  0.00  0.00     0.075 H 
BRANCH  16  19
ATOM     19  C   LIG d   1       3.642  -1.314 -13.700  0.00  0.00     0.043 A 
ATOM     20  C   LIG d   1       3.697  -1.035 -15.054  0.00  0.00     0.050 A 
ATOM     21  C   LIG d   1       2.718  -1.524 -15.902  0.00  0.00    -0.043 A 
ATOM     22 CL   LIG d   1       4.995  -0.074 -15.691  0.00  0.00    -0.083 Cl
ATOM     23  C   LIG d   1       1.684  -2.289 -15.395  0.00  0.00    -0.058 A 
ATOM     24  H   LIG d   1       2.762  -1.306 -16.958  0.00  0.00     0.063 H 
ATOM     25  C   LIG d   1       1.626  -2.567 -14.042  0.00  0.00    -0.026 A 
ATOM     26  H   LIG d   1       0.920  -2.669 -16.057  0.00  0.00     0.062 H 
ATOM     27  C   LIG d   1       2.609  -2.084 -13.195  0.00  0.00     0.131 A 
ATOM     28  H   LIG d   1       0.818  -3.165 -13.648  0.00  0.00     0.065 H 
ATOM     29  F   LIG d   1       2.557  -2.362 -11.874  0.00  0.00    -0.205 F 
ENDBRANCH  16  19
ENDBRANCH  15  16
ENDBRANCH   8  15
BRANCH   1  30
ATOM     30  C   LIG d   1       6.977  -1.313  -5.678  0.00  0.00    -0.006 C 
ATOM     31  H   LIG d   1       6.639  -1.976  -4.881  0.00  0.00     0.031 H 
ATOM     32  H   LIG d   1       7.654  -1.854  -6.339  0.00  0.00     0.031 H 
ATOM     33  H   LIG d   1       7.497  -0.459  -5.243  0.00  0.00     0.031 H 
ENDBRANCH   1  30
BRANCH   2  34
ATOM     34  C   LIG d   1       4.559  -0.690  -4.327  0.00  0.00    -0.011 A 
ATOM     35  C   LIG d   1       4.887   0.378  -3.493  0.00  0.00    -0.054 A 
ATOM     36  C   LIG d   1       4.809   0.230  -2.124  0.00  0.00    -0.061 A 
ATOM     37  H   LIG d   1       5.202   1.319  -3.919  0.00  0.00     0.062 H 
ATOM     38  C   LIG d   1       4.405  -0.975  -1.577  0.00  0.00    -0.062 A 
ATOM     39  H   LIG d   1       5.063   1.056  -1.476  0.00  0.00     0.062 H 
ATOM     40  C   LIG d   1       4.078  -2.039  -2.400  0.00  0.00    -0.061 A 
ATOM     41  H   LIG d   1       4.347  -1.087  -0.504  0.00  0.00     0.062 H 
ATOM     42  C   LIG d   1       4.148  -1.900  -3.771  0.00  0.00    -0.054 A 
ATOM     43  H   LIG d   1       3.765  -2.978  -1.968  0.00  0.00     0.062 H 
ATOM     44  H   LIG d   1       3.887  -2.729  -4.412  0.00  0.00     0.062 H 
ENDBRANCH   2  34
TORSDOF 5
ENDMDL
MODEL 6
REMARK VINA RESULT:      -6.6      3.669      8.533
REMARK  5 active torsions:
REMARK  status: ('A' for Active; 'I' for Inactive)
REMARK    1  A    between atoms: C_1  and  C_2 
REMARK    2  A    between atoms: C_3  and  C_23 
REMARK    3  A    between atoms: C_9  and  O_13 
REMARK    4  A    between atoms: O_13  and  C_14 
REMARK    5  A    between atoms: C_14  and  C_15 
ROOT
ATOM      1  C   LIG d   1       4.464  -1.966  -6.200  0.00  0.00     0.114 A 
ATOM      2  C   LIG d   1       4.015  -0.740  -5.822  0.00  0.00     0.067 A 
ATOM      3  C   LIG d   1       3.298   0.086  -6.810  0.00  0.00     0.200 A 
ATOM      4  O   LIG d   1       2.872   1.192  -6.529  0.00  0.00    -0.286 OA
ATOM      5  C   LIG d   1       3.121  -0.492  -8.155  0.00  0.00     0.065 A 
ATOM      6  C   LIG d   1       2.456   0.209  -9.162  0.00  0.00    -0.044 A 
ATOM      7  C   LIG d   1       2.308  -0.355 -10.396  0.00  0.00    -0.019 A 
ATOM      8  C   LIG d   1       2.819  -1.626 -10.654  0.00  0.00     0.124 A 
ATOM      9  C   LIG d   1       3.481  -2.333  -9.666  0.00  0.00     0.023 A 
ATOM     10  C   LIG d   1       3.640  -1.774  -8.404  0.00  0.00     0.142 A 
ATOM     11  O   LIG d   1       4.276  -2.452  -7.430  0.00  0.00    -0.459 OA
ATOM     12  H   LIG d   1       2.059   1.194  -8.965  0.00  0.00     0.063 H 
ATOM     13  H   LIG d   1       1.793   0.186 -11.177  0.00  0.00     0.065 H 
ATOM     14  H   LIG d   1       3.873  -3.317  -9.875  0.00  0.00     0.069 H 
ENDROOT
BRANCH   8  15
ATOM     15  O   LIG d   1       2.665  -2.174 -11.886  0.00  0.00    -0.487 OA
BRANCH  15  16
ATOM     16  C   LIG d   1       2.514  -3.593 -11.952  0.00  0.00     0.119 C 
ATOM     17  H   LIG d   1       2.872  -3.952 -12.917  0.00  0.00     0.075 H 
ATOM     18  H   LIG d   1       3.096  -4.057 -11.154  0.00  0.00     0.075 H 
BRANCH  16  19
ATOM     19  C   LIG d   1       1.061  -3.954 -11.787  0.00  0.00     0.043 A 
ATOM     20  C   LIG d   1       0.141  -3.574 -12.748  0.00  0.00     0.050 A 
ATOM     21  C   LIG d   1      -1.194  -3.905 -12.598  0.00  0.00    -0.043 A 
ATOM     22 CL   LIG d   1       0.663  -2.685 -14.145  0.00  0.00    -0.083 Cl
ATOM     23  C   LIG d   1      -1.610  -4.613 -11.486  0.00  0.00    -0.058 A 
ATOM     24  H   LIG d   1      -1.911  -3.609 -13.349  0.00  0.00     0.063 H 
ATOM     25  C   LIG d   1      -0.693  -4.992 -10.523  0.00  0.00    -0.026 A 
ATOM     26  H   LIG d   1      -2.652  -4.870 -11.369  0.00  0.00     0.062 H 
ATOM     27  C   LIG d   1       0.645  -4.667 -10.676  0.00  0.00     0.131 A 
ATOM     28  H   LIG d   1      -1.018  -5.545  -9.655  0.00  0.00     0.065 H 
ATOM     29  F   LIG d   1       1.542  -5.043  -9.740  0.00  0.00    -0.205 F 
ENDBRANCH  16  19
ENDBRANCH  15  16
ENDBRANCH   8  15
BRANCH   1  30
ATOM     30  C   LIG d   1       5.198  -2.810  -5.191  0.00  0.00    -0.006 C 
ATOM     31  H   LIG d   1       4.570  -3.651  -4.896  0.00  0.00     0.031 H 
ATOM     32  H   LIG d   1       6.122  -3.183  -5.632  0.00  0.00     0.031 H 
ATOM     33  H   LIG d   1       5.431  -2.207  -4.313  0.00  0.00     0.031 H 
ENDBRANCH   1  30
BRANCH   2  34
ATOM     34  C   LIG d   1       4.242  -0.243  -4.444  0.00  0.00    -0.011 A 
ATOM     35  C   LIG d   1       3.224  -0.325  -3.494  0.00  0.00    -0.054 A 
ATOM     36  C   LIG d   1       3.441   0.138  -2.213  0.00  0.00    -0.061 A 
ATOM     37  H   LIG d   1       2.268  -0.750  -3.762  0.00  0.00     0.062 H 
ATOM     38  C   LIG d   1       4.666   0.683  -1.870  0.00  0.00    -0.062 A 
ATOM     39  H   LIG d   1       2.654   0.075  -1.476  0.00  0.00     0.062 H 
ATOM     40  C   LIG d   1       5.679   0.768  -2.809  0.00  0.00    -0.061 A 
ATOM     41  H   LIG d   1       4.831   1.046  -0.866  0.00  0.00     0.062 H 
ATOM     42  C   LIG d   1       5.475   0.302  -4.091  0.00  0.00    -0.054 A 
ATOM     43  H   LIG d   1       6.632   1.195  -2.536  0.00  0.00     0.062 H 
ATOM     44  H   LIG d   1       6.268   0.363  -4.822  0.00  0.00     0.062 H 
ENDBRANCH   2  34
TORSDOF 5
ENDMDL
MODEL 7
REMARK VINA RESULT:      -6.6      3.703      8.948
REMARK  5 active torsions:
REMARK  status: ('A' for Active; 'I' for Inactive)
REMARK    1  A    between atoms: C_1  and  C_2 
REMARK    2  A    between atoms: C_3  and  C_23 
REMARK    3  A    between atoms: C_9  and  O_13 
REMARK    4  A    between atoms: O_13  and  C_14 
REMARK    5  A    between atoms: C_14  and  C_15 
ROOT
ATOM      1  C   LIG d   1       4.292  -1.906  -6.210  0.00  0.00     0.114 A 
ATOM      2  C   LIG d   1       3.908  -0.649  -5.865  0.00  0.00     0.067 A 
ATOM      3  C   LIG d   1       3.165   0.159  -6.849  0.00  0.00     0.200 A 
ATOM      4  O   LIG d   1       2.795   1.291  -6.596  0.00  0.00    -0.286 OA
ATOM      5  C   LIG d   1       2.891  -0.471  -8.153  0.00  0.00     0.065 A 
ATOM      6  C   LIG d   1       2.194   0.208  -9.154  0.00  0.00    -0.044 A 
ATOM      7  C   LIG d   1       1.957  -0.404 -10.350  0.00  0.00    -0.019 A 
ATOM      8  C   LIG d   1       2.408  -1.703 -10.577  0.00  0.00     0.124 A 
ATOM      9  C   LIG d   1       3.100  -2.390  -9.595  0.00  0.00     0.023 A 
ATOM     10  C   LIG d   1       3.350  -1.782  -8.371  0.00  0.00     0.142 A 
ATOM     11  O   LIG d   1       4.018  -2.439  -7.403  0.00  0.00    -0.459 OA
ATOM     12  H   LIG d   1       1.844   1.216  -8.981  0.00  0.00     0.063 H 
ATOM     13  H   LIG d   1       1.418   0.121 -11.125  0.00  0.00     0.065 H 
ATOM     14  H   LIG d   1       3.446  -3.397  -9.779  0.00  0.00     0.069 H 
ENDROOT
BRANCH   8  15
ATOM     15  O   LIG d   1       2.165  -2.300 -11.771  0.00  0.00    -0.487 OA
BRANCH  15  16
ATOM     16  C   LIG d   1       3.297  -2.764 -12.509  0.00  0.00     0.119 C 
ATOM     17  H   LIG d   1       4.198  -2.637 -11.908  0.00  0.00     0.075 H 
ATOM     18  H   LIG d   1       3.166  -3.819 -12.749  0.00  0.00     0.075 H 
BRANCH  16  19
ATOM     19  C   LIG d   1       3.427  -1.972 -13.784  0.00  0.00     0.043 A 
ATOM     20  C   LIG d   1       4.295  -0.897 -13.845  0.00  0.00     0.050 A 
ATOM     21  C   LIG d   1       4.414  -0.170 -15.017  0.00  0.00    -0.043 A 
ATOM     22 CL   LIG d   1       5.236  -0.461 -12.453  0.00  0.00    -0.083 Cl
ATOM     23  C   LIG d   1       3.664  -0.516 -16.125  0.00  0.00    -0.058 A 
ATOM     24  H   LIG d   1       5.092   0.670 -15.064  0.00  0.00     0.063 H 
ATOM     25  C   LIG d   1       2.795  -1.590 -16.065  0.00  0.00    -0.026 A 
ATOM     26  H   LIG d   1       3.758   0.052 -17.038  0.00  0.00     0.062 H 
ATOM     27  C   LIG d   1       2.680  -2.322 -14.896  0.00  0.00     0.131 A 
ATOM     28  H   LIG d   1       2.210  -1.860 -16.932  0.00  0.00     0.065 H 
ATOM     29  F   LIG d   1       1.836  -3.375 -14.839  0.00  0.00    -0.205 F 
ENDBRANCH  16  19
ENDBRANCH  15  16
ENDBRANCH   8  15
BRANCH   1  30
ATOM     30  C   LIG d   1       5.053  -2.731  -5.205  0.00  0.00    -0.006 C 
ATOM     31  H   LIG d   1       5.865  -2.136  -4.786  0.00  0.00     0.031 H 
ATOM     32  H   LIG d   1       4.380  -3.042  -4.406  0.00  0.00     0.031 H 
ATOM     33  H   LIG d   1       5.466  -3.612  -5.697  0.00  0.00     0.031 H 
ENDBRANCH   1  30
BRANCH   2  34
ATOM     34  C   LIG d   1       4.231  -0.099  -4.527  0.00  0.00    -0.011 A 
ATOM     35  C   LIG d   1       5.530   0.315  -4.235  0.00  0.00    -0.054 A 
ATOM     36  C   LIG d   1       5.824   0.827  -2.988  0.00  0.00    -0.061 A 
ATOM     37  H   LIG d   1       6.304   0.236  -4.984  0.00  0.00     0.062 H 
ATOM     38  C   LIG d   1       4.833   0.930  -2.028  0.00  0.00    -0.062 A 
ATOM     39  H   LIG d   1       6.830   1.149  -2.760  0.00  0.00     0.062 H 
ATOM     40  C   LIG d   1       3.542   0.519  -2.312  0.00  0.00    -0.061 A 
ATOM     41  H   LIG d   1       5.068   1.330  -1.052  0.00  0.00     0.062 H 
ATOM     42  C   LIG d   1       3.236   0.011  -3.557  0.00  0.00    -0.054 A 
ATOM     43  H   LIG d   1       2.773   0.600  -1.558  0.00  0.00     0.062 H 
ATOM     44  H   LIG d   1       2.227  -0.304  -3.779  0.00  0.00     0.062 H 
ENDBRANCH   2  34
TORSDOF 5
ENDMDL
MODEL 8
REMARK VINA RESULT:      -6.6      2.499      3.734
REMARK  5 active torsions:
REMARK  status: ('A' for Active; 'I' for Inactive)
REMARK    1  A    between atoms: C_1  and  C_2 
REMARK    2  A    between atoms: C_3  and  C_23 
REMARK    3  A    between atoms: C_9  and  O_13 
REMARK    4  A    between atoms: O_13  and  C_14 
REMARK    5  A    between atoms: C_14  and  C_15 
ROOT
ATOM      1  C   LIG d   1       2.053  -3.815 -10.458  0.00  0.00     0.114 A 
ATOM      2  C   LIG d   1       1.274  -3.036 -11.253  0.00  0.00     0.067 A 
ATOM      3  C   LIG d   1       1.241  -1.584 -11.006  0.00  0.00     0.200 A 
ATOM      4  O   LIG d   1       0.561  -0.835 -11.686  0.00  0.00    -0.286 OA
ATOM      5  C   LIG d   1       2.069  -1.080  -9.895  0.00  0.00     0.065 A 
ATOM      6  C   LIG d   1       2.107   0.278  -9.578  0.00  0.00    -0.044 A 
ATOM      7  C   LIG d   1       2.886   0.712  -8.544  0.00  0.00    -0.019 A 
ATOM      8  C   LIG d   1       3.640  -0.197  -7.803  0.00  0.00     0.124 A 
ATOM      9  C   LIG d   1       3.613  -1.547  -8.105  0.00  0.00     0.023 A 
ATOM     10  C   LIG d   1       2.826  -2.005  -9.155  0.00  0.00     0.142 A 
ATOM     11  O   LIG d   1       2.793  -3.315  -9.465  0.00  0.00    -0.459 OA
ATOM     12  H   LIG d   1       1.523   0.985 -10.150  0.00  0.00     0.063 H 
ATOM     13  H   LIG d   1       2.917   1.763  -8.298  0.00  0.00     0.065 H 
ATOM     14  H   LIG d   1       4.201  -2.244  -7.526  0.00  0.00     0.069 H 
ENDROOT
BRANCH   8  15
ATOM     15  O   LIG d   1       4.409   0.248  -6.777  0.00  0.00    -0.487 OA
BRANCH  15  16
ATOM     16  C   LIG d   1       4.769  -0.704  -5.774  0.00  0.00     0.119 C 
ATOM     17  H   LIG d   1       4.130  -1.582  -5.862  0.00  0.00     0.075 H 
ATOM     18  H   LIG d   1       5.810  -0.998  -5.909  0.00  0.00     0.075 H 
BRANCH  16  19
ATOM     19  C   LIG d   1       4.594  -0.088  -4.410  0.00  0.00     0.043 A 
ATOM     20  C   LIG d   1       5.702   0.178  -3.625  0.00  0.00     0.050 A 
ATOM     21  C   LIG d   1       5.542   0.744  -2.372  0.00  0.00    -0.043 A 
ATOM     22 CL   LIG d   1       7.293  -0.195  -4.213  0.00  0.00    -0.083 Cl
ATOM     23  C   LIG d   1       4.276   1.041  -1.904  0.00  0.00    -0.058 A 
ATOM     24  H   LIG d   1       6.408   0.952  -1.761  0.00  0.00     0.063 H 
ATOM     25  C   LIG d   1       3.168   0.774  -2.686  0.00  0.00    -0.026 A 
ATOM     26  H   LIG d   1       4.153   1.481  -0.926  0.00  0.00     0.062 H 
ATOM     27  C   LIG d   1       3.327   0.214  -3.943  0.00  0.00     0.131 A 
ATOM     28  H   LIG d   1       2.180   1.006  -2.320  0.00  0.00     0.065 H 
ATOM     29  F   LIG d   1       2.246  -0.041  -4.710  0.00  0.00    -0.205 F 
ENDBRANCH  16  19
ENDBRANCH  15  16
ENDBRANCH   8  15
BRANCH   1  30
ATOM     30  C   LIG d   1       2.087  -5.300 -10.711  0.00  0.00    -0.006 C 
ATOM     31  H   LIG d   1       1.521  -5.528 -11.615  0.00  0.00     0.031 H 
ATOM     32  H   LIG d   1       3.120  -5.624 -10.836  0.00  0.00     0.031 H 
ATOM     33  H   LIG d   1       1.642  -5.823  -9.863  0.00  0.00     0.031 H 
ENDBRANCH   1  30
BRANCH   2  34
ATOM     34  C   LIG d   1       0.473  -3.634 -12.348  0.00  0.00    -0.011 A 
ATOM     35  C   LIG d   1       1.002  -3.721 -13.635  0.00  0.00    -0.054 A 
ATOM     36  C   LIG d   1       0.253  -4.280 -14.650  0.00  0.00    -0.061 A 
ATOM     37  H   LIG d   1       1.997  -3.352 -13.837  0.00  0.00     0.062 H 
ATOM     38  C   LIG d   1      -1.021  -4.753 -14.392  0.00  0.00    -0.062 A 
ATOM     39  H   LIG d   1       0.662  -4.349 -15.647  0.00  0.00     0.062 H 
ATOM     40  C   LIG d   1      -1.552  -4.669 -13.117  0.00  0.00    -0.061 A 
ATOM     41  H   LIG d   1      -1.605  -5.189 -15.190  0.00  0.00     0.062 H 
ATOM     42  C   LIG d   1      -0.809  -4.117 -12.093  0.00  0.00    -0.054 A 
ATOM     43  H   LIG d   1      -2.548  -5.038 -12.922  0.00  0.00     0.062 H 
ATOM     44  H   LIG d   1      -1.222  -4.056 -11.097  0.00  0.00     0.062 H 
ENDBRANCH   2  34
TORSDOF 5
ENDMDL
MODEL 9
REMARK VINA RESULT:      -6.5      6.254      8.830
REMARK  5 active torsions:
REMARK  status: ('A' for Active; 'I' for Inactive)
REMARK    1  A    between atoms: C_1  and  C_2 
REMARK    2  A    between atoms: C_3  and  C_23 
REMARK    3  A    between atoms: C_9  and  O_13 
REMARK    4  A    between atoms: O_13  and  C_14 
REMARK    5  A    between atoms: C_14  and  C_15 
ROOT
ATOM      1  C   LIG d   1       9.672   5.228  -7.568  0.00  0.00     0.114 A 
ATOM      2  C   LIG d   1      10.031   6.100  -6.590  0.00  0.00     0.067 A 
ATOM      3  C   LIG d   1       9.983   5.649  -5.188  0.00  0.00     0.200 A 
ATOM      4  O   LIG d   1      10.293   6.387  -4.269  0.00  0.00    -0.286 OA
ATOM      5  C   LIG d   1       9.542   4.262  -4.951  0.00  0.00     0.065 A 
ATOM      6  C   LIG d   1       9.463   3.739  -3.660  0.00  0.00    -0.044 A 
ATOM      7  C   LIG d   1       9.052   2.450  -3.475  0.00  0.00    -0.019 A 
ATOM      8  C   LIG d   1       8.710   1.657  -4.570  0.00  0.00     0.124 A 
ATOM      9  C   LIG d   1       8.784   2.163  -5.856  0.00  0.00     0.023 A 
ATOM     10  C   LIG d   1       9.201   3.472  -6.062  0.00  0.00     0.142 A 
ATOM     11  O   LIG d   1       9.284   3.977  -7.308  0.00  0.00    -0.459 OA
ATOM     12  H   LIG d   1       9.726   4.351  -2.809  0.00  0.00     0.063 H 
ATOM     13  H   LIG d   1       8.990   2.043  -2.476  0.00  0.00     0.065 H 
ATOM     14  H   LIG d   1       8.518   1.541  -6.698  0.00  0.00     0.069 H 
ENDROOT
BRANCH   8  15
ATOM     15  O   LIG d   1       8.303   0.378  -4.371  0.00  0.00    -0.487 OA
BRANCH  15  16
ATOM     16  C   LIG d   1       7.035   0.008  -4.915  0.00  0.00     0.119 C 
ATOM     17  H   LIG d   1       6.637   0.835  -5.502  0.00  0.00     0.075 H 
ATOM     18  H   LIG d   1       7.156  -0.867  -5.555  0.00  0.00     0.075 H 
BRANCH  16  19
ATOM     19  C   LIG d   1       6.082  -0.319  -3.794  0.00  0.00     0.043 A 
ATOM     20  C   LIG d   1       5.718  -1.632  -3.557  0.00  0.00     0.050 A 
ATOM     21  C   LIG d   1       4.844  -1.933  -2.527  0.00  0.00    -0.043 A 
ATOM     22 CL   LIG d   1       6.360  -2.904  -4.550  0.00  0.00    -0.083 Cl
ATOM     23  C   LIG d   1       4.332  -0.920  -1.737  0.00  0.00    -0.058 A 
ATOM     24  H   LIG d   1       4.560  -2.958  -2.343  0.00  0.00     0.063 H 
ATOM     25  C   LIG d   1       4.693   0.393  -1.974  0.00  0.00    -0.026 A 
ATOM     26  H   LIG d   1       3.649  -1.156  -0.935  0.00  0.00     0.062 H 
ATOM     27  C   LIG d   1       5.574   0.694  -2.999  0.00  0.00     0.131 A 
ATOM     28  H   LIG d   1       4.294   1.183  -1.356  0.00  0.00     0.065 H 
ATOM     29  F   LIG d   1       5.933   1.976  -3.226  0.00  0.00    -0.205 F 
ENDBRANCH  16  19
ENDBRANCH  15  16
ENDBRANCH   8  15
BRANCH   1  30
ATOM     30  C   LIG d   1       9.720   5.688  -9.002  0.00  0.00    -0.006 C 
ATOM     31  H   LIG d   1      10.347   5.010  -9.580  0.00  0.00     0.031 H 
ATOM     32  H   LIG d   1       8.712   5.694  -9.415  0.00  0.00     0.031 H 
ATOM     33  H   LIG d   1      10.138   6.695  -9.046  0.00  0.00     0.031 H 
ENDBRANCH   1  30
BRANCH   2  34
ATOM     34  C   LIG d   1      10.460   7.478  -6.926  0.00  0.00    -0.011 A 
ATOM     35  C   LIG d   1       9.518   8.501  -7.024  0.00  0.00    -0.054 A 
ATOM     36  C   LIG d   1       9.923   9.782  -7.335  0.00  0.00    -0.061 A 
ATOM     37  H   LIG d   1       8.472   8.290  -6.855  0.00  0.00     0.062 H 
ATOM     38  C   LIG d   1      11.263  10.053  -7.550  0.00  0.00    -0.062 A 
ATOM     39  H   LIG d   1       9.194  10.576  -7.411  0.00  0.00     0.062 H 
ATOM     40  C   LIG d   1      12.203   9.042  -7.455  0.00  0.00    -0.061 A 
ATOM     41  H   LIG d   1      11.576  11.059  -7.795  0.00  0.00     0.062 H 
ATOM     42  C   LIG d   1      11.809   7.759  -7.139  0.00  0.00    -0.054 A 
ATOM     43  H   LIG d   1      13.247   9.260  -7.625  0.00  0.00     0.062 H 
ATOM     44  H   LIG d   1      12.544   6.972  -7.059  0.00  0.00     0.062 H 
ENDBRANCH   2  34
TORSDOF 5
ENDMDL
MODEL 10
REMARK VINA RESULT:      -6.5      6.470     11.086
REMARK  5 active torsions:
REMARK  status: ('A' for Active; 'I' for Inactive)
REMARK    1  A    between atoms: C_1  and  C_2 
REMARK    2  A    between atoms: C_3  and  C_23 
REMARK    3  A    between atoms: C_9  and  O_13 
REMARK    4  A    between atoms: O_13  and  C_14 
REMARK    5  A    between atoms: C_14  and  C_15 
ROOT
ATOM      1  C   LIG d   1      10.653   5.803  -1.071  0.00  0.00     0.114 A 
ATOM      2  C   LIG d   1      10.291   6.824  -1.890  0.00  0.00     0.067 A 
ATOM      3  C   LIG d   1       9.861   6.511  -3.264  0.00  0.00     0.200 A 
ATOM      4  O   LIG d   1       9.525   7.386  -4.043  0.00  0.00    -0.286 OA
ATOM      5  C   LIG d   1       9.857   5.088  -3.650  0.00  0.00     0.065 A 
ATOM      6  C   LIG d   1       9.467   4.686  -4.929  0.00  0.00    -0.044 A 
ATOM      7  C   LIG d   1       9.474   3.361  -5.254  0.00  0.00    -0.019 A 
ATOM      8  C   LIG d   1       9.870   2.409  -4.316  0.00  0.00     0.124 A 
ATOM      9  C   LIG d   1      10.260   2.792  -3.044  0.00  0.00     0.023 A 
ATOM     10  C   LIG d   1      10.259   4.137  -2.696  0.00  0.00     0.142 A 
ATOM     11  O   LIG d   1      10.630   4.526  -1.461  0.00  0.00    -0.459 OA
ATOM     12  H   LIG d   1       9.160   5.422  -5.658  0.00  0.00     0.063 H 
ATOM     13  H   LIG d   1       9.172   3.048  -6.242  0.00  0.00     0.065 H 
ATOM     14  H   LIG d   1      10.565   2.047  -2.324  0.00  0.00     0.069 H 
ENDROOT
BRANCH   8  15
ATOM     15  O   LIG d   1       9.873   1.094  -4.653  0.00  0.00    -0.487 OA
BRANCH  15  16
ATOM     16  C   LIG d   1       8.787   0.627  -5.455  0.00  0.00     0.119 C 
ATOM     17  H   LIG d   1       8.250   1.479  -5.871  0.00  0.00     0.075 H 
ATOM     18  H   LIG d   1       9.175   0.011  -6.267  0.00  0.00     0.075 H 
BRANCH  16  19
ATOM     19  C   LIG d   1       7.850  -0.194  -4.607  0.00  0.00     0.043 A 
ATOM     20  C   LIG d   1       7.913  -1.575  -4.646  0.00  0.00     0.050 A 
ATOM     21  C   LIG d   1       7.053  -2.329  -3.867  0.00  0.00    -0.043 A 
ATOM     22 CL   LIG d   1       9.072  -2.363  -5.671  0.00  0.00    -0.083 Cl
ATOM     23  C   LIG d   1       6.130  -1.703  -3.051  0.00  0.00    -0.058 A 
ATOM     24  H   LIG d   1       7.103  -3.408  -3.898  0.00  0.00     0.063 H 
ATOM     25  C   LIG d   1       6.064  -0.322  -3.012  0.00  0.00    -0.026 A 
ATOM     26  H   LIG d   1       5.458  -2.292  -2.445  0.00  0.00     0.062 H 
ATOM     27  C   LIG d   1       6.929   0.433  -3.786  0.00  0.00     0.131 A 
ATOM     28  H   LIG d   1       5.343   0.166  -2.374  0.00  0.00     0.065 H 
ATOM     29  F   LIG d   1       6.870   1.782  -3.743  0.00  0.00    -0.205 F 
ENDBRANCH  16  19
ENDBRANCH  15  16
ENDBRANCH   8  15
BRANCH   1  30
ATOM     30  C   LIG d   1      11.094   6.123   0.334  0.00  0.00    -0.006 C 
ATOM     31  H   LIG d   1      10.606   7.039   0.667  0.00  0.00     0.031 H 
ATOM     32  H   LIG d   1      10.819   5.302   0.997  0.00  0.00     0.031 H 
ATOM     33  H   LIG d   1      12.175   6.261   0.353  0.00  0.00     0.031 H 
ENDBRANCH   1  30
BRANCH   2  34
ATOM     34  C   LIG d   1      10.329   8.227  -1.412  0.00  0.00    -0.011 A 
ATOM     35  C   LIG d   1      11.496   8.980  -1.540  0.00  0.00    -0.054 A 
ATOM     36  C   LIG d   1      11.524  10.285  -1.095  0.00  0.00    -0.061 A 
ATOM     37  H   LIG d   1      12.375   8.541  -1.988  0.00  0.00     0.062 H 
ATOM     38  C   LIG d   1      10.398  10.848  -0.521  0.00  0.00    -0.062 A 
ATOM     39  H   LIG d   1      12.427  10.869  -1.194  0.00  0.00     0.062 H 
ATOM     40  C   LIG d   1       9.237  10.106  -0.391  0.00  0.00    -0.061 A 
ATOM     41  H   LIG d   1      10.425  11.870  -0.173  0.00  0.00     0.062 H 
ATOM     42  C   LIG d   1       9.196   8.801  -0.838  0.00  0.00    -0.054 A 
ATOM     43  H   LIG d   1       8.361  10.550   0.059  0.00  0.00     0.062 H 
ATOM     44  H   LIG d   1       8.288   8.225  -0.741  0.00  0.00     0.062 H 
ENDBRANCH   2  34
TORSDOF 5
ENDMDL
