MODEL 1
REMARK VINA RESULT:      -7.8      0.000      0.000
REMARK  4 active torsions:
REMARK  status: ('A' for Active; 'I' for Inactive)
REMARK    1  A    between atoms: C_1  and  C_2 
REMARK    2  A    between atoms: C_7  and  C_8 
REMARK    3  A    between atoms: C_13  and  C_31 
REMARK    4  A    between atoms: C_31  and  C_33 
ROOT
ATOM      1  C   LIG d   1       8.672  -5.531  -4.194  0.00  0.00    -0.046 A 
ATOM      2  C   LIG d   1       7.951  -5.843  -5.331  0.00  0.00    -0.058 A 
ATOM      3  C   LIG d   1       7.496  -4.831  -6.158  0.00  0.00    -0.054 A 
ATOM      4  C   LIG d   1       7.760  -3.516  -5.845  0.00  0.00     0.004 A 
ATOM      5  C   LIG d   1       8.484  -3.190  -4.703  0.00  0.00     0.042 A 
ATOM      6  C   LIG d   1       8.933  -4.215  -3.874  0.00  0.00    -0.026 A 
ATOM      7  N   LIG d   1       8.622  -1.804  -4.600  0.00  0.00    -0.283 N 
ATOM      8  C   LIG d   1       8.029  -1.156  -5.619  0.00  0.00     0.243 A 
ATOM      9  O   LIG d   1       7.991   0.044  -5.788  0.00  0.00    -0.273 OA
ATOM     10  C   LIG d   1       7.421  -2.209  -6.512  0.00  0.00     0.138 A 
ATOM     11  C   LIG d   1       5.901  -2.025  -6.607  0.00  0.00     0.073 C 
ATOM     12  H   LIG d   1       5.389  -2.911  -6.232  0.00  0.00     0.042 H 
ATOM     13  C   LIG d   1       5.614  -1.838  -8.101  0.00  0.00     0.102 A 
ATOM     14  C   LIG d   1       4.607  -0.749  -8.339  0.00  0.00    -0.009 A 
ATOM     15  C   LIG d   1       4.572   0.594  -8.035  0.00  0.00    -0.056 A 
ATOM     16  C   LIG d   1       3.476   1.358  -8.395  0.00  0.00    -0.061 A 
ATOM     17  C   LIG d   1       2.418   0.770  -9.062  0.00  0.00    -0.060 A 
ATOM     18  C   LIG d   1       2.448  -0.575  -9.369  0.00  0.00    -0.040 A 
ATOM     19  C   LIG d   1       3.547  -1.351  -9.010  0.00  0.00     0.038 A 
ATOM     20  N   LIG d   1       3.809  -2.709  -9.207  0.00  0.00    -0.284 N 
ATOM     21  C   LIG d   1       5.004  -3.074  -8.703  0.00  0.00     0.230 A 
ATOM     22  O   LIG d   1       5.492  -4.184  -8.730  0.00  0.00    -0.274 OA
ATOM     23  C   LIG d   1       6.965  -1.507  -8.744  0.00  0.00     0.030 C 
ATOM     24  H   LIG d   1       7.118  -0.431  -8.821  0.00  0.00     0.048 H 
ATOM     25  N   LIG d   1       7.982  -2.143  -7.865  0.00  0.00    -0.280 N 
ATOM     26  C   LIG d   1       8.191  -3.505  -8.412  0.00  0.00     0.001 C 
ATOM     27  C   LIG d   1       8.157  -3.283  -9.944  0.00  0.00    -0.039 C 
ATOM     28  C   LIG d   1       7.054  -2.190 -10.121  0.00  0.00    -0.035 C 
ATOM     29  H   LIG d   1       7.745  -6.875  -5.575  0.00  0.00     0.062 H 
ATOM     30  H   LIG d   1       6.933  -5.072  -7.048  0.00  0.00     0.062 H 
ATOM     31  H   LIG d   1       9.092  -1.360  -3.876  0.00  0.00     0.155 HD
ATOM     32  H   LIG d   1       5.401   1.051  -7.514  0.00  0.00     0.062 H 
ATOM     33  H   LIG d   1       3.449   2.411  -8.157  0.00  0.00     0.062 H 
ATOM     34  H   LIG d   1       1.561   1.366  -9.344  0.00  0.00     0.062 H 
ATOM     35  H   LIG d   1       1.616  -1.027  -9.890  0.00  0.00     0.064 H 
ATOM     36  H   LIG d   1       3.201  -3.318  -9.653  0.00  0.00     0.155 HD
ATOM     37  H   LIG d   1       9.159  -3.899  -8.101  0.00  0.00     0.043 H 
ATOM     38  H   LIG d   1       7.386  -4.172  -8.101  0.00  0.00     0.043 H 
ATOM     39  H   LIG d   1       9.119  -2.914 -10.302  0.00  0.00     0.028 H 
ATOM     40  H   LIG d   1       7.878  -4.201 -10.461  0.00  0.00     0.028 H 
ATOM     41  H   LIG d   1       6.099  -2.648 -10.378  0.00  0.00     0.028 H 
ATOM     42  H   LIG d   1       7.345  -1.468 -10.883  0.00  0.00     0.028 H 
ENDROOT
BRANCH  11  43
ATOM     43  C   LIG d   1       5.472  -0.806  -5.833  0.00  0.00     0.170 C 
ATOM     44  O   LIG d   1       5.892   0.288  -6.143  0.00  0.00    -0.292 OA
BRANCH  43  45
ATOM     45  C   LIG d   1       4.542  -0.943  -4.700  0.00  0.00     0.018 A 
ATOM     46  C   LIG d   1       4.825  -1.841  -3.665  0.00  0.00    -0.051 A 
ATOM     47  C   LIG d   1       3.951  -1.960  -2.604  0.00  0.00    -0.061 A 
ATOM     48  H   LIG d   1       5.725  -2.436  -3.694  0.00  0.00     0.062 H 
ATOM     49  C   LIG d   1       2.793  -1.203  -2.568  0.00  0.00    -0.062 A 
ATOM     50  H   LIG d   1       4.169  -2.650  -1.803  0.00  0.00     0.062 H 
ATOM     51  C   LIG d   1       2.505  -0.317  -3.591  0.00  0.00    -0.061 A 
ATOM     52  H   LIG d   1       2.111  -1.305  -1.736  0.00  0.00     0.062 H 
ATOM     53  C   LIG d   1       3.370  -0.182  -4.655  0.00  0.00    -0.051 A 
ATOM     54  H   LIG d   1       1.600   0.271  -3.554  0.00  0.00     0.062 H 
ATOM     55  H   LIG d   1       3.145   0.511  -5.453  0.00  0.00     0.062 H 
ENDBRANCH  43  45
ENDBRANCH  11  43
BRANCH   6  56
ATOM     56  C   LIG d   1       9.714  -3.885  -2.627  0.00  0.00    -0.038 C 
ATOM     57  H   LIG d   1       9.059  -3.391  -1.909  0.00  0.00     0.028 H 
ATOM     58  H   LIG d   1      10.106  -4.803  -2.191  0.00  0.00     0.028 H 
ATOM     59  H   LIG d   1      10.540  -3.221  -2.881  0.00  0.00     0.028 H 
ENDBRANCH   6  56
BRANCH   1  60
ATOM     60  C   LIG d   1       9.168  -6.633  -3.293  0.00  0.00    -0.039 C 
ATOM     61  H   LIG d   1       9.102  -7.587  -3.816  0.00  0.00     0.028 H 
ATOM     62  H   LIG d   1      10.205  -6.439  -3.021  0.00  0.00     0.028 H 
ATOM     63  H   LIG d   1       8.557  -6.669  -2.393  0.00  0.00     0.028 H 
ENDBRANCH   1  60
TORSDOF 4
ENDMDL
MODEL 2
REMARK VINA RESULT:      -7.8      1.752      5.539
REMARK  4 active torsions:
REMARK  status: ('A' for Active; 'I' for Inactive)
REMARK    1  A    between atoms: C_1  and  C_2 
REMARK    2  A    between atoms: C_7  and  C_8 
REMARK    3  A    between atoms: C_13  and  C_31 
REMARK    4  A    between atoms: C_31  and  C_33 
ROOT
ATOM      1  C   LIG d   1       9.482  -1.793 -10.261  0.00  0.00    -0.046 A 
ATOM      2  C   LIG d   1       9.924  -1.304  -9.046  0.00  0.00    -0.058 A 
ATOM      3  C   LIG d   1       9.104  -1.381  -7.933  0.00  0.00    -0.054 A 
ATOM      4  C   LIG d   1       7.851  -1.943  -8.040  0.00  0.00     0.004 A 
ATOM      5  C   LIG d   1       7.396  -2.437  -9.257  0.00  0.00     0.042 A 
ATOM      6  C   LIG d   1       8.226  -2.351 -10.373  0.00  0.00    -0.026 A 
ATOM      7  N   LIG d   1       6.106  -2.953  -9.115  0.00  0.00    -0.283 N 
ATOM      8  C   LIG d   1       5.648  -2.840  -7.855  0.00  0.00     0.243 A 
ATOM      9  O   LIG d   1       4.567  -3.203  -7.444  0.00  0.00    -0.273 OA
ATOM     10  C   LIG d   1       6.739  -2.177  -7.051  0.00  0.00     0.138 A 
ATOM     11  C   LIG d   1       6.246  -0.849  -6.463  0.00  0.00     0.073 C 
ATOM     12  H   LIG d   1       6.850  -0.023  -6.835  0.00  0.00     0.042 H 
ATOM     13  C   LIG d   1       6.419  -0.995  -4.947  0.00  0.00     0.102 A 
ATOM     14  C   LIG d   1       5.239  -0.445  -4.199  0.00  0.00    -0.009 A 
ATOM     15  C   LIG d   1       3.893  -0.740  -4.201  0.00  0.00    -0.056 A 
ATOM     16  C   LIG d   1       3.030  -0.040  -3.377  0.00  0.00    -0.061 A 
ATOM     17  C   LIG d   1       3.520   0.955  -2.553  0.00  0.00    -0.060 A 
ATOM     18  C   LIG d   1       4.867   1.255  -2.548  0.00  0.00    -0.040 A 
ATOM     19  C   LIG d   1       5.743   0.555  -3.373  0.00  0.00     0.038 A 
ATOM     20  N   LIG d   1       7.125   0.671  -3.544  0.00  0.00    -0.284 N 
ATOM     21  C   LIG d   1       7.600  -0.206  -4.451  0.00  0.00     0.230 A 
ATOM     22  O   LIG d   1       8.755  -0.332  -4.798  0.00  0.00    -0.274 OA
ATOM     23  C   LIG d   1       6.598  -2.495  -4.693  0.00  0.00     0.030 C 
ATOM     24  H   LIG d   1       5.651  -2.976  -4.450  0.00  0.00     0.048 H 
ATOM     25  N   LIG d   1       7.181  -3.037  -5.949  0.00  0.00    -0.280 N 
ATOM     26  C   LIG d   1       8.652  -2.955  -5.779  0.00  0.00     0.001 C 
ATOM     27  C   LIG d   1       8.861  -3.353  -4.298  0.00  0.00    -0.039 C 
ATOM     28  C   LIG d   1       7.638  -2.701  -3.576  0.00  0.00    -0.035 C 
ATOM     29  H   LIG d   1      10.907  -0.864  -8.964  0.00  0.00     0.062 H 
ATOM     30  H   LIG d   1       9.447  -1.000  -6.982  0.00  0.00     0.062 H 
ATOM     31  H   LIG d   1       5.599  -3.348  -9.843  0.00  0.00     0.155 HD
ATOM     32  H   LIG d   1       3.512  -1.519  -4.846  0.00  0.00     0.062 H 
ATOM     33  H   LIG d   1       1.975  -0.272  -3.378  0.00  0.00     0.062 H 
ATOM     34  H   LIG d   1       2.845   1.502  -1.909  0.00  0.00     0.062 H 
ATOM     35  H   LIG d   1       5.242   2.035  -1.901  0.00  0.00     0.064 H 
ATOM     36  H   LIG d   1       7.678   1.308  -3.066  0.00  0.00     0.155 HD
ATOM     37  H   LIG d   1       9.156  -3.658  -6.442  0.00  0.00     0.043 H 
ATOM     38  H   LIG d   1       9.004  -1.938  -5.958  0.00  0.00     0.043 H 
ATOM     39  H   LIG d   1       8.838  -4.438  -4.183  0.00  0.00     0.028 H 
ATOM     40  H   LIG d   1       9.798  -2.945  -3.917  0.00  0.00     0.028 H 
ATOM     41  H   LIG d   1       7.918  -1.743  -3.139  0.00  0.00     0.028 H 
ATOM     42  H   LIG d   1       7.243  -3.366  -2.809  0.00  0.00     0.028 H 
ENDROOT
BRANCH  11  43
ATOM     43  C   LIG d   1       4.795  -0.632  -6.806  0.00  0.00     0.170 C 
ATOM     44  O   LIG d   1       3.947  -1.368  -6.352  0.00  0.00    -0.292 OA
BRANCH  43  45
ATOM     45  C   LIG d   1       4.407   0.476  -7.695  0.00  0.00     0.018 A 
ATOM     46  C   LIG d   1       3.088   0.941  -7.703  0.00  0.00    -0.051 A 
ATOM     47  C   LIG d   1       2.734   1.984  -8.534  0.00  0.00    -0.061 A 
ATOM     48  H   LIG d   1       2.350   0.489  -7.059  0.00  0.00     0.062 H 
ATOM     49  C   LIG d   1       3.678   2.561  -9.367  0.00  0.00    -0.062 A 
ATOM     50  H   LIG d   1       1.718   2.347  -8.540  0.00  0.00     0.062 H 
ATOM     51  C   LIG d   1       4.983   2.102  -9.367  0.00  0.00    -0.061 A 
ATOM     52  H   LIG d   1       3.393   3.374 -10.019  0.00  0.00     0.062 H 
ATOM     53  C   LIG d   1       5.354   1.065  -8.539  0.00  0.00    -0.051 A 
ATOM     54  H   LIG d   1       5.714   2.559 -10.019  0.00  0.00     0.062 H 
ATOM     55  H   LIG d   1       6.374   0.709  -8.540  0.00  0.00     0.062 H 
ENDBRANCH  43  45
ENDBRANCH  11  43
BRANCH   6  56
ATOM     56  C   LIG d   1       7.751  -2.874 -11.704  0.00  0.00    -0.038 C 
ATOM     57  H   LIG d   1       6.855  -2.333 -12.008  0.00  0.00     0.028 H 
ATOM     58  H   LIG d   1       8.532  -2.732 -12.450  0.00  0.00     0.028 H 
ATOM     59  H   LIG d   1       7.521  -3.936 -11.616  0.00  0.00     0.028 H 
ENDBRANCH   6  56
BRANCH   1  60
ATOM     60  C   LIG d   1      10.375  -1.709 -11.473  0.00  0.00    -0.039 C 
ATOM     61  H   LIG d   1      11.400  -1.519 -11.156  0.00  0.00     0.028 H 
ATOM     62  H   LIG d   1      10.331  -2.651 -12.020  0.00  0.00     0.028 H 
ATOM     63  H   LIG d   1      10.037  -0.899 -12.117  0.00  0.00     0.028 H 
ENDBRANCH   1  60
TORSDOF 4
ENDMDL
MODEL 3
REMARK VINA RESULT:      -7.8      1.695      6.081
REMARK  4 active torsions:
REMARK  status: ('A' for Active; 'I' for Inactive)
REMARK    1  A    between atoms: C_1  and  C_2 
REMARK    2  A    between atoms: C_7  and  C_8 
REMARK    3  A    between atoms: C_13  and  C_31 
REMARK    4  A    between atoms: C_31  and  C_33 
ROOT
ATOM      1  C   LIG d   1       4.631   1.463  -8.843  0.00  0.00    -0.046 A 
ATOM      2  C   LIG d   1       6.013   1.438  -8.850  0.00  0.00    -0.058 A 
ATOM      3  C   LIG d   1       6.685   0.342  -8.335  0.00  0.00    -0.054 A 
ATOM      4  C   LIG d   1       5.976  -0.718  -7.817  0.00  0.00     0.004 A 
ATOM      5  C   LIG d   1       4.585  -0.704  -7.804  0.00  0.00     0.042 A 
ATOM      6  C   LIG d   1       3.917   0.404  -8.319  0.00  0.00    -0.026 A 
ATOM      7  N   LIG d   1       4.097  -1.881  -7.233  0.00  0.00    -0.283 N 
ATOM      8  C   LIG d   1       5.086  -2.710  -6.851  0.00  0.00     0.243 A 
ATOM      9  O   LIG d   1       4.956  -3.797  -6.330  0.00  0.00    -0.273 OA
ATOM     10  C   LIG d   1       6.386  -2.028  -7.197  0.00  0.00     0.138 A 
ATOM     11  C   LIG d   1       7.225  -1.793  -5.935  0.00  0.00     0.073 C 
ATOM     12  H   LIG d   1       7.404  -0.728  -5.792  0.00  0.00     0.042 H 
ATOM     13  C   LIG d   1       8.548  -2.524  -6.193  0.00  0.00     0.102 A 
ATOM     14  C   LIG d   1       9.015  -3.270  -4.977  0.00  0.00    -0.009 A 
ATOM     15  C   LIG d   1       8.465  -4.274  -4.209  0.00  0.00    -0.056 A 
ATOM     16  C   LIG d   1       9.157  -4.770  -3.119  0.00  0.00    -0.061 A 
ATOM     17  C   LIG d   1      10.401  -4.258  -2.803  0.00  0.00    -0.060 A 
ATOM     18  C   LIG d   1      10.957  -3.253  -3.568  0.00  0.00    -0.040 A 
ATOM     19  C   LIG d   1      10.267  -2.748  -4.667  0.00  0.00     0.038 A 
ATOM     20  N   LIG d   1      10.613  -1.749  -5.580  0.00  0.00    -0.284 N 
ATOM     21  C   LIG d   1       9.657  -1.558  -6.510  0.00  0.00     0.230 A 
ATOM     22  O   LIG d   1       9.686  -0.762  -7.424  0.00  0.00    -0.274 OA
ATOM     23  C   LIG d   1       8.275  -3.472  -7.366  0.00  0.00     0.030 C 
ATOM     24  H   LIG d   1       8.000  -4.467  -7.019  0.00  0.00     0.048 H 
ATOM     25  N   LIG d   1       7.173  -2.835  -8.134  0.00  0.00    -0.280 N 
ATOM     26  C   LIG d   1       7.833  -1.970  -9.143  0.00  0.00     0.001 C 
ATOM     27  C   LIG d   1       9.043  -2.820  -9.601  0.00  0.00    -0.039 C 
ATOM     28  C   LIG d   1       9.512  -3.515  -8.283  0.00  0.00    -0.035 C 
ATOM     29  H   LIG d   1       6.567   2.270  -9.257  0.00  0.00     0.062 H 
ATOM     30  H   LIG d   1       7.765   0.320  -8.340  0.00  0.00     0.062 H 
ATOM     31  H   LIG d   1       3.152  -2.078  -7.125  0.00  0.00     0.155 HD
ATOM     32  H   LIG d   1       7.493  -4.672  -4.459  0.00  0.00     0.062 H 
ATOM     33  H   LIG d   1       8.726  -5.557  -2.518  0.00  0.00     0.062 H 
ATOM     34  H   LIG d   1      10.942  -4.646  -1.951  0.00  0.00     0.062 H 
ATOM     35  H   LIG d   1      11.930  -2.858  -3.313  0.00  0.00     0.064 H 
ATOM     36  H   LIG d   1      11.444  -1.250  -5.549  0.00  0.00     0.155 HD
ATOM     37  H   LIG d   1       7.161  -1.775  -9.979  0.00  0.00     0.043 H 
ATOM     38  H   LIG d   1       8.166  -1.037  -8.690  0.00  0.00     0.043 H 
ATOM     39  H   LIG d   1       8.737  -3.564 -10.336  0.00  0.00     0.028 H 
ATOM     40  H   LIG d   1       9.832  -2.182 -10.003  0.00  0.00     0.028 H 
ATOM     41  H   LIG d   1      10.337  -2.964  -7.832  0.00  0.00     0.028 H 
ATOM     42  H   LIG d   1       9.805  -4.547  -8.474  0.00  0.00     0.028 H 
ENDROOT
BRANCH  11  43
ATOM     43  C   LIG d   1       6.532  -2.374  -4.730  0.00  0.00     0.170 C 
ATOM     44  O   LIG d   1       6.499  -3.575  -4.569  0.00  0.00    -0.292 OA
BRANCH  43  45
ATOM     45  C   LIG d   1       5.895  -1.482  -3.747  0.00  0.00     0.018 A 
ATOM     46  C   LIG d   1       4.920  -1.980  -2.876  0.00  0.00    -0.051 A 
ATOM     47  C   LIG d   1       4.332  -1.139  -1.954  0.00  0.00    -0.061 A 
ATOM     48  H   LIG d   1       4.632  -3.019  -2.921  0.00  0.00     0.062 H 
ATOM     49  C   LIG d   1       4.695   0.196  -1.898  0.00  0.00    -0.062 A 
ATOM     50  H   LIG d   1       3.582  -1.522  -1.278  0.00  0.00     0.062 H 
ATOM     51  C   LIG d   1       5.655   0.695  -2.761  0.00  0.00    -0.061 A 
ATOM     52  H   LIG d   1       4.227   0.850  -1.177  0.00  0.00     0.062 H 
ATOM     53  C   LIG d   1       6.256  -0.133  -3.684  0.00  0.00    -0.051 A 
ATOM     54  H   LIG d   1       5.933   1.738  -2.710  0.00  0.00     0.062 H 
ATOM     55  H   LIG d   1       7.006   0.258  -4.356  0.00  0.00     0.062 H 
ENDBRANCH  43  45
ENDBRANCH  11  43
BRANCH   6  56
ATOM     56  C   LIG d   1       2.411   0.444  -8.311  0.00  0.00    -0.038 C 
ATOM     57  H   LIG d   1       2.038  -0.109  -7.448  0.00  0.00     0.028 H 
ATOM     58  H   LIG d   1       2.075   1.479  -8.250  0.00  0.00     0.028 H 
ATOM     59  H   LIG d   1       2.030  -0.009  -9.225  0.00  0.00     0.028 H 
ENDBRANCH   6  56
BRANCH   1  60
ATOM     60  C   LIG d   1       3.899   2.655  -9.404  0.00  0.00    -0.039 C 
ATOM     61  H   LIG d   1       4.369   2.964 -10.337  0.00  0.00     0.028 H 
ATOM     62  H   LIG d   1       2.859   2.386  -9.591  0.00  0.00     0.028 H 
ATOM     63  H   LIG d   1       3.939   3.475  -8.688  0.00  0.00     0.028 H 
ENDBRANCH   1  60
TORSDOF 4
ENDMDL
MODEL 4
REMARK VINA RESULT:      -7.8      2.135      4.649
REMARK  4 active torsions:
REMARK  status: ('A' for Active; 'I' for Inactive)
REMARK    1  A    between atoms: C_1  and  C_2 
REMARK    2  A    between atoms: C_7  and  C_8 
REMARK    3  A    between atoms: C_13  and  C_31 
REMARK    4  A    between atoms: C_31  and  C_33 
ROOT
ATOM      1  C   LIG d   1       4.940  -0.520  -2.888  0.00  0.00    -0.046 A 
ATOM      2  C   LIG d   1       4.259  -1.682  -3.204  0.00  0.00    -0.058 A 
ATOM      3  C   LIG d   1       4.556  -2.358  -4.375  0.00  0.00    -0.054 A 
ATOM      4  C   LIG d   1       5.525  -1.871  -5.223  0.00  0.00     0.004 A 
ATOM      5  C   LIG d   1       6.215  -0.704  -4.917  0.00  0.00     0.042 A 
ATOM      6  C   LIG d   1       5.907  -0.027  -3.739  0.00  0.00    -0.026 A 
ATOM      7  N   LIG d   1       7.140  -0.414  -5.922  0.00  0.00    -0.283 N 
ATOM      8  C   LIG d   1       7.124  -1.329  -6.909  0.00  0.00     0.243 A 
ATOM      9  O   LIG d   1       7.818  -1.332  -7.903  0.00  0.00    -0.273 OA
ATOM     10  C   LIG d   1       6.077  -2.351  -6.541  0.00  0.00     0.138 A 
ATOM     11  C   LIG d   1       4.974  -2.402  -7.605  0.00  0.00     0.073 C 
ATOM     12  H   LIG d   1       4.011  -2.146  -7.166  0.00  0.00     0.042 H 
ATOM     13  C   LIG d   1       4.964  -3.854  -8.099  0.00  0.00     0.102 A 
ATOM     14  C   LIG d   1       4.821  -3.930  -9.592  0.00  0.00    -0.009 A 
ATOM     15  C   LIG d   1       5.567  -3.445 -10.643  0.00  0.00    -0.056 A 
ATOM     16  C   LIG d   1       5.168  -3.686 -11.945  0.00  0.00    -0.061 A 
ATOM     17  C   LIG d   1       4.019  -4.415 -12.189  0.00  0.00    -0.060 A 
ATOM     18  C   LIG d   1       3.268  -4.903 -11.140  0.00  0.00    -0.040 A 
ATOM     19  C   LIG d   1       3.663  -4.666  -9.826  0.00  0.00     0.038 A 
ATOM     20  N   LIG d   1       3.080  -5.048  -8.615  0.00  0.00    -0.284 N 
ATOM     21  C   LIG d   1       3.786  -4.612  -7.552  0.00  0.00     0.230 A 
ATOM     22  O   LIG d   1       3.520  -4.796  -6.384  0.00  0.00    -0.274 OA
ATOM     23  C   LIG d   1       6.290  -4.460  -7.629  0.00  0.00     0.030 C 
ATOM     24  H   LIG d   1       7.057  -4.392  -8.399  0.00  0.00     0.048 H 
ATOM     25  N   LIG d   1       6.664  -3.687  -6.414  0.00  0.00    -0.280 N 
ATOM     26  C   LIG d   1       6.063  -4.417  -5.271  0.00  0.00     0.001 C 
ATOM     27  C   LIG d   1       6.279  -5.904  -5.646  0.00  0.00    -0.039 C 
ATOM     28  C   LIG d   1       6.057  -5.919  -7.193  0.00  0.00    -0.035 C 
ATOM     29  H   LIG d   1       3.500  -2.062  -2.537  0.00  0.00     0.062 H 
ATOM     30  H   LIG d   1       4.026  -3.266  -4.623  0.00  0.00     0.062 H 
ATOM     31  H   LIG d   1       7.729   0.358  -5.909  0.00  0.00     0.155 HD
ATOM     32  H   LIG d   1       6.465  -2.876 -10.450  0.00  0.00     0.062 H 
ATOM     33  H   LIG d   1       5.754  -3.306 -12.769  0.00  0.00     0.062 H 
ATOM     34  H   LIG d   1       3.707  -4.603 -13.207  0.00  0.00     0.062 H 
ATOM     35  H   LIG d   1       2.370  -5.471 -11.339  0.00  0.00     0.064 H 
ATOM     36  H   LIG d   1       2.264  -5.567  -8.546  0.00  0.00     0.155 HD
ATOM     37  H   LIG d   1       6.583  -4.174  -4.344  0.00  0.00     0.043 H 
ATOM     38  H   LIG d   1       5.000  -4.192  -5.188  0.00  0.00     0.043 H 
ATOM     39  H   LIG d   1       7.295  -6.219  -5.405  0.00  0.00     0.028 H 
ATOM     40  H   LIG d   1       5.548  -6.539  -5.144  0.00  0.00     0.028 H 
ATOM     41  H   LIG d   1       5.038  -6.225  -7.429  0.00  0.00     0.028 H 
ATOM     42  H   LIG d   1       6.773  -6.579  -7.680  0.00  0.00     0.028 H 
ENDROOT
BRANCH  11  43
ATOM     43  C   LIG d   1       5.298  -1.465  -8.740  0.00  0.00     0.170 C 
ATOM     44  O   LIG d   1       6.212  -1.718  -9.494  0.00  0.00    -0.292 OA
BRANCH  43  45
ATOM     45  C   LIG d   1       4.503  -0.241  -8.931  0.00  0.00     0.018 A 
ATOM     46  C   LIG d   1       4.611   0.488 -10.121  0.00  0.00    -0.051 A 
ATOM     47  C   LIG d   1       3.859   1.631 -10.295  0.00  0.00    -0.061 A 
ATOM     48  H   LIG d   1       5.278   0.155 -10.901  0.00  0.00     0.062 H 
ATOM     49  C   LIG d   1       3.008   2.063  -9.292  0.00  0.00    -0.062 A 
ATOM     50  H   LIG d   1       3.938   2.193 -11.213  0.00  0.00     0.062 H 
ATOM     51  C   LIG d   1       2.899   1.350  -8.112  0.00  0.00    -0.061 A 
ATOM     52  H   LIG d   1       2.424   2.961  -9.434  0.00  0.00     0.062 H 
ATOM     53  C   LIG d   1       3.640   0.203  -7.924  0.00  0.00    -0.051 A 
ATOM     54  H   LIG d   1       2.232   1.693  -7.335  0.00  0.00     0.062 H 
ATOM     55  H   LIG d   1       3.554  -0.354  -7.002  0.00  0.00     0.062 H 
ENDBRANCH  43  45
ENDBRANCH  11  43
BRANCH   6  56
ATOM     56  C   LIG d   1       6.638   1.244  -3.390  0.00  0.00    -0.038 C 
ATOM     57  H   LIG d   1       7.689   1.020  -3.205  0.00  0.00     0.028 H 
ATOM     58  H   LIG d   1       6.557   1.948  -4.218  0.00  0.00     0.028 H 
ATOM     59  H   LIG d   1       6.197   1.682  -2.495  0.00  0.00     0.028 H 
ENDBRANCH   6  56
BRANCH   1  60
ATOM     60  C   LIG d   1       4.618   0.216  -1.613  0.00  0.00    -0.039 C 
ATOM     61  H   LIG d   1       4.738  -0.457  -0.765  0.00  0.00     0.028 H 
ATOM     62  H   LIG d   1       5.294   1.064  -1.504  0.00  0.00     0.028 H 
ATOM     63  H   LIG d   1       3.590   0.574  -1.651  0.00  0.00     0.028 H 
ENDBRANCH   1  60
TORSDOF 4
ENDMDL
MODEL 5
REMARK VINA RESULT:      -7.4      1.867      2.478
REMARK  4 active torsions:
REMARK  status: ('A' for Active; 'I' for Inactive)
REMARK    1  A    between atoms: C_1  and  C_2 
REMARK    2  A    between atoms: C_7  and  C_8 
REMARK    3  A    between atoms: C_13  and  C_31 
REMARK    4  A    between atoms: C_31  and  C_33 
ROOT
ATOM      1  C   LIG d   1       6.041  -7.694  -5.605  0.00  0.00    -0.046 A 
ATOM      2  C   LIG d   1       5.041  -7.524  -6.544  0.00  0.00    -0.058 A 
ATOM      3  C   LIG d   1       4.954  -6.337  -7.251  0.00  0.00    -0.054 A 
ATOM      4  C   LIG d   1       5.862  -5.329  -7.016  0.00  0.00     0.004 A 
ATOM      5  C   LIG d   1       6.872  -5.488  -6.073  0.00  0.00     0.042 A 
ATOM      6  C   LIG d   1       6.949  -6.684  -5.363  0.00  0.00    -0.026 A 
ATOM      7  N   LIG d   1       7.661  -4.338  -6.014  0.00  0.00    -0.283 N 
ATOM      8  C   LIG d   1       7.245  -3.390  -6.874  0.00  0.00     0.243 A 
ATOM      9  O   LIG d   1       7.741  -2.296  -7.038  0.00  0.00    -0.273 OA
ATOM     10  C   LIG d   1       6.046  -3.951  -7.597  0.00  0.00     0.138 A 
ATOM     11  C   LIG d   1       4.807  -3.084  -7.341  0.00  0.00     0.073 C 
ATOM     12  H   LIG d   1       4.029  -3.670  -6.852  0.00  0.00     0.042 H 
ATOM     13  C   LIG d   1       4.340  -2.635  -8.730  0.00  0.00     0.102 A 
ATOM     14  C   LIG d   1       3.936  -1.188  -8.738  0.00  0.00    -0.009 A 
ATOM     15  C   LIG d   1       4.599  -0.016  -8.443  0.00  0.00    -0.056 A 
ATOM     16  C   LIG d   1       3.941   1.196  -8.547  0.00  0.00    -0.061 A 
ATOM     17  C   LIG d   1       2.619   1.229  -8.949  0.00  0.00    -0.060 A 
ATOM     18  C   LIG d   1       1.951   0.059  -9.245  0.00  0.00    -0.040 A 
ATOM     19  C   LIG d   1       2.605  -1.166  -9.143  0.00  0.00     0.038 A 
ATOM     20  N   LIG d   1       2.153  -2.466  -9.385  0.00  0.00    -0.284 N 
ATOM     21  C   LIG d   1       3.113  -3.386  -9.167  0.00  0.00     0.230 A 
ATOM     22  O   LIG d   1       3.006  -4.587  -9.298  0.00  0.00    -0.274 OA
ATOM     23  C   LIG d   1       5.523  -2.895  -9.669  0.00  0.00     0.030 C 
ATOM     24  H   LIG d   1       6.143  -2.007  -9.786  0.00  0.00     0.048 H 
ATOM     25  N   LIG d   1       6.279  -4.012  -9.042  0.00  0.00    -0.280 N 
ATOM     26  C   LIG d   1       5.708  -5.255  -9.613  0.00  0.00     0.001 C 
ATOM     27  C   LIG d   1       5.467  -4.887 -11.098  0.00  0.00    -0.039 C 
ATOM     28  C   LIG d   1       4.995  -3.399 -11.025  0.00  0.00    -0.035 C 
ATOM     29  H   LIG d   1       4.330  -8.316  -6.727  0.00  0.00     0.062 H 
ATOM     30  H   LIG d   1       4.174  -6.202  -7.986  0.00  0.00     0.062 H 
ATOM     31  H   LIG d   1       8.423  -4.234  -5.421  0.00  0.00     0.155 HD
ATOM     32  H   LIG d   1       5.632  -0.045  -8.129  0.00  0.00     0.062 H 
ATOM     33  H   LIG d   1       4.460   2.114  -8.316  0.00  0.00     0.062 H 
ATOM     34  H   LIG d   1       2.104   2.176  -9.030  0.00  0.00     0.062 H 
ATOM     35  H   LIG d   1       0.917   0.093  -9.558  0.00  0.00     0.064 H 
ATOM     36  H   LIG d   1       1.253  -2.680  -9.676  0.00  0.00     0.155 HD
ATOM     37  H   LIG d   1       6.419  -6.078  -9.531  0.00  0.00     0.043 H 
ATOM     38  H   LIG d   1       4.768  -5.507  -9.122  0.00  0.00     0.043 H 
ATOM     39  H   LIG d   1       6.392  -4.965 -11.670  0.00  0.00     0.028 H 
ATOM     40  H   LIG d   1       4.690  -5.518 -11.531  0.00  0.00     0.028 H 
ATOM     41  H   LIG d   1       3.907  -3.341 -11.052  0.00  0.00     0.028 H 
ATOM     42  H   LIG d   1       5.426  -2.816 -11.838  0.00  0.00     0.028 H 
ENDROOT
BRANCH  11  43
ATOM     43  C   LIG d   1       5.169  -1.889  -6.497  0.00  0.00     0.170 C 
ATOM     44  O   LIG d   1       6.001  -1.099  -6.890  0.00  0.00    -0.292 OA
BRANCH  43  45
ATOM     45  C   LIG d   1       4.513  -1.681  -5.196  0.00  0.00     0.018 A 
ATOM     46  C   LIG d   1       3.675  -0.578  -5.001  0.00  0.00    -0.051 A 
ATOM     47  C   LIG d   1       3.058  -0.393  -3.781  0.00  0.00    -0.061 A 
ATOM     48  H   LIG d   1       3.507   0.124  -5.804  0.00  0.00     0.062 H 
ATOM     49  C   LIG d   1       3.277  -1.288  -2.748  0.00  0.00    -0.062 A 
ATOM     50  H   LIG d   1       2.408   0.455  -3.629  0.00  0.00     0.062 H 
ATOM     51  C   LIG d   1       4.109  -2.378  -2.933  0.00  0.00    -0.061 A 
ATOM     52  H   LIG d   1       2.795  -1.135  -1.794  0.00  0.00     0.062 H 
ATOM     53  C   LIG d   1       4.728  -2.580  -4.148  0.00  0.00    -0.051 A 
ATOM     54  H   LIG d   1       4.274  -3.073  -2.122  0.00  0.00     0.062 H 
ATOM     55  H   LIG d   1       5.377  -3.433  -4.291  0.00  0.00     0.062 H 
ENDBRANCH  43  45
ENDBRANCH  11  43
BRANCH   6  56
ATOM     56  C   LIG d   1       8.031  -6.876  -4.331  0.00  0.00    -0.038 C 
ATOM     57  H   LIG d   1       7.733  -7.660  -3.634  0.00  0.00     0.028 H 
ATOM     58  H   LIG d   1       8.958  -7.164  -4.827  0.00  0.00     0.028 H 
ATOM     59  H   LIG d   1       8.183  -5.945  -3.787  0.00  0.00     0.028 H 
ENDBRANCH   6  56
BRANCH   1  60
ATOM     60  C   LIG d   1       6.136  -8.987  -4.835  0.00  0.00    -0.039 C 
ATOM     61  H   LIG d   1       5.746  -8.840  -3.829  0.00  0.00     0.028 H 
ATOM     62  H   LIG d   1       5.553  -9.754  -5.344  0.00  0.00     0.028 H 
ATOM     63  H   LIG d   1       7.178  -9.300  -4.780  0.00  0.00     0.028 H 
ENDBRANCH   1  60
TORSDOF 4
ENDMDL
MODEL 6
REMARK VINA RESULT:      -7.2      2.266      4.751
REMARK  4 active torsions:
REMARK  status: ('A' for Active; 'I' for Inactive)
REMARK    1  A    between atoms: C_1  and  C_2 
REMARK    2  A    between atoms: C_7  and  C_8 
REMARK    3  A    between atoms: C_13  and  C_31 
REMARK    4  A    between atoms: C_31  and  C_33 
ROOT
ATOM      1  C   LIG d   1       4.607  -1.859  -3.012  0.00  0.00    -0.046 A 
ATOM      2  C   LIG d   1       5.201  -2.804  -3.829  0.00  0.00    -0.058 A 
ATOM      3  C   LIG d   1       6.171  -2.417  -4.737  0.00  0.00    -0.054 A 
ATOM      4  C   LIG d   1       6.542  -1.094  -4.826  0.00  0.00     0.004 A 
ATOM      5  C   LIG d   1       5.952  -0.135  -4.010  0.00  0.00     0.042 A 
ATOM      6  C   LIG d   1       4.972  -0.532  -3.102  0.00  0.00    -0.026 A 
ATOM      7  N   LIG d   1       6.488   1.125  -4.282  0.00  0.00    -0.283 N 
ATOM      8  C   LIG d   1       7.424   1.082  -5.249  0.00  0.00     0.243 A 
ATOM      9  O   LIG d   1       8.054   2.021  -5.686  0.00  0.00    -0.273 OA
ATOM     10  C   LIG d   1       7.539  -0.358  -5.682  0.00  0.00     0.138 A 
ATOM     11  C   LIG d   1       7.191  -0.504  -7.169  0.00  0.00     0.073 C 
ATOM     12  H   LIG d   1       6.334  -1.166  -7.294  0.00  0.00     0.042 H 
ATOM     13  C   LIG d   1       8.438  -1.122  -7.812  0.00  0.00     0.102 A 
ATOM     14  C   LIG d   1       8.759  -0.476  -9.130  0.00  0.00    -0.009 A 
ATOM     15  C   LIG d   1       9.049   0.817  -9.507  0.00  0.00    -0.056 A 
ATOM     16  C   LIG d   1       9.309   1.109 -10.834  0.00  0.00    -0.061 A 
ATOM     17  C   LIG d   1       9.276   0.101 -11.779  0.00  0.00    -0.060 A 
ATOM     18  C   LIG d   1       8.986  -1.195 -11.407  0.00  0.00    -0.040 A 
ATOM     19  C   LIG d   1       8.724  -1.498 -10.073  0.00  0.00     0.038 A 
ATOM     20  N   LIG d   1       8.411  -2.713  -9.458  0.00  0.00    -0.284 N 
ATOM     21  C   LIG d   1       8.229  -2.577  -8.129  0.00  0.00     0.230 A 
ATOM     22  O   LIG d   1       7.952  -3.458  -7.344  0.00  0.00    -0.274 OA
ATOM     23  C   LIG d   1       9.568  -0.923  -6.797  0.00  0.00     0.030 C 
ATOM     24  H   LIG d   1      10.133  -0.014  -7.000  0.00  0.00     0.048 H 
ATOM     25  N   LIG d   1       8.897  -0.867  -5.471  0.00  0.00    -0.280 N 
ATOM     26  C   LIG d   1       8.861  -2.265  -4.978  0.00  0.00     0.001 C 
ATOM     27  C   LIG d   1      10.239  -2.828  -5.405  0.00  0.00    -0.039 C 
ATOM     28  C   LIG d   1      10.478  -2.166  -6.800  0.00  0.00    -0.035 C 
ATOM     29  H   LIG d   1       4.909  -3.841  -3.757  0.00  0.00     0.062 H 
ATOM     30  H   LIG d   1       6.636  -3.154  -5.376  0.00  0.00     0.062 H 
ATOM     31  H   LIG d   1       6.217   1.938  -3.827  0.00  0.00     0.155 HD
ATOM     32  H   LIG d   1       9.074   1.602  -8.766  0.00  0.00     0.062 H 
ATOM     33  H   LIG d   1       9.537   2.123 -11.129  0.00  0.00     0.062 H 
ATOM     34  H   LIG d   1       9.479   0.330 -12.816  0.00  0.00     0.062 H 
ATOM     35  H   LIG d   1       8.962  -1.977 -12.152  0.00  0.00     0.064 H 
ATOM     36  H   LIG d   1       8.333  -3.555  -9.931  0.00  0.00     0.155 HD
ATOM     37  H   LIG d   1       8.756  -2.287  -3.893  0.00  0.00     0.043 H 
ATOM     38  H   LIG d   1       8.054  -2.820  -5.455  0.00  0.00     0.043 H 
ATOM     39  H   LIG d   1      11.015  -2.525  -4.702  0.00  0.00     0.028 H 
ATOM     40  H   LIG d   1      10.201  -3.915  -5.494  0.00  0.00     0.028 H 
ATOM     41  H   LIG d   1      10.188  -2.845  -7.601  0.00  0.00     0.028 H 
ATOM     42  H   LIG d   1      11.521  -1.870  -6.914  0.00  0.00     0.028 H 
ENDROOT
BRANCH  11  43
ATOM     43  C   LIG d   1       6.902   0.845  -7.774  0.00  0.00     0.170 C 
ATOM     44  O   LIG d   1       7.784   1.671  -7.864  0.00  0.00    -0.292 OA
BRANCH  43  45
ATOM     45  C   LIG d   1       5.547   1.160  -8.256  0.00  0.00     0.018 A 
ATOM     46  C   LIG d   1       4.459   0.378  -7.854  0.00  0.00    -0.051 A 
ATOM     47  C   LIG d   1       3.192   0.683  -8.306  0.00  0.00    -0.061 A 
ATOM     48  H   LIG d   1       4.609  -0.459  -7.189  0.00  0.00     0.062 H 
ATOM     49  C   LIG d   1       2.998   1.751  -9.164  0.00  0.00    -0.062 A 
ATOM     50  H   LIG d   1       2.351   0.083  -7.994  0.00  0.00     0.062 H 
ATOM     51  C   LIG d   1       4.070   2.526  -9.570  0.00  0.00    -0.061 A 
ATOM     52  H   LIG d   1       2.003   1.982  -9.517  0.00  0.00     0.062 H 
ATOM     53  C   LIG d   1       5.342   2.238  -9.123  0.00  0.00    -0.051 A 
ATOM     54  H   LIG d   1       3.909   3.359 -10.238  0.00  0.00     0.062 H 
ATOM     55  H   LIG d   1       6.178   2.844  -9.440  0.00  0.00     0.062 H 
ENDBRANCH  43  45
ENDBRANCH  11  43
BRANCH   6  56
ATOM     56  C   LIG d   1       4.315   0.491  -2.212  0.00  0.00    -0.038 C 
ATOM     57  H   LIG d   1       3.532   0.011  -1.624  0.00  0.00     0.028 H 
ATOM     58  H   LIG d   1       5.059   0.922  -1.543  0.00  0.00     0.028 H 
ATOM     59  H   LIG d   1       3.877   1.279  -2.825  0.00  0.00     0.028 H 
ENDBRANCH   6  56
BRANCH   1  60
ATOM     60  C   LIG d   1       3.551  -2.280  -2.022  0.00  0.00    -0.039 C 
ATOM     61  H   LIG d   1       3.896  -3.154  -1.472  0.00  0.00     0.028 H 
ATOM     62  H   LIG d   1       3.361  -1.462  -1.327  0.00  0.00     0.028 H 
ATOM     63  H   LIG d   1       2.632  -2.524  -2.554  0.00  0.00     0.028 H 
ENDBRANCH   1  60
TORSDOF 4
ENDMDL
MODEL 7
REMARK VINA RESULT:      -7.0      2.789      5.354
REMARK  4 active torsions:
REMARK  status: ('A' for Active; 'I' for Inactive)
REMARK    1  A    between atoms: C_1  and  C_2 
REMARK    2  A    between atoms: C_7  and  C_8 
REMARK    3  A    between atoms: C_13  and  C_31 
REMARK    4  A    between atoms: C_31  and  C_33 
ROOT
ATOM      1  C   LIG d   1       4.619  -1.485  -3.828  0.00  0.00    -0.046 A 
ATOM      2  C   LIG d   1       5.743  -1.809  -4.565  0.00  0.00    -0.058 A 
ATOM      3  C   LIG d   1       5.866  -1.358  -5.868  0.00  0.00    -0.054 A 
ATOM      4  C   LIG d   1       4.869  -0.590  -6.428  0.00  0.00     0.004 A 
ATOM      5  C   LIG d   1       3.734  -0.258  -5.696  0.00  0.00     0.042 A 
ATOM      6  C   LIG d   1       3.616  -0.720  -4.388  0.00  0.00    -0.026 A 
ATOM      7  N   LIG d   1       2.873   0.521  -6.471  0.00  0.00    -0.283 N 
ATOM      8  C   LIG d   1       3.361   0.745  -7.705  0.00  0.00     0.243 A 
ATOM      9  O   LIG d   1       2.830   1.387  -8.586  0.00  0.00    -0.273 OA
ATOM     10  C   LIG d   1       4.695   0.045  -7.782  0.00  0.00     0.138 A 
ATOM     11  C   LIG d   1       4.683  -1.021  -8.885  0.00  0.00     0.073 C 
ATOM     12  H   LIG d   1       4.872  -2.006  -8.461  0.00  0.00     0.042 H 
ATOM     13  C   LIG d   1       5.820  -0.624  -9.835  0.00  0.00     0.102 A 
ATOM     14  C   LIG d   1       5.417  -0.775 -11.274  0.00  0.00    -0.009 A 
ATOM     15  C   LIG d   1       4.414  -0.224 -12.041  0.00  0.00    -0.056 A 
ATOM     16  C   LIG d   1       4.296  -0.567 -13.376  0.00  0.00    -0.061 A 
ATOM     17  C   LIG d   1       5.186  -1.463 -13.937  0.00  0.00    -0.060 A 
ATOM     18  C   LIG d   1       6.192  -2.018 -13.174  0.00  0.00    -0.040 A 
ATOM     19  C   LIG d   1       6.319  -1.677 -11.829  0.00  0.00     0.038 A 
ATOM     20  N   LIG d   1       7.239  -2.096 -10.865  0.00  0.00    -0.284 N 
ATOM     21  C   LIG d   1       7.015  -1.522  -9.667  0.00  0.00     0.230 A 
ATOM     22  O   LIG d   1       7.654  -1.696  -8.651  0.00  0.00    -0.274 OA
ATOM     23  C   LIG d   1       6.156   0.831  -9.493  0.00  0.00     0.030 C 
ATOM     24  H   LIG d   1       5.618   1.527 -10.135  0.00  0.00     0.048 H 
ATOM     25  N   LIG d   1       5.775   0.995  -8.065  0.00  0.00    -0.280 N 
ATOM     26  C   LIG d   1       6.988   0.656  -7.283  0.00  0.00     0.001 C 
ATOM     27  C   LIG d   1       8.134   1.283  -8.115  0.00  0.00    -0.039 C 
ATOM     28  C   LIG d   1       7.680   1.037  -9.590  0.00  0.00    -0.035 C 
ATOM     29  H   LIG d   1       6.524  -2.411  -4.125  0.00  0.00     0.062 H 
ATOM     30  H   LIG d   1       6.744  -1.610  -6.446  0.00  0.00     0.062 H 
ATOM     31  H   LIG d   1       2.021   0.862  -6.156  0.00  0.00     0.155 HD
ATOM     32  H   LIG d   1       3.720   0.476 -11.600  0.00  0.00     0.062 H 
ATOM     33  H   LIG d   1       3.509  -0.135 -13.977  0.00  0.00     0.062 H 
ATOM     34  H   LIG d   1       5.093  -1.732 -14.981  0.00  0.00     0.062 H 
ATOM     35  H   LIG d   1       6.883  -2.718 -13.620  0.00  0.00     0.064 H 
ATOM     36  H   LIG d   1       7.955  -2.727 -11.037  0.00  0.00     0.155 HD
ATOM     37  H   LIG d   1       6.943   1.106  -6.290  0.00  0.00     0.043 H 
ATOM     38  H   LIG d   1       7.110  -0.424  -7.211  0.00  0.00     0.043 H 
ATOM     39  H   LIG d   1       8.217   2.351  -7.915  0.00  0.00     0.028 H 
ATOM     40  H   LIG d   1       9.079   0.777  -7.912  0.00  0.00     0.028 H 
ATOM     41  H   LIG d   1       8.157   0.144  -9.994  0.00  0.00     0.028 H 
ATOM     42  H   LIG d   1       7.905   1.902 -10.212  0.00  0.00     0.028 H 
ENDROOT
BRANCH  11  43
ATOM     43  C   LIG d   1       3.364  -1.007  -9.612  0.00  0.00     0.170 C 
ATOM     44  O   LIG d   1       2.881   0.044  -9.975  0.00  0.00    -0.292 OA
BRANCH  43  45
ATOM     45  C   LIG d   1       2.660  -2.272  -9.882  0.00  0.00     0.018 A 
ATOM     46  C   LIG d   1       1.377  -2.257 -10.438  0.00  0.00    -0.051 A 
ATOM     47  C   LIG d   1       0.726  -3.446 -10.693  0.00  0.00    -0.061 A 
ATOM     48  H   LIG d   1       0.898  -1.318 -10.671  0.00  0.00     0.062 H 
ATOM     49  C   LIG d   1       1.336  -4.651 -10.389  0.00  0.00    -0.062 A 
ATOM     50  H   LIG d   1      -0.263  -3.437 -11.126  0.00  0.00     0.062 H 
ATOM     51  C   LIG d   1       2.603  -4.673  -9.834  0.00  0.00    -0.061 A 
ATOM     52  H   LIG d   1       0.819  -5.579 -10.588  0.00  0.00     0.062 H 
ATOM     53  C   LIG d   1       3.268  -3.494  -9.579  0.00  0.00    -0.051 A 
ATOM     54  H   LIG d   1       3.072  -5.618  -9.601  0.00  0.00     0.062 H 
ATOM     55  H   LIG d   1       4.258  -3.513  -9.146  0.00  0.00     0.062 H 
ENDBRANCH  43  45
ENDBRANCH  11  43
BRANCH   6  56
ATOM     56  C   LIG d   1       2.392  -0.378  -3.578  0.00  0.00    -0.038 C 
ATOM     57  H   LIG d   1       1.918   0.511  -3.995  0.00  0.00     0.028 H 
ATOM     58  H   LIG d   1       1.691  -1.212  -3.609  0.00  0.00     0.028 H 
ATOM     59  H   LIG d   1       2.681  -0.185  -2.546  0.00  0.00     0.028 H 
ENDBRANCH   6  56
BRANCH   1  60
ATOM     60  C   LIG d   1       4.485  -1.975  -2.409  0.00  0.00    -0.039 C 
ATOM     61  H   LIG d   1       3.518  -1.671  -2.010  0.00  0.00     0.028 H 
ATOM     62  H   LIG d   1       4.562  -3.062  -2.393  0.00  0.00     0.028 H 
ATOM     63  H   LIG d   1       5.280  -1.546  -1.801  0.00  0.00     0.028 H 
ENDBRANCH   1  60
TORSDOF 4
ENDMDL
MODEL 8
REMARK VINA RESULT:      -6.9      2.390      6.255
REMARK  4 active torsions:
REMARK  status: ('A' for Active; 'I' for Inactive)
REMARK    1  A    between atoms: C_1  and  C_2 
REMARK    2  A    between atoms: C_7  and  C_8 
REMARK    3  A    between atoms: C_13  and  C_31 
REMARK    4  A    between atoms: C_31  and  C_33 
ROOT
ATOM      1  C   LIG d   1       5.251   0.060  -2.708  0.00  0.00    -0.046 A 
ATOM      2  C   LIG d   1       6.343   0.622  -3.343  0.00  0.00    -0.058 A 
ATOM      3  C   LIG d   1       6.950  -0.048  -4.392  0.00  0.00    -0.054 A 
ATOM      4  C   LIG d   1       6.467  -1.272  -4.798  0.00  0.00     0.004 A 
ATOM      5  C   LIG d   1       5.370  -1.847  -4.166  0.00  0.00     0.042 A 
ATOM      6  C   LIG d   1       4.768  -1.168  -3.108  0.00  0.00    -0.026 A 
ATOM      7  N   LIG d   1       5.069  -3.079  -4.750  0.00  0.00    -0.283 N 
ATOM      8  C   LIG d   1       5.906  -3.382  -5.758  0.00  0.00     0.243 A 
ATOM      9  O   LIG d   1       5.880  -4.383  -6.442  0.00  0.00    -0.273 OA
ATOM     10  C   LIG d   1       6.882  -2.238  -5.876  0.00  0.00     0.138 A 
ATOM     11  C   LIG d   1       8.318  -2.727  -5.644  0.00  0.00     0.073 C 
ATOM     12  H   LIG d   1       8.757  -2.219  -4.786  0.00  0.00     0.042 H 
ATOM     13  C   LIG d   1       9.076  -2.359  -6.925  0.00  0.00     0.102 A 
ATOM     14  C   LIG d   1       9.991  -3.466  -7.364  0.00  0.00    -0.009 A 
ATOM     15  C   LIG d   1       9.788  -4.783  -7.712  0.00  0.00    -0.056 A 
ATOM     16  C   LIG d   1      10.860  -5.574  -8.084  0.00  0.00    -0.061 A 
ATOM     17  C   LIG d   1      12.134  -5.041  -8.104  0.00  0.00    -0.060 A 
ATOM     18  C   LIG d   1      12.344  -3.722  -7.756  0.00  0.00    -0.040 A 
ATOM     19  C   LIG d   1      11.270  -2.918  -7.382  0.00  0.00     0.038 A 
ATOM     20  N   LIG d   1      11.226  -1.577  -6.994  0.00  0.00    -0.284 N 
ATOM     21  C   LIG d   1       9.973  -1.171  -6.710  0.00  0.00     0.230 A 
ATOM     22  O   LIG d   1       9.636  -0.063  -6.351  0.00  0.00    -0.274 OA
ATOM     23  C   LIG d   1       7.999  -2.068  -7.975  0.00  0.00     0.030 C 
ATOM     24  H   LIG d   1       7.776  -2.950  -8.574  0.00  0.00     0.048 H 
ATOM     25  N   LIG d   1       6.812  -1.616  -7.201  0.00  0.00    -0.280 N 
ATOM     26  C   LIG d   1       6.936  -0.142  -7.095  0.00  0.00     0.001 C 
ATOM     27  C   LIG d   1       7.467   0.270  -8.490  0.00  0.00    -0.039 C 
ATOM     28  C   LIG d   1       8.451  -0.888  -8.854  0.00  0.00    -0.035 C 
ATOM     29  H   LIG d   1       6.721   1.582  -3.024  0.00  0.00     0.062 H 
ATOM     30  H   LIG d   1       7.803   0.389  -4.890  0.00  0.00     0.062 H 
ATOM     31  H   LIG d   1       4.339  -3.650  -4.461  0.00  0.00     0.155 HD
ATOM     32  H   LIG d   1       8.790  -5.197  -7.695  0.00  0.00     0.062 H 
ATOM     33  H   LIG d   1      10.700  -6.607  -8.357  0.00  0.00     0.062 H 
ATOM     34  H   LIG d   1      12.972  -5.659  -8.394  0.00  0.00     0.062 H 
ATOM     35  H   LIG d   1      13.343  -3.312  -7.774  0.00  0.00     0.064 H 
ATOM     36  H   LIG d   1      12.007  -1.004  -6.935  0.00  0.00     0.155 HD
ATOM     37  H   LIG d   1       5.964   0.312  -6.903  0.00  0.00     0.043 H 
ATOM     38  H   LIG d   1       7.649   0.128  -6.316  0.00  0.00     0.043 H 
ATOM     39  H   LIG d   1       6.654   0.320  -9.214  0.00  0.00     0.028 H 
ATOM     40  H   LIG d   1       7.995   1.223  -8.435  0.00  0.00     0.028 H 
ATOM     41  H   LIG d   1       9.477  -0.608  -8.613  0.00  0.00     0.028 H 
ATOM     42  H   LIG d   1       8.368  -1.148  -9.909  0.00  0.00     0.028 H 
ENDROOT
BRANCH  11  43
ATOM     43  C   LIG d   1       8.335  -4.219  -5.435  0.00  0.00     0.170 C 
ATOM     44  O   LIG d   1       7.922  -4.958  -6.302  0.00  0.00    -0.292 OA
BRANCH  43  45
ATOM     45  C   LIG d   1       8.855  -4.778  -4.176  0.00  0.00     0.018 A 
ATOM     46  C   LIG d   1       9.178  -3.931  -3.111  0.00  0.00    -0.051 A 
ATOM     47  C   LIG d   1       9.659  -4.463  -1.933  0.00  0.00    -0.061 A 
ATOM     48  H   LIG d   1       9.048  -2.864  -3.209  0.00  0.00     0.062 H 
ATOM     49  C   LIG d   1       9.833  -5.831  -1.808  0.00  0.00    -0.062 A 
ATOM     50  H   LIG d   1       9.906  -3.811  -1.109  0.00  0.00     0.062 H 
ATOM     51  C   LIG d   1       9.520  -6.674  -2.858  0.00  0.00    -0.061 A 
ATOM     52  H   LIG d   1      10.214  -6.241  -0.884  0.00  0.00     0.062 H 
ATOM     53  C   LIG d   1       9.033  -6.158  -4.040  0.00  0.00    -0.051 A 
ATOM     54  H   LIG d   1       9.657  -7.741  -2.752  0.00  0.00     0.062 H 
ATOM     55  H   LIG d   1       8.788  -6.819  -4.860  0.00  0.00     0.062 H 
ENDBRANCH  43  45
ENDBRANCH  11  43
BRANCH   6  56
ATOM     56  C   LIG d   1       3.582  -1.775  -2.404  0.00  0.00    -0.038 C 
ATOM     57  H   LIG d   1       2.670  -1.527  -2.950  0.00  0.00     0.028 H 
ATOM     58  H   LIG d   1       3.698  -2.858  -2.364  0.00  0.00     0.028 H 
ATOM     59  H   LIG d   1       3.518  -1.378  -1.392  0.00  0.00     0.028 H 
ENDBRANCH   6  56
BRANCH   1  60
ATOM     60  C   LIG d   1       4.590   0.790  -1.567  0.00  0.00    -0.039 C 
ATOM     61  H   LIG d   1       5.345   1.086  -0.839  0.00  0.00     0.028 H 
ATOM     62  H   LIG d   1       4.084   1.676  -1.949  0.00  0.00     0.028 H 
ATOM     63  H   LIG d   1       3.862   0.134  -1.090  0.00  0.00     0.028 H 
ENDBRANCH   1  60
TORSDOF 4
ENDMDL
MODEL 9
REMARK VINA RESULT:      -6.8      2.522      4.988
REMARK  4 active torsions:
REMARK  status: ('A' for Active; 'I' for Inactive)
REMARK    1  A    between atoms: C_1  and  C_2 
REMARK    2  A    between atoms: C_7  and  C_8 
REMARK    3  A    between atoms: C_13  and  C_31 
REMARK    4  A    between atoms: C_31  and  C_33 
ROOT
ATOM      1  C   LIG d   1      10.468  -2.632  -9.488  0.00  0.00    -0.046 A 
ATOM      2  C   LIG d   1       9.544  -1.604  -9.508  0.00  0.00    -0.058 A 
ATOM      3  C   LIG d   1       8.885  -1.247  -8.345  0.00  0.00    -0.054 A 
ATOM      4  C   LIG d   1       9.149  -1.917  -7.171  0.00  0.00     0.004 A 
ATOM      5  C   LIG d   1      10.076  -2.953  -7.138  0.00  0.00     0.042 A 
ATOM      6  C   LIG d   1      10.731  -3.310  -8.315  0.00  0.00    -0.026 A 
ATOM      7  N   LIG d   1      10.170  -3.474  -5.846  0.00  0.00    -0.283 N 
ATOM      8  C   LIG d   1       9.353  -2.845  -4.982  0.00  0.00     0.243 A 
ATOM      9  O   LIG d   1       9.229  -3.084  -3.801  0.00  0.00    -0.273 OA
ATOM     10  C   LIG d   1       8.623  -1.782  -5.766  0.00  0.00     0.138 A 
ATOM     11  C   LIG d   1       7.109  -2.027  -5.727  0.00  0.00     0.073 C 
ATOM     12  H   LIG d   1       6.724  -2.180  -6.735  0.00  0.00     0.042 H 
ATOM     13  C   LIG d   1       6.514  -0.752  -5.118  0.00  0.00     0.102 A 
ATOM     14  C   LIG d   1       5.433  -1.065  -4.124  0.00  0.00    -0.009 A 
ATOM     15  C   LIG d   1       5.401  -1.790  -2.953  0.00  0.00    -0.056 A 
ATOM     16  C   LIG d   1       4.222  -1.900  -2.238  0.00  0.00    -0.061 A 
ATOM     17  C   LIG d   1       3.077  -1.280  -2.701  0.00  0.00    -0.060 A 
ATOM     18  C   LIG d   1       3.103  -0.553  -3.874  0.00  0.00    -0.040 A 
ATOM     19  C   LIG d   1       4.286  -0.436  -4.599  0.00  0.00     0.038 A 
ATOM     20  N   LIG d   1       4.562   0.234  -5.794  0.00  0.00    -0.284 N 
ATOM     21  C   LIG d   1       5.850   0.099  -6.165  0.00  0.00     0.230 A 
ATOM     22  O   LIG d   1       6.370   0.572  -7.153  0.00  0.00    -0.274 OA
ATOM     23  C   LIG d   1       7.689  -0.020  -4.461  0.00  0.00     0.030 C 
ATOM     24  H   LIG d   1       7.775  -0.270  -3.404  0.00  0.00     0.048 H 
ATOM     25  N   LIG d   1       8.892  -0.447  -5.225  0.00  0.00    -0.280 N 
ATOM     26  C   LIG d   1       9.045   0.541  -6.320  0.00  0.00     0.001 C 
ATOM     27  C   LIG d   1       8.688   1.885  -5.639  0.00  0.00    -0.039 C 
ATOM     28  C   LIG d   1       7.525   1.497  -4.671  0.00  0.00    -0.035 C 
ATOM     29  H   LIG d   1       9.339  -1.080 -10.429  0.00  0.00     0.062 H 
ATOM     30  H   LIG d   1       8.163  -0.443  -8.358  0.00  0.00     0.062 H 
ATOM     31  H   LIG d   1      10.759  -4.206  -5.600  0.00  0.00     0.155 HD
ATOM     32  H   LIG d   1       6.298  -2.273  -2.594  0.00  0.00     0.062 H 
ATOM     33  H   LIG d   1       4.198  -2.468  -1.320  0.00  0.00     0.062 H 
ATOM     34  H   LIG d   1       2.155  -1.366  -2.143  0.00  0.00     0.062 H 
ATOM     35  H   LIG d   1       2.203  -0.072  -4.229  0.00  0.00     0.064 H 
ATOM     36  H   LIG d   1       3.903   0.737  -6.296  0.00  0.00     0.155 HD
ATOM     37  H   LIG d   1      10.073   0.554  -6.684  0.00  0.00     0.043 H 
ATOM     38  H   LIG d   1       8.351   0.324  -7.133  0.00  0.00     0.043 H 
ATOM     39  H   LIG d   1       9.539   2.271  -5.077  0.00  0.00     0.028 H 
ATOM     40  H   LIG d   1       8.351   2.614  -6.377  0.00  0.00     0.028 H 
ATOM     41  H   LIG d   1       6.559   1.713  -5.127  0.00  0.00     0.028 H 
ATOM     42  H   LIG d   1       7.621   2.023  -3.722  0.00  0.00     0.028 H 
ENDROOT
BRANCH  11  43
ATOM     43  C   LIG d   1       6.794  -3.219  -4.860  0.00  0.00     0.170 C 
ATOM     44  O   LIG d   1       7.134  -3.230  -3.697  0.00  0.00    -0.292 OA
BRANCH  43  45
ATOM     45  C   LIG d   1       6.071  -4.369  -5.427  0.00  0.00     0.018 A 
ATOM     46  C   LIG d   1       6.732  -5.586  -5.623  0.00  0.00    -0.051 A 
ATOM     47  C   LIG d   1       6.047  -6.661  -6.149  0.00  0.00    -0.061 A 
ATOM     48  H   LIG d   1       7.774  -5.686  -5.359  0.00  0.00     0.062 H 
ATOM     49  C   LIG d   1       4.712  -6.534  -6.494  0.00  0.00    -0.062 A 
ATOM     50  H   LIG d   1       6.554  -7.603  -6.298  0.00  0.00     0.062 H 
ATOM     51  C   LIG d   1       4.054  -5.332  -6.307  0.00  0.00    -0.061 A 
ATOM     52  H   LIG d   1       4.183  -7.379  -6.909  0.00  0.00     0.062 H 
ATOM     53  C   LIG d   1       4.723  -4.250  -5.777  0.00  0.00    -0.051 A 
ATOM     54  H   LIG d   1       3.012  -5.242  -6.578  0.00  0.00     0.062 H 
ATOM     55  H   LIG d   1       4.207  -3.312  -5.632  0.00  0.00     0.062 H 
ENDBRANCH  43  45
ENDBRANCH  11  43
BRANCH   6  56
ATOM     56  C   LIG d   1      11.734  -4.434  -8.305  0.00  0.00    -0.038 C 
ATOM     57  H   LIG d   1      11.528  -5.098  -7.464  0.00  0.00     0.028 H 
ATOM     58  H   LIG d   1      11.661  -4.995  -9.236  0.00  0.00     0.028 H 
ATOM     59  H   LIG d   1      12.739  -4.024  -8.205  0.00  0.00     0.028 H 
ENDBRANCH   6  56
BRANCH   1  60
ATOM     60  C   LIG d   1      11.186  -3.021 -10.754  0.00  0.00    -0.039 C 
ATOM     61  H   LIG d   1      10.461  -3.352 -11.497  0.00  0.00     0.028 H 
ATOM     62  H   LIG d   1      11.734  -2.161 -11.138  0.00  0.00     0.028 H 
ATOM     63  H   LIG d   1      11.884  -3.831 -10.542  0.00  0.00     0.028 H 
ENDBRANCH   1  60
TORSDOF 4
ENDMDL
