MODEL 1
REMARK VINA RESULT:      -6.5      0.000      0.000
REMARK  13 active torsions:
REMARK  status: ('A' for Active; 'I' for Inactive)
REMARK    1  A    between atoms: C_4  and  C_7 
REMARK    2  A    between atoms: C_7  and  O_8 
REMARK    3  A    between atoms: O_8  and  C_9 
REMARK    4  A    between atoms: C_9  and  C_11 
REMARK    5  A    between atoms: C_11  and  C_13 
REMARK    6  A    between atoms: C_11  and  N_17 
REMARK    7  A    between atoms: C_13  and  C_14 
REMARK    8  A    between atoms: C_14  and  C_15 
REMARK    9  A    between atoms: C_15  and  C_16 
REMARK   10  A    between atoms: C_16  and  N_53 
REMARK       I    between atoms: N_17  and  C_18 
REMARK   11  A    between atoms: C_18  and  O_20 
REMARK   12  A    between atoms: O_20  and  C_21 
REMARK   13  A    between atoms: C_21  and  C_22 
ROOT
ATOM      1  C   LIG d   1       4.368   1.060  -8.902  0.00  0.00     0.123 C 
ATOM      2  H   LIG d   1       4.487   0.009  -9.167  0.00  0.00     0.061 H 
ENDROOT
BRANCH   1   3
ATOM      3  C   LIG d   1       5.716   1.654  -8.587  0.00  0.00     0.328 C 
ATOM      4  O   LIG d   1       6.173   2.522  -9.293  0.00  0.00    -0.249 OA
BRANCH   3   5
ATOM      5  O   LIG d   1       6.409   1.219  -7.523  0.00  0.00    -0.459 OA
BRANCH   5   6
ATOM      6  C   LIG d   1       6.811  -0.176  -7.522  0.00  0.00     0.118 C 
ATOM      7  H   LIG d   1       6.074  -0.767  -8.067  0.00  0.00     0.075 H 
ATOM      8  H   LIG d   1       7.783  -0.275  -8.005  0.00  0.00     0.075 H 
BRANCH   6   9
ATOM      9  C   LIG d   1       6.902  -0.672  -6.102  0.00  0.00    -0.010 A 
ATOM     10  C   LIG d   1       6.601  -1.989  -5.810  0.00  0.00    -0.055 A 
ATOM     11  C   LIG d   1       6.685  -2.444  -4.507  0.00  0.00    -0.061 A 
ATOM     12  H   LIG d   1       6.301  -2.663  -6.598  0.00  0.00     0.062 H 
ATOM     13  C   LIG d   1       7.069  -1.582  -3.497  0.00  0.00    -0.062 A 
ATOM     14  H   LIG d   1       6.449  -3.473  -4.277  0.00  0.00     0.062 H 
ATOM     15  C   LIG d   1       7.370  -0.265  -3.790  0.00  0.00    -0.061 A 
ATOM     16  H   LIG d   1       7.133  -1.937  -2.479  0.00  0.00     0.062 H 
ATOM     17  C   LIG d   1       7.291   0.189  -5.093  0.00  0.00    -0.055 A 
ATOM     18  H   LIG d   1       7.670   0.408  -3.001  0.00  0.00     0.062 H 
ATOM     19  H   LIG d   1       7.530   1.216  -5.323  0.00  0.00     0.062 H 
ENDBRANCH   6   9
ENDBRANCH   5   6
ENDBRANCH   3   5
ENDBRANCH   1   3
BRANCH   1  20
ATOM     20  C   LIG d   1       3.740   1.813 -10.076  0.00  0.00    -0.024 C 
ATOM     21  H   LIG d   1       2.717   2.094  -9.823  0.00  0.00     0.029 H 
ATOM     22  H   LIG d   1       4.322   2.712 -10.284  0.00  0.00     0.029 H 
BRANCH  20  23
ATOM     23  C   LIG d   1       3.730   0.914 -11.313  0.00  0.00    -0.046 C 
ATOM     24  H   LIG d   1       2.953   1.250 -12.001  0.00  0.00     0.027 H 
ATOM     25  H   LIG d   1       4.699   0.965 -11.808  0.00  0.00     0.027 H 
BRANCH  23  26
ATOM     26  C   LIG d   1       3.449  -0.530 -10.893  0.00  0.00    -0.013 C 
ATOM     27  H   LIG d   1       4.116  -1.202 -11.434  0.00  0.00     0.032 H 
ATOM     28  H   LIG d   1       3.618  -0.637  -9.821  0.00  0.00     0.032 H 
BRANCH  26  29
ATOM     29  C   LIG d   1       1.997  -0.883 -11.218  0.00  0.00    -0.035 C 
ATOM     30  H   LIG d   1       1.594  -0.154 -11.922  0.00  0.00     0.081 H 
ATOM     31  H   LIG d   1       1.955  -1.877 -11.662  0.00  0.00     0.081 H 
BRANCH  29  32
ATOM     32  N   LIG d   1       1.202  -0.839  -9.977  0.00  0.00     0.218 N 
ATOM     33  H   LIG d   1       0.492  -1.569  -9.992  0.00  0.00     0.199 HD
ATOM     34  H   LIG d   1       1.809  -0.973  -9.170  0.00  0.00     0.199 HD
ATOM     35  H   LIG d   1       0.743   0.076  -9.903  0.00  0.00     0.199 HD
ENDBRANCH  29  32
ENDBRANCH  26  29
ENDBRANCH  23  26
ENDBRANCH  20  23
ENDBRANCH   1  20
BRANCH   1  36
ATOM     36  N   LIG d   1       3.498   1.172  -7.729  0.00  0.00    -0.268 N 
ATOM     37  C   LIG d   1       3.065   0.061  -7.102  0.00  0.00     0.401 C 
ATOM     38  O   LIG d   1       3.396  -1.035  -7.509  0.00  0.00    -0.227 OA
ATOM     39  H   LIG d   1       3.234   2.047  -7.403  0.00  0.00     0.153 HD
BRANCH  37  40
ATOM     40  O   LIG d   1       2.265   0.165  -6.023  0.00  0.00    -0.446 OA
BRANCH  40  41
ATOM     41  C   LIG d   1       2.628   1.156  -5.026  0.00  0.00     0.119 C 
ATOM     42  H   LIG d   1       1.737   1.706  -4.720  0.00  0.00     0.075 H 
ATOM     43  H   LIG d   1       3.355   1.847  -5.449  0.00  0.00     0.075 H 
BRANCH  41  44
ATOM     44  C   LIG d   1       3.227   0.466  -3.827  0.00  0.00    -0.010 A 
ATOM     45  C   LIG d   1       3.053  -0.895  -3.654  0.00  0.00    -0.055 A 
ATOM     46  C   LIG d   1       3.606  -1.528  -2.557  0.00  0.00    -0.061 A 
ATOM     47  H   LIG d   1       2.487  -1.463  -4.377  0.00  0.00     0.062 H 
ATOM     48  C   LIG d   1       4.324  -0.799  -1.628  0.00  0.00    -0.062 A 
ATOM     49  H   LIG d   1       3.474  -2.591  -2.423  0.00  0.00     0.062 H 
ATOM     50  C   LIG d   1       4.499   0.561  -1.801  0.00  0.00    -0.061 A 
ATOM     51  H   LIG d   1       4.753  -1.293  -0.768  0.00  0.00     0.062 H 
ATOM     52  C   LIG d   1       3.949   1.193  -2.900  0.00  0.00    -0.055 A 
ATOM     53  H   LIG d   1       5.063   1.131  -1.077  0.00  0.00     0.062 H 
ATOM     54  H   LIG d   1       4.085   2.256  -3.036  0.00  0.00     0.062 H 
ENDBRANCH  41  44
ENDBRANCH  40  41
ENDBRANCH  37  40
ENDBRANCH   1  36
TORSDOF 13
ENDMDL
MODEL 2
REMARK VINA RESULT:      -6.4      1.970      5.043
REMARK  13 active torsions:
REMARK  status: ('A' for Active; 'I' for Inactive)
REMARK    1  A    between atoms: C_4  and  C_7 
REMARK    2  A    between atoms: C_7  and  O_8 
REMARK    3  A    between atoms: O_8  and  C_9 
REMARK    4  A    between atoms: C_9  and  C_11 
REMARK    5  A    between atoms: C_11  and  C_13 
REMARK    6  A    between atoms: C_11  and  N_17 
REMARK    7  A    between atoms: C_13  and  C_14 
REMARK    8  A    between atoms: C_14  and  C_15 
REMARK    9  A    between atoms: C_15  and  C_16 
REMARK   10  A    between atoms: C_16  and  N_53 
REMARK       I    between atoms: N_17  and  C_18 
REMARK   11  A    between atoms: C_18  and  O_20 
REMARK   12  A    between atoms: O_20  and  C_21 
REMARK   13  A    between atoms: C_21  and  C_22 
ROOT
ATOM      1  C   LIG d   1       4.714  -2.439  -7.099  0.00  0.00     0.123 C 
ATOM      2  H   LIG d   1       5.702  -2.041  -6.869  0.00  0.00     0.061 H 
ENDROOT
BRANCH   1   3
ATOM      3  C   LIG d   1       4.607  -2.693  -8.579  0.00  0.00     0.328 C 
ATOM      4  O   LIG d   1       5.509  -3.248  -9.163  0.00  0.00    -0.249 OA
BRANCH   3   5
ATOM      5  O   LIG d   1       3.511  -2.305  -9.251  0.00  0.00    -0.459 OA
BRANCH   5   6
ATOM      6  C   LIG d   1       3.713  -1.432 -10.393  0.00  0.00     0.118 C 
ATOM      7  H   LIG d   1       4.658  -1.679 -10.878  0.00  0.00     0.075 H 
ATOM      8  H   LIG d   1       2.896  -1.568 -11.103  0.00  0.00     0.075 H 
BRANCH   6   9
ATOM      9  C   LIG d   1       3.745   0.002  -9.931  0.00  0.00    -0.010 A 
ATOM     10  C   LIG d   1       2.576   0.626  -9.534  0.00  0.00    -0.055 A 
ATOM     11  C   LIG d   1       2.606   1.941  -9.109  0.00  0.00    -0.061 A 
ATOM     12  H   LIG d   1       1.642   0.086  -9.555  0.00  0.00     0.062 H 
ATOM     13  C   LIG d   1       3.803   2.632  -9.081  0.00  0.00    -0.062 A 
ATOM     14  H   LIG d   1       1.693   2.429  -8.799  0.00  0.00     0.062 H 
ATOM     15  C   LIG d   1       4.971   2.007  -9.478  0.00  0.00    -0.061 A 
ATOM     16  H   LIG d   1       3.825   3.659  -8.750  0.00  0.00     0.062 H 
ATOM     17  C   LIG d   1       4.942   0.691  -9.897  0.00  0.00    -0.055 A 
ATOM     18  H   LIG d   1       5.905   2.547  -9.456  0.00  0.00     0.062 H 
ATOM     19  H   LIG d   1       5.855   0.201 -10.204  0.00  0.00     0.062 H 
ENDBRANCH   6   9
ENDBRANCH   5   6
ENDBRANCH   3   5
ENDBRANCH   1   3
BRANCH   1  20
ATOM     20  C   LIG d   1       4.503  -3.750  -6.340  0.00  0.00    -0.024 C 
ATOM     21  H   LIG d   1       3.441  -3.883  -6.131  0.00  0.00     0.029 H 
ATOM     22  H   LIG d   1       4.860  -4.583  -6.946  0.00  0.00     0.029 H 
BRANCH  20  23
ATOM     23  C   LIG d   1       5.280  -3.708  -5.023  0.00  0.00    -0.046 C 
ATOM     24  H   LIG d   1       4.702  -3.163  -4.277  0.00  0.00     0.027 H 
ATOM     25  H   LIG d   1       5.457  -4.725  -4.672  0.00  0.00     0.027 H 
BRANCH  23  26
ATOM     26  C   LIG d   1       6.621  -3.005  -5.243  0.00  0.00    -0.013 C 
ATOM     27  H   LIG d   1       7.378  -3.742  -5.513  0.00  0.00     0.032 H 
ATOM     28  H   LIG d   1       6.521  -2.276  -6.047  0.00  0.00     0.032 H 
BRANCH  26  29
ATOM     29  C   LIG d   1       7.041  -2.293  -3.956  0.00  0.00    -0.035 C 
ATOM     30  H   LIG d   1       6.352  -2.556  -3.153  0.00  0.00     0.081 H 
ATOM     31  H   LIG d   1       8.050  -2.600  -3.683  0.00  0.00     0.081 H 
BRANCH  29  32
ATOM     32  N   LIG d   1       6.987  -0.836  -4.175  0.00  0.00     0.218 N 
ATOM     33  H   LIG d   1       6.033  -0.500  -4.055  0.00  0.00     0.199 HD
ATOM     34  H   LIG d   1       7.598  -0.361  -3.512  0.00  0.00     0.199 HD
ATOM     35  H   LIG d   1       7.300  -0.626  -5.130  0.00  0.00     0.199 HD
ENDBRANCH  29  32
ENDBRANCH  26  29
ENDBRANCH  23  26
ENDBRANCH  20  23
ENDBRANCH   1  20
BRANCH   1  36
ATOM     36  N   LIG d   1       3.691  -1.472  -6.694  0.00  0.00    -0.268 N 
ATOM     37  C   LIG d   1       4.049  -0.225  -6.329  0.00  0.00     0.401 C 
ATOM     38  O   LIG d   1       5.221   0.097  -6.335  0.00  0.00    -0.227 OA
ATOM     39  H   LIG d   1       2.755  -1.728  -6.689  0.00  0.00     0.153 HD
BRANCH  37  40
ATOM     40  O   LIG d   1       3.109   0.664  -5.957  0.00  0.00    -0.446 OA
BRANCH  40  41
ATOM     41  C   LIG d   1       2.244   0.287  -4.853  0.00  0.00     0.119 C 
ATOM     42  H   LIG d   1       1.664  -0.594  -5.132  0.00  0.00     0.075 H 
ATOM     43  H   LIG d   1       1.568   1.110  -4.624  0.00  0.00     0.075 H 
BRANCH  41  44
ATOM     44  C   LIG d   1       3.084  -0.028  -3.642  0.00  0.00    -0.010 A 
ATOM     45  C   LIG d   1       3.214  -1.335  -3.212  0.00  0.00    -0.055 A 
ATOM     46  C   LIG d   1       3.988  -1.624  -2.104  0.00  0.00    -0.061 A 
ATOM     47  H   LIG d   1       2.715  -2.131  -3.744  0.00  0.00     0.062 H 
ATOM     48  C   LIG d   1       4.622  -0.604  -1.419  0.00  0.00    -0.062 A 
ATOM     49  H   LIG d   1       4.093  -2.645  -1.770  0.00  0.00     0.062 H 
ATOM     50  C   LIG d   1       4.492   0.703  -1.849  0.00  0.00    -0.061 A 
ATOM     51  H   LIG d   1       5.223  -0.829  -0.550  0.00  0.00     0.062 H 
ATOM     52  C   LIG d   1       3.722   0.991  -2.960  0.00  0.00    -0.055 A 
ATOM     53  H   LIG d   1       4.990   1.500  -1.316  0.00  0.00     0.062 H 
ATOM     54  H   LIG d   1       3.620   2.013  -3.296  0.00  0.00     0.062 H 
ENDBRANCH  41  44
ENDBRANCH  40  41
ENDBRANCH  37  40
ENDBRANCH   1  36
TORSDOF 13
ENDMDL
MODEL 3
REMARK VINA RESULT:      -6.2      2.337      5.931
REMARK  13 active torsions:
REMARK  status: ('A' for Active; 'I' for Inactive)
REMARK    1  A    between atoms: C_4  and  C_7 
REMARK    2  A    between atoms: C_7  and  O_8 
REMARK    3  A    between atoms: O_8  and  C_9 
REMARK    4  A    between atoms: C_9  and  C_11 
REMARK    5  A    between atoms: C_11  and  C_13 
REMARK    6  A    between atoms: C_11  and  N_17 
REMARK    7  A    between atoms: C_13  and  C_14 
REMARK    8  A    between atoms: C_14  and  C_15 
REMARK    9  A    between atoms: C_15  and  C_16 
REMARK   10  A    between atoms: C_16  and  N_53 
REMARK       I    between atoms: N_17  and  C_18 
REMARK   11  A    between atoms: C_18  and  O_20 
REMARK   12  A    between atoms: O_20  and  C_21 
REMARK   13  A    between atoms: C_21  and  C_22 
ROOT
ATOM      1  C   LIG d   1       5.458  -2.899  -6.636  0.00  0.00     0.123 C 
ATOM      2  H   LIG d   1       5.763  -3.825  -7.122  0.00  0.00     0.061 H 
ENDROOT
BRANCH   1   3
ATOM      3  C   LIG d   1       5.354  -3.121  -5.150  0.00  0.00     0.328 C 
ATOM      4  O   LIG d   1       6.341  -3.403  -4.511  0.00  0.00    -0.249 OA
BRANCH   3   5
ATOM      5  O   LIG d   1       4.167  -3.005  -4.535  0.00  0.00    -0.459 OA
BRANCH   5   6
ATOM      6  C   LIG d   1       4.186  -2.676  -3.121  0.00  0.00     0.118 C 
ATOM      7  H   LIG d   1       3.377  -3.202  -2.613  0.00  0.00     0.075 H 
ATOM      8  H   LIG d   1       5.141  -2.979  -2.690  0.00  0.00     0.075 H 
BRANCH   6   9
ATOM      9  C   LIG d   1       4.005  -1.190  -2.948  0.00  0.00    -0.010 A 
ATOM     10  C   LIG d   1       4.558  -0.549  -1.855  0.00  0.00    -0.055 A 
ATOM     11  C   LIG d   1       4.392   0.815  -1.698  0.00  0.00    -0.061 A 
ATOM     12  H   LIG d   1       5.120  -1.112  -1.125  0.00  0.00     0.062 H 
ATOM     13  C   LIG d   1       3.674   1.536  -2.633  0.00  0.00    -0.062 A 
ATOM     14  H   LIG d   1       4.824   1.316  -0.843  0.00  0.00     0.062 H 
ATOM     15  C   LIG d   1       3.122   0.895  -3.725  0.00  0.00    -0.061 A 
ATOM     16  H   LIG d   1       3.544   2.601  -2.508  0.00  0.00     0.062 H 
ATOM     17  C   LIG d   1       3.292  -0.467  -3.886  0.00  0.00    -0.055 A 
ATOM     18  H   LIG d   1       2.560   1.459  -4.455  0.00  0.00     0.062 H 
ATOM     19  H   LIG d   1       2.864  -0.968  -4.742  0.00  0.00     0.062 H 
ENDBRANCH   6   9
ENDBRANCH   5   6
ENDBRANCH   3   5
ENDBRANCH   1   3
BRANCH   1  20
ATOM     20  C   LIG d   1       6.495  -1.810  -6.918  0.00  0.00    -0.024 C 
ATOM     21  H   LIG d   1       7.434  -2.068  -6.428  0.00  0.00     0.029 H 
ATOM     22  H   LIG d   1       6.656  -1.732  -7.994  0.00  0.00     0.029 H 
BRANCH  20  23
ATOM     23  C   LIG d   1       5.989  -0.471  -6.379  0.00  0.00    -0.046 C 
ATOM     24  H   LIG d   1       5.517   0.090  -7.186  0.00  0.00     0.027 H 
ATOM     25  H   LIG d   1       5.262  -0.649  -5.587  0.00  0.00     0.027 H 
BRANCH  23  26
ATOM     26  C   LIG d   1       7.165   0.332  -5.820  0.00  0.00    -0.013 C 
ATOM     27  H   LIG d   1       8.101  -0.160  -6.088  0.00  0.00     0.032 H 
ATOM     28  H   LIG d   1       7.151   1.338  -6.240  0.00  0.00     0.032 H 
BRANCH  26  29
ATOM     29  C   LIG d   1       7.050   0.412  -4.297  0.00  0.00    -0.035 C 
ATOM     30  H   LIG d   1       7.545   1.317  -3.943  0.00  0.00     0.081 H 
ATOM     31  H   LIG d   1       5.999   0.439  -4.013  0.00  0.00     0.081 H 
BRANCH  29  32
ATOM     32  N   LIG d   1       7.716  -0.761  -3.702  0.00  0.00     0.218 N 
ATOM     33  H   LIG d   1       7.892  -1.463  -4.419  0.00  0.00     0.199 HD
ATOM     34  H   LIG d   1       8.599  -0.483  -3.277  0.00  0.00     0.199 HD
ATOM     35  H   LIG d   1       7.108  -1.164  -2.980  0.00  0.00     0.199 HD
ENDBRANCH  29  32
ENDBRANCH  26  29
ENDBRANCH  23  26
ENDBRANCH  20  23
ENDBRANCH   1  20
BRANCH   1  36
ATOM     36  N   LIG d   1       4.156  -2.480  -7.160  0.00  0.00    -0.268 N 
ATOM     37  C   LIG d   1       3.817  -2.766  -8.433  0.00  0.00     0.401 C 
ATOM     38  O   LIG d   1       4.592  -3.372  -9.146  0.00  0.00    -0.227 OA
ATOM     39  H   LIG d   1       3.536  -1.996  -6.591  0.00  0.00     0.153 HD
BRANCH  37  40
ATOM     40  O   LIG d   1       2.620  -2.381  -8.914  0.00  0.00    -0.446 OA
BRANCH  40  41
ATOM     41  C   LIG d   1       2.624  -1.564 -10.115  0.00  0.00     0.119 C 
ATOM     42  H   LIG d   1       1.630  -1.577 -10.565  0.00  0.00     0.075 H 
ATOM     43  H   LIG d   1       3.349  -1.963 -10.823  0.00  0.00     0.075 H 
BRANCH  41  44
ATOM     44  C   LIG d   1       2.995  -0.148  -9.758  0.00  0.00    -0.010 A 
ATOM     45  C   LIG d   1       3.798   0.591 -10.607  0.00  0.00    -0.055 A 
ATOM     46  C   LIG d   1       4.134   1.892 -10.281  0.00  0.00    -0.061 A 
ATOM     47  H   LIG d   1       4.160   0.154 -11.525  0.00  0.00     0.062 H 
ATOM     48  C   LIG d   1       3.676   2.450  -9.102  0.00  0.00    -0.062 A 
ATOM     49  H   LIG d   1       4.758   2.471 -10.946  0.00  0.00     0.062 H 
ATOM     50  C   LIG d   1       2.873   1.711  -8.254  0.00  0.00    -0.061 A 
ATOM     51  H   LIG d   1       3.942   3.465  -8.845  0.00  0.00     0.062 H 
ATOM     52  C   LIG d   1       2.533   0.412  -8.582  0.00  0.00    -0.055 A 
ATOM     53  H   LIG d   1       2.512   2.148  -7.334  0.00  0.00     0.062 H 
ATOM     54  H   LIG d   1       1.905  -0.166  -7.919  0.00  0.00     0.062 H 
ENDBRANCH  41  44
ENDBRANCH  40  41
ENDBRANCH  37  40
ENDBRANCH   1  36
TORSDOF 13
ENDMDL
MODEL 4
REMARK VINA RESULT:      -6.1      2.433      6.529
REMARK  13 active torsions:
REMARK  status: ('A' for Active; 'I' for Inactive)
REMARK    1  A    between atoms: C_4  and  C_7 
REMARK    2  A    between atoms: C_7  and  O_8 
REMARK    3  A    between atoms: O_8  and  C_9 
REMARK    4  A    between atoms: C_9  and  C_11 
REMARK    5  A    between atoms: C_11  and  C_13 
REMARK    6  A    between atoms: C_11  and  N_17 
REMARK    7  A    between atoms: C_13  and  C_14 
REMARK    8  A    between atoms: C_14  and  C_15 
REMARK    9  A    between atoms: C_15  and  C_16 
REMARK   10  A    between atoms: C_16  and  N_53 
REMARK       I    between atoms: N_17  and  C_18 
REMARK   11  A    between atoms: C_18  and  O_20 
REMARK   12  A    between atoms: O_20  and  C_21 
REMARK   13  A    between atoms: C_21  and  C_22 
ROOT
ATOM      1  C   LIG d   1       4.639  -2.133  -4.451  0.00  0.00     0.123 C 
ATOM      2  H   LIG d   1       5.605  -1.638  -4.365  0.00  0.00     0.061 H 
ENDROOT
BRANCH   1   3
ATOM      3  C   LIG d   1       4.803  -3.428  -5.202  0.00  0.00     0.328 C 
ATOM      4  O   LIG d   1       4.411  -4.463  -4.715  0.00  0.00    -0.249 OA
BRANCH   3   5
ATOM      5  O   LIG d   1       5.384  -3.434  -6.412  0.00  0.00    -0.459 OA
BRANCH   5   6
ATOM      6  C   LIG d   1       4.504  -3.502  -7.565  0.00  0.00     0.118 C 
ATOM      7  H   LIG d   1       4.281  -4.545  -7.791  0.00  0.00     0.075 H 
ATOM      8  H   LIG d   1       3.577  -2.972  -7.347  0.00  0.00     0.075 H 
BRANCH   6   9
ATOM      9  C   LIG d   1       5.181  -2.865  -8.752  0.00  0.00    -0.010 A 
ATOM     10  C   LIG d   1       4.960  -3.363 -10.023  0.00  0.00    -0.055 A 
ATOM     11  C   LIG d   1       5.581  -2.778 -11.111  0.00  0.00    -0.061 A 
ATOM     12  H   LIG d   1       4.303  -4.207 -10.166  0.00  0.00     0.062 H 
ATOM     13  C   LIG d   1       6.422  -1.696 -10.928  0.00  0.00    -0.062 A 
ATOM     14  H   LIG d   1       5.409  -3.167 -12.104  0.00  0.00     0.062 H 
ATOM     15  C   LIG d   1       6.642  -1.199  -9.657  0.00  0.00    -0.061 A 
ATOM     16  H   LIG d   1       6.907  -1.241 -11.778  0.00  0.00     0.062 H 
ATOM     17  C   LIG d   1       6.018  -1.780  -8.570  0.00  0.00    -0.055 A 
ATOM     18  H   LIG d   1       7.299  -0.354  -9.515  0.00  0.00     0.062 H 
ATOM     19  H   LIG d   1       6.186  -1.389  -7.577  0.00  0.00     0.062 H 
ENDBRANCH   6   9
ENDBRANCH   5   6
ENDBRANCH   3   5
ENDBRANCH   1   3
BRANCH   1  20
ATOM     20  C   LIG d   1       4.087  -2.421  -3.053  0.00  0.00    -0.024 C 
ATOM     21  H   LIG d   1       3.358  -3.230  -3.109  0.00  0.00     0.029 H 
ATOM     22  H   LIG d   1       4.904  -2.714  -2.393  0.00  0.00     0.029 H 
BRANCH  20  23
ATOM     23  C   LIG d   1       3.413  -1.164  -2.501  0.00  0.00    -0.046 C 
ATOM     24  H   LIG d   1       2.977  -0.595  -3.323  0.00  0.00     0.027 H 
ATOM     25  H   LIG d   1       2.628  -1.449  -1.802  0.00  0.00     0.027 H 
BRANCH  23  26
ATOM     26  C   LIG d   1       4.450  -0.303  -1.778  0.00  0.00    -0.013 C 
ATOM     27  H   LIG d   1       4.265  -0.336  -0.704  0.00  0.00     0.032 H 
ATOM     28  H   LIG d   1       5.450  -0.686  -1.986  0.00  0.00     0.032 H 
BRANCH  26  29
ATOM     29  C   LIG d   1       4.346   1.142  -2.268  0.00  0.00    -0.035 C 
ATOM     30  H   LIG d   1       3.458   1.251  -2.892  0.00  0.00     0.081 H 
ATOM     31  H   LIG d   1       4.271   1.812  -1.412  0.00  0.00     0.081 H 
BRANCH  29  32
ATOM     32  N   LIG d   1       5.538   1.464  -3.072  0.00  0.00     0.218 N 
ATOM     33  H   LIG d   1       5.449   2.398  -3.470  0.00  0.00     0.199 HD
ATOM     34  H   LIG d   1       6.373   1.423  -2.490  0.00  0.00     0.199 HD
ATOM     35  H   LIG d   1       5.627   0.782  -3.834  0.00  0.00     0.199 HD
ENDBRANCH  29  32
ENDBRANCH  26  29
ENDBRANCH  23  26
ENDBRANCH  20  23
ENDBRANCH   1  20
BRANCH   1  36
ATOM     36  N   LIG d   1       3.707  -1.264  -5.173  0.00  0.00    -0.268 N 
ATOM     37  C   LIG d   1       4.165  -0.171  -5.814  0.00  0.00     0.401 C 
ATOM     38  O   LIG d   1       5.350   0.095  -5.793  0.00  0.00    -0.227 OA
ATOM     39  H   LIG d   1       2.760  -1.476  -5.191  0.00  0.00     0.153 HD
BRANCH  37  40
ATOM     40  O   LIG d   1       3.308   0.629  -6.478  0.00  0.00    -0.446 OA
BRANCH  40  41
ATOM     41  C   LIG d   1       2.425  -0.006  -7.441  0.00  0.00     0.119 C 
ATOM     42  H   LIG d   1       1.416   0.392  -7.325  0.00  0.00     0.075 H 
ATOM     43  H   LIG d   1       2.414  -1.081  -7.269  0.00  0.00     0.075 H 
BRANCH  41  44
ATOM     44  C   LIG d   1       2.918   0.277  -8.837  0.00  0.00    -0.010 A 
ATOM     45  C   LIG d   1       2.489  -0.506  -9.893  0.00  0.00    -0.055 A 
ATOM     46  C   LIG d   1       2.938  -0.243 -11.173  0.00  0.00    -0.061 A 
ATOM     47  H   LIG d   1       1.803  -1.320  -9.717  0.00  0.00     0.062 H 
ATOM     48  C   LIG d   1       3.823   0.795 -11.397  0.00  0.00    -0.062 A 
ATOM     49  H   LIG d   1       2.601  -0.853 -11.999  0.00  0.00     0.062 H 
ATOM     50  C   LIG d   1       4.250   1.578 -10.341  0.00  0.00    -0.061 A 
ATOM     51  H   LIG d   1       4.176   0.997 -12.397  0.00  0.00     0.062 H 
ATOM     52  C   LIG d   1       3.798   1.319  -9.061  0.00  0.00    -0.055 A 
ATOM     53  H   LIG d   1       4.939   2.392 -10.516  0.00  0.00     0.062 H 
ATOM     54  H   LIG d   1       4.132   1.931  -8.236  0.00  0.00     0.062 H 
ENDBRANCH  41  44
ENDBRANCH  40  41
ENDBRANCH  37  40
ENDBRANCH   1  36
TORSDOF 13
ENDMDL
MODEL 5
REMARK VINA RESULT:      -6.0      1.268      1.761
REMARK  13 active torsions:
REMARK  status: ('A' for Active; 'I' for Inactive)
REMARK    1  A    between atoms: C_4  and  C_7 
REMARK    2  A    between atoms: C_7  and  O_8 
REMARK    3  A    between atoms: O_8  and  C_9 
REMARK    4  A    between atoms: C_9  and  C_11 
REMARK    5  A    between atoms: C_11  and  C_13 
REMARK    6  A    between atoms: C_11  and  N_17 
REMARK    7  A    between atoms: C_13  and  C_14 
REMARK    8  A    between atoms: C_14  and  C_15 
REMARK    9  A    between atoms: C_15  and  C_16 
REMARK   10  A    between atoms: C_16  and  N_53 
REMARK       I    between atoms: N_17  and  C_18 
REMARK   11  A    between atoms: C_18  and  O_20 
REMARK   12  A    between atoms: O_20  and  C_21 
REMARK   13  A    between atoms: C_21  and  C_22 
ROOT
ATOM      1  C   LIG d   1       4.794   0.138  -8.854  0.00  0.00     0.123 C 
ATOM      2  H   LIG d   1       4.077  -0.648  -9.090  0.00  0.00     0.061 H 
ENDROOT
BRANCH   1   3
ATOM      3  C   LIG d   1       6.171  -0.458  -8.728  0.00  0.00     0.328 C 
ATOM      4  O   LIG d   1       6.990  -0.276  -9.599  0.00  0.00    -0.249 OA
BRANCH   3   5
ATOM      5  O   LIG d   1       6.490  -1.191  -7.650  0.00  0.00    -0.459 OA
BRANCH   5   6
ATOM      6  C   LIG d   1       7.830  -1.029  -7.116  0.00  0.00     0.118 C 
ATOM      7  H   LIG d   1       8.184  -1.984  -6.725  0.00  0.00     0.075 H 
ATOM      8  H   LIG d   1       8.499  -0.692  -7.908  0.00  0.00     0.075 H 
BRANCH   6   9
ATOM      9  C   LIG d   1       7.809  -0.009  -6.006  0.00  0.00    -0.010 A 
ATOM     10  C   LIG d   1       8.358   1.244  -6.210  0.00  0.00    -0.055 A 
ATOM     11  C   LIG d   1       8.338   2.179  -5.192  0.00  0.00    -0.061 A 
ATOM     12  H   LIG d   1       8.801   1.492  -7.162  0.00  0.00     0.062 H 
ATOM     13  C   LIG d   1       7.770   1.863  -3.972  0.00  0.00    -0.062 A 
ATOM     14  H   LIG d   1       8.767   3.159  -5.351  0.00  0.00     0.062 H 
ATOM     15  C   LIG d   1       7.222   0.610  -3.770  0.00  0.00    -0.061 A 
ATOM     16  H   LIG d   1       7.756   2.594  -3.178  0.00  0.00     0.062 H 
ATOM     17  C   LIG d   1       7.236  -0.324  -4.788  0.00  0.00    -0.055 A 
ATOM     18  H   LIG d   1       6.779   0.363  -2.817  0.00  0.00     0.062 H 
ATOM     19  H   LIG d   1       6.804  -1.301  -4.632  0.00  0.00     0.062 H 
ENDBRANCH   6   9
ENDBRANCH   5   6
ENDBRANCH   3   5
ENDBRANCH   1   3
BRANCH   1  20
ATOM     20  C   LIG d   1       4.790   1.183  -9.971  0.00  0.00    -0.024 C 
ATOM     21  H   LIG d   1       4.734   2.181  -9.535  0.00  0.00     0.029 H 
ATOM     22  H   LIG d   1       5.706   1.094 -10.556  0.00  0.00     0.029 H 
BRANCH  20  23
ATOM     23  C   LIG d   1       3.581   0.955 -10.880  0.00  0.00    -0.046 C 
ATOM     24  H   LIG d   1       2.689   1.368 -10.408  0.00  0.00     0.027 H 
ATOM     25  H   LIG d   1       3.747   1.448 -11.837  0.00  0.00     0.027 H 
BRANCH  23  26
ATOM     26  C   LIG d   1       3.389  -0.545 -11.108  0.00  0.00    -0.013 C 
ATOM     27  H   LIG d   1       4.019  -0.871 -11.935  0.00  0.00     0.032 H 
ATOM     28  H   LIG d   1       3.667  -1.089 -10.204  0.00  0.00     0.032 H 
BRANCH  26  29
ATOM     29  C   LIG d   1       1.923  -0.828 -11.442  0.00  0.00    -0.035 C 
ATOM     30  H   LIG d   1       1.554  -0.066 -12.129  0.00  0.00     0.081 H 
ATOM     31  H   LIG d   1       1.839  -1.808 -11.909  0.00  0.00     0.081 H 
BRANCH  29  32
ATOM     32  N   LIG d   1       1.129  -0.778 -10.201  0.00  0.00     0.218 N 
ATOM     33  H   LIG d   1       0.223  -1.221 -10.349  0.00  0.00     0.199 HD
ATOM     34  H   LIG d   1       1.622  -1.259  -9.451  0.00  0.00     0.199 HD
ATOM     35  H   LIG d   1       0.984   0.202  -9.932  0.00  0.00     0.199 HD
ENDBRANCH  29  32
ENDBRANCH  26  29
ENDBRANCH  23  26
ENDBRANCH  20  23
ENDBRANCH   1  20
BRANCH   1  36
ATOM     36  N   LIG d   1       4.419   0.776  -7.589  0.00  0.00    -0.268 N 
ATOM     37  C   LIG d   1       3.212   0.530  -7.042  0.00  0.00     0.401 C 
ATOM     38  O   LIG d   1       2.434  -0.219  -7.598  0.00  0.00    -0.227 OA
ATOM     39  H   LIG d   1       5.041   1.374  -7.144  0.00  0.00     0.153 HD
BRANCH  37  40
ATOM     40  O   LIG d   1       2.868   1.116  -5.879  0.00  0.00    -0.446 OA
BRANCH  40  41
ATOM     41  C   LIG d   1       2.129   0.308  -4.927  0.00  0.00     0.119 C 
ATOM     42  H   LIG d   1       1.854  -0.640  -5.391  0.00  0.00     0.075 H 
ATOM     43  H   LIG d   1       1.227   0.838  -4.623  0.00  0.00     0.075 H 
BRANCH  41  44
ATOM     44  C   LIG d   1       2.989   0.043  -3.718  0.00  0.00    -0.010 A 
ATOM     45  C   LIG d   1       3.261  -1.257  -3.334  0.00  0.00    -0.055 A 
ATOM     46  C   LIG d   1       4.054  -1.499  -2.228  0.00  0.00    -0.061 A 
ATOM     47  H   LIG d   1       2.857  -2.083  -3.900  0.00  0.00     0.062 H 
ATOM     48  C   LIG d   1       4.566  -0.442  -1.500  0.00  0.00    -0.062 A 
ATOM     49  H   LIG d   1       4.270  -2.515  -1.930  0.00  0.00     0.062 H 
ATOM     50  C   LIG d   1       4.295   0.858  -1.884  0.00  0.00    -0.061 A 
ATOM     51  H   LIG d   1       5.183  -0.631  -0.633  0.00  0.00     0.062 H 
ATOM     52  C   LIG d   1       3.506   1.100  -2.993  0.00  0.00    -0.055 A 
ATOM     53  H   LIG d   1       4.698   1.685  -1.317  0.00  0.00     0.062 H 
ATOM     54  H   LIG d   1       3.294   2.116  -3.293  0.00  0.00     0.062 H 
ENDBRANCH  41  44
ENDBRANCH  40  41
ENDBRANCH  37  40
ENDBRANCH   1  36
TORSDOF 13
ENDMDL
MODEL 6
REMARK VINA RESULT:      -5.9      1.966      4.938
REMARK  13 active torsions:
REMARK  status: ('A' for Active; 'I' for Inactive)
REMARK    1  A    between atoms: C_4  and  C_7 
REMARK    2  A    between atoms: C_7  and  O_8 
REMARK    3  A    between atoms: O_8  and  C_9 
REMARK    4  A    between atoms: C_9  and  C_11 
REMARK    5  A    between atoms: C_11  and  C_13 
REMARK    6  A    between atoms: C_11  and  N_17 
REMARK    7  A    between atoms: C_13  and  C_14 
REMARK    8  A    between atoms: C_14  and  C_15 
REMARK    9  A    between atoms: C_15  and  C_16 
REMARK   10  A    between atoms: C_16  and  N_53 
REMARK       I    between atoms: N_17  and  C_18 
REMARK   11  A    between atoms: C_18  and  O_20 
REMARK   12  A    between atoms: O_20  and  C_21 
REMARK   13  A    between atoms: C_21  and  C_22 
ROOT
ATOM      1  C   LIG d   1       7.211   0.412  -8.160  0.00  0.00     0.123 C 
ATOM      2  H   LIG d   1       8.244   0.434  -8.507  0.00  0.00     0.061 H 
ENDROOT
BRANCH   1   3
ATOM      3  C   LIG d   1       6.512   1.676  -8.589  0.00  0.00     0.328 C 
ATOM      4  O   LIG d   1       7.122   2.531  -9.187  0.00  0.00    -0.249 OA
BRANCH   3   5
ATOM      5  O   LIG d   1       5.211   1.852  -8.307  0.00  0.00    -0.459 OA
BRANCH   5   6
ATOM      6  C   LIG d   1       4.368   2.355  -9.376  0.00  0.00     0.118 C 
ATOM      7  H   LIG d   1       3.673   3.094  -8.975  0.00  0.00     0.075 H 
ATOM      8  H   LIG d   1       4.990   2.821 -10.141  0.00  0.00     0.075 H 
BRANCH   6   9
ATOM      9  C   LIG d   1       3.593   1.214  -9.984  0.00  0.00    -0.010 A 
ATOM     10  C   LIG d   1       2.468   0.726  -9.346  0.00  0.00    -0.055 A 
ATOM     11  C   LIG d   1       1.757  -0.320  -9.904  0.00  0.00    -0.061 A 
ATOM     12  H   LIG d   1       2.143   1.163  -8.413  0.00  0.00     0.062 H 
ATOM     13  C   LIG d   1       2.171  -0.878 -11.099  0.00  0.00    -0.062 A 
ATOM     14  H   LIG d   1       0.877  -0.702  -9.406  0.00  0.00     0.062 H 
ATOM     15  C   LIG d   1       3.296  -0.390 -11.736  0.00  0.00    -0.061 A 
ATOM     16  H   LIG d   1       1.616  -1.696 -11.533  0.00  0.00     0.062 H 
ATOM     17  C   LIG d   1       4.004   0.660 -11.182  0.00  0.00    -0.055 A 
ATOM     18  H   LIG d   1       3.620  -0.826 -12.669  0.00  0.00     0.062 H 
ATOM     19  H   LIG d   1       4.881   1.044 -11.681  0.00  0.00     0.062 H 
ENDBRANCH   6   9
ENDBRANCH   5   6
ENDBRANCH   3   5
ENDBRANCH   1   3
BRANCH   1  20
ATOM     20  C   LIG d   1       6.496  -0.797  -8.765  0.00  0.00    -0.024 C 
ATOM     21  H   LIG d   1       5.656  -0.457  -9.371  0.00  0.00     0.029 H 
ATOM     22  H   LIG d   1       7.192  -1.356  -9.391  0.00  0.00     0.029 H 
BRANCH  20  23
ATOM     23  C   LIG d   1       5.982  -1.700  -7.643  0.00  0.00    -0.046 C 
ATOM     24  H   LIG d   1       6.252  -2.735  -7.856  0.00  0.00     0.027 H 
ATOM     25  H   LIG d   1       6.430  -1.396  -6.697  0.00  0.00     0.027 H 
BRANCH  23  26
ATOM     26  C   LIG d   1       4.460  -1.579  -7.547  0.00  0.00    -0.013 C 
ATOM     27  H   LIG d   1       4.111  -0.819  -8.246  0.00  0.00     0.032 H 
ATOM     28  H   LIG d   1       4.003  -2.538  -7.795  0.00  0.00     0.032 H 
BRANCH  26  29
ATOM     29  C   LIG d   1       4.067  -1.181  -6.123  0.00  0.00    -0.035 C 
ATOM     30  H   LIG d   1       3.151  -1.699  -5.840  0.00  0.00     0.081 H 
ATOM     31  H   LIG d   1       4.866  -1.457  -5.435  0.00  0.00     0.081 H 
BRANCH  29  32
ATOM     32  N   LIG d   1       3.828   0.273  -6.079  0.00  0.00     0.218 N 
ATOM     33  H   LIG d   1       2.894   0.462  -5.719  0.00  0.00     0.199 HD
ATOM     34  H   LIG d   1       4.519   0.722  -5.481  0.00  0.00     0.199 HD
ATOM     35  H   LIG d   1       3.906   0.657  -7.028  0.00  0.00     0.199 HD
ENDBRANCH  29  32
ENDBRANCH  26  29
ENDBRANCH  23  26
ENDBRANCH  20  23
ENDBRANCH   1  20
BRANCH   1  36
ATOM     36  N   LIG d   1       7.189   0.312  -6.699  0.00  0.00    -0.268 N 
ATOM     37  C   LIG d   1       8.284   0.636  -5.984  0.00  0.00     0.401 C 
ATOM     38  O   LIG d   1       9.291   1.011  -6.550  0.00  0.00    -0.227 OA
ATOM     39  H   LIG d   1       6.384   0.013  -6.246  0.00  0.00     0.153 HD
BRANCH  37  40
ATOM     40  O   LIG d   1       8.262   0.544  -4.640  0.00  0.00    -0.446 OA
BRANCH  40  41
ATOM     41  C   LIG d   1       7.367   1.441  -3.932  0.00  0.00     0.119 C 
ATOM     42  H   LIG d   1       6.917   2.138  -4.639  0.00  0.00     0.075 H 
ATOM     43  H   LIG d   1       7.928   1.996  -3.181  0.00  0.00     0.075 H 
BRANCH  41  44
ATOM     44  C   LIG d   1       6.282   0.639  -3.259  0.00  0.00    -0.010 A 
ATOM     45  C   LIG d   1       5.224   1.285  -2.646  0.00  0.00    -0.055 A 
ATOM     46  C   LIG d   1       4.228   0.549  -2.033  0.00  0.00    -0.061 A 
ATOM     47  H   LIG d   1       5.175   2.363  -2.649  0.00  0.00     0.062 H 
ATOM     48  C   LIG d   1       4.294  -0.831  -2.023  0.00  0.00    -0.062 A 
ATOM     49  H   LIG d   1       3.399   1.053  -1.557  0.00  0.00     0.062 H 
ATOM     50  C   LIG d   1       5.352  -1.477  -2.636  0.00  0.00    -0.061 A 
ATOM     51  H   LIG d   1       3.518  -1.406  -1.540  0.00  0.00     0.062 H 
ATOM     52  C   LIG d   1       6.346  -0.741  -3.253  0.00  0.00    -0.055 A 
ATOM     53  H   LIG d   1       5.402  -2.556  -2.632  0.00  0.00     0.062 H 
ATOM     54  H   LIG d   1       7.172  -1.246  -3.732  0.00  0.00     0.062 H 
ENDBRANCH  41  44
ENDBRANCH  40  41
ENDBRANCH  37  40
ENDBRANCH   1  36
TORSDOF 13
ENDMDL
MODEL 7
REMARK VINA RESULT:      -5.9      2.695      6.265
REMARK  13 active torsions:
REMARK  status: ('A' for Active; 'I' for Inactive)
REMARK    1  A    between atoms: C_4  and  C_7 
REMARK    2  A    between atoms: C_7  and  O_8 
REMARK    3  A    between atoms: O_8  and  C_9 
REMARK    4  A    between atoms: C_9  and  C_11 
REMARK    5  A    between atoms: C_11  and  C_13 
REMARK    6  A    between atoms: C_11  and  N_17 
REMARK    7  A    between atoms: C_13  and  C_14 
REMARK    8  A    between atoms: C_14  and  C_15 
REMARK    9  A    between atoms: C_15  and  C_16 
REMARK   10  A    between atoms: C_16  and  N_53 
REMARK       I    between atoms: N_17  and  C_18 
REMARK   11  A    between atoms: C_18  and  O_20 
REMARK   12  A    between atoms: O_20  and  C_21 
REMARK   13  A    between atoms: C_21  and  C_22 
ROOT
ATOM      1  C   LIG d   1       4.754  -0.241  -7.457  0.00  0.00     0.123 C 
ATOM      2  H   LIG d   1       4.704  -0.886  -8.334  0.00  0.00     0.061 H 
ENDROOT
BRANCH   1   3
ATOM      3  C   LIG d   1       3.363   0.178  -7.061  0.00  0.00     0.328 C 
ATOM      4  O   LIG d   1       2.413  -0.194  -7.709  0.00  0.00    -0.249 OA
BRANCH   3   5
ATOM      5  O   LIG d   1       3.177   0.964  -5.989  0.00  0.00    -0.459 OA
BRANCH   5   6
ATOM      6  C   LIG d   1       2.275   0.476  -4.962  0.00  0.00     0.118 C 
ATOM      7  H   LIG d   1       1.566   1.261  -4.697  0.00  0.00     0.075 H 
ATOM      8  H   LIG d   1       1.732  -0.391  -5.337  0.00  0.00     0.075 H 
BRANCH   6   9
ATOM      9  C   LIG d   1       3.068   0.083  -3.741  0.00  0.00    -0.010 A 
ATOM     10  C   LIG d   1       3.652   1.058  -2.954  0.00  0.00    -0.055 A 
ATOM     11  C   LIG d   1       4.379   0.698  -1.835  0.00  0.00    -0.061 A 
ATOM     12  H   LIG d   1       3.540   2.100  -3.213  0.00  0.00     0.062 H 
ATOM     13  C   LIG d   1       4.521  -0.637  -1.503  0.00  0.00    -0.062 A 
ATOM     14  H   LIG d   1       4.836   1.459  -1.219  0.00  0.00     0.062 H 
ATOM     15  C   LIG d   1       3.937  -1.611  -2.291  0.00  0.00    -0.061 A 
ATOM     16  H   LIG d   1       5.090  -0.917  -0.630  0.00  0.00     0.062 H 
ATOM     17  C   LIG d   1       3.206  -1.251  -3.407  0.00  0.00    -0.055 A 
ATOM     18  H   LIG d   1       4.049  -2.653  -2.031  0.00  0.00     0.062 H 
ATOM     19  H   LIG d   1       2.745  -2.011  -4.020  0.00  0.00     0.062 H 
ENDBRANCH   6   9
ENDBRANCH   5   6
ENDBRANCH   3   5
ENDBRANCH   1   3
BRANCH   1  20
ATOM     20  C   LIG d   1       5.405  -1.004  -6.301  0.00  0.00    -0.024 C 
ATOM     21  H   LIG d   1       4.732  -1.008  -5.444  0.00  0.00     0.029 H 
ATOM     22  H   LIG d   1       5.606  -2.030  -6.610  0.00  0.00     0.029 H 
BRANCH  20  23
ATOM     23  C   LIG d   1       6.719  -0.322  -5.915  0.00  0.00    -0.046 C 
ATOM     24  H   LIG d   1       7.556  -0.891  -6.320  0.00  0.00     0.027 H 
ATOM     25  H   LIG d   1       6.737   0.689  -6.321  0.00  0.00     0.027 H 
BRANCH  23  26
ATOM     26  C   LIG d   1       6.833  -0.260  -4.391  0.00  0.00    -0.013 C 
ATOM     27  H   LIG d   1       5.854  -0.435  -3.945  0.00  0.00     0.032 H 
ATOM     28  H   LIG d   1       7.529  -1.026  -4.047  0.00  0.00     0.032 H 
BRANCH  26  29
ATOM     29  C   LIG d   1       7.346   1.119  -3.972  0.00  0.00    -0.035 C 
ATOM     30  H   LIG d   1       7.092   1.849  -4.742  0.00  0.00     0.081 H 
ATOM     31  H   LIG d   1       6.881   1.409  -3.031  0.00  0.00     0.081 H 
BRANCH  29  32
ATOM     32  N   LIG d   1       8.812   1.064  -3.829  0.00  0.00     0.218 N 
ATOM     33  H   LIG d   1       9.108   0.108  -3.638  0.00  0.00     0.199 HD
ATOM     34  H   LIG d   1       9.258   1.393  -4.683  0.00  0.00     0.199 HD
ATOM     35  H   LIG d   1       9.097   1.666  -3.047  0.00  0.00     0.199 HD
ENDBRANCH  29  32
ENDBRANCH  26  29
ENDBRANCH  23  26
ENDBRANCH  20  23
ENDBRANCH   1  20
BRANCH   1  36
ATOM     36  N   LIG d   1       5.553   0.946  -7.769  0.00  0.00    -0.268 N 
ATOM     37  C   LIG d   1       5.926   1.192  -9.040  0.00  0.00     0.401 C 
ATOM     38  O   LIG d   1       5.602   0.429  -9.928  0.00  0.00    -0.227 OA
ATOM     39  H   LIG d   1       5.812   1.557  -7.060  0.00  0.00     0.153 HD
BRANCH  37  40
ATOM     40  O   LIG d   1       6.661   2.284  -9.327  0.00  0.00    -0.446 OA
BRANCH  40  41
ATOM     41  C   LIG d   1       8.102   2.116  -9.375  0.00  0.00     0.119 C 
ATOM     42  H   LIG d   1       8.455   2.299 -10.390  0.00  0.00     0.075 H 
ATOM     43  H   LIG d   1       8.359   1.100  -9.079  0.00  0.00     0.075 H 
BRANCH  41  44
ATOM     44  C   LIG d   1       8.754   3.096  -8.433  0.00  0.00    -0.010 A 
ATOM     45  C   LIG d   1       9.037   2.721  -7.133  0.00  0.00    -0.055 A 
ATOM     46  C   LIG d   1       9.639   3.618  -6.271  0.00  0.00    -0.061 A 
ATOM     47  H   LIG d   1       8.790   1.727  -6.792  0.00  0.00     0.062 H 
ATOM     48  C   LIG d   1       9.949   4.893  -6.705  0.00  0.00    -0.062 A 
ATOM     49  H   LIG d   1       9.863   3.324  -5.256  0.00  0.00     0.062 H 
ATOM     50  C   LIG d   1       9.667   5.267  -8.006  0.00  0.00    -0.061 A 
ATOM     51  H   LIG d   1      10.416   5.595  -6.031  0.00  0.00     0.062 H 
ATOM     52  C   LIG d   1       9.069   4.369  -8.869  0.00  0.00    -0.055 A 
ATOM     53  H   LIG d   1       9.912   6.263  -8.347  0.00  0.00     0.062 H 
ATOM     54  H   LIG d   1       8.848   4.661  -9.886  0.00  0.00     0.062 H 
ENDBRANCH  41  44
ENDBRANCH  40  41
ENDBRANCH  37  40
ENDBRANCH   1  36
TORSDOF 13
ENDMDL
MODEL 8
REMARK VINA RESULT:      -5.9      1.362      4.119
REMARK  13 active torsions:
REMARK  status: ('A' for Active; 'I' for Inactive)
REMARK    1  A    between atoms: C_4  and  C_7 
REMARK    2  A    between atoms: C_7  and  O_8 
REMARK    3  A    between atoms: O_8  and  C_9 
REMARK    4  A    between atoms: C_9  and  C_11 
REMARK    5  A    between atoms: C_11  and  C_13 
REMARK    6  A    between atoms: C_11  and  N_17 
REMARK    7  A    between atoms: C_13  and  C_14 
REMARK    8  A    between atoms: C_14  and  C_15 
REMARK    9  A    between atoms: C_15  and  C_16 
REMARK   10  A    between atoms: C_16  and  N_53 
REMARK       I    between atoms: N_17  and  C_18 
REMARK   11  A    between atoms: C_18  and  O_20 
REMARK   12  A    between atoms: O_20  and  C_21 
REMARK   13  A    between atoms: C_21  and  C_22 
ROOT
ATOM      1  C   LIG d   1       3.689   0.507  -8.658  0.00  0.00     0.123 C 
ATOM      2  H   LIG d   1       3.448   1.218  -9.447  0.00  0.00     0.061 H 
ENDROOT
BRANCH   1   3
ATOM      3  C   LIG d   1       3.087   0.974  -7.359  0.00  0.00     0.328 C 
ATOM      4  O   LIG d   1       2.627   2.089  -7.273  0.00  0.00    -0.249 OA
BRANCH   3   5
ATOM      5  O   LIG d   1       3.060   0.154  -6.297  0.00  0.00    -0.459 OA
BRANCH   5   6
ATOM      6  C   LIG d   1       2.331   0.613  -5.128  0.00  0.00     0.118 C 
ATOM      7  H   LIG d   1       2.215   1.696  -5.173  0.00  0.00     0.075 H 
ATOM      8  H   LIG d   1       1.347   0.143  -5.105  0.00  0.00     0.075 H 
BRANCH   6   9
ATOM      9  C   LIG d   1       3.094   0.240  -3.882  0.00  0.00    -0.010 A 
ATOM     10  C   LIG d   1       3.305  -1.091  -3.574  0.00  0.00    -0.055 A 
ATOM     11  C   LIG d   1       4.006  -1.432  -2.432  0.00  0.00    -0.061 A 
ATOM     12  H   LIG d   1       2.925  -1.863  -4.224  0.00  0.00     0.062 H 
ATOM     13  C   LIG d   1       4.495  -0.442  -1.599  0.00  0.00    -0.062 A 
ATOM     14  H   LIG d   1       4.171  -2.472  -2.190  0.00  0.00     0.062 H 
ATOM     15  C   LIG d   1       4.283   0.888  -1.908  0.00  0.00    -0.061 A 
ATOM     16  H   LIG d   1       5.041  -0.710  -0.707  0.00  0.00     0.062 H 
ATOM     17  C   LIG d   1       3.588   1.230  -3.052  0.00  0.00    -0.055 A 
ATOM     18  H   LIG d   1       4.665   1.660  -1.257  0.00  0.00     0.062 H 
ATOM     19  H   LIG d   1       3.426   2.269  -3.297  0.00  0.00     0.062 H 
ENDBRANCH   6   9
ENDBRANCH   5   6
ENDBRANCH   3   5
ENDBRANCH   1   3
BRANCH   1  20
ATOM     20  C   LIG d   1       3.119  -0.866  -9.019  0.00  0.00    -0.024 C 
ATOM     21  H   LIG d   1       3.808  -1.381  -9.690  0.00  0.00     0.029 H 
ATOM     22  H   LIG d   1       2.989  -1.456  -8.111  0.00  0.00     0.029 H 
BRANCH  20  23
ATOM     23  C   LIG d   1       1.767  -0.692  -9.713  0.00  0.00    -0.046 C 
ATOM     24  H   LIG d   1       1.069  -1.442  -9.340  0.00  0.00     0.027 H 
ATOM     25  H   LIG d   1       1.377   0.303  -9.504  0.00  0.00     0.027 H 
BRANCH  23  26
ATOM     26  C   LIG d   1       1.942  -0.864 -11.223  0.00  0.00    -0.013 C 
ATOM     27  H   LIG d   1       1.705   0.074 -11.725  0.00  0.00     0.032 H 
ATOM     28  H   LIG d   1       2.974  -1.141 -11.440  0.00  0.00     0.032 H 
BRANCH  26  29
ATOM     29  C   LIG d   1       1.003  -1.962 -11.724  0.00  0.00    -0.035 C 
ATOM     30  H   LIG d   1       0.118  -1.507 -12.169  0.00  0.00     0.081 H 
ATOM     31  H   LIG d   1       1.516  -2.565 -12.473  0.00  0.00     0.081 H 
BRANCH  29  32
ATOM     32  N   LIG d   1       0.589  -2.799 -10.583  0.00  0.00     0.218 N 
ATOM     33  H   LIG d   1       0.273  -2.209  -9.815  0.00  0.00     0.199 HD
ATOM     34  H   LIG d   1      -0.165  -3.423 -10.864  0.00  0.00     0.199 HD
ATOM     35  H   LIG d   1       1.389  -3.360 -10.269  0.00  0.00     0.199 HD
ENDBRANCH  29  32
ENDBRANCH  26  29
ENDBRANCH  23  26
ENDBRANCH  20  23
ENDBRANCH   1  20
BRANCH   1  36
ATOM     36  N   LIG d   1       5.144   0.409  -8.515  0.00  0.00    -0.268 N 
ATOM     37  C   LIG d   1       5.926   1.450  -8.863  0.00  0.00     0.401 C 
ATOM     38  O   LIG d   1       5.426   2.469  -9.295  0.00  0.00    -0.227 OA
ATOM     39  H   LIG d   1       5.544  -0.405  -8.170  0.00  0.00     0.153 HD
BRANCH  37  40
ATOM     40  O   LIG d   1       7.263   1.360  -8.731  0.00  0.00    -0.446 OA
BRANCH  40  41
ATOM     41  C   LIG d   1       7.773   0.313  -7.864  0.00  0.00     0.119 C 
ATOM     42  H   LIG d   1       8.800   0.077  -8.144  0.00  0.00     0.075 H 
ATOM     43  H   LIG d   1       7.153  -0.577  -7.968  0.00  0.00     0.075 H 
BRANCH  41  44
ATOM     44  C   LIG d   1       7.739   0.786  -6.433  0.00  0.00    -0.010 A 
ATOM     45  C   LIG d   1       8.352   1.975  -6.084  0.00  0.00    -0.055 A 
ATOM     46  C   LIG d   1       8.317   2.410  -4.772  0.00  0.00    -0.061 A 
ATOM     47  H   LIG d   1       8.855   2.564  -6.835  0.00  0.00     0.062 H 
ATOM     48  C   LIG d   1       7.680   1.652  -3.809  0.00  0.00    -0.062 A 
ATOM     49  H   LIG d   1       8.792   3.341  -4.500  0.00  0.00     0.062 H 
ATOM     50  C   LIG d   1       7.067   0.463  -4.158  0.00  0.00    -0.061 A 
ATOM     51  H   LIG d   1       7.656   1.990  -2.783  0.00  0.00     0.062 H 
ATOM     52  C   LIG d   1       7.097   0.030  -5.470  0.00  0.00    -0.055 A 
ATOM     53  H   LIG d   1       6.565  -0.128  -3.406  0.00  0.00     0.062 H 
ATOM     54  H   LIG d   1       6.618  -0.899  -5.744  0.00  0.00     0.062 H 
ENDBRANCH  41  44
ENDBRANCH  40  41
ENDBRANCH  37  40
ENDBRANCH   1  36
TORSDOF 13
ENDMDL
MODEL 9
REMARK VINA RESULT:      -5.8      2.161      4.751
REMARK  13 active torsions:
REMARK  status: ('A' for Active; 'I' for Inactive)
REMARK    1  A    between atoms: C_4  and  C_7 
REMARK    2  A    between atoms: C_7  and  O_8 
REMARK    3  A    between atoms: O_8  and  C_9 
REMARK    4  A    between atoms: C_9  and  C_11 
REMARK    5  A    between atoms: C_11  and  C_13 
REMARK    6  A    between atoms: C_11  and  N_17 
REMARK    7  A    between atoms: C_13  and  C_14 
REMARK    8  A    between atoms: C_14  and  C_15 
REMARK    9  A    between atoms: C_15  and  C_16 
REMARK   10  A    between atoms: C_16  and  N_53 
REMARK       I    between atoms: N_17  and  C_18 
REMARK   11  A    between atoms: C_18  and  O_20 
REMARK   12  A    between atoms: O_20  and  C_21 
REMARK   13  A    between atoms: C_21  and  C_22 
ROOT
ATOM      1  C   LIG d   1       4.506  -0.119  -7.503  0.00  0.00     0.123 C 
ATOM      2  H   LIG d   1       4.825   0.246  -8.479  0.00  0.00     0.061 H 
ENDROOT
BRANCH   1   3
ATOM      3  C   LIG d   1       3.248   0.597  -7.086  0.00  0.00     0.328 C 
ATOM      4  O   LIG d   1       2.908   1.605  -7.661  0.00  0.00    -0.249 OA
BRANCH   3   5
ATOM      5  O   LIG d   1       2.506   0.118  -6.075  0.00  0.00    -0.459 OA
BRANCH   5   6
ATOM      6  C   LIG d   1       2.370   0.960  -4.900  0.00  0.00     0.118 C 
ATOM      7  H   LIG d   1       2.783   1.947  -5.109  0.00  0.00     0.075 H 
ATOM      8  H   LIG d   1       1.315   1.056  -4.642  0.00  0.00     0.075 H 
BRANCH   6   9
ATOM      9  C   LIG d   1       3.115   0.337  -3.747  0.00  0.00    -0.010 A 
ATOM     10  C   LIG d   1       3.051  -1.028  -3.540  0.00  0.00    -0.055 A 
ATOM     11  C   LIG d   1       3.735  -1.599  -2.483  0.00  0.00    -0.061 A 
ATOM     12  H   LIG d   1       2.469  -1.649  -4.205  0.00  0.00     0.062 H 
ATOM     13  C   LIG d   1       4.482  -0.805  -1.633  0.00  0.00    -0.062 A 
ATOM     14  H   LIG d   1       3.686  -2.666  -2.321  0.00  0.00     0.062 H 
ATOM     15  C   LIG d   1       4.545   0.560  -1.840  0.00  0.00    -0.061 A 
ATOM     16  H   LIG d   1       5.015  -1.251  -0.807  0.00  0.00     0.062 H 
ATOM     17  C   LIG d   1       3.866   1.130  -2.900  0.00  0.00    -0.055 A 
ATOM     18  H   LIG d   1       5.128   1.180  -1.176  0.00  0.00     0.062 H 
ATOM     19  H   LIG d   1       3.918   2.197  -3.065  0.00  0.00     0.062 H 
ENDBRANCH   6   9
ENDBRANCH   5   6
ENDBRANCH   3   5
ENDBRANCH   1   3
BRANCH   1  20
ATOM     20  C   LIG d   1       4.232  -1.622  -7.587  0.00  0.00    -0.024 C 
ATOM     21  H   LIG d   1       3.284  -1.847  -7.097  0.00  0.00     0.029 H 
ATOM     22  H   LIG d   1       4.181  -1.925  -8.633  0.00  0.00     0.029 H 
BRANCH  20  23
ATOM     23  C   LIG d   1       5.359  -2.386  -6.889  0.00  0.00    -0.046 C 
ATOM     24  H   LIG d   1       5.847  -3.048  -7.605  0.00  0.00     0.027 H 
ATOM     25  H   LIG d   1       6.088  -1.678  -6.495  0.00  0.00     0.027 H 
BRANCH  23  26
ATOM     26  C   LIG d   1       4.781  -3.214  -5.740  0.00  0.00    -0.013 C 
ATOM     27  H   LIG d   1       5.413  -3.104  -4.859  0.00  0.00     0.032 H 
ATOM     28  H   LIG d   1       3.774  -2.864  -5.511  0.00  0.00     0.032 H 
BRANCH  26  29
ATOM     29  C   LIG d   1       4.728  -4.687  -6.149  0.00  0.00    -0.035 C 
ATOM     30  H   LIG d   1       5.398  -4.854  -6.992  0.00  0.00     0.081 H 
ATOM     31  H   LIG d   1       5.039  -5.308  -5.309  0.00  0.00     0.081 H 
BRANCH  29  32
ATOM     32  N   LIG d   1       3.352  -5.023  -6.557  0.00  0.00     0.218 N 
ATOM     33  H   LIG d   1       2.714  -4.278  -6.280  0.00  0.00     0.199 HD
ATOM     34  H   LIG d   1       3.308  -5.147  -7.567  0.00  0.00     0.199 HD
ATOM     35  H   LIG d   1       3.068  -5.897  -6.100  0.00  0.00     0.199 HD
ENDBRANCH  29  32
ENDBRANCH  26  29
ENDBRANCH  23  26
ENDBRANCH  20  23
ENDBRANCH   1  20
BRANCH   1  36
ATOM     36  N   LIG d   1       5.561   0.131  -6.519  0.00  0.00    -0.268 N 
ATOM     37  C   LIG d   1       6.586   0.950  -6.824  0.00  0.00     0.401 C 
ATOM     38  O   LIG d   1       6.636   1.482  -7.915  0.00  0.00    -0.227 OA
ATOM     39  H   LIG d   1       5.522  -0.293  -5.647  0.00  0.00     0.153 HD
BRANCH  37  40
ATOM     40  O   LIG d   1       7.557   1.180  -5.919  0.00  0.00    -0.446 OA
BRANCH  40  41
ATOM     41  C   LIG d   1       8.724   0.318  -5.970  0.00  0.00     0.119 C 
ATOM     42  H   LIG d   1       9.569   0.822  -5.498  0.00  0.00     0.075 H 
ATOM     43  H   LIG d   1       8.967   0.098  -7.009  0.00  0.00     0.075 H 
BRANCH  41  44
ATOM     44  C   LIG d   1       8.434  -0.966  -5.238  0.00  0.00    -0.010 A 
ATOM     45  C   LIG d   1       8.942  -2.162  -5.710  0.00  0.00    -0.055 A 
ATOM     46  C   LIG d   1       8.678  -3.339  -5.035  0.00  0.00    -0.061 A 
ATOM     47  H   LIG d   1       9.546  -2.176  -6.605  0.00  0.00     0.062 H 
ATOM     48  C   LIG d   1       7.899  -3.322  -3.894  0.00  0.00    -0.062 A 
ATOM     49  H   LIG d   1       9.078  -4.273  -5.402  0.00  0.00     0.062 H 
ATOM     50  C   LIG d   1       7.391  -2.126  -3.421  0.00  0.00    -0.061 A 
ATOM     51  H   LIG d   1       7.689  -4.242  -3.369  0.00  0.00     0.062 H 
ATOM     52  C   LIG d   1       7.659  -0.949  -4.093  0.00  0.00    -0.055 A 
ATOM     53  H   LIG d   1       6.785  -2.112  -2.527  0.00  0.00     0.062 H 
ATOM     54  H   LIG d   1       7.262  -0.014  -3.724  0.00  0.00     0.062 H 
ENDBRANCH  41  44
ENDBRANCH  40  41
ENDBRANCH  37  40
ENDBRANCH   1  36
TORSDOF 13
ENDMDL
MODEL 10
REMARK VINA RESULT:      -5.8      2.605      6.461
REMARK  13 active torsions:
REMARK  status: ('A' for Active; 'I' for Inactive)
REMARK    1  A    between atoms: C_4  and  C_7 
REMARK    2  A    between atoms: C_7  and  O_8 
REMARK    3  A    between atoms: O_8  and  C_9 
REMARK    4  A    between atoms: C_9  and  C_11 
REMARK    5  A    between atoms: C_11  and  C_13 
REMARK    6  A    between atoms: C_11  and  N_17 
REMARK    7  A    between atoms: C_13  and  C_14 
REMARK    8  A    between atoms: C_14  and  C_15 
REMARK    9  A    between atoms: C_15  and  C_16 
REMARK   10  A    between atoms: C_16  and  N_53 
REMARK       I    between atoms: N_17  and  C_18 
REMARK   11  A    between atoms: C_18  and  O_20 
REMARK   12  A    between atoms: O_20  and  C_21 
REMARK   13  A    between atoms: C_21  and  C_22 
ROOT
ATOM      1  C   LIG d   1       4.839  -2.320  -4.637  0.00  0.00     0.123 C 
ATOM      2  H   LIG d   1       5.801  -1.810  -4.589  0.00  0.00     0.061 H 
ENDROOT
BRANCH   1   3
ATOM      3  C   LIG d   1       5.014  -3.661  -5.300  0.00  0.00     0.328 C 
ATOM      4  O   LIG d   1       4.077  -4.419  -5.385  0.00  0.00    -0.249 OA
BRANCH   3   5
ATOM      5  O   LIG d   1       6.211  -4.014  -5.796  0.00  0.00    -0.459 OA
BRANCH   5   6
ATOM      6  C   LIG d   1       7.359  -3.239  -5.362  0.00  0.00     0.118 C 
ATOM      7  H   LIG d   1       7.953  -2.950  -6.230  0.00  0.00     0.075 H 
ATOM      8  H   LIG d   1       7.018  -2.344  -4.841  0.00  0.00     0.075 H 
BRANCH   6   9
ATOM      9  C   LIG d   1       8.203  -4.072  -4.431  0.00  0.00    -0.010 A 
ATOM     10  C   LIG d   1       8.799  -3.486  -3.329  0.00  0.00    -0.055 A 
ATOM     11  C   LIG d   1       9.572  -4.251  -2.475  0.00  0.00    -0.061 A 
ATOM     12  H   LIG d   1       8.660  -2.434  -3.135  0.00  0.00     0.062 H 
ATOM     13  C   LIG d   1       9.750  -5.599  -2.723  0.00  0.00    -0.062 A 
ATOM     14  H   LIG d   1      10.039  -3.794  -1.614  0.00  0.00     0.062 H 
ATOM     15  C   LIG d   1       9.154  -6.183  -3.825  0.00  0.00    -0.061 A 
ATOM     16  H   LIG d   1      10.356  -6.195  -2.057  0.00  0.00     0.062 H 
ATOM     17  C   LIG d   1       8.376  -5.421  -4.676  0.00  0.00    -0.055 A 
ATOM     18  H   LIG d   1       9.294  -7.236  -4.019  0.00  0.00     0.062 H 
ATOM     19  H   LIG d   1       7.907  -5.878  -5.535  0.00  0.00     0.062 H 
ENDBRANCH   6   9
ENDBRANCH   5   6
ENDBRANCH   3   5
ENDBRANCH   1   3
BRANCH   1  20
ATOM     20  C   LIG d   1       4.297  -2.518  -3.220  0.00  0.00    -0.024 C 
ATOM     21  H   LIG d   1       3.217  -2.370  -3.221  0.00  0.00     0.029 H 
ATOM     22  H   LIG d   1       4.524  -3.530  -2.882  0.00  0.00     0.029 H 
BRANCH  20  23
ATOM     23  C   LIG d   1       4.950  -1.506  -2.277  0.00  0.00    -0.046 C 
ATOM     24  H   LIG d   1       5.203  -1.997  -1.337  0.00  0.00     0.027 H 
ATOM     25  H   LIG d   1       5.856  -1.113  -2.736  0.00  0.00     0.027 H 
BRANCH  23  26
ATOM     26  C   LIG d   1       3.977  -0.358  -2.007  0.00  0.00    -0.013 C 
ATOM     27  H   LIG d   1       3.224  -0.326  -2.795  0.00  0.00     0.032 H 
ATOM     28  H   LIG d   1       3.488  -0.514  -1.044  0.00  0.00     0.032 H 
BRANCH  26  29
ATOM     29  C   LIG d   1       4.743   0.966  -1.981  0.00  0.00    -0.035 C 
ATOM     30  H   LIG d   1       4.575   1.464  -1.026  0.00  0.00     0.081 H 
ATOM     31  H   LIG d   1       5.808   0.772  -2.106  0.00  0.00     0.081 H 
BRANCH  29  32
ATOM     32  N   LIG d   1       4.245   1.831  -3.066  0.00  0.00     0.218 N 
ATOM     33  H   LIG d   1       4.840   1.736  -3.888  0.00  0.00     0.199 HD
ATOM     34  H   LIG d   1       3.290   1.572  -3.308  0.00  0.00     0.199 HD
ATOM     35  H   LIG d   1       4.259   2.808  -2.752  0.00  0.00     0.199 HD
ENDBRANCH  29  32
ENDBRANCH  26  29
ENDBRANCH  23  26
ENDBRANCH  20  23
ENDBRANCH   1  20
BRANCH   1  36
ATOM     36  N   LIG d   1       3.896  -1.510  -5.411  0.00  0.00    -0.268 N 
ATOM     37  C   LIG d   1       4.232  -0.262  -5.791  0.00  0.00     0.401 C 
ATOM     38  O   LIG d   1       5.318   0.193  -5.491  0.00  0.00    -0.227 OA
ATOM     39  H   LIG d   1       3.029  -1.873  -5.652  0.00  0.00     0.153 HD
BRANCH  37  40
ATOM     40  O   LIG d   1       3.365   0.482  -6.504  0.00  0.00    -0.446 OA
BRANCH  40  41
ATOM     41  C   LIG d   1       2.558  -0.211  -7.492  0.00  0.00     0.119 C 
ATOM     42  H   LIG d   1       1.512   0.074  -7.370  0.00  0.00     0.075 H 
ATOM     43  H   LIG d   1       2.660  -1.286  -7.355  0.00  0.00     0.075 H 
BRANCH  41  44
ATOM     44  C   LIG d   1       3.023   0.168  -8.875  0.00  0.00    -0.010 A 
ATOM     45  C   LIG d   1       3.479   1.449  -9.124  0.00  0.00    -0.055 A 
ATOM     46  C   LIG d   1       3.910   1.794 -10.391  0.00  0.00    -0.061 A 
ATOM     47  H   LIG d   1       3.502   2.178  -8.329  0.00  0.00     0.062 H 
ATOM     48  C   LIG d   1       3.874   0.862 -11.412  0.00  0.00    -0.062 A 
ATOM     49  H   LIG d   1       4.270   2.793 -10.586  0.00  0.00     0.062 H 
ATOM     50  C   LIG d   1       3.418  -0.419 -11.162  0.00  0.00    -0.061 A 
ATOM     51  H   LIG d   1       4.206   1.133 -12.403  0.00  0.00     0.062 H 
ATOM     52  C   LIG d   1       2.992  -0.766  -9.894  0.00  0.00    -0.055 A 
ATOM     53  H   LIG d   1       3.393  -1.149 -11.958  0.00  0.00     0.062 H 
ATOM     54  H   LIG d   1       2.636  -1.767  -9.698  0.00  0.00     0.062 H 
ENDBRANCH  41  44
ENDBRANCH  40  41
ENDBRANCH  37  40
ENDBRANCH   1  36
TORSDOF 13
ENDMDL
