MODEL 1
REMARK VINA RESULT:      -7.6      0.000      0.000
REMARK  5 active torsions:
REMARK  status: ('A' for Active; 'I' for Inactive)
REMARK    1  A    between atoms: C_4  and  C_7 
REMARK    2  A    between atoms: C_7  and  O_8 
REMARK    3  A    between atoms: O_8  and  C_9 
REMARK    4  A    between atoms: C_12  and  N_15 
REMARK    5  A    between atoms: C_27  and  C_28 
ROOT
ATOM      1  N   LIG d   1       8.827   3.857  -5.025  0.00  0.00    -0.293 NA
ATOM      2  C   LIG d   1       9.502   4.234  -3.775  0.00  0.00     0.047 C 
ATOM      3  C   LIG d   1      10.094   5.614  -3.918  0.00  0.00     0.054 A 
ATOM      4  C   LIG d   1      10.281   6.181  -5.165  0.00  0.00     0.131 A 
ATOM      5  C   LIG d   1      10.837   7.456  -5.284  0.00  0.00    -0.019 A 
ATOM      6  C   LIG d   1      11.198   8.160  -4.173  0.00  0.00    -0.047 A 
ATOM      7  C   LIG d   1      11.013   7.600  -2.906  0.00  0.00     0.026 A 
ATOM      8  C   LIG d   1      10.457   6.318  -2.774  0.00  0.00     0.148 A 
ATOM      9  O   LIG d   1      10.274   5.768  -1.558  0.00  0.00    -0.422 OA
ATOM     10  C   LIG d   1      10.619   6.432  -0.449  0.00  0.00     0.338 A 
ATOM     11  O   LIG d   1      10.436   5.898   0.630  0.00  0.00    -0.245 OA
ATOM     12  C   LIG d   1      11.181   7.718  -0.474  0.00  0.00     0.031 A 
ATOM     13  C   LIG d   1      11.395   8.340  -1.691  0.00  0.00    -0.001 A 
ATOM     14  O   LIG d   1       9.929   5.509  -6.293  0.00  0.00    -0.473 OA
ATOM     15  C   LIG d   1       9.716   4.101  -6.174  0.00  0.00     0.157 C 
ATOM     16  H   LIG d   1       8.781   4.231  -2.958  0.00  0.00     0.052 H 
ATOM     17  H   LIG d   1      10.296   3.520  -3.562  0.00  0.00     0.052 H 
ATOM     18  H   LIG d   1      10.980   7.889  -6.263  0.00  0.00     0.065 H 
ATOM     19  H   LIG d   1      11.627   9.145  -4.271  0.00  0.00     0.063 H 
ATOM     20  H   LIG d   1      11.442   8.217   0.448  0.00  0.00     0.070 H 
ATOM     21  H   LIG d   1      10.669   3.599  -6.013  0.00  0.00     0.091 H 
ATOM     22  H   LIG d   1       9.249   3.723  -7.084  0.00  0.00     0.091 H 
ENDROOT
BRANCH   1  23
ATOM     23  C   LIG d   1       8.413   2.521  -4.987  0.00  0.00     0.033 A 
ATOM     24  C   LIG d   1       8.411   1.762  -6.150  0.00  0.00    -0.037 A 
ATOM     25  C   LIG d   1       8.007   0.441  -6.112  0.00  0.00    -0.018 A 
ATOM     26  H   LIG d   1       8.727   2.202  -7.084  0.00  0.00     0.064 H 
ATOM     27  C   LIG d   1       7.595  -0.123  -4.913  0.00  0.00     0.121 A 
ATOM     28  H   LIG d   1       8.010  -0.150  -7.015  0.00  0.00     0.066 H 
ATOM     29  C   LIG d   1       7.597   0.634  -3.752  0.00  0.00    -0.018 A 
ATOM     30  C   LIG d   1       8.005   1.954  -3.788  0.00  0.00    -0.037 A 
ATOM     31  H   LIG d   1       7.279   0.193  -2.819  0.00  0.00     0.066 H 
ATOM     32  H   LIG d   1       8.007   2.543  -2.883  0.00  0.00     0.064 H 
BRANCH  27  33
ATOM     33  O   LIG d   1       7.193  -1.422  -4.877  0.00  0.00    -0.487 OA
BRANCH  33  34
ATOM     34  C   LIG d   1       5.947  -1.734  -5.503  0.00  0.00     0.115 C 
ATOM     35  H   LIG d   1       5.935  -2.786  -5.785  0.00  0.00     0.075 H 
ATOM     36  H   LIG d   1       5.824  -1.118  -6.394  0.00  0.00     0.075 H 
BRANCH  34  37
ATOM     37  C   LIG d   1       4.819  -1.459  -4.542  0.00  0.00    -0.010 A 
ATOM     38  C   LIG d   1       4.734  -2.164  -3.356  0.00  0.00    -0.055 A 
ATOM     39  C   LIG d   1       3.699  -1.912  -2.475  0.00  0.00    -0.061 A 
ATOM     40  H   LIG d   1       5.476  -2.912  -3.119  0.00  0.00     0.062 H 
ATOM     41  C   LIG d   1       2.750  -0.954  -2.779  0.00  0.00    -0.062 A 
ATOM     42  H   LIG d   1       3.633  -2.463  -1.549  0.00  0.00     0.062 H 
ATOM     43  C   LIG d   1       2.835  -0.249  -3.965  0.00  0.00    -0.061 A 
ATOM     44  H   LIG d   1       1.945  -0.753  -2.088  0.00  0.00     0.062 H 
ATOM     45  C   LIG d   1       3.870  -0.501  -4.846  0.00  0.00    -0.055 A 
ATOM     46  H   LIG d   1       2.094   0.500  -4.202  0.00  0.00     0.062 H 
ATOM     47  H   LIG d   1       3.936   0.050  -5.773  0.00  0.00     0.062 H 
ENDBRANCH  34  37
ENDBRANCH  33  34
ENDBRANCH  27  33
ENDBRANCH   1  23
BRANCH  13  48
ATOM     48  C   LIG d   1      11.985   9.695  -1.768  0.00  0.00    -0.017 A 
ATOM     49  C   LIG d   1      11.159  10.820  -1.777  0.00  0.00    -0.054 A 
ATOM     50  C   LIG d   1      11.716  12.080  -1.849  0.00  0.00    -0.061 A 
ATOM     51  H   LIG d   1      10.087  10.704  -1.727  0.00  0.00     0.062 H 
ATOM     52  C   LIG d   1      13.091  12.230  -1.914  0.00  0.00    -0.062 A 
ATOM     53  H   LIG d   1      11.078  12.952  -1.856  0.00  0.00     0.062 H 
ATOM     54  C   LIG d   1      13.914  11.118  -1.905  0.00  0.00    -0.061 A 
ATOM     55  H   LIG d   1      13.521  13.218  -1.970  0.00  0.00     0.062 H 
ATOM     56  C   LIG d   1      13.371   9.853  -1.828  0.00  0.00    -0.054 A 
ATOM     57  H   LIG d   1      14.986  11.242  -1.957  0.00  0.00     0.062 H 
ATOM     58  H   LIG d   1      14.015   8.987  -1.818  0.00  0.00     0.062 H 
ENDBRANCH  13  48
TORSDOF 5
ENDMDL
MODEL 2
REMARK VINA RESULT:      -7.4      2.280     11.125
REMARK  5 active torsions:
REMARK  status: ('A' for Active; 'I' for Inactive)
REMARK    1  A    between atoms: C_4  and  C_7 
REMARK    2  A    between atoms: C_7  and  O_8 
REMARK    3  A    between atoms: O_8  and  C_9 
REMARK    4  A    between atoms: C_12  and  N_15 
REMARK    5  A    between atoms: C_27  and  C_28 
ROOT
ATOM      1  N   LIG d   1       9.697   2.864  -4.088  0.00  0.00    -0.293 NA
ATOM      2  C   LIG d   1       8.381   2.268  -3.817  0.00  0.00     0.047 C 
ATOM      3  C   LIG d   1       8.297   0.912  -4.471  0.00  0.00     0.054 A 
ATOM      4  C   LIG d   1       9.182   0.548  -5.470  0.00  0.00     0.131 A 
ATOM      5  C   LIG d   1       9.088  -0.706  -6.072  0.00  0.00    -0.019 A 
ATOM      6  C   LIG d   1       8.127  -1.592  -5.682  0.00  0.00    -0.047 A 
ATOM      7  C   LIG d   1       7.227  -1.239  -4.673  0.00  0.00     0.026 A 
ATOM      8  C   LIG d   1       7.310   0.022  -4.061  0.00  0.00     0.148 A 
ATOM      9  O   LIG d   1       6.447   0.373  -3.087  0.00  0.00    -0.422 OA
ATOM     10  C   LIG d   1       5.494  -0.472  -2.683  0.00  0.00     0.338 A 
ATOM     11  O   LIG d   1       4.735  -0.115  -1.799  0.00  0.00    -0.245 OA
ATOM     12  C   LIG d   1       5.328  -1.754  -3.230  0.00  0.00     0.031 A 
ATOM     13  C   LIG d   1       6.180  -2.177  -4.233  0.00  0.00    -0.001 A 
ATOM     14  O   LIG d   1      10.155   1.405  -5.881  0.00  0.00    -0.473 OA
ATOM     15  C   LIG d   1      10.005   2.781  -5.526  0.00  0.00     0.157 C 
ATOM     16  H   LIG d   1       8.245   2.161  -2.741  0.00  0.00     0.052 H 
ATOM     17  H   LIG d   1       7.602   2.914  -4.220  0.00  0.00     0.052 H 
ATOM     18  H   LIG d   1       9.784  -0.980  -6.852  0.00  0.00     0.065 H 
ATOM     19  H   LIG d   1       8.059  -2.561  -6.152  0.00  0.00     0.063 H 
ATOM     20  H   LIG d   1       4.543  -2.404  -2.870  0.00  0.00     0.070 H 
ATOM     21  H   LIG d   1       9.190   3.221  -6.100  0.00  0.00     0.091 H 
ATOM     22  H   LIG d   1      10.932   3.316  -5.733  0.00  0.00     0.091 H 
ENDROOT
BRANCH   1  23
ATOM     23  C   LIG d   1       9.750   4.188  -3.640  0.00  0.00     0.033 A 
ATOM     24  C   LIG d   1       9.322   5.219  -4.467  0.00  0.00    -0.037 A 
ATOM     25  C   LIG d   1       9.368   6.526  -4.023  0.00  0.00    -0.018 A 
ATOM     26  H   LIG d   1       8.949   4.998  -5.457  0.00  0.00     0.064 H 
ATOM     27  C   LIG d   1       9.852   6.810  -2.754  0.00  0.00     0.121 A 
ATOM     28  H   LIG d   1       9.031   7.326  -4.664  0.00  0.00     0.066 H 
ATOM     29  C   LIG d   1      10.280   5.782  -1.927  0.00  0.00    -0.018 A 
ATOM     30  C   LIG d   1      10.229   4.473  -2.369  0.00  0.00    -0.037 A 
ATOM     31  H   LIG d   1      10.653   6.004  -0.939  0.00  0.00     0.066 H 
ATOM     32  H   LIG d   1      10.562   3.673  -1.725  0.00  0.00     0.064 H 
BRANCH  27  33
ATOM     33  O   LIG d   1       9.902   8.097  -2.319  0.00  0.00    -0.487 OA
BRANCH  33  34
ATOM     34  C   LIG d   1       9.204   8.401  -1.109  0.00  0.00     0.115 C 
ATOM     35  H   LIG d   1       8.876   7.475  -0.638  0.00  0.00     0.075 H 
ATOM     36  H   LIG d   1       8.336   9.020  -1.338  0.00  0.00     0.075 H 
BRANCH  34  37
ATOM     37  C   LIG d   1      10.120   9.146  -0.173  0.00  0.00    -0.010 A 
ATOM     38  C   LIG d   1      11.084   8.460   0.541  0.00  0.00    -0.055 A 
ATOM     39  C   LIG d   1      11.925   9.142   1.400  0.00  0.00    -0.061 A 
ATOM     40  H   LIG d   1      11.181   7.390   0.428  0.00  0.00     0.062 H 
ATOM     41  C   LIG d   1      11.801  10.512   1.544  0.00  0.00    -0.062 A 
ATOM     42  H   LIG d   1      12.678   8.607   1.958  0.00  0.00     0.062 H 
ATOM     43  C   LIG d   1      10.838  11.198   0.830  0.00  0.00    -0.061 A 
ATOM     44  H   LIG d   1      12.461  11.046   2.211  0.00  0.00     0.062 H 
ATOM     45  C   LIG d   1       9.997  10.516  -0.029  0.00  0.00    -0.055 A 
ATOM     46  H   LIG d   1      10.741  12.268   0.942  0.00  0.00     0.062 H 
ATOM     47  H   LIG d   1       9.243  11.051  -0.588  0.00  0.00     0.062 H 
ENDBRANCH  34  37
ENDBRANCH  33  34
ENDBRANCH  27  33
ENDBRANCH   1  23
BRANCH  13  48
ATOM     48  C   LIG d   1       6.044  -3.519  -4.842  0.00  0.00    -0.017 A 
ATOM     49  C   LIG d   1       7.140  -4.384  -4.884  0.00  0.00    -0.054 A 
ATOM     50  C   LIG d   1       7.007  -5.633  -5.453  0.00  0.00    -0.061 A 
ATOM     51  H   LIG d   1       8.089  -4.074  -4.473  0.00  0.00     0.062 H 
ATOM     52  C   LIG d   1       5.791  -6.031  -5.981  0.00  0.00    -0.062 A 
ATOM     53  H   LIG d   1       7.853  -6.303  -5.487  0.00  0.00     0.062 H 
ATOM     54  C   LIG d   1       4.701  -5.179  -5.942  0.00  0.00    -0.061 A 
ATOM     55  H   LIG d   1       5.692  -7.010  -6.425  0.00  0.00     0.062 H 
ATOM     56  C   LIG d   1       4.820  -3.928  -5.371  0.00  0.00    -0.054 A 
ATOM     57  H   LIG d   1       3.756  -5.495  -6.356  0.00  0.00     0.062 H 
ATOM     58  H   LIG d   1       3.968  -3.266  -5.338  0.00  0.00     0.062 H 
ENDBRANCH  13  48
TORSDOF 5
ENDMDL
MODEL 3
REMARK VINA RESULT:      -7.4      9.901     15.105
REMARK  5 active torsions:
REMARK  status: ('A' for Active; 'I' for Inactive)
REMARK    1  A    between atoms: C_4  and  C_7 
REMARK    2  A    between atoms: C_7  and  O_8 
REMARK    3  A    between atoms: O_8  and  C_9 
REMARK    4  A    between atoms: C_12  and  N_15 
REMARK    5  A    between atoms: C_27  and  C_28 
ROOT
ATOM      1  N   LIG d   1       9.802  -7.800  -2.011  0.00  0.00    -0.293 NA
ATOM      2  C   LIG d   1      10.485  -7.609  -0.724  0.00  0.00     0.047 C 
ATOM      3  C   LIG d   1      10.595  -8.932  -0.009  0.00  0.00     0.054 A 
ATOM      4  C   LIG d   1       9.804 -10.005  -0.376  0.00  0.00     0.131 A 
ATOM      5  C   LIG d   1       9.908 -11.223   0.298  0.00  0.00    -0.019 A 
ATOM      6  C   LIG d   1      10.795 -11.371   1.324  0.00  0.00    -0.047 A 
ATOM      7  C   LIG d   1      11.602 -10.296   1.705  0.00  0.00     0.026 A 
ATOM      8  C   LIG d   1      11.504  -9.066   1.035  0.00  0.00     0.148 A 
ATOM      9  O   LIG d   1      12.277  -8.022   1.394  0.00  0.00    -0.422 OA
ATOM     10  C   LIG d   1      13.155  -8.136   2.396  0.00  0.00     0.338 A 
ATOM     11  O   LIG d   1      13.834  -7.168   2.687  0.00  0.00    -0.245 OA
ATOM     12  C   LIG d   1      13.330  -9.321   3.127  0.00  0.00     0.031 A 
ATOM     13  C   LIG d   1      12.567 -10.431   2.810  0.00  0.00    -0.001 A 
ATOM     14  O   LIG d   1       8.912  -9.894  -1.397  0.00  0.00    -0.473 OA
ATOM     15  C   LIG d   1       8.563  -8.572  -1.817  0.00  0.00     0.157 C 
ATOM     16  H   LIG d   1      11.484  -7.208  -0.899  0.00  0.00     0.052 H 
ATOM     17  H   LIG d   1       9.916  -6.912  -0.111  0.00  0.00     0.052 H 
ATOM     18  H   LIG d   1       9.285 -12.054   0.004  0.00  0.00     0.065 H 
ATOM     19  H   LIG d   1      10.872 -12.315   1.842  0.00  0.00     0.063 H 
ATOM     20  H   LIG d   1      14.053  -9.367   3.928  0.00  0.00     0.070 H 
ATOM     21  H   LIG d   1       7.951  -8.096  -1.052  0.00  0.00     0.091 H 
ATOM     22  H   LIG d   1       8.011  -8.620  -2.755  0.00  0.00     0.091 H 
ENDROOT
BRANCH   1  23
ATOM     23  C   LIG d   1       9.534  -6.571  -2.623  0.00  0.00     0.033 A 
ATOM     24  C   LIG d   1       9.793  -5.386  -1.946  0.00  0.00    -0.037 A 
ATOM     25  C   LIG d   1       9.534  -4.173  -2.552  0.00  0.00    -0.018 A 
ATOM     26  H   LIG d   1      10.200  -5.413  -0.945  0.00  0.00     0.064 H 
ATOM     27  C   LIG d   1       9.006  -4.137  -3.835  0.00  0.00     0.121 A 
ATOM     28  H   LIG d   1       9.740  -3.252  -2.027  0.00  0.00     0.066 H 
ATOM     29  C   LIG d   1       8.747  -5.319  -4.512  0.00  0.00    -0.018 A 
ATOM     30  C   LIG d   1       9.010  -6.534  -3.909  0.00  0.00    -0.037 A 
ATOM     31  H   LIG d   1       8.340  -5.291  -5.512  0.00  0.00     0.066 H 
ATOM     32  H   LIG d   1       8.809  -7.455  -4.436  0.00  0.00     0.064 H 
BRANCH  27  33
ATOM     33  O   LIG d   1       8.747  -2.942  -4.430  0.00  0.00    -0.487 OA
BRANCH  33  34
ATOM     34  C   LIG d   1       7.515  -2.827  -5.147  0.00  0.00     0.115 C 
ATOM     35  H   LIG d   1       7.242  -3.800  -5.556  0.00  0.00     0.075 H 
ATOM     36  H   LIG d   1       7.634  -2.112  -5.960  0.00  0.00     0.075 H 
BRANCH  34  37
ATOM     37  C   LIG d   1       6.433  -2.352  -4.212  0.00  0.00    -0.010 A 
ATOM     38  C   LIG d   1       6.648  -1.246  -3.411  0.00  0.00    -0.055 A 
ATOM     39  C   LIG d   1       5.655  -0.811  -2.553  0.00  0.00    -0.061 A 
ATOM     40  H   LIG d   1       7.591  -0.723  -3.456  0.00  0.00     0.062 H 
ATOM     41  C   LIG d   1       4.447  -1.481  -2.497  0.00  0.00    -0.062 A 
ATOM     42  H   LIG d   1       5.823   0.053  -1.928  0.00  0.00     0.062 H 
ATOM     43  C   LIG d   1       4.232  -2.587  -3.299  0.00  0.00    -0.061 A 
ATOM     44  H   LIG d   1       3.670  -1.138  -1.832  0.00  0.00     0.062 H 
ATOM     45  C   LIG d   1       5.225  -3.022  -4.156  0.00  0.00    -0.055 A 
ATOM     46  H   LIG d   1       3.288  -3.110  -3.255  0.00  0.00     0.062 H 
ATOM     47  H   LIG d   1       5.057  -3.886  -4.782  0.00  0.00     0.062 H 
ENDBRANCH  34  37
ENDBRANCH  33  34
ENDBRANCH  27  33
ENDBRANCH   1  23
BRANCH  13  48
ATOM     48  C   LIG d   1      12.715 -11.703   3.551  0.00  0.00    -0.017 A 
ATOM     49  C   LIG d   1      13.683 -12.632   3.165  0.00  0.00    -0.054 A 
ATOM     50  C   LIG d   1      13.815 -13.815   3.861  0.00  0.00    -0.061 A 
ATOM     51  H   LIG d   1      14.326 -12.424   2.324  0.00  0.00     0.062 H 
ATOM     52  C   LIG d   1      12.990 -14.083   4.940  0.00  0.00    -0.062 A 
ATOM     53  H   LIG d   1      14.563 -14.535   3.563  0.00  0.00     0.062 H 
ATOM     54  C   LIG d   1      12.029 -13.166   5.328  0.00  0.00    -0.061 A 
ATOM     55  H   LIG d   1      13.098 -15.011   5.481  0.00  0.00     0.062 H 
ATOM     56  C   LIG d   1      11.890 -11.977   4.643  0.00  0.00    -0.054 A 
ATOM     57  H   LIG d   1      11.388 -13.382   6.170  0.00  0.00     0.062 H 
ATOM     58  H   LIG d   1      11.142 -11.261   4.950  0.00  0.00     0.062 H 
ENDBRANCH  13  48
TORSDOF 5
ENDMDL
MODEL 4
REMARK VINA RESULT:      -7.4      1.892      2.468
REMARK  5 active torsions:
REMARK  status: ('A' for Active; 'I' for Inactive)
REMARK    1  A    between atoms: C_4  and  C_7 
REMARK    2  A    between atoms: C_7  and  O_8 
REMARK    3  A    between atoms: O_8  and  C_9 
REMARK    4  A    between atoms: C_12  and  N_15 
REMARK    5  A    between atoms: C_27  and  C_28 
ROOT
ATOM      1  N   LIG d   1      10.482   3.778  -4.033  0.00  0.00    -0.293 NA
ATOM      2  C   LIG d   1       9.952   4.704  -3.022  0.00  0.00     0.047 C 
ATOM      3  C   LIG d   1      11.081   5.521  -2.445  0.00  0.00     0.054 A 
ATOM      4  C   LIG d   1      12.396   5.120  -2.594  0.00  0.00     0.131 A 
ATOM      5  C   LIG d   1      13.431   5.880  -2.049  0.00  0.00    -0.019 A 
ATOM      6  C   LIG d   1      13.160   7.030  -1.366  0.00  0.00    -0.047 A 
ATOM      7  C   LIG d   1      11.836   7.448  -1.209  0.00  0.00     0.026 A 
ATOM      8  C   LIG d   1      10.787   6.690  -1.751  0.00  0.00     0.148 A 
ATOM      9  O   LIG d   1       9.506   7.083  -1.605  0.00  0.00    -0.422 OA
ATOM     10  C   LIG d   1       9.208   8.205  -0.941  0.00  0.00     0.338 A 
ATOM     11  O   LIG d   1       8.037   8.524  -0.833  0.00  0.00    -0.245 OA
ATOM     12  C   LIG d   1      10.183   9.031  -0.363  0.00  0.00     0.031 A 
ATOM     13  C   LIG d   1      11.517   8.685  -0.475  0.00  0.00    -0.001 A 
ATOM     14  O   LIG d   1      12.702   3.982  -3.272  0.00  0.00    -0.473 OA
ATOM     15  C   LIG d   1      11.642   3.049  -3.494  0.00  0.00     0.157 C 
ATOM     16  H   LIG d   1       9.223   5.369  -3.485  0.00  0.00     0.052 H 
ATOM     17  H   LIG d   1       9.472   4.136  -2.226  0.00  0.00     0.052 H 
ATOM     18  H   LIG d   1      14.455   5.558  -2.170  0.00  0.00     0.065 H 
ATOM     19  H   LIG d   1      13.965   7.613  -0.946  0.00  0.00     0.063 H 
ATOM     20  H   LIG d   1       9.895   9.929   0.164  0.00  0.00     0.070 H 
ATOM     21  H   LIG d   1      11.370   2.574  -2.552  0.00  0.00     0.091 H 
ATOM     22  H   LIG d   1      11.964   2.293  -4.210  0.00  0.00     0.091 H 
ENDROOT
BRANCH   1  23
ATOM     23  C   LIG d   1       9.491   2.891  -4.468  0.00  0.00     0.033 A 
ATOM     24  C   LIG d   1       8.735   2.186  -3.541  0.00  0.00    -0.037 A 
ATOM     25  C   LIG d   1       7.753   1.314  -3.969  0.00  0.00    -0.018 A 
ATOM     26  H   LIG d   1       8.912   2.321  -2.483  0.00  0.00     0.064 H 
ATOM     27  C   LIG d   1       7.529   1.135  -5.327  0.00  0.00     0.121 A 
ATOM     28  H   LIG d   1       7.162   0.770  -3.248  0.00  0.00     0.066 H 
ATOM     29  C   LIG d   1       8.284   1.839  -6.254  0.00  0.00    -0.018 A 
ATOM     30  C   LIG d   1       9.263   2.715  -5.826  0.00  0.00    -0.037 A 
ATOM     31  H   LIG d   1       8.106   1.702  -7.310  0.00  0.00     0.066 H 
ATOM     32  H   LIG d   1       9.850   3.263  -6.548  0.00  0.00     0.064 H 
BRANCH  27  33
ATOM     33  O   LIG d   1       6.566   0.273  -5.749  0.00  0.00    -0.487 OA
BRANCH  33  34
ATOM     34  C   LIG d   1       6.487  -0.989  -5.083  0.00  0.00     0.115 C 
ATOM     35  H   LIG d   1       7.352  -1.110  -4.432  0.00  0.00     0.075 H 
ATOM     36  H   LIG d   1       6.475  -1.789  -5.823  0.00  0.00     0.075 H 
BRANCH  34  37
ATOM     37  C   LIG d   1       5.226  -1.045  -4.261  0.00  0.00    -0.010 A 
ATOM     38  C   LIG d   1       5.160  -1.864  -3.149  0.00  0.00    -0.055 A 
ATOM     39  C   LIG d   1       4.003  -1.916  -2.395  0.00  0.00    -0.061 A 
ATOM     40  H   LIG d   1       6.014  -2.464  -2.871  0.00  0.00     0.062 H 
ATOM     41  C   LIG d   1       2.911  -1.147  -2.753  0.00  0.00    -0.062 A 
ATOM     42  H   LIG d   1       3.952  -2.556  -1.528  0.00  0.00     0.062 H 
ATOM     43  C   LIG d   1       2.976  -0.328  -3.864  0.00  0.00    -0.061 A 
ATOM     44  H   LIG d   1       2.009  -1.184  -2.161  0.00  0.00     0.062 H 
ATOM     45  C   LIG d   1       4.133  -0.276  -4.618  0.00  0.00    -0.055 A 
ATOM     46  H   LIG d   1       2.122   0.273  -4.143  0.00  0.00     0.062 H 
ATOM     47  H   LIG d   1       4.184   0.364  -5.487  0.00  0.00     0.062 H 
ENDBRANCH  34  37
ENDBRANCH  33  34
ENDBRANCH  27  33
ENDBRANCH   1  23
BRANCH  13  48
ATOM     48  C   LIG d   1      12.583   9.524   0.118  0.00  0.00    -0.017 A 
ATOM     49  C   LIG d   1      13.281  10.436  -0.676  0.00  0.00    -0.054 A 
ATOM     50  C   LIG d   1      14.272  11.215  -0.117  0.00  0.00    -0.061 A 
ATOM     51  H   LIG d   1      13.045  10.531  -1.725  0.00  0.00     0.062 H 
ATOM     52  C   LIG d   1      14.576  11.093   1.229  0.00  0.00    -0.062 A 
ATOM     53  H   LIG d   1      14.813  11.920  -0.729  0.00  0.00     0.062 H 
ATOM     54  C   LIG d   1      13.887  10.192   2.020  0.00  0.00    -0.061 A 
ATOM     55  H   LIG d   1      15.352  11.706   1.661  0.00  0.00     0.062 H 
ATOM     56  C   LIG d   1      12.890   9.410   1.475  0.00  0.00    -0.054 A 
ATOM     57  H   LIG d   1      14.129  10.102   3.069  0.00  0.00     0.062 H 
ATOM     58  H   LIG d   1      12.351   8.710   2.095  0.00  0.00     0.062 H 
ENDBRANCH  13  48
TORSDOF 5
ENDMDL
MODEL 5
REMARK VINA RESULT:      -7.2     10.326     14.848
REMARK  5 active torsions:
REMARK  status: ('A' for Active; 'I' for Inactive)
REMARK    1  A    between atoms: C_4  and  C_7 
REMARK    2  A    between atoms: C_7  and  O_8 
REMARK    3  A    between atoms: O_8  and  C_9 
REMARK    4  A    between atoms: C_12  and  N_15 
REMARK    5  A    between atoms: C_27  and  C_28 
ROOT
ATOM      1  N   LIG d   1       5.934  -5.614  -6.907  0.00  0.00    -0.293 NA
ATOM      2  C   LIG d   1       5.265  -6.803  -6.362  0.00  0.00     0.047 C 
ATOM      3  C   LIG d   1       6.256  -7.624  -5.576  0.00  0.00     0.054 A 
ATOM      4  C   LIG d   1       7.617  -7.440  -5.736  0.00  0.00     0.131 A 
ATOM      5  C   LIG d   1       8.524  -8.211  -5.009  0.00  0.00    -0.019 A 
ATOM      6  C   LIG d   1       8.081  -9.154  -4.129  0.00  0.00    -0.047 A 
ATOM      7  C   LIG d   1       6.709  -9.351  -3.955  0.00  0.00     0.026 A 
ATOM      8  C   LIG d   1       5.787  -8.582  -4.683  0.00  0.00     0.148 A 
ATOM      9  O   LIG d   1       4.461  -8.764  -4.524  0.00  0.00    -0.422 OA
ATOM     10  C   LIG d   1       3.995  -9.680  -3.669  0.00  0.00     0.338 A 
ATOM     11  O   LIG d   1       2.790  -9.811  -3.556  0.00  0.00    -0.245 OA
ATOM     12  C   LIG d   1       4.833 -10.498  -2.896  0.00  0.00     0.031 A 
ATOM     13  C   LIG d   1       6.205 -10.363  -3.011  0.00  0.00    -0.001 A 
ATOM     14  O   LIG d   1       8.094  -6.506  -6.603  0.00  0.00    -0.473 OA
ATOM     15  C   LIG d   1       7.184  -6.001  -7.583  0.00  0.00     0.157 C 
ATOM     16  H   LIG d   1       4.450  -6.494  -5.707  0.00  0.00     0.052 H 
ATOM     17  H   LIG d   1       4.866  -7.402  -7.179  0.00  0.00     0.052 H 
ATOM     18  H   LIG d   1       9.585  -8.059  -5.143  0.00  0.00     0.065 H 
ATOM     19  H   LIG d   1       8.788  -9.748  -3.570  0.00  0.00     0.063 H 
ATOM     20  H   LIG d   1       4.412 -11.225  -2.216  0.00  0.00     0.070 H 
ATOM     21  H   LIG d   1       6.976  -6.774  -8.322  0.00  0.00     0.091 H 
ATOM     22  H   LIG d   1       7.620  -5.130  -8.072  0.00  0.00     0.091 H 
ENDROOT
BRANCH   1  23
ATOM     23  C   LIG d   1       5.089  -4.918  -7.778  0.00  0.00     0.033 A 
ATOM     24  C   LIG d   1       3.876  -5.476  -8.161  0.00  0.00    -0.037 A 
ATOM     25  C   LIG d   1       3.038  -4.787  -9.017  0.00  0.00    -0.018 A 
ATOM     26  H   LIG d   1       3.585  -6.447  -7.788  0.00  0.00     0.064 H 
ATOM     27  C   LIG d   1       3.414  -3.542  -9.501  0.00  0.00     0.121 A 
ATOM     28  H   LIG d   1       2.093  -5.218  -9.311  0.00  0.00     0.066 H 
ATOM     29  C   LIG d   1       4.625  -2.984  -9.120  0.00  0.00    -0.018 A 
ATOM     30  C   LIG d   1       5.461  -3.670  -8.259  0.00  0.00    -0.037 A 
ATOM     31  H   LIG d   1       4.914  -2.014  -9.494  0.00  0.00     0.066 H 
ATOM     32  H   LIG d   1       6.404  -3.236  -7.962  0.00  0.00     0.064 H 
BRANCH  27  33
ATOM     33  O   LIG d   1       2.591  -2.866 -10.347  0.00  0.00    -0.487 OA
BRANCH  33  34
ATOM     34  C   LIG d   1       1.765  -1.850  -9.775  0.00  0.00     0.115 C 
ATOM     35  H   LIG d   1       1.578  -2.082  -8.727  0.00  0.00     0.075 H 
ATOM     36  H   LIG d   1       0.818  -1.807 -10.312  0.00  0.00     0.075 H 
BRANCH  34  37
ATOM     37  C   LIG d   1       2.463  -0.518  -9.879  0.00  0.00    -0.010 A 
ATOM     38  C   LIG d   1       3.166  -0.193 -11.024  0.00  0.00    -0.055 A 
ATOM     39  C   LIG d   1       3.806   1.028 -11.119  0.00  0.00    -0.061 A 
ATOM     40  H   LIG d   1       3.213  -0.894 -11.844  0.00  0.00     0.062 H 
ATOM     41  C   LIG d   1       3.743   1.925 -10.068  0.00  0.00    -0.062 A 
ATOM     42  H   LIG d   1       4.354   1.282 -12.013  0.00  0.00     0.062 H 
ATOM     43  C   LIG d   1       3.041   1.600  -8.923  0.00  0.00    -0.061 A 
ATOM     44  H   LIG d   1       4.239   2.881 -10.145  0.00  0.00     0.062 H 
ATOM     45  C   LIG d   1       2.400   0.379  -8.828  0.00  0.00    -0.055 A 
ATOM     46  H   LIG d   1       2.992   2.300  -8.103  0.00  0.00     0.062 H 
ATOM     47  H   LIG d   1       1.851   0.125  -7.933  0.00  0.00     0.062 H 
ENDBRANCH  34  37
ENDBRANCH  33  34
ENDBRANCH  27  33
ENDBRANCH   1  23
BRANCH  13  48
ATOM     48  C   LIG d   1       7.130 -11.203  -2.217  0.00  0.00    -0.017 A 
ATOM     49  C   LIG d   1       7.649 -10.727  -1.012  0.00  0.00    -0.054 A 
ATOM     50  C   LIG d   1       8.510 -11.514  -0.277  0.00  0.00    -0.061 A 
ATOM     51  H   LIG d   1       7.378  -9.744  -0.656  0.00  0.00     0.062 H 
ATOM     52  C   LIG d   1       8.860 -12.774  -0.732  0.00  0.00    -0.062 A 
ATOM     53  H   LIG d   1       8.914 -11.148   0.655  0.00  0.00     0.062 H 
ATOM     54  C   LIG d   1       8.348 -13.251  -1.925  0.00  0.00    -0.061 A 
ATOM     55  H   LIG d   1       9.534 -13.386  -0.153  0.00  0.00     0.062 H 
ATOM     56  C   LIG d   1       7.482 -12.476  -2.668  0.00  0.00    -0.054 A 
ATOM     57  H   LIG d   1       8.625 -14.235  -2.275  0.00  0.00     0.062 H 
ATOM     58  H   LIG d   1       7.080 -12.851  -3.597  0.00  0.00     0.062 H 
ENDBRANCH  13  48
TORSDOF 5
ENDMDL
MODEL 6
REMARK VINA RESULT:      -7.2      1.774      3.451
REMARK  5 active torsions:
REMARK  status: ('A' for Active; 'I' for Inactive)
REMARK    1  A    between atoms: C_4  and  C_7 
REMARK    2  A    between atoms: C_7  and  O_8 
REMARK    3  A    between atoms: O_8  and  C_9 
REMARK    4  A    between atoms: C_12  and  N_15 
REMARK    5  A    between atoms: C_27  and  C_28 
ROOT
ATOM      1  N   LIG d   1       9.791   3.858  -4.390  0.00  0.00    -0.293 NA
ATOM      2  C   LIG d   1       9.290   5.057  -5.076  0.00  0.00     0.047 C 
ATOM      3  C   LIG d   1       9.989   6.278  -4.534  0.00  0.00     0.054 A 
ATOM      4  C   LIG d   1      10.662   6.234  -3.327  0.00  0.00     0.131 A 
ATOM      5  C   LIG d   1      11.299   7.373  -2.832  0.00  0.00    -0.019 A 
ATOM      6  C   LIG d   1      11.270   8.542  -3.535  0.00  0.00    -0.047 A 
ATOM      7  C   LIG d   1      10.596   8.601  -4.757  0.00  0.00     0.026 A 
ATOM      8  C   LIG d   1       9.950   7.462  -5.263  0.00  0.00     0.148 A 
ATOM      9  O   LIG d   1       9.296   7.507  -6.441  0.00  0.00    -0.422 OA
ATOM     10  C   LIG d   1       9.249   8.638  -7.153  0.00  0.00     0.338 A 
ATOM     11  O   LIG d   1       8.647   8.634  -8.212  0.00  0.00    -0.245 OA
ATOM     12  C   LIG d   1       9.862   9.828  -6.734  0.00  0.00     0.031 A 
ATOM     13  C   LIG d   1      10.550   9.851  -5.535  0.00  0.00    -0.001 A 
ATOM     14  O   LIG d   1      10.714   5.084  -2.602  0.00  0.00    -0.473 OA
ATOM     15  C   LIG d   1       9.771   4.063  -2.931  0.00  0.00     0.157 C 
ATOM     16  H   LIG d   1       9.485   4.971  -6.145  0.00  0.00     0.052 H 
ATOM     17  H   LIG d   1       8.218   5.149  -4.908  0.00  0.00     0.052 H 
ATOM     18  H   LIG d   1      11.821   7.328  -1.888  0.00  0.00     0.065 H 
ATOM     19  H   LIG d   1      11.764   9.420  -3.147  0.00  0.00     0.063 H 
ATOM     20  H   LIG d   1       9.799  10.719  -7.344  0.00  0.00     0.070 H 
ATOM     21  H   LIG d   1       8.774   4.371  -2.619  0.00  0.00     0.091 H 
ATOM     22  H   LIG d   1      10.044   3.136  -2.428  0.00  0.00     0.091 H 
ENDROOT
BRANCH   1  23
ATOM     23  C   LIG d   1       9.047   2.728  -4.747  0.00  0.00     0.033 A 
ATOM     24  C   LIG d   1       8.505   1.913  -3.762  0.00  0.00    -0.037 A 
ATOM     25  C   LIG d   1       7.767   0.801  -4.114  0.00  0.00    -0.018 A 
ATOM     26  H   LIG d   1       8.659   2.150  -2.719  0.00  0.00     0.064 H 
ATOM     27  C   LIG d   1       7.574   0.492  -5.453  0.00  0.00     0.121 A 
ATOM     28  H   LIG d   1       7.341   0.170  -3.348  0.00  0.00     0.066 H 
ATOM     29  C   LIG d   1       8.114   1.305  -6.438  0.00  0.00    -0.018 A 
ATOM     30  C   LIG d   1       8.850   2.421  -6.087  0.00  0.00    -0.037 A 
ATOM     31  H   LIG d   1       7.960   1.067  -7.479  0.00  0.00     0.066 H 
ATOM     32  H   LIG d   1       9.270   3.055  -6.854  0.00  0.00     0.064 H 
BRANCH  27  33
ATOM     33  O   LIG d   1       6.849  -0.606  -5.800  0.00  0.00    -0.487 OA
BRANCH  33  34
ATOM     34  C   LIG d   1       5.453  -0.414  -6.038  0.00  0.00     0.115 C 
ATOM     35  H   LIG d   1       5.143  -1.023  -6.886  0.00  0.00     0.075 H 
ATOM     36  H   LIG d   1       5.264   0.637  -6.256  0.00  0.00     0.075 H 
BRANCH  34  37
ATOM     37  C   LIG d   1       4.675  -0.822  -4.813  0.00  0.00    -0.010 A 
ATOM     38  C   LIG d   1       3.585  -0.076  -4.407  0.00  0.00    -0.055 A 
ATOM     39  C   LIG d   1       2.871  -0.450  -3.283  0.00  0.00    -0.061 A 
ATOM     40  H   LIG d   1       3.290   0.799  -4.967  0.00  0.00     0.062 H 
ATOM     41  C   LIG d   1       3.248  -1.571  -2.567  0.00  0.00    -0.062 A 
ATOM     42  H   LIG d   1       2.020   0.132  -2.966  0.00  0.00     0.062 H 
ATOM     43  C   LIG d   1       4.339  -2.317  -2.973  0.00  0.00    -0.061 A 
ATOM     44  H   LIG d   1       2.688  -1.866  -1.693  0.00  0.00     0.062 H 
ATOM     45  C   LIG d   1       5.052  -1.943  -4.096  0.00  0.00    -0.055 A 
ATOM     46  H   LIG d   1       4.633  -3.192  -2.414  0.00  0.00     0.062 H 
ATOM     47  H   LIG d   1       5.905  -2.525  -4.414  0.00  0.00     0.062 H 
ENDBRANCH  34  37
ENDBRANCH  33  34
ENDBRANCH  27  33
ENDBRANCH   1  23
BRANCH  13  48
ATOM     48  C   LIG d   1      11.212  11.083  -5.051  0.00  0.00    -0.017 A 
ATOM     49  C   LIG d   1      12.536  11.352  -5.404  0.00  0.00    -0.054 A 
ATOM     50  C   LIG d   1      13.147  12.501  -4.950  0.00  0.00    -0.061 A 
ATOM     51  H   LIG d   1      13.080  10.661  -6.031  0.00  0.00     0.062 H 
ATOM     52  C   LIG d   1      12.452  13.387  -4.145  0.00  0.00    -0.062 A 
ATOM     53  H   LIG d   1      14.172  12.711  -5.222  0.00  0.00     0.062 H 
ATOM     54  C   LIG d   1      11.140  13.127  -3.792  0.00  0.00    -0.061 A 
ATOM     55  H   LIG d   1      12.935  14.286  -3.793  0.00  0.00     0.062 H 
ATOM     56  C   LIG d   1      10.515  11.983  -4.244  0.00  0.00    -0.054 A 
ATOM     57  H   LIG d   1      10.603  13.821  -3.164  0.00  0.00     0.062 H 
ATOM     58  H   LIG d   1       9.490  11.783  -3.971  0.00  0.00     0.062 H 
ENDBRANCH  13  48
TORSDOF 5
ENDMDL
MODEL 7
REMARK VINA RESULT:      -7.2      2.669      3.826
REMARK  5 active torsions:
REMARK  status: ('A' for Active; 'I' for Inactive)
REMARK    1  A    between atoms: C_4  and  C_7 
REMARK    2  A    between atoms: C_7  and  O_8 
REMARK    3  A    between atoms: O_8  and  C_9 
REMARK    4  A    between atoms: C_12  and  N_15 
REMARK    5  A    between atoms: C_27  and  C_28 
ROOT
ATOM      1  N   LIG d   1       9.758   3.707  -4.803  0.00  0.00    -0.293 NA
ATOM      2  C   LIG d   1       9.392   5.128  -4.876  0.00  0.00     0.047 C 
ATOM      3  C   LIG d   1       9.844   5.831  -3.621  0.00  0.00     0.054 A 
ATOM      4  C   LIG d   1      10.165   5.116  -2.482  0.00  0.00     0.131 A 
ATOM      5  C   LIG d   1      10.574   5.778  -1.325  0.00  0.00    -0.019 A 
ATOM      6  C   LIG d   1      10.668   7.139  -1.303  0.00  0.00    -0.047 A 
ATOM      7  C   LIG d   1      10.349   7.875  -2.447  0.00  0.00     0.026 A 
ATOM      8  C   LIG d   1       9.934   7.220  -3.616  0.00  0.00     0.148 A 
ATOM      9  O   LIG d   1       9.623   7.919  -4.725  0.00  0.00    -0.422 OA
ATOM     10  C   LIG d   1       9.704   9.254  -4.735  0.00  0.00     0.338 A 
ATOM     11  O   LIG d   1       9.415   9.847  -5.759  0.00  0.00    -0.245 OA
ATOM     12  C   LIG d   1      10.109  10.002  -3.619  0.00  0.00     0.031 A 
ATOM     13  C   LIG d   1      10.442   9.345  -2.448  0.00  0.00    -0.001 A 
ATOM     14  O   LIG d   1      10.086   3.758  -2.470  0.00  0.00    -0.473 OA
ATOM     15  C   LIG d   1       9.330   3.139  -3.513  0.00  0.00     0.157 C 
ATOM     16  H   LIG d   1       9.875   5.583  -5.741  0.00  0.00     0.052 H 
ATOM     17  H   LIG d   1       8.311   5.220  -4.974  0.00  0.00     0.052 H 
ATOM     18  H   LIG d   1      10.821   5.209  -0.440  0.00  0.00     0.065 H 
ATOM     19  H   LIG d   1      10.985   7.646  -0.404  0.00  0.00     0.063 H 
ATOM     20  H   LIG d   1      10.161  11.080  -3.674  0.00  0.00     0.070 H 
ATOM     21  H   LIG d   1       8.269   3.335  -3.362  0.00  0.00     0.091 H 
ATOM     22  H   LIG d   1       9.511   2.064  -3.509  0.00  0.00     0.091 H 
ENDROOT
BRANCH   1  23
ATOM     23  C   LIG d   1       9.208   2.992  -5.872  0.00  0.00     0.033 A 
ATOM     24  C   LIG d   1       9.441   3.405  -7.177  0.00  0.00    -0.037 A 
ATOM     25  C   LIG d   1       8.902   2.697  -8.233  0.00  0.00    -0.018 A 
ATOM     26  H   LIG d   1      10.046   4.280  -7.368  0.00  0.00     0.064 H 
ATOM     27  C   LIG d   1       8.120   1.577  -7.989  0.00  0.00     0.121 A 
ATOM     28  H   LIG d   1       9.087   3.015  -9.248  0.00  0.00     0.066 H 
ATOM     29  C   LIG d   1       7.886   1.163  -6.686  0.00  0.00    -0.018 A 
ATOM     30  C   LIG d   1       8.429   1.868  -5.629  0.00  0.00    -0.037 A 
ATOM     31  H   LIG d   1       7.281   0.289  -6.498  0.00  0.00     0.066 H 
ATOM     32  H   LIG d   1       8.248   1.545  -4.615  0.00  0.00     0.064 H 
BRANCH  27  33
ATOM     33  O   LIG d   1       7.585   0.881  -9.029  0.00  0.00    -0.487 OA
BRANCH  33  34
ATOM     34  C   LIG d   1       6.517  -0.019  -8.727  0.00  0.00     0.115 C 
ATOM     35  H   LIG d   1       6.698  -0.485  -7.759  0.00  0.00     0.075 H 
ATOM     36  H   LIG d   1       6.462  -0.788  -9.497  0.00  0.00     0.075 H 
BRANCH  34  37
ATOM     37  C   LIG d   1       5.217   0.742  -8.683  0.00  0.00    -0.010 A 
ATOM     38  C   LIG d   1       5.077   1.914  -9.403  0.00  0.00    -0.055 A 
ATOM     39  C   LIG d   1       3.885   2.612  -9.362  0.00  0.00    -0.061 A 
ATOM     40  H   LIG d   1       5.899   2.283  -9.997  0.00  0.00     0.062 H 
ATOM     41  C   LIG d   1       2.832   2.138  -8.600  0.00  0.00    -0.062 A 
ATOM     42  H   LIG d   1       3.775   3.527  -9.924  0.00  0.00     0.062 H 
ATOM     43  C   LIG d   1       2.972   0.967  -7.881  0.00  0.00    -0.061 A 
ATOM     44  H   LIG d   1       1.899   2.681  -8.573  0.00  0.00     0.062 H 
ATOM     45  C   LIG d   1       4.164   0.268  -7.922  0.00  0.00    -0.055 A 
ATOM     46  H   LIG d   1       2.150   0.596  -7.286  0.00  0.00     0.062 H 
ATOM     47  H   LIG d   1       4.274  -0.647  -7.359  0.00  0.00     0.062 H 
ENDBRANCH  34  37
ENDBRANCH  33  34
ENDBRANCH  27  33
ENDBRANCH   1  23
BRANCH  13  48
ATOM     48  C   LIG d   1      10.874  10.090  -1.245  0.00  0.00    -0.017 A 
ATOM     49  C   LIG d   1       9.924  10.589  -0.350  0.00  0.00    -0.054 A 
ATOM     50  C   LIG d   1      10.334  11.282   0.770  0.00  0.00    -0.061 A 
ATOM     51  H   LIG d   1       8.872  10.433  -0.536  0.00  0.00     0.062 H 
ATOM     52  C   LIG d   1      11.682  11.484   1.008  0.00  0.00    -0.062 A 
ATOM     53  H   LIG d   1       9.601  11.669   1.462  0.00  0.00     0.062 H 
ATOM     54  C   LIG d   1      12.628  10.992   0.126  0.00  0.00    -0.061 A 
ATOM     55  H   LIG d   1      11.997  12.027   1.886  0.00  0.00     0.062 H 
ATOM     56  C   LIG d   1      12.232  10.293  -0.996  0.00  0.00    -0.054 A 
ATOM     57  H   LIG d   1      13.678  11.153   0.317  0.00  0.00     0.062 H 
ATOM     58  H   LIG d   1      12.971   9.906  -1.681  0.00  0.00     0.062 H 
ENDBRANCH  13  48
TORSDOF 5
ENDMDL
MODEL 8
REMARK VINA RESULT:      -7.2      5.048      7.485
REMARK  5 active torsions:
REMARK  status: ('A' for Active; 'I' for Inactive)
REMARK    1  A    between atoms: C_4  and  C_7 
REMARK    2  A    between atoms: C_7  and  O_8 
REMARK    3  A    between atoms: O_8  and  C_9 
REMARK    4  A    between atoms: C_12  and  N_15 
REMARK    5  A    between atoms: C_27  and  C_28 
ROOT
ATOM      1  N   LIG d   1      10.283   5.628  -6.654  0.00  0.00    -0.293 NA
ATOM      2  C   LIG d   1       9.843   5.489  -8.049  0.00  0.00     0.047 C 
ATOM      3  C   LIG d   1      10.239   6.718  -8.828  0.00  0.00     0.054 A 
ATOM      4  C   LIG d   1      10.581   7.891  -8.180  0.00  0.00     0.131 A 
ATOM      5  C   LIG d   1      10.938   9.024  -8.912  0.00  0.00    -0.019 A 
ATOM      6  C   LIG d   1      10.959   8.988 -10.276  0.00  0.00    -0.047 A 
ATOM      7  C   LIG d   1      10.618   7.810 -10.945  0.00  0.00     0.026 A 
ATOM      8  C   LIG d   1      10.255   6.665 -10.219  0.00  0.00     0.148 A 
ATOM      9  O   LIG d   1       9.923   5.523 -10.853  0.00  0.00    -0.422 OA
ATOM     10  C   LIG d   1       9.934   5.456 -12.188  0.00  0.00     0.338 A 
ATOM     11  O   LIG d   1       9.628   4.405 -12.721  0.00  0.00    -0.245 OA
ATOM     12  C   LIG d   1      10.282   6.544 -13.004  0.00  0.00     0.031 A 
ATOM     13  C   LIG d   1      10.632   7.745 -12.416  0.00  0.00    -0.001 A 
ATOM     14  O   LIG d   1      10.575   7.961  -6.822  0.00  0.00    -0.473 OA
ATOM     15  C   LIG d   1       9.868   6.936  -6.120  0.00  0.00     0.157 C 
ATOM     16  H   LIG d   1      10.314   4.612  -8.493  0.00  0.00     0.052 H 
ATOM     17  H   LIG d   1       8.761   5.375  -8.079  0.00  0.00     0.052 H 
ATOM     18  H   LIG d   1      11.203   9.935  -8.396  0.00  0.00     0.065 H 
ATOM     19  H   LIG d   1      11.236   9.868 -10.837  0.00  0.00     0.063 H 
ATOM     20  H   LIG d   1      10.277   6.443 -14.080  0.00  0.00     0.070 H 
ATOM     21  H   LIG d   1       8.796   7.066  -6.265  0.00  0.00     0.091 H 
ATOM     22  H   LIG d   1      10.105   6.989  -5.057  0.00  0.00     0.091 H 
ENDROOT
BRANCH   1  23
ATOM     23  C   LIG d   1       9.787   4.585  -5.866  0.00  0.00     0.033 A 
ATOM     24  C   LIG d   1       9.325   3.420  -6.466  0.00  0.00    -0.037 A 
ATOM     25  C   LIG d   1       8.840   2.388  -5.688  0.00  0.00    -0.018 A 
ATOM     26  H   LIG d   1       9.348   3.320  -7.541  0.00  0.00     0.064 H 
ATOM     27  C   LIG d   1       8.806   2.517  -4.306  0.00  0.00     0.121 A 
ATOM     28  H   LIG d   1       8.485   1.481  -6.154  0.00  0.00     0.066 H 
ATOM     29  C   LIG d   1       9.267   3.680  -3.706  0.00  0.00    -0.018 A 
ATOM     30  C   LIG d   1       9.757   4.712  -4.484  0.00  0.00    -0.037 A 
ATOM     31  H   LIG d   1       9.243   3.778  -2.631  0.00  0.00     0.066 H 
ATOM     32  H   LIG d   1      10.116   5.616  -4.016  0.00  0.00     0.064 H 
BRANCH  27  33
ATOM     33  O   LIG d   1       8.324   1.502  -3.540  0.00  0.00    -0.487 OA
BRANCH  33  34
ATOM     34  C   LIG d   1       7.572   0.486  -4.208  0.00  0.00     0.115 C 
ATOM     35  H   LIG d   1       8.198  -0.396  -4.347  0.00  0.00     0.075 H 
ATOM     36  H   LIG d   1       7.245   0.856  -5.179  0.00  0.00     0.075 H 
BRANCH  34  37
ATOM     37  C   LIG d   1       6.370   0.123  -3.375  0.00  0.00    -0.010 A 
ATOM     38  C   LIG d   1       6.017  -1.203  -3.211  0.00  0.00    -0.055 A 
ATOM     39  C   LIG d   1       4.913  -1.536  -2.448  0.00  0.00    -0.061 A 
ATOM     40  H   LIG d   1       6.604  -1.979  -3.679  0.00  0.00     0.062 H 
ATOM     41  C   LIG d   1       4.162  -0.541  -1.849  0.00  0.00    -0.062 A 
ATOM     42  H   LIG d   1       4.638  -2.571  -2.319  0.00  0.00     0.062 H 
ATOM     43  C   LIG d   1       4.515   0.785  -2.013  0.00  0.00    -0.061 A 
ATOM     44  H   LIG d   1       3.304  -0.801  -1.248  0.00  0.00     0.062 H 
ATOM     45  C   LIG d   1       5.618   1.118  -2.776  0.00  0.00    -0.055 A 
ATOM     46  H   LIG d   1       3.928   1.562  -1.545  0.00  0.00     0.062 H 
ATOM     47  H   LIG d   1       5.894   2.154  -2.905  0.00  0.00     0.062 H 
ENDBRANCH  34  37
ENDBRANCH  33  34
ENDBRANCH  27  33
ENDBRANCH   1  23
BRANCH  13  48
ATOM     48  C   LIG d   1      11.007   8.921 -13.234  0.00  0.00    -0.017 A 
ATOM     49  C   LIG d   1      12.352   9.230 -13.443  0.00  0.00    -0.054 A 
ATOM     50  C   LIG d   1      12.694  10.327 -14.206  0.00  0.00    -0.061 A 
ATOM     51  H   LIG d   1      13.123   8.612 -13.008  0.00  0.00     0.062 H 
ATOM     52  C   LIG d   1      11.707  11.121 -14.764  0.00  0.00    -0.062 A 
ATOM     53  H   LIG d   1      13.734  10.568 -14.369  0.00  0.00     0.062 H 
ATOM     54  C   LIG d   1      10.372  10.819 -14.561  0.00  0.00    -0.061 A 
ATOM     55  H   LIG d   1      11.980  11.978 -15.361  0.00  0.00     0.062 H 
ATOM     56  C   LIG d   1      10.016   9.722 -13.804  0.00  0.00    -0.054 A 
ATOM     57  H   LIG d   1       9.606  11.443 -14.998  0.00  0.00     0.062 H 
ATOM     58  H   LIG d   1       8.974   9.487 -13.649  0.00  0.00     0.062 H 
ENDBRANCH  13  48
TORSDOF 5
ENDMDL
MODEL 9
REMARK VINA RESULT:      -7.2      4.482      7.757
REMARK  5 active torsions:
REMARK  status: ('A' for Active; 'I' for Inactive)
REMARK    1  A    between atoms: C_4  and  C_7 
REMARK    2  A    between atoms: C_7  and  O_8 
REMARK    3  A    between atoms: O_8  and  C_9 
REMARK    4  A    between atoms: C_12  and  N_15 
REMARK    5  A    between atoms: C_27  and  C_28 
ROOT
ATOM      1  N   LIG d   1       6.235  -2.983  -4.441  0.00  0.00    -0.293 NA
ATOM      2  C   LIG d   1       7.288  -2.215  -5.119  0.00  0.00     0.047 C 
ATOM      3  C   LIG d   1       7.312  -0.807  -4.581  0.00  0.00     0.054 A 
ATOM      4  C   LIG d   1       6.236  -0.296  -3.878  0.00  0.00     0.131 A 
ATOM      5  C   LIG d   1       6.267   1.011  -3.391  0.00  0.00    -0.019 A 
ATOM      6  C   LIG d   1       7.360   1.801  -3.598  0.00  0.00    -0.047 A 
ATOM      7  C   LIG d   1       8.455   1.298  -4.304  0.00  0.00     0.026 A 
ATOM      8  C   LIG d   1       8.434  -0.015  -4.801  0.00  0.00     0.148 A 
ATOM      9  O   LIG d   1       9.485  -0.510  -5.484  0.00  0.00    -0.422 OA
ATOM     10  C   LIG d   1      10.571   0.239  -5.704  0.00  0.00     0.338 A 
ATOM     11  O   LIG d   1      11.498  -0.248  -6.326  0.00  0.00    -0.245 OA
ATOM     12  C   LIG d   1      10.690   1.561  -5.249  0.00  0.00     0.031 A 
ATOM     13  C   LIG d   1       9.647   2.130  -4.541  0.00  0.00    -0.001 A 
ATOM     14  O   LIG d   1       5.132  -1.057  -3.650  0.00  0.00    -0.473 OA
ATOM     15  C   LIG d   1       4.970  -2.229  -4.453  0.00  0.00     0.157 C 
ATOM     16  H   LIG d   1       8.254  -2.687  -4.942  0.00  0.00     0.052 H 
ATOM     17  H   LIG d   1       7.087  -2.190  -6.190  0.00  0.00     0.052 H 
ATOM     18  H   LIG d   1       5.420   1.400  -2.844  0.00  0.00     0.065 H 
ATOM     19  H   LIG d   1       7.378   2.811  -3.219  0.00  0.00     0.063 H 
ATOM     20  H   LIG d   1      11.587   2.129  -5.449  0.00  0.00     0.070 H 
ATOM     21  H   LIG d   1       4.725  -1.941  -5.474  0.00  0.00     0.091 H 
ATOM     22  H   LIG d   1       4.172  -2.846  -4.042  0.00  0.00     0.091 H 
ENDROOT
BRANCH   1  23
ATOM     23  C   LIG d   1       6.073  -4.241  -5.032  0.00  0.00     0.033 A 
ATOM     24  C   LIG d   1       7.186  -4.988  -5.392  0.00  0.00    -0.037 A 
ATOM     25  C   LIG d   1       7.027  -6.232  -5.971  0.00  0.00    -0.018 A 
ATOM     26  H   LIG d   1       8.179  -4.598  -5.217  0.00  0.00     0.064 H 
ATOM     27  C   LIG d   1       5.753  -6.731  -6.201  0.00  0.00     0.121 A 
ATOM     28  H   LIG d   1       7.893  -6.814  -6.246  0.00  0.00     0.066 H 
ATOM     29  C   LIG d   1       4.640  -5.986  -5.842  0.00  0.00    -0.018 A 
ATOM     30  C   LIG d   1       4.798  -4.743  -5.259  0.00  0.00    -0.037 A 
ATOM     31  H   LIG d   1       3.649  -6.377  -6.018  0.00  0.00     0.066 H 
ATOM     32  H   LIG d   1       3.931  -4.163  -4.979  0.00  0.00     0.064 H 
BRANCH  27  33
ATOM     33  O   LIG d   1       5.596  -7.954  -6.775  0.00  0.00    -0.487 OA
BRANCH  33  34
ATOM     34  C   LIG d   1       6.438  -9.007  -6.299  0.00  0.00     0.115 C 
ATOM     35  H   LIG d   1       7.447  -8.624  -6.149  0.00  0.00     0.075 H 
ATOM     36  H   LIG d   1       6.460  -9.813  -7.033  0.00  0.00     0.075 H 
BRANCH  34  37
ATOM     37  C   LIG d   1       5.898  -9.530  -4.993  0.00  0.00    -0.010 A 
ATOM     38  C   LIG d   1       4.573  -9.910  -4.895  0.00  0.00    -0.055 A 
ATOM     39  C   LIG d   1       4.078 -10.390  -3.697  0.00  0.00    -0.061 A 
ATOM     40  H   LIG d   1       3.925  -9.834  -5.756  0.00  0.00     0.062 H 
ATOM     41  C   LIG d   1       4.909 -10.488  -2.596  0.00  0.00    -0.062 A 
ATOM     42  H   LIG d   1       3.043 -10.687  -3.621  0.00  0.00     0.062 H 
ATOM     43  C   LIG d   1       6.234 -10.107  -2.694  0.00  0.00    -0.061 A 
ATOM     44  H   LIG d   1       4.523 -10.867  -1.661  0.00  0.00     0.062 H 
ATOM     45  C   LIG d   1       6.729  -9.628  -3.892  0.00  0.00    -0.055 A 
ATOM     46  H   LIG d   1       6.883 -10.184  -1.834  0.00  0.00     0.062 H 
ATOM     47  H   LIG d   1       7.764  -9.330  -3.968  0.00  0.00     0.062 H 
ENDBRANCH  34  37
ENDBRANCH  33  34
ENDBRANCH  27  33
ENDBRANCH   1  23
BRANCH  13  48
ATOM     48  C   LIG d   1       9.726   3.521  -4.041  0.00  0.00    -0.017 A 
ATOM     49  C   LIG d   1      10.235   3.781  -2.768  0.00  0.00    -0.054 A 
ATOM     50  C   LIG d   1      10.306   5.080  -2.308  0.00  0.00    -0.061 A 
ATOM     51  H   LIG d   1      10.572   2.967  -2.144  0.00  0.00     0.062 H 
ATOM     52  C   LIG d   1       9.873   6.124  -3.107  0.00  0.00    -0.062 A 
ATOM     53  H   LIG d   1      10.699   5.283  -1.323  0.00  0.00     0.062 H 
ATOM     54  C   LIG d   1       9.367   5.873  -4.370  0.00  0.00    -0.061 A 
ATOM     55  H   LIG d   1       9.930   7.139  -2.743  0.00  0.00     0.062 H 
ATOM     56  C   LIG d   1       9.296   4.579  -4.844  0.00  0.00    -0.054 A 
ATOM     57  H   LIG d   1       9.031   6.692  -4.988  0.00  0.00     0.062 H 
ATOM     58  H   LIG d   1       8.905   4.386  -5.831  0.00  0.00     0.062 H 
ENDBRANCH  13  48
TORSDOF 5
ENDMDL
MODEL 10
REMARK VINA RESULT:      -7.1      7.561     14.528
REMARK  5 active torsions:
REMARK  status: ('A' for Active; 'I' for Inactive)
REMARK    1  A    between atoms: C_4  and  C_7 
REMARK    2  A    between atoms: C_7  and  O_8 
REMARK    3  A    between atoms: O_8  and  C_9 
REMARK    4  A    between atoms: C_12  and  N_15 
REMARK    5  A    between atoms: C_27  and  C_28 
ROOT
ATOM      1  N   LIG d   1       4.075  -1.488  -9.094  0.00  0.00    -0.293 NA
ATOM      2  C   LIG d   1       3.177  -2.651  -9.063  0.00  0.00     0.047 C 
ATOM      3  C   LIG d   1       2.177  -2.547 -10.186  0.00  0.00     0.054 A 
ATOM      4  C   LIG d   1       1.950  -1.342 -10.826  0.00  0.00     0.131 A 
ATOM      5  C   LIG d   1       1.017  -1.257 -11.860  0.00  0.00    -0.019 A 
ATOM      6  C   LIG d   1       0.318  -2.360 -12.254  0.00  0.00    -0.047 A 
ATOM      7  C   LIG d   1       0.538  -3.585 -11.618  0.00  0.00     0.026 A 
ATOM      8  C   LIG d   1       1.473  -3.682 -10.576  0.00  0.00     0.148 A 
ATOM      9  O   LIG d   1       1.692  -4.858  -9.954  0.00  0.00    -0.422 OA
ATOM     10  C   LIG d   1       1.024  -5.957 -10.318  0.00  0.00     0.338 A 
ATOM     11  O   LIG d   1       1.253  -6.999  -9.730  0.00  0.00    -0.245 OA
ATOM     12  C   LIG d   1       0.069  -5.964 -11.346  0.00  0.00     0.031 A 
ATOM     13  C   LIG d   1      -0.204  -4.791 -12.025  0.00  0.00    -0.001 A 
ATOM     14  O   LIG d   1       2.632  -0.223 -10.461  0.00  0.00    -0.473 OA
ATOM     15  C   LIG d   1       3.290  -0.246  -9.193  0.00  0.00     0.157 C 
ATOM     16  H   LIG d   1       3.761  -3.564  -9.181  0.00  0.00     0.052 H 
ATOM     17  H   LIG d   1       2.651  -2.678  -8.110  0.00  0.00     0.052 H 
ATOM     18  H   LIG d   1       0.847  -0.311 -12.352  0.00  0.00     0.065 H 
ATOM     19  H   LIG d   1      -0.403  -2.288 -13.054  0.00  0.00     0.063 H 
ATOM     20  H   LIG d   1      -0.446  -6.878 -11.607  0.00  0.00     0.070 H 
ATOM     21  H   LIG d   1       2.549  -0.216  -8.395  0.00  0.00     0.091 H 
ATOM     22  H   LIG d   1       3.955   0.614  -9.111  0.00  0.00     0.091 H 
ENDROOT
BRANCH   1  23
ATOM     23  C   LIG d   1       4.906  -1.467  -7.969  0.00  0.00     0.033 A 
ATOM     24  C   LIG d   1       5.463  -0.269  -7.539  0.00  0.00    -0.037 A 
ATOM     25  C   LIG d   1       6.280  -0.247  -6.426  0.00  0.00    -0.018 A 
ATOM     26  H   LIG d   1       5.256   0.646  -8.074  0.00  0.00     0.064 H 
ATOM     27  C   LIG d   1       6.551  -1.423  -5.741  0.00  0.00     0.121 A 
ATOM     28  H   LIG d   1       6.709   0.685  -6.089  0.00  0.00     0.066 H 
ATOM     29  C   LIG d   1       5.995  -2.620  -6.169  0.00  0.00    -0.018 A 
ATOM     30  C   LIG d   1       5.174  -2.642  -7.280  0.00  0.00    -0.037 A 
ATOM     31  H   LIG d   1       6.204  -3.534  -5.634  0.00  0.00     0.066 H 
ATOM     32  H   LIG d   1       4.741  -3.574  -7.613  0.00  0.00     0.064 H 
BRANCH  27  33
ATOM     33  O   LIG d   1       7.359  -1.402  -4.647  0.00  0.00    -0.487 OA
BRANCH  33  34
ATOM     34  C   LIG d   1       6.797  -1.863  -3.417  0.00  0.00     0.115 C 
ATOM     35  H   LIG d   1       7.559  -1.839  -2.638  0.00  0.00     0.075 H 
ATOM     36  H   LIG d   1       6.437  -2.884  -3.542  0.00  0.00     0.075 H 
BRANCH  34  37
ATOM     37  C   LIG d   1       5.649  -0.969  -3.024  0.00  0.00    -0.010 A 
ATOM     38  C   LIG d   1       4.379  -1.496  -2.884  0.00  0.00    -0.055 A 
ATOM     39  C   LIG d   1       3.325  -0.677  -2.524  0.00  0.00    -0.061 A 
ATOM     40  H   LIG d   1       4.210  -2.549  -3.056  0.00  0.00     0.062 H 
ATOM     41  C   LIG d   1       3.543   0.671  -2.303  0.00  0.00    -0.062 A 
ATOM     42  H   LIG d   1       2.334  -1.088  -2.414  0.00  0.00     0.062 H 
ATOM     43  C   LIG d   1       4.813   1.198  -2.443  0.00  0.00    -0.061 A 
ATOM     44  H   LIG d   1       2.722   1.310  -2.017  0.00  0.00     0.062 H 
ATOM     45  C   LIG d   1       5.866   0.379  -2.803  0.00  0.00    -0.055 A 
ATOM     46  H   LIG d   1       4.983   2.251  -2.270  0.00  0.00     0.062 H 
ATOM     47  H   LIG d   1       6.859   0.790  -2.912  0.00  0.00     0.062 H 
ENDBRANCH  34  37
ENDBRANCH  33  34
ENDBRANCH  27  33
ENDBRANCH   1  23
BRANCH  13  48
ATOM     48  C   LIG d   1      -1.202  -4.748 -13.117  0.00  0.00    -0.017 A 
ATOM     49  C   LIG d   1      -2.538  -4.459 -12.834  0.00  0.00    -0.054 A 
ATOM     50  C   LIG d   1      -3.463  -4.420 -13.856  0.00  0.00    -0.061 A 
ATOM     51  H   LIG d   1      -2.847  -4.267 -11.818  0.00  0.00     0.062 H 
ATOM     52  C   LIG d   1      -3.069  -4.668 -15.160  0.00  0.00    -0.062 A 
ATOM     53  H   LIG d   1      -4.498  -4.198 -13.640  0.00  0.00     0.062 H 
ATOM     54  C   LIG d   1      -1.746  -4.954 -15.447  0.00  0.00    -0.061 A 
ATOM     55  H   LIG d   1      -3.798  -4.636 -15.957  0.00  0.00     0.062 H 
ATOM     56  C   LIG d   1      -0.810  -4.991 -14.434  0.00  0.00    -0.054 A 
ATOM     57  H   LIG d   1      -1.446  -5.146 -16.466  0.00  0.00     0.062 H 
ATOM     58  H   LIG d   1       0.222  -5.210 -14.660  0.00  0.00     0.062 H 
ENDBRANCH  13  48
TORSDOF 5
ENDMDL
