MODEL 1
REMARK VINA RESULT:      -7.2      0.000      0.000
REMARK  10 active torsions:
REMARK  status: ('A' for Active; 'I' for Inactive)
REMARK    1  A    between atoms: C_3  and  O_37 
REMARK    2  A    between atoms: C_6  and  C_7 
REMARK    3  A    between atoms: C_13  and  O_36 
REMARK    4  A    between atoms: C_15  and  O_19 
REMARK    5  A    between atoms: O_19  and  C_20 
REMARK    6  A    between atoms: C_22  and  O_35 
REMARK    7  A    between atoms: C_24  and  O_34 
REMARK    8  A    between atoms: C_26  and  O_33 
REMARK    9  A    between atoms: C_28  and  C_31 
REMARK   10  A    between atoms: C_31  and  O_32 
ROOT
ATOM      1  C   LIG d   1      10.657   4.899  -2.950  0.00  0.00     0.132 C 
ATOM      2  H   LIG d   1      11.608   4.442  -3.225  0.00  0.00     0.079 H 
ATOM      3  C   LIG d   1      10.213   5.861  -4.061  0.00  0.00     0.052 C 
ATOM      4  C   LIG d   1      10.032   5.039  -5.324  0.00  0.00     0.174 C 
ATOM      5  O   LIG d   1      10.384   5.451  -6.410  0.00  0.00    -0.292 OA
ATOM      6  C   LIG d   1       9.412   3.719  -5.164  0.00  0.00     0.101 A 
ATOM      7  C   LIG d   1       8.971   2.994  -6.283  0.00  0.00     0.134 A 
ATOM      8  C   LIG d   1       8.401   1.746  -6.105  0.00  0.00     0.023 A 
ATOM      9  C   LIG d   1       8.264   1.220  -4.827  0.00  0.00     0.131 A 
ATOM     10  C   LIG d   1       8.693   1.934  -3.716  0.00  0.00     0.023 A 
ATOM     11  C   LIG d   1       9.265   3.185  -3.870  0.00  0.00     0.139 A 
ATOM     12  O   LIG d   1       9.670   3.882  -2.783  0.00  0.00    -0.483 OA
ATOM     13  H   LIG d   1       9.268   6.333  -3.788  0.00  0.00     0.038 H 
ATOM     14  H   LIG d   1      10.976   6.623  -4.220  0.00  0.00     0.038 H 
ATOM     15  H   LIG d   1       8.061   1.183  -6.961  0.00  0.00     0.069 H 
ATOM     16  H   LIG d   1       8.580   1.512  -2.728  0.00  0.00     0.069 H 
ENDROOT
BRANCH   9  17
ATOM     17  O   LIG d   1       7.706  -0.007  -4.663  0.00  0.00    -0.461 OA
BRANCH  17  18
ATOM     18  C   LIG d   1       6.284  -0.092  -4.772  0.00  0.00     0.231 C 
ATOM     19  H   LIG d   1       5.957   0.417  -5.677  0.00  0.00     0.108 H 
ATOM     20  O   LIG d   1       5.681   0.525  -3.632  0.00  0.00    -0.331 OA
ATOM     21  C   LIG d   1       4.252   0.517  -3.653  0.00  0.00     0.114 C 
ATOM     22  C   LIG d   1       3.752  -0.929  -3.671  0.00  0.00     0.112 C 
ATOM     23  H   LIG d   1       3.898   1.035  -4.544  0.00  0.00     0.065 H 
ATOM     24  C   LIG d   1       4.336  -1.649  -4.890  0.00  0.00     0.115 C 
ATOM     25  H   LIG d   1       4.070  -1.437  -2.760  0.00  0.00     0.065 H 
ATOM     26  C   LIG d   1       5.865  -1.563  -4.834  0.00  0.00     0.145 C 
ATOM     27  H   LIG d   1       3.977  -1.172  -5.802  0.00  0.00     0.065 H 
ATOM     28  H   LIG d   1       6.227  -2.084  -3.947  0.00  0.00     0.068 H 
BRANCH  21  29
ATOM     29  C   LIG d   1       3.720   1.226  -2.406  0.00  0.00     0.073 C 
ATOM     30  H   LIG d   1       3.509   2.269  -2.642  0.00  0.00     0.058 H 
ATOM     31  H   LIG d   1       2.805   0.736  -2.073  0.00  0.00     0.058 H 
BRANCH  29  32
ATOM     32  O   LIG d   1       4.698   1.162  -1.367  0.00  0.00    -0.392 OA
ATOM     33  H   LIG d   1       5.508   0.695  -1.616  0.00  0.00     0.209 HD
ENDBRANCH  29  32
ENDBRANCH  21  29
BRANCH  22  34
ATOM     34  O   LIG d   1       2.324  -0.941  -3.749  0.00  0.00    -0.387 OA
ATOM     35  H   LIG d   1       1.921  -1.770  -3.458  0.00  0.00     0.210 HD
ENDBRANCH  22  34
BRANCH  24  36
ATOM     36  O   LIG d   1       3.934  -3.019  -4.877  0.00  0.00    -0.386 OA
ATOM     37  H   LIG d   1       3.074  -3.180  -5.291  0.00  0.00     0.210 HD
ENDBRANCH  24  36
BRANCH  26  38
ATOM     38  O   LIG d   1       6.421  -2.169  -6.003  0.00  0.00    -0.383 OA
ATOM     39  H   LIG d   1       5.764  -2.409  -6.671  0.00  0.00     0.210 HD
ENDBRANCH  26  38
ENDBRANCH  17  18
ENDBRANCH   9  17
BRANCH   7  40
ATOM     40  O   LIG d   1       9.104   3.513  -7.529  0.00  0.00    -0.506 OA
ATOM     41  H   LIG d   1       9.765   3.065  -8.073  0.00  0.00     0.292 HD
ENDBRANCH   7  40
BRANCH   1  42
ATOM     42  C   LIG d   1      10.819   5.660  -1.660  0.00  0.00    -0.007 A 
ATOM     43  C   LIG d   1      11.642   5.165  -0.666  0.00  0.00    -0.052 A 
ATOM     44  C   LIG d   1      11.793   5.860   0.518  0.00  0.00    -0.020 A 
ATOM     45  H   LIG d   1      12.171   4.235  -0.816  0.00  0.00     0.062 H 
ATOM     46  C   LIG d   1      11.118   7.058   0.708  0.00  0.00     0.117 A 
ATOM     47  H   LIG d   1      12.436   5.473   1.294  0.00  0.00     0.065 H 
ATOM     48  C   LIG d   1      10.292   7.552  -0.291  0.00  0.00    -0.020 A 
ATOM     49  C   LIG d   1      10.146   6.852  -1.473  0.00  0.00    -0.052 A 
ATOM     50  H   LIG d   1       9.766   8.483  -0.145  0.00  0.00     0.065 H 
ATOM     51  H   LIG d   1       9.503   7.237  -2.251  0.00  0.00     0.062 H 
BRANCH  46  52
ATOM     52  O   LIG d   1      11.264   7.743   1.872  0.00  0.00    -0.507 OA
ATOM     53  H   LIG d   1      10.464   7.774   2.414  0.00  0.00     0.292 HD
ENDBRANCH  46  52
ENDBRANCH   1  42
TORSDOF 10
ENDMDL
MODEL 2
REMARK VINA RESULT:      -7.1      1.962      8.535
REMARK  10 active torsions:
REMARK  status: ('A' for Active; 'I' for Inactive)
REMARK    1  A    between atoms: C_3  and  O_37 
REMARK    2  A    between atoms: C_6  and  C_7 
REMARK    3  A    between atoms: C_13  and  O_36 
REMARK    4  A    between atoms: C_15  and  O_19 
REMARK    5  A    between atoms: O_19  and  C_20 
REMARK    6  A    between atoms: C_22  and  O_35 
REMARK    7  A    between atoms: C_24  and  O_34 
REMARK    8  A    between atoms: C_26  and  O_33 
REMARK    9  A    between atoms: C_28  and  C_31 
REMARK   10  A    between atoms: C_31  and  O_32 
ROOT
ATOM      1  C   LIG d   1       7.136   1.491  -4.289  0.00  0.00     0.132 C 
ATOM      2  H   LIG d   1       6.549   2.367  -4.566  0.00  0.00     0.079 H 
ATOM      3  C   LIG d   1       7.759   0.875  -5.550  0.00  0.00     0.052 C 
ATOM      4  C   LIG d   1       8.672   1.922  -6.160  0.00  0.00     0.174 C 
ATOM      5  O   LIG d   1       8.735   2.093  -7.361  0.00  0.00    -0.292 OA
ATOM      6  C   LIG d   1       9.472   2.721  -5.225  0.00  0.00     0.101 A 
ATOM      7  C   LIG d   1      10.522   3.529  -5.690  0.00  0.00     0.134 A 
ATOM      8  C   LIG d   1      11.253   4.281  -4.787  0.00  0.00     0.023 A 
ATOM      9  C   LIG d   1      10.951   4.231  -3.432  0.00  0.00     0.131 A 
ATOM     10  C   LIG d   1       9.916   3.429  -2.966  0.00  0.00     0.023 A 
ATOM     11  C   LIG d   1       9.173   2.667  -3.851  0.00  0.00     0.139 A 
ATOM     12  O   LIG d   1       8.174   1.879  -3.389  0.00  0.00    -0.483 OA
ATOM     13  H   LIG d   1       8.338  -0.010  -5.283  0.00  0.00     0.038 H 
ATOM     14  H   LIG d   1       6.976   0.606  -6.258  0.00  0.00     0.038 H 
ATOM     15  H   LIG d   1      12.062   4.906  -5.137  0.00  0.00     0.069 H 
ATOM     16  H   LIG d   1       9.692   3.400  -1.910  0.00  0.00     0.069 H 
ENDROOT
BRANCH   9  17
ATOM     17  O   LIG d   1      11.671   4.974  -2.555  0.00  0.00    -0.461 OA
BRANCH  17  18
ATOM     18  C   LIG d   1      10.954   5.937  -1.780  0.00  0.00     0.231 C 
ATOM     19  H   LIG d   1       9.919   5.616  -1.668  0.00  0.00     0.108 H 
ATOM     20  O   LIG d   1      10.992   7.205  -2.439  0.00  0.00    -0.331 OA
ATOM     21  C   LIG d   1      10.280   8.239  -1.757  0.00  0.00     0.114 C 
ATOM     22  C   LIG d   1      10.901   8.457  -0.375  0.00  0.00     0.112 C 
ATOM     23  H   LIG d   1       9.235   7.948  -1.645  0.00  0.00     0.065 H 
ATOM     24  C   LIG d   1      10.866   7.140   0.406  0.00  0.00     0.115 C 
ATOM     25  H   LIG d   1      11.933   8.788  -0.487  0.00  0.00     0.065 H 
ATOM     26  C   LIG d   1      11.602   6.063  -0.398  0.00  0.00     0.145 C 
ATOM     27  H   LIG d   1       9.831   6.835   0.562  0.00  0.00     0.065 H 
ATOM     28  H   LIG d   1      12.649   6.345  -0.510  0.00  0.00     0.068 H 
BRANCH  21  29
ATOM     29  C   LIG d   1      10.365   9.535  -2.565  0.00  0.00     0.073 C 
ATOM     30  H   LIG d   1      11.198  10.137  -2.201  0.00  0.00     0.058 H 
ATOM     31  H   LIG d   1      10.520   9.298  -3.617  0.00  0.00     0.058 H 
BRANCH  29  32
ATOM     32  O   LIG d   1       9.147  10.268  -2.418  0.00  0.00    -0.392 OA
ATOM     33  H   LIG d   1       8.515  10.131  -3.137  0.00  0.00     0.209 HD
ENDBRANCH  29  32
ENDBRANCH  21  29
BRANCH  22  34
ATOM     34  O   LIG d   1      10.156   9.450   0.333  0.00  0.00    -0.387 OA
ATOM     35  H   LIG d   1       9.915   9.195   1.233  0.00  0.00     0.210 HD
ENDBRANCH  22  34
BRANCH  24  36
ATOM     36  O   LIG d   1      11.508   7.314   1.670  0.00  0.00    -0.386 OA
ATOM     37  H   LIG d   1      12.388   6.917   1.722  0.00  0.00     0.210 HD
ENDBRANCH  24  36
BRANCH  26  38
ATOM     38  O   LIG d   1      11.515   4.812   0.286  0.00  0.00    -0.383 OA
ATOM     39  H   LIG d   1      10.746   4.735   0.869  0.00  0.00     0.210 HD
ENDBRANCH  26  38
ENDBRANCH  17  18
ENDBRANCH   9  17
BRANCH   7  40
ATOM     40  O   LIG d   1      10.817   3.572  -7.012  0.00  0.00    -0.506 OA
ATOM     41  H   LIG d   1      10.247   3.017  -7.561  0.00  0.00     0.292 HD
ENDBRANCH   7  40
BRANCH   1  42
ATOM     42  C   LIG d   1       6.244   0.478  -3.621  0.00  0.00    -0.007 A 
ATOM     43  C   LIG d   1       5.387   0.873  -2.611  0.00  0.00    -0.052 A 
ATOM     44  C   LIG d   1       4.567  -0.054  -1.997  0.00  0.00    -0.020 A 
ATOM     45  H   LIG d   1       5.356   1.907  -2.303  0.00  0.00     0.062 H 
ATOM     46  C   LIG d   1       4.604  -1.383  -2.396  0.00  0.00     0.117 A 
ATOM     47  H   LIG d   1       3.899   0.254  -1.208  0.00  0.00     0.065 H 
ATOM     48  C   LIG d   1       5.464  -1.776  -3.411  0.00  0.00    -0.020 A 
ATOM     49  C   LIG d   1       6.282  -0.845  -4.021  0.00  0.00    -0.052 A 
ATOM     50  H   LIG d   1       5.495  -2.809  -3.723  0.00  0.00     0.065 H 
ATOM     51  H   LIG d   1       6.952  -1.151  -4.811  0.00  0.00     0.062 H 
BRANCH  46  52
ATOM     52  O   LIG d   1       3.798  -2.297  -1.793  0.00  0.00    -0.507 OA
ATOM     53  H   LIG d   1       3.585  -3.060  -2.348  0.00  0.00     0.292 HD
ENDBRANCH  46  52
ENDBRANCH   1  42
TORSDOF 10
ENDMDL
MODEL 3
REMARK VINA RESULT:      -6.9      4.971      9.807
REMARK  10 active torsions:
REMARK  status: ('A' for Active; 'I' for Inactive)
REMARK    1  A    between atoms: C_3  and  O_37 
REMARK    2  A    between atoms: C_6  and  C_7 
REMARK    3  A    between atoms: C_13  and  O_36 
REMARK    4  A    between atoms: C_15  and  O_19 
REMARK    5  A    between atoms: O_19  and  C_20 
REMARK    6  A    between atoms: C_22  and  O_35 
REMARK    7  A    between atoms: C_24  and  O_34 
REMARK    8  A    between atoms: C_26  and  O_33 
REMARK    9  A    between atoms: C_28  and  C_31 
REMARK   10  A    between atoms: C_31  and  O_32 
ROOT
ATOM      1  C   LIG d   1      10.395   5.368  -6.295  0.00  0.00     0.132 C 
ATOM      2  H   LIG d   1      11.428   5.712  -6.236  0.00  0.00     0.079 H 
ATOM      3  C   LIG d   1      10.332   3.876  -5.941  0.00  0.00     0.052 C 
ATOM      4  C   LIG d   1      10.831   3.729  -4.516  0.00  0.00     0.174 C 
ATOM      5  O   LIG d   1      11.549   2.808  -4.182  0.00  0.00    -0.292 OA
ATOM      6  C   LIG d   1      10.405   4.759  -3.562  0.00  0.00     0.101 A 
ATOM      7  C   LIG d   1      10.598   4.581  -2.182  0.00  0.00     0.134 A 
ATOM      8  C   LIG d   1      10.198   5.574  -1.305  0.00  0.00     0.023 A 
ATOM      9  C   LIG d   1       9.607   6.734  -1.790  0.00  0.00     0.131 A 
ATOM     10  C   LIG d   1       9.409   6.913  -3.153  0.00  0.00     0.023 A 
ATOM     11  C   LIG d   1       9.800   5.933  -4.048  0.00  0.00     0.139 A 
ATOM     12  O   LIG d   1       9.594   6.108  -5.374  0.00  0.00    -0.483 OA
ATOM     13  H   LIG d   1       9.302   3.521  -6.011  0.00  0.00     0.038 H 
ATOM     14  H   LIG d   1      10.967   3.306  -6.618  0.00  0.00     0.038 H 
ATOM     15  H   LIG d   1      10.344   5.445  -0.243  0.00  0.00     0.069 H 
ATOM     16  H   LIG d   1       8.948   7.820  -3.515  0.00  0.00     0.069 H 
ENDROOT
BRANCH   9  17
ATOM     17  O   LIG d   1       9.221   7.703  -0.922  0.00  0.00    -0.461 OA
BRANCH  17  18
ATOM     18  C   LIG d   1      10.132   8.784  -0.710  0.00  0.00     0.231 C 
ATOM     19  H   LIG d   1      10.931   8.736  -1.448  0.00  0.00     0.108 H 
ATOM     20  O   LIG d   1      10.688   8.688   0.603  0.00  0.00    -0.331 OA
ATOM     21  C   LIG d   1      11.635   9.712   0.911  0.00  0.00     0.114 C 
ATOM     22  C   LIG d   1      10.951  11.079   0.835  0.00  0.00     0.112 C 
ATOM     23  H   LIG d   1      12.456   9.676   0.193  0.00  0.00     0.065 H 
ATOM     24  C   LIG d   1      10.354  11.266  -0.564  0.00  0.00     0.115 C 
ATOM     25  H   LIG d   1      10.157  11.131   1.580  0.00  0.00     0.065 H 
ATOM     26  C   LIG d   1       9.386  10.114  -0.851  0.00  0.00     0.145 C 
ATOM     27  H   LIG d   1      11.154  11.264  -1.305  0.00  0.00     0.065 H 
ATOM     28  H   LIG d   1       8.560  10.146  -0.140  0.00  0.00     0.068 H 
BRANCH  21  29
ATOM     29  C   LIG d   1      12.182   9.493   2.322  0.00  0.00     0.073 C 
ATOM     30  H   LIG d   1      13.272   9.519   2.299  0.00  0.00     0.058 H 
ATOM     31  H   LIG d   1      11.815  10.280   2.981  0.00  0.00     0.058 H 
BRANCH  29  32
ATOM     32  O   LIG d   1      11.747   8.223   2.811  0.00  0.00    -0.392 OA
ATOM     33  H   LIG d   1      10.884   8.244   3.248  0.00  0.00     0.209 HD
ENDBRANCH  29  32
ENDBRANCH  21  29
BRANCH  22  34
ATOM     34  O   LIG d   1      11.909  12.109   1.086  0.00  0.00    -0.387 OA
ATOM     35  H   LIG d   1      12.792  11.782   1.301  0.00  0.00     0.210 HD
ENDBRANCH  22  34
BRANCH  24  36
ATOM     36  O   LIG d   1       9.651  12.508  -0.623  0.00  0.00    -0.386 OA
ATOM     37  H   LIG d   1      10.029  13.201  -0.064  0.00  0.00     0.210 HD
ENDBRANCH  24  36
BRANCH  26  38
ATOM     38  O   LIG d   1       8.877  10.237  -2.181  0.00  0.00    -0.383 OA
ATOM     39  H   LIG d   1       8.210   9.576  -2.409  0.00  0.00     0.210 HD
ENDBRANCH  26  38
ENDBRANCH  17  18
ENDBRANCH   9  17
BRANCH   7  40
ATOM     40  O   LIG d   1      11.172   3.446  -1.713  0.00  0.00    -0.506 OA
ATOM     41  H   LIG d   1      11.792   3.035  -2.331  0.00  0.00     0.292 HD
ENDBRANCH   7  40
BRANCH   1  42
ATOM     42  C   LIG d   1       9.875   5.577  -7.694  0.00  0.00    -0.007 A 
ATOM     43  C   LIG d   1       9.650   4.488  -8.516  0.00  0.00    -0.052 A 
ATOM     44  C   LIG d   1       9.174   4.676  -9.799  0.00  0.00    -0.020 A 
ATOM     45  H   LIG d   1       9.844   3.490  -8.155  0.00  0.00     0.062 H 
ATOM     46  C   LIG d   1       8.920   5.960 -10.262  0.00  0.00     0.117 A 
ATOM     47  H   LIG d   1       8.999   3.826 -10.441  0.00  0.00     0.065 H 
ATOM     48  C   LIG d   1       9.146   7.050  -9.435  0.00  0.00    -0.020 A 
ATOM     49  C   LIG d   1       9.623   6.856  -8.153  0.00  0.00    -0.052 A 
ATOM     50  H   LIG d   1       8.950   8.050  -9.793  0.00  0.00     0.065 H 
ATOM     51  H   LIG d   1       9.799   7.705  -7.508  0.00  0.00     0.062 H 
BRANCH  46  52
ATOM     52  O   LIG d   1       8.451   6.148 -11.523  0.00  0.00    -0.507 OA
ATOM     53  H   LIG d   1       7.600   5.722 -11.694  0.00  0.00     0.292 HD
ENDBRANCH  46  52
ENDBRANCH   1  42
TORSDOF 10
ENDMDL
MODEL 4
REMARK VINA RESULT:      -6.7      5.483      8.824
REMARK  10 active torsions:
REMARK  status: ('A' for Active; 'I' for Inactive)
REMARK    1  A    between atoms: C_3  and  O_37 
REMARK    2  A    between atoms: C_6  and  C_7 
REMARK    3  A    between atoms: C_13  and  O_36 
REMARK    4  A    between atoms: C_15  and  O_19 
REMARK    5  A    between atoms: O_19  and  C_20 
REMARK    6  A    between atoms: C_22  and  O_35 
REMARK    7  A    between atoms: C_24  and  O_34 
REMARK    8  A    between atoms: C_26  and  O_33 
REMARK    9  A    between atoms: C_28  and  C_31 
REMARK   10  A    between atoms: C_31  and  O_32 
ROOT
ATOM      1  C   LIG d   1       7.334  -2.275  -4.049  0.00  0.00     0.132 C 
ATOM      2  H   LIG d   1       8.066  -2.580  -3.301  0.00  0.00     0.079 H 
ATOM      3  C   LIG d   1       8.055  -1.591  -5.219  0.00  0.00     0.052 C 
ATOM      4  C   LIG d   1       9.000  -2.612  -5.825  0.00  0.00     0.174 C 
ATOM      5  O   LIG d   1      10.115  -2.308  -6.198  0.00  0.00    -0.292 OA
ATOM      6  C   LIG d   1       8.499  -3.987  -5.935  0.00  0.00     0.101 A 
ATOM      7  C   LIG d   1       9.186  -4.940  -6.703  0.00  0.00     0.134 A 
ATOM      8  C   LIG d   1       8.698  -6.233  -6.780  0.00  0.00     0.023 A 
ATOM      9  C   LIG d   1       7.535  -6.579  -6.104  0.00  0.00     0.131 A 
ATOM     10  C   LIG d   1       6.848  -5.639  -5.347  0.00  0.00     0.023 A 
ATOM     11  C   LIG d   1       7.317  -4.340  -5.258  0.00  0.00     0.139 A 
ATOM     12  O   LIG d   1       6.637  -3.424  -4.528  0.00  0.00    -0.483 OA
ATOM     13  H   LIG d   1       7.328  -1.271  -5.967  0.00  0.00     0.038 H 
ATOM     14  H   LIG d   1       8.618  -0.732  -4.858  0.00  0.00     0.038 H 
ATOM     15  H   LIG d   1       9.222  -6.972  -7.368  0.00  0.00     0.069 H 
ATOM     16  H   LIG d   1       5.944  -5.922  -4.828  0.00  0.00     0.069 H 
ENDROOT
BRANCH   9  17
ATOM     17  O   LIG d   1       7.066  -7.850  -6.183  0.00  0.00    -0.461 OA
BRANCH  17  18
ATOM     18  C   LIG d   1       6.297  -8.327  -5.076  0.00  0.00     0.231 C 
ATOM     19  H   LIG d   1       5.823  -7.485  -4.573  0.00  0.00     0.108 H 
ATOM     20  O   LIG d   1       7.155  -9.010  -4.159  0.00  0.00    -0.331 OA
ATOM     21  C   LIG d   1       6.488  -9.508  -2.998  0.00  0.00     0.114 C 
ATOM     22  C   LIG d   1       5.420 -10.520  -3.419  0.00  0.00     0.112 C 
ATOM     23  H   LIG d   1       6.016  -8.681  -2.467  0.00  0.00     0.065 H 
ATOM     24  C   LIG d   1       4.440  -9.845  -4.384  0.00  0.00     0.115 C 
ATOM     25  H   LIG d   1       5.894 -11.367  -3.914  0.00  0.00     0.065 H 
ATOM     26  C   LIG d   1       5.220  -9.291  -5.581  0.00  0.00     0.145 C 
ATOM     27  H   LIG d   1       3.928  -9.029  -3.874  0.00  0.00     0.065 H 
ATOM     28  H   LIG d   1       5.691 -10.114  -6.120  0.00  0.00     0.068 H 
BRANCH  21  29
ATOM     29  C   LIG d   1       7.503 -10.191  -2.080  0.00  0.00     0.073 C 
ATOM     30  H   LIG d   1       7.380 -11.273  -2.142  0.00  0.00     0.058 H 
ATOM     31  H   LIG d   1       8.513  -9.922  -2.392  0.00  0.00     0.058 H 
BRANCH  29  32
ATOM     32  O   LIG d   1       7.292  -9.764  -0.733  0.00  0.00    -0.392 OA
ATOM     33  H   LIG d   1       7.875  -9.046  -0.451  0.00  0.00     0.209 HD
ENDBRANCH  29  32
ENDBRANCH  21  29
BRANCH  22  34
ATOM     34  O   LIG d   1       4.711 -10.978  -2.265  0.00  0.00    -0.387 OA
ATOM     35  H   LIG d   1       5.051 -11.804  -1.897  0.00  0.00     0.210 HD
ENDBRANCH  22  34
BRANCH  24  36
ATOM     36  O   LIG d   1       3.480 -10.800  -4.840  0.00  0.00    -0.386 OA
ATOM     37  H   LIG d   1       2.787 -10.998  -4.196  0.00  0.00     0.210 HD
ENDBRANCH  24  36
BRANCH  26  38
ATOM     38  O   LIG d   1       4.328  -8.596  -6.454  0.00  0.00    -0.383 OA
ATOM     39  H   LIG d   1       4.586  -8.626  -7.386  0.00  0.00     0.210 HD
ENDBRANCH  26  38
ENDBRANCH  17  18
ENDBRANCH   9  17
BRANCH   7  40
ATOM     40  O   LIG d   1      10.319  -4.598  -7.364  0.00  0.00    -0.506 OA
ATOM     41  H   LIG d   1      10.310  -3.699  -7.720  0.00  0.00     0.292 HD
ENDBRANCH   7  40
BRANCH   1  42
ATOM     42  C   LIG d   1       6.354  -1.313  -3.430  0.00  0.00    -0.007 A 
ATOM     43  C   LIG d   1       5.220  -1.793  -2.801  0.00  0.00    -0.052 A 
ATOM     44  C   LIG d   1       4.319  -0.914  -2.232  0.00  0.00    -0.020 A 
ATOM     45  H   LIG d   1       5.039  -2.856  -2.752  0.00  0.00     0.062 H 
ATOM     46  C   LIG d   1       4.555   0.453  -2.291  0.00  0.00     0.117 A 
ATOM     47  H   LIG d   1       3.434  -1.288  -1.742  0.00  0.00     0.065 H 
ATOM     48  C   LIG d   1       5.694   0.932  -2.922  0.00  0.00    -0.020 A 
ATOM     49  C   LIG d   1       6.590   0.047  -3.490  0.00  0.00    -0.052 A 
ATOM     50  H   LIG d   1       5.878   1.994  -2.970  0.00  0.00     0.065 H 
ATOM     51  H   LIG d   1       7.477   0.419  -3.981  0.00  0.00     0.062 H 
BRANCH  46  52
ATOM     52  O   LIG d   1       3.670   1.320  -1.732  0.00  0.00    -0.507 OA
ATOM     53  H   LIG d   1       3.634   1.277  -0.767  0.00  0.00     0.292 HD
ENDBRANCH  46  52
ENDBRANCH   1  42
TORSDOF 10
ENDMDL
MODEL 5
REMARK VINA RESULT:      -6.5      1.487      2.474
REMARK  10 active torsions:
REMARK  status: ('A' for Active; 'I' for Inactive)
REMARK    1  A    between atoms: C_3  and  O_37 
REMARK    2  A    between atoms: C_6  and  C_7 
REMARK    3  A    between atoms: C_13  and  O_36 
REMARK    4  A    between atoms: C_15  and  O_19 
REMARK    5  A    between atoms: O_19  and  C_20 
REMARK    6  A    between atoms: C_22  and  O_35 
REMARK    7  A    between atoms: C_24  and  O_34 
REMARK    8  A    between atoms: C_26  and  O_33 
REMARK    9  A    between atoms: C_28  and  C_31 
REMARK   10  A    between atoms: C_31  and  O_32 
ROOT
ATOM      1  C   LIG d   1      10.096   4.197  -3.546  0.00  0.00     0.132 C 
ATOM      2  H   LIG d   1      11.039   3.709  -3.793  0.00  0.00     0.079 H 
ATOM      3  C   LIG d   1       9.601   4.997  -4.759  0.00  0.00     0.052 C 
ATOM      4  C   LIG d   1       9.378   4.009  -5.889  0.00  0.00     0.174 C 
ATOM      5  O   LIG d   1       9.683   4.269  -7.035  0.00  0.00    -0.292 OA
ATOM      6  C   LIG d   1       8.775   2.721  -5.526  0.00  0.00     0.101 A 
ATOM      7  C   LIG d   1       8.296   1.849  -6.517  0.00  0.00     0.134 A 
ATOM      8  C   LIG d   1       7.744   0.636  -6.147  0.00  0.00     0.023 A 
ATOM      9  C   LIG d   1       7.660   0.289  -4.804  0.00  0.00     0.131 A 
ATOM     10  C   LIG d   1       8.127   1.150  -3.819  0.00  0.00     0.023 A 
ATOM     11  C   LIG d   1       8.682   2.369  -4.166  0.00  0.00     0.139 A 
ATOM     12  O   LIG d   1       9.124   3.210  -3.201  0.00  0.00    -0.483 OA
ATOM     13  H   LIG d   1       8.664   5.499  -4.516  0.00  0.00     0.038 H 
ATOM     14  H   LIG d   1      10.352   5.731  -5.051  0.00  0.00     0.038 H 
ATOM     15  H   LIG d   1       7.374  -0.041  -6.904  0.00  0.00     0.069 H 
ATOM     16  H   LIG d   1       8.055   0.867  -2.780  0.00  0.00     0.069 H 
ENDROOT
BRANCH   9  17
ATOM     17  O   LIG d   1       7.119  -0.904  -4.451  0.00  0.00    -0.461 OA
BRANCH  17  18
ATOM     18  C   LIG d   1       5.698  -1.023  -4.538  0.00  0.00     0.231 C 
ATOM     19  H   LIG d   1       5.420  -2.076  -4.531  0.00  0.00     0.108 H 
ATOM     20  O   LIG d   1       5.242  -0.417  -5.751  0.00  0.00    -0.331 OA
ATOM     21  C   LIG d   1       3.830  -0.503  -5.950  0.00  0.00     0.114 C 
ATOM     22  C   LIG d   1       3.111   0.224  -4.812  0.00  0.00     0.112 C 
ATOM     23  H   LIG d   1       3.527  -1.550  -5.961  0.00  0.00     0.065 H 
ATOM     24  C   LIG d   1       3.529  -0.396  -3.475  0.00  0.00     0.115 C 
ATOM     25  H   LIG d   1       3.381   1.280  -4.825  0.00  0.00     0.065 H 
ATOM     26  C   LIG d   1       5.053  -0.317  -3.343  0.00  0.00     0.145 C 
ATOM     27  H   LIG d   1       3.213  -1.438  -3.441  0.00  0.00     0.065 H 
ATOM     28  H   LIG d   1       5.363   0.729  -3.326  0.00  0.00     0.068 H 
BRANCH  21  29
ATOM     29  C   LIG d   1       3.463   0.149  -7.284  0.00  0.00     0.073 C 
ATOM     30  H   LIG d   1       3.196   1.193  -7.118  0.00  0.00     0.058 H 
ATOM     31  H   LIG d   1       4.315   0.095  -7.962  0.00  0.00     0.058 H 
BRANCH  29  32
ATOM     32  O   LIG d   1       2.353  -0.540  -7.862  0.00  0.00    -0.392 OA
ATOM     33  H   LIG d   1       1.511  -0.378  -7.413  0.00  0.00     0.209 HD
ENDBRANCH  29  32
ENDBRANCH  21  29
BRANCH  22  34
ATOM     34  O   LIG d   1       1.697   0.092  -4.976  0.00  0.00    -0.387 OA
ATOM     35  H   LIG d   1       1.222   0.933  -4.990  0.00  0.00     0.210 HD
ENDBRANCH  22  34
BRANCH  24  36
ATOM     36  O   LIG d   1       2.919   0.323  -2.401  0.00  0.00    -0.386 OA
ATOM     37  H   LIG d   1       3.435   1.080  -2.091  0.00  0.00     0.210 HD
ENDBRANCH  24  36
BRANCH  26  38
ATOM     38  O   LIG d   1       5.463  -0.956  -2.133  0.00  0.00    -0.383 OA
ATOM     39  H   LIG d   1       5.492  -1.921  -2.189  0.00  0.00     0.210 HD
ENDBRANCH  26  38
ENDBRANCH  17  18
ENDBRANCH   9  17
BRANCH   7  40
ATOM     40  O   LIG d   1       8.376   2.193  -7.826  0.00  0.00    -0.506 OA
ATOM     41  H   LIG d   1       8.729   3.079  -7.979  0.00  0.00     0.292 HD
ENDBRANCH   7  40
BRANCH   1  42
ATOM     42  C   LIG d   1      10.302   5.128  -2.379  0.00  0.00    -0.007 A 
ATOM     43  C   LIG d   1       9.610   6.322  -2.319  0.00  0.00    -0.052 A 
ATOM     44  C   LIG d   1       9.797   7.178  -1.250  0.00  0.00    -0.020 A 
ATOM     45  H   LIG d   1       8.919   6.587  -3.105  0.00  0.00     0.062 H 
ATOM     46  C   LIG d   1      10.681   6.835  -0.236  0.00  0.00     0.117 A 
ATOM     47  H   LIG d   1       9.257   8.111  -1.203  0.00  0.00     0.065 H 
ATOM     48  C   LIG d   1      11.374   5.636  -0.299  0.00  0.00    -0.020 A 
ATOM     49  C   LIG d   1      11.183   4.785  -1.370  0.00  0.00    -0.052 A 
ATOM     50  H   LIG d   1      12.062   5.368   0.488  0.00  0.00     0.065 H 
ATOM     51  H   LIG d   1      11.723   3.850  -1.420  0.00  0.00     0.062 H 
BRANCH  46  52
ATOM     52  O   LIG d   1      10.867   7.675   0.816  0.00  0.00    -0.507 OA
ATOM     53  H   LIG d   1      10.068   8.149   1.087  0.00  0.00     0.292 HD
ENDBRANCH  46  52
ENDBRANCH   1  42
TORSDOF 10
ENDMDL
MODEL 6
REMARK VINA RESULT:      -6.4      1.731      3.051
REMARK  10 active torsions:
REMARK  status: ('A' for Active; 'I' for Inactive)
REMARK    1  A    between atoms: C_3  and  O_37 
REMARK    2  A    between atoms: C_6  and  C_7 
REMARK    3  A    between atoms: C_13  and  O_36 
REMARK    4  A    between atoms: C_15  and  O_19 
REMARK    5  A    between atoms: O_19  and  C_20 
REMARK    6  A    between atoms: C_22  and  O_35 
REMARK    7  A    between atoms: C_24  and  O_34 
REMARK    8  A    between atoms: C_26  and  O_33 
REMARK    9  A    between atoms: C_28  and  C_31 
REMARK   10  A    between atoms: C_31  and  O_32 
ROOT
ATOM      1  C   LIG d   1      10.682   4.067  -2.050  0.00  0.00     0.132 C 
ATOM      2  H   LIG d   1      10.722   3.290  -1.286  0.00  0.00     0.079 H 
ATOM      3  C   LIG d   1      11.924   3.967  -2.946  0.00  0.00     0.052 C 
ATOM      4  C   LIG d   1      11.891   2.603  -3.611  0.00  0.00     0.174 C 
ATOM      5  O   LIG d   1      12.898   1.939  -3.757  0.00  0.00    -0.292 OA
ATOM      6  C   LIG d   1      10.581   2.126  -4.066  0.00  0.00     0.101 A 
ATOM      7  C   LIG d   1      10.479   1.008  -4.910  0.00  0.00     0.134 A 
ATOM      8  C   LIG d   1       9.229   0.572  -5.314  0.00  0.00     0.023 A 
ATOM      9  C   LIG d   1       8.088   1.240  -4.890  0.00  0.00     0.131 A 
ATOM     10  C   LIG d   1       8.182   2.350  -4.059  0.00  0.00     0.023 A 
ATOM     11  C   LIG d   1       9.422   2.804  -3.644  0.00  0.00     0.139 A 
ATOM     12  O   LIG d   1       9.509   3.893  -2.844  0.00  0.00    -0.483 OA
ATOM     13  H   LIG d   1      11.898   4.749  -3.705  0.00  0.00     0.038 H 
ATOM     14  H   LIG d   1      12.827   4.065  -2.343  0.00  0.00     0.038 H 
ATOM     15  H   LIG d   1       9.142  -0.287  -5.962  0.00  0.00     0.069 H 
ATOM     16  H   LIG d   1       7.287   2.860  -3.737  0.00  0.00     0.069 H 
ENDROOT
BRANCH   9  17
ATOM     17  O   LIG d   1       6.866   0.803  -5.289  0.00  0.00    -0.461 OA
BRANCH  17  18
ATOM     18  C   LIG d   1       6.343  -0.350  -4.628  0.00  0.00     0.231 C 
ATOM     19  H   LIG d   1       6.724  -0.389  -3.608  0.00  0.00     0.108 H 
ATOM     20  O   LIG d   1       6.745  -1.527  -5.333  0.00  0.00    -0.331 OA
ATOM     21  C   LIG d   1       6.293  -2.746  -4.739  0.00  0.00     0.114 C 
ATOM     22  C   LIG d   1       4.763  -2.763  -4.715  0.00  0.00     0.112 C 
ATOM     23  H   LIG d   1       6.674  -2.816  -3.719  0.00  0.00     0.065 H 
ATOM     24  C   LIG d   1       4.258  -1.540  -3.944  0.00  0.00     0.115 C 
ATOM     25  H   LIG d   1       4.382  -2.734  -5.735  0.00  0.00     0.065 H 
ATOM     26  C   LIG d   1       4.814  -0.272  -4.599  0.00  0.00     0.145 C 
ATOM     27  H   LIG d   1       4.597  -1.595  -2.909  0.00  0.00     0.065 H 
ATOM     28  H   LIG d   1       4.434  -0.192  -5.618  0.00  0.00     0.068 H 
BRANCH  21  29
ATOM     29  C   LIG d   1       6.805  -3.932  -5.557  0.00  0.00     0.073 C 
ATOM     30  H   LIG d   1       7.089  -4.743  -4.886  0.00  0.00     0.058 H 
ATOM     31  H   LIG d   1       6.018  -4.276  -6.229  0.00  0.00     0.058 H 
BRANCH  29  32
ATOM     32  O   LIG d   1       7.941  -3.529  -6.323  0.00  0.00    -0.392 OA
ATOM     33  H   LIG d   1       7.818  -2.699  -6.805  0.00  0.00     0.209 HD
ENDBRANCH  29  32
ENDBRANCH  21  29
BRANCH  22  34
ATOM     34  O   LIG d   1       4.308  -3.955  -4.069  0.00  0.00    -0.387 OA
ATOM     35  H   LIG d   1       4.992  -4.417  -3.569  0.00  0.00     0.210 HD
ENDBRANCH  22  34
BRANCH  24  36
ATOM     36  O   LIG d   1       2.830  -1.508  -3.977  0.00  0.00    -0.386 OA
ATOM     37  H   LIG d   1       2.413  -2.352  -3.755  0.00  0.00     0.210 HD
ENDBRANCH  24  36
BRANCH  26  38
ATOM     38  O   LIG d   1       4.409   0.873  -3.847  0.00  0.00    -0.383 OA
ATOM     39  H   LIG d   1       4.176   0.677  -2.928  0.00  0.00     0.210 HD
ENDBRANCH  26  38
ENDBRANCH  17  18
ENDBRANCH   9  17
BRANCH   7  40
ATOM     40  O   LIG d   1      11.595   0.361  -5.325  0.00  0.00    -0.506 OA
ATOM     41  H   LIG d   1      12.083   0.824  -6.019  0.00  0.00     0.292 HD
ENDBRANCH   7  40
BRANCH   1  42
ATOM     42  C   LIG d   1      10.646   5.421  -1.389  0.00  0.00    -0.007 A 
ATOM     43  C   LIG d   1       9.874   6.432  -1.929  0.00  0.00    -0.052 A 
ATOM     44  C   LIG d   1       9.838   7.674  -1.325  0.00  0.00    -0.020 A 
ATOM     45  H   LIG d   1       9.295   6.251  -2.822  0.00  0.00     0.062 H 
ATOM     46  C   LIG d   1      10.578   7.905  -0.174  0.00  0.00     0.117 A 
ATOM     47  H   LIG d   1       9.236   8.464  -1.747  0.00  0.00     0.065 H 
ATOM     48  C   LIG d   1      11.352   6.888   0.367  0.00  0.00    -0.020 A 
ATOM     49  C   LIG d   1      11.383   5.648  -0.242  0.00  0.00    -0.052 A 
ATOM     50  H   LIG d   1      11.928   7.066   1.262  0.00  0.00     0.065 H 
ATOM     51  H   LIG d   1      11.985   4.856   0.178  0.00  0.00     0.062 H 
BRANCH  46  52
ATOM     52  O   LIG d   1      10.545   9.126   0.422  0.00  0.00    -0.507 OA
ATOM     53  H   LIG d   1      10.012   9.780  -0.050  0.00  0.00     0.292 HD
ENDBRANCH  46  52
ENDBRANCH   1  42
TORSDOF 10
ENDMDL
MODEL 7
REMARK VINA RESULT:      -6.4      5.886      9.776
REMARK  10 active torsions:
REMARK  status: ('A' for Active; 'I' for Inactive)
REMARK    1  A    between atoms: C_3  and  O_37 
REMARK    2  A    between atoms: C_6  and  C_7 
REMARK    3  A    between atoms: C_13  and  O_36 
REMARK    4  A    between atoms: C_15  and  O_19 
REMARK    5  A    between atoms: O_19  and  C_20 
REMARK    6  A    between atoms: C_22  and  O_35 
REMARK    7  A    between atoms: C_24  and  O_34 
REMARK    8  A    between atoms: C_26  and  O_33 
REMARK    9  A    between atoms: C_28  and  C_31 
REMARK   10  A    between atoms: C_31  and  O_32 
ROOT
ATOM      1  C   LIG d   1       5.780  -2.646  -5.365  0.00  0.00     0.132 C 
ATOM      2  H   LIG d   1       6.786  -2.491  -5.756  0.00  0.00     0.079 H 
ATOM      3  C   LIG d   1       4.757  -2.456  -6.494  0.00  0.00     0.052 C 
ATOM      4  C   LIG d   1       5.054  -3.502  -7.551  0.00  0.00     0.174 C 
ATOM      5  O   LIG d   1       4.995  -3.247  -8.737  0.00  0.00    -0.292 OA
ATOM      6  C   LIG d   1       5.418  -4.839  -7.068  0.00  0.00     0.101 A 
ATOM      7  C   LIG d   1       5.462  -5.932  -7.949  0.00  0.00     0.134 A 
ATOM      8  C   LIG d   1       5.821  -7.179  -7.469  0.00  0.00     0.023 A 
ATOM      9  C   LIG d   1       6.130  -7.346  -6.125  0.00  0.00     0.131 A 
ATOM     10  C   LIG d   1       6.084  -6.269  -5.248  0.00  0.00     0.023 A 
ATOM     11  C   LIG d   1       5.726  -5.013  -5.706  0.00  0.00     0.139 A 
ATOM     12  O   LIG d   1       5.670  -3.970  -4.844  0.00  0.00    -0.483 OA
ATOM     13  H   LIG d   1       3.747  -2.596  -6.107  0.00  0.00     0.038 H 
ATOM     14  H   LIG d   1       4.856  -1.458  -6.921  0.00  0.00     0.038 H 
ATOM     15  H   LIG d   1       5.858  -8.025  -8.140  0.00  0.00     0.069 H 
ATOM     16  H   LIG d   1       6.326  -6.413  -4.205  0.00  0.00     0.069 H 
ENDROOT
BRANCH   9  17
ATOM     17  O   LIG d   1       6.484  -8.572  -5.664  0.00  0.00    -0.461 OA
BRANCH  17  18
ATOM     18  C   LIG d   1       6.172  -8.867  -4.301  0.00  0.00     0.231 C 
ATOM     19  H   LIG d   1       5.809  -7.966  -3.808  0.00  0.00     0.108 H 
ATOM     20  O   LIG d   1       7.347  -9.336  -3.634  0.00  0.00    -0.331 OA
ATOM     21  C   LIG d   1       7.151  -9.638  -2.251  0.00  0.00     0.114 C 
ATOM     22  C   LIG d   1       6.109 -10.751  -2.116  0.00  0.00     0.112 C 
ATOM     23  H   LIG d   1       6.800  -8.746  -1.730  0.00  0.00     0.065 H 
ATOM     24  C   LIG d   1       4.805 -10.304  -2.785  0.00  0.00     0.115 C 
ATOM     25  H   LIG d   1       6.476 -11.655  -2.601  0.00  0.00     0.065 H 
ATOM     26  C   LIG d   1       5.091  -9.949  -4.248  0.00  0.00     0.145 C 
ATOM     27  H   LIG d   1       4.411  -9.429  -2.268  0.00  0.00     0.065 H 
ATOM     28  H   LIG d   1       5.438 -10.838  -4.776  0.00  0.00     0.068 H 
BRANCH  21  29
ATOM     29  C   LIG d   1       8.473 -10.100  -1.638  0.00  0.00     0.073 C 
ATOM     30  H   LIG d   1       9.304  -9.646  -2.178  0.00  0.00     0.058 H 
ATOM     31  H   LIG d   1       8.513  -9.799  -0.591  0.00  0.00     0.058 H 
BRANCH  29  32
ATOM     32  O   LIG d   1       8.569 -11.523  -1.727  0.00  0.00    -0.392 OA
ATOM     33  H   LIG d   1       7.947 -11.997  -1.158  0.00  0.00     0.209 HD
ENDBRANCH  29  32
ENDBRANCH  21  29
BRANCH  22  34
ATOM     34  O   LIG d   1       5.868 -11.016  -0.732  0.00  0.00    -0.387 OA
ATOM     35  H   LIG d   1       5.818 -11.956  -0.515  0.00  0.00     0.210 HD
ENDBRANCH  22  34
BRANCH  24  36
ATOM     36  O   LIG d   1       3.849 -11.363  -2.728  0.00  0.00    -0.386 OA
ATOM     37  H   LIG d   1       4.192 -12.219  -3.021  0.00  0.00     0.210 HD
ENDBRANCH  24  36
BRANCH  26  38
ATOM     38  O   LIG d   1       3.897  -9.462  -4.864  0.00  0.00    -0.383 OA
ATOM     39  H   LIG d   1       3.402 -10.137  -5.350  0.00  0.00     0.210 HD
ENDBRANCH  26  38
ENDBRANCH  17  18
ENDBRANCH   9  17
BRANCH   7  40
ATOM     40  O   LIG d   1       5.156  -5.767  -9.259  0.00  0.00    -0.506 OA
ATOM     41  H   LIG d   1       5.517  -6.453  -9.836  0.00  0.00     0.292 HD
ENDBRANCH   7  40
BRANCH   1  42
ATOM     42  C   LIG d   1       5.509  -1.650  -4.267  0.00  0.00    -0.007 A 
ATOM     43  C   LIG d   1       4.689  -1.995  -3.209  0.00  0.00    -0.052 A 
ATOM     44  C   LIG d   1       4.439  -1.084  -2.201  0.00  0.00    -0.020 A 
ATOM     45  H   LIG d   1       4.245  -2.978  -3.169  0.00  0.00     0.062 H 
ATOM     46  C   LIG d   1       5.014   0.178  -2.251  0.00  0.00     0.117 A 
ATOM     47  H   LIG d   1       3.798  -1.354  -1.376  0.00  0.00     0.065 H 
ATOM     48  C   LIG d   1       5.837   0.521  -3.313  0.00  0.00    -0.020 A 
ATOM     49  C   LIG d   1       6.083  -0.394  -4.318  0.00  0.00    -0.052 A 
ATOM     50  H   LIG d   1       6.285   1.503  -3.354  0.00  0.00     0.065 H 
ATOM     51  H   LIG d   1       6.724  -0.127  -5.145  0.00  0.00     0.062 H 
BRANCH  46  52
ATOM     52  O   LIG d   1       4.769   1.076  -1.260  0.00  0.00    -0.507 OA
ATOM     53  H   LIG d   1       4.165   1.786  -1.514  0.00  0.00     0.292 HD
ENDBRANCH  46  52
ENDBRANCH   1  42
TORSDOF 10
ENDMDL
MODEL 8
REMARK VINA RESULT:      -6.3      2.050      2.462
REMARK  10 active torsions:
REMARK  status: ('A' for Active; 'I' for Inactive)
REMARK    1  A    between atoms: C_3  and  O_37 
REMARK    2  A    between atoms: C_6  and  C_7 
REMARK    3  A    between atoms: C_13  and  O_36 
REMARK    4  A    between atoms: C_15  and  O_19 
REMARK    5  A    between atoms: O_19  and  C_20 
REMARK    6  A    between atoms: C_22  and  O_35 
REMARK    7  A    between atoms: C_24  and  O_34 
REMARK    8  A    between atoms: C_26  and  O_33 
REMARK    9  A    between atoms: C_28  and  C_31 
REMARK   10  A    between atoms: C_31  and  O_32 
ROOT
ATOM      1  C   LIG d   1      10.782   3.706  -3.008  0.00  0.00     0.132 C 
ATOM      2  H   LIG d   1      11.265   3.046  -2.287  0.00  0.00     0.079 H 
ATOM      3  C   LIG d   1      11.736   3.966  -4.182  0.00  0.00     0.052 C 
ATOM      4  C   LIG d   1      12.021   2.627  -4.835  0.00  0.00     0.174 C 
ATOM      5  O   LIG d   1      13.131   2.333  -5.232  0.00  0.00    -0.292 OA
ATOM      6  C   LIG d   1      10.888   1.703  -4.962  0.00  0.00     0.101 A 
ATOM      7  C   LIG d   1      10.984   0.558  -5.769  0.00  0.00     0.134 A 
ATOM      8  C   LIG d   1       9.905  -0.303  -5.861  0.00  0.00     0.023 A 
ATOM      9  C   LIG d   1       8.736  -0.031  -5.161  0.00  0.00     0.131 A 
ATOM     10  C   LIG d   1       8.633   1.103  -4.365  0.00  0.00     0.023 A 
ATOM     11  C   LIG d   1       9.700   1.979  -4.260  0.00  0.00     0.139 A 
ATOM     12  O   LIG d   1       9.590   3.088  -3.493  0.00  0.00    -0.483 OA
ATOM     13  H   LIG d   1      11.264   4.636  -4.902  0.00  0.00     0.038 H 
ATOM     14  H   LIG d   1      12.663   4.407  -3.817  0.00  0.00     0.038 H 
ATOM     15  H   LIG d   1       9.971  -1.187  -6.479  0.00  0.00     0.069 H 
ATOM     16  H   LIG d   1       7.718   1.302  -3.828  0.00  0.00     0.069 H 
ENDROOT
BRANCH   9  17
ATOM     17  O   LIG d   1       7.684  -0.883  -5.255  0.00  0.00    -0.461 OA
BRANCH  17  18
ATOM     18  C   LIG d   1       6.412  -0.391  -4.827  0.00  0.00     0.231 C 
ATOM     19  H   LIG d   1       6.499   0.661  -4.562  0.00  0.00     0.108 H 
ATOM     20  O   LIG d   1       5.971  -1.136  -3.690  0.00  0.00    -0.331 OA
ATOM     21  C   LIG d   1       4.713  -0.707  -3.164  0.00  0.00     0.114 C 
ATOM     22  C   LIG d   1       3.631  -0.877  -4.232  0.00  0.00     0.112 C 
ATOM     23  H   LIG d   1       4.778   0.342  -2.876  0.00  0.00     0.065 H 
ATOM     24  C   LIG d   1       4.023  -0.076  -5.478  0.00  0.00     0.115 C 
ATOM     25  H   LIG d   1       3.536  -1.931  -4.491  0.00  0.00     0.065 H 
ATOM     26  C   LIG d   1       5.397  -0.548  -5.963  0.00  0.00     0.145 C 
ATOM     27  H   LIG d   1       4.068   0.985  -5.230  0.00  0.00     0.065 H 
ATOM     28  H   LIG d   1       5.338  -1.597  -6.257  0.00  0.00     0.068 H 
BRANCH  21  29
ATOM     29  C   LIG d   1       4.358  -1.551  -1.939  0.00  0.00     0.073 C 
ATOM     30  H   LIG d   1       5.272  -1.874  -1.441  0.00  0.00     0.058 H 
ATOM     31  H   LIG d   1       3.759  -0.956  -1.249  0.00  0.00     0.058 H 
BRANCH  29  32
ATOM     32  O   LIG d   1       3.610  -2.697  -2.350  0.00  0.00    -0.392 OA
ATOM     33  H   LIG d   1       3.956  -3.131  -3.142  0.00  0.00     0.209 HD
ENDBRANCH  29  32
ENDBRANCH  21  29
BRANCH  22  34
ATOM     34  O   LIG d   1       2.382  -0.395  -3.730  0.00  0.00    -0.387 OA
ATOM     35  H   LIG d   1       1.772  -1.093  -3.458  0.00  0.00     0.210 HD
ENDBRANCH  22  34
BRANCH  24  36
ATOM     36  O   LIG d   1       3.054  -0.285  -6.507  0.00  0.00    -0.386 OA
ATOM     37  H   LIG d   1       3.369  -0.061  -7.394  0.00  0.00     0.210 HD
ENDBRANCH  24  36
BRANCH  26  38
ATOM     38  O   LIG d   1       5.806   0.240  -7.082  0.00  0.00    -0.383 OA
ATOM     39  H   LIG d   1       6.605   0.762  -6.923  0.00  0.00     0.210 HD
ENDBRANCH  26  38
ENDBRANCH  17  18
ENDBRANCH   9  17
BRANCH   7  40
ATOM     40  O   LIG d   1      12.126   0.297  -6.453  0.00  0.00    -0.506 OA
ATOM     41  H   LIG d   1      12.042   0.398  -7.411  0.00  0.00     0.292 HD
ENDBRANCH   7  40
BRANCH   1  42
ATOM     42  C   LIG d   1      10.436   5.012  -2.341  0.00  0.00    -0.007 A 
ATOM     43  C   LIG d   1       9.665   5.945  -3.009  0.00  0.00    -0.052 A 
ATOM     44  C   LIG d   1       9.346   7.143  -2.400  0.00  0.00    -0.020 A 
ATOM     45  H   LIG d   1       9.309   5.736  -4.006  0.00  0.00     0.062 H 
ATOM     46  C   LIG d   1       9.800   7.409  -1.115  0.00  0.00     0.117 A 
ATOM     47  H   LIG d   1       8.744   7.872  -2.922  0.00  0.00     0.065 H 
ATOM     48  C   LIG d   1      10.573   6.471  -0.447  0.00  0.00    -0.020 A 
ATOM     49  C   LIG d   1      10.889   5.275  -1.062  0.00  0.00    -0.052 A 
ATOM     50  H   LIG d   1      10.927   6.676   0.552  0.00  0.00     0.065 H 
ATOM     51  H   LIG d   1      11.491   4.544  -0.542  0.00  0.00     0.062 H 
BRANCH  46  52
ATOM     52  O   LIG d   1       9.487   8.587  -0.514  0.00  0.00    -0.507 OA
ATOM     53  H   LIG d   1       9.519   9.351  -1.106  0.00  0.00     0.292 HD
ENDBRANCH  46  52
ENDBRANCH   1  42
TORSDOF 10
ENDMDL
MODEL 9
REMARK VINA RESULT:      -6.2      2.186      2.952
REMARK  10 active torsions:
REMARK  status: ('A' for Active; 'I' for Inactive)
REMARK    1  A    between atoms: C_3  and  O_37 
REMARK    2  A    between atoms: C_6  and  C_7 
REMARK    3  A    between atoms: C_13  and  O_36 
REMARK    4  A    between atoms: C_15  and  O_19 
REMARK    5  A    between atoms: O_19  and  C_20 
REMARK    6  A    between atoms: C_22  and  O_35 
REMARK    7  A    between atoms: C_24  and  O_34 
REMARK    8  A    between atoms: C_26  and  O_33 
REMARK    9  A    between atoms: C_28  and  C_31 
REMARK   10  A    between atoms: C_31  and  O_32 
ROOT
ATOM      1  C   LIG d   1      10.677   3.784  -2.536  0.00  0.00     0.132 C 
ATOM      2  H   LIG d   1      11.062   2.951  -1.949  0.00  0.00     0.079 H 
ATOM      3  C   LIG d   1      11.518   3.944  -3.810  0.00  0.00     0.052 C 
ATOM      4  C   LIG d   1      11.378   2.659  -4.605  0.00  0.00     0.174 C 
ATOM      5  O   LIG d   1      12.323   2.158  -5.181  0.00  0.00    -0.292 OA
ATOM      6  C   LIG d   1      10.043   2.051  -4.642  0.00  0.00     0.101 A 
ATOM      7  C   LIG d   1       9.752   1.016  -5.546  0.00  0.00     0.134 A 
ATOM      8  C   LIG d   1       8.488   0.453  -5.551  0.00  0.00     0.023 A 
ATOM      9  C   LIG d   1       7.517   0.913  -4.670  0.00  0.00     0.131 A 
ATOM     10  C   LIG d   1       7.798   1.939  -3.778  0.00  0.00     0.023 A 
ATOM     11  C   LIG d   1       9.055   2.519  -3.757  0.00  0.00     0.139 A 
ATOM     12  O   LIG d   1       9.319   3.527  -2.893  0.00  0.00    -0.483 OA
ATOM     13  H   LIG d   1      11.146   4.784  -4.397  0.00  0.00     0.038 H 
ATOM     14  H   LIG d   1      12.563   4.107  -3.548  0.00  0.00     0.038 H 
ATOM     15  H   LIG d   1       8.257  -0.344  -6.242  0.00  0.00     0.069 H 
ATOM     16  H   LIG d   1       7.033   2.287  -3.099  0.00  0.00     0.069 H 
ENDROOT
BRANCH   9  17
ATOM     17  O   LIG d   1       6.282   0.351  -4.681  0.00  0.00    -0.461 OA
BRANCH  17  18
ATOM     18  C   LIG d   1       5.965  -0.499  -5.784  0.00  0.00     0.231 C 
ATOM     19  H   LIG d   1       6.885  -0.863  -6.239  0.00  0.00     0.108 H 
ATOM     20  O   LIG d   1       5.213   0.236  -6.752  0.00  0.00    -0.331 OA
ATOM     21  C   LIG d   1       4.864  -0.518  -7.915  0.00  0.00     0.114 C 
ATOM     22  C   LIG d   1       3.990  -1.706  -7.507  0.00  0.00     0.112 C 
ATOM     23  H   LIG d   1       5.771  -0.882  -8.398  0.00  0.00     0.065 H 
ATOM     24  C   LIG d   1       4.748  -2.562  -6.488  0.00  0.00     0.115 C 
ATOM     25  H   LIG d   1       3.064  -1.342  -7.061  0.00  0.00     0.065 H 
ATOM     26  C   LIG d   1       5.135  -1.687  -5.291  0.00  0.00     0.145 C 
ATOM     27  H   LIG d   1       5.648  -2.968  -6.949  0.00  0.00     0.065 H 
ATOM     28  H   LIG d   1       4.232  -1.323  -4.800  0.00  0.00     0.068 H 
BRANCH  21  29
ATOM     29  C   LIG d   1       4.091   0.374  -8.888  0.00  0.00     0.073 C 
ATOM     30  H   LIG d   1       4.402   1.410  -8.757  0.00  0.00     0.058 H 
ATOM     31  H   LIG d   1       4.296   0.059  -9.911  0.00  0.00     0.058 H 
BRANCH  29  32
ATOM     32  O   LIG d   1       2.690   0.261  -8.628  0.00  0.00    -0.392 OA
ATOM     33  H   LIG d   1       2.461   0.272  -7.688  0.00  0.00     0.209 HD
ENDBRANCH  29  32
ENDBRANCH  21  29
BRANCH  22  34
ATOM     34  O   LIG d   1       3.686  -2.495  -8.659  0.00  0.00    -0.387 OA
ATOM     35  H   LIG d   1       2.791  -2.366  -9.000  0.00  0.00     0.210 HD
ENDBRANCH  22  34
BRANCH  24  36
ATOM     36  O   LIG d   1       3.913  -3.634  -6.046  0.00  0.00    -0.386 OA
ATOM     37  H   LIG d   1       4.111  -4.484  -6.464  0.00  0.00     0.210 HD
ENDBRANCH  24  36
BRANCH  26  38
ATOM     38  O   LIG d   1       5.905  -2.456  -4.365  0.00  0.00    -0.383 OA
ATOM     39  H   LIG d   1       6.810  -2.136  -4.245  0.00  0.00     0.210 HD
ENDBRANCH  26  38
ENDBRANCH  17  18
ENDBRANCH   9  17
BRANCH   7  40
ATOM     40  O   LIG d   1      10.701   0.573  -6.406  0.00  0.00    -0.506 OA
ATOM     41  H   LIG d   1      10.531   0.800  -7.330  0.00  0.00     0.292 HD
ENDBRANCH   7  40
BRANCH   1  42
ATOM     42  C   LIG d   1      10.752   5.050  -1.721  0.00  0.00    -0.007 A 
ATOM     43  C   LIG d   1       9.892   6.097  -1.994  0.00  0.00    -0.052 A 
ATOM     44  C   LIG d   1       9.958   7.259  -1.249  0.00  0.00    -0.020 A 
ATOM     45  H   LIG d   1       9.166   6.007  -2.787  0.00  0.00     0.062 H 
ATOM     46  C   LIG d   1      10.889   7.372  -0.225  0.00  0.00     0.117 A 
ATOM     47  H   LIG d   1       9.287   8.077  -1.462  0.00  0.00     0.065 H 
ATOM     48  C   LIG d   1      11.750   6.319   0.046  0.00  0.00    -0.020 A 
ATOM     49  C   LIG d   1      11.679   5.160  -0.702  0.00  0.00    -0.052 A 
ATOM     50  H   LIG d   1      12.474   6.405   0.842  0.00  0.00     0.065 H 
ATOM     51  H   LIG d   1      12.349   4.340  -0.491  0.00  0.00     0.062 H 
BRANCH  46  52
ATOM     52  O   LIG d   1      10.956   8.514   0.510  0.00  0.00    -0.507 OA
ATOM     53  H   LIG d   1      10.946   9.323  -0.020  0.00  0.00     0.292 HD
ENDBRANCH  46  52
ENDBRANCH   1  42
TORSDOF 10
ENDMDL
