MODEL 1
REMARK VINA RESULT:      -6.6      0.000      0.000
REMARK  11 active torsions:
REMARK  status: ('A' for Active; 'I' for Inactive)
REMARK    1  A    between atoms: C_1  and  C_2 
REMARK    2  A    between atoms: C_2  and  O_3 
REMARK    3  A    between atoms: O_3  and  C_4 
REMARK    4  A    between atoms: C_4  and  C_6 
REMARK    5  A    between atoms: C_8  and  C_22 
REMARK    6  A    between atoms: C_25  and  O_32 
REMARK    7  A    between atoms: C_26  and  O_28 
REMARK    8  A    between atoms: O_28  and  C_29 
REMARK    9  A    between atoms: C_29  and  C_30 
REMARK   10  A    between atoms: C_29  and  C_31 
REMARK   11  A    between atoms: O_32  and  C_33 
ROOT
ATOM      1  C   LIG d   1       3.043  -0.078  -8.008  0.00  0.00     0.207 C 
ATOM      2  H   LIG d   1       2.232  -0.500  -8.601  0.00  0.00     0.086 H 
ATOM      3  C   LIG d   1       4.274  -1.017  -8.014  0.00  0.00     0.067 C 
ATOM      4  H   LIG d   1       5.014  -0.687  -8.743  0.00  0.00     0.044 H 
ATOM      5  C   LIG d   1       4.795  -0.852  -6.599  0.00  0.00     0.091 A 
ATOM      6  C   LIG d   1       3.802  -0.257  -5.870  0.00  0.00     0.143 A 
ATOM      7  C   LIG d   1       4.080   0.023  -4.449  0.00  0.00     0.059 A 
ATOM      8  C   LIG d   1       3.121   0.632  -3.639  0.00  0.00    -0.048 A 
ATOM      9  C   LIG d   1       3.409   0.882  -2.315  0.00  0.00    -0.061 A 
ATOM     10  C   LIG d   1       4.644   0.531  -1.789  0.00  0.00    -0.058 A 
ATOM     11  C   LIG d   1       5.599  -0.072  -2.579  0.00  0.00    -0.018 A 
ATOM     12  C   LIG d   1       5.329  -0.333  -3.917  0.00  0.00     0.143 A 
ATOM     13  O   LIG d   1       6.255  -0.927  -4.702  0.00  0.00    -0.422 OA
ATOM     14  C   LIG d   1       6.014  -1.184  -5.998  0.00  0.00     0.345 A 
ATOM     15  O   LIG d   1       6.879  -1.722  -6.667  0.00  0.00    -0.245 OA
ATOM     16  O   LIG d   1       2.690  -0.032  -6.615  0.00  0.00    -0.475 OA
ATOM     17  H   LIG d   1       2.160   0.908  -4.047  0.00  0.00     0.063 H 
ATOM     18  H   LIG d   1       2.670   1.354  -1.684  0.00  0.00     0.062 H 
ATOM     19  H   LIG d   1       4.859   0.732  -0.750  0.00  0.00     0.062 H 
ATOM     20  H   LIG d   1       6.557  -0.342  -2.159  0.00  0.00     0.065 H 
ENDROOT
BRANCH   3  21
ATOM     21  C   LIG d   1       3.862  -2.443  -8.274  0.00  0.00    -0.032 A 
ATOM     22  C   LIG d   1       3.074  -2.743  -9.370  0.00  0.00    -0.012 A 
ATOM     23  C   LIG d   1       2.699  -4.055  -9.615  0.00  0.00     0.163 A 
ATOM     24  H   LIG d   1       2.755  -1.957 -10.037  0.00  0.00     0.066 H 
ATOM     25  C   LIG d   1       3.109  -5.065  -8.751  0.00  0.00     0.162 A 
ATOM     26  C   LIG d   1       3.894  -4.756  -7.651  0.00  0.00    -0.016 A 
ATOM     27  C   LIG d   1       4.269  -3.447  -7.416  0.00  0.00    -0.054 A 
ATOM     28  H   LIG d   1       4.213  -5.539  -6.980  0.00  0.00     0.066 H 
ATOM     29  H   LIG d   1       4.881  -3.208  -6.558  0.00  0.00     0.062 H 
BRANCH  23  30
ATOM     30  O   LIG d   1       1.928  -4.353 -10.695  0.00  0.00    -0.486 OA
BRANCH  30  31
ATOM     31  C   LIG d   1       0.630  -3.756 -10.750  0.00  0.00     0.095 C 
ATOM     32  H   LIG d   1       0.547  -2.997  -9.973  0.00  0.00     0.073 H 
BRANCH  31  33
ATOM     33  C   LIG d   1       0.425  -3.109 -12.121  0.00  0.00    -0.028 C 
ATOM     34  H   LIG d   1       1.260  -2.442 -12.336  0.00  0.00     0.026 H 
ATOM     35  H   LIG d   1       0.373  -3.884 -12.885  0.00  0.00     0.026 H 
ATOM     36  H   LIG d   1      -0.504  -2.539 -12.117  0.00  0.00     0.026 H 
ENDBRANCH  31  33
BRANCH  31  37
ATOM     37  C   LIG d   1      -0.435  -4.832 -10.530  0.00  0.00    -0.028 C 
ATOM     38  H   LIG d   1      -0.350  -5.226  -9.516  0.00  0.00     0.026 H 
ATOM     39  H   LIG d   1      -1.425  -4.398 -10.669  0.00  0.00     0.026 H 
ATOM     40  H   LIG d   1      -0.288  -5.640 -11.246  0.00  0.00     0.026 H 
ENDBRANCH  31  37
ENDBRANCH  30  31
ENDBRANCH  23  30
BRANCH  25  41
ATOM     41  O   LIG d   1       2.739  -6.353  -8.984  0.00  0.00    -0.491 OA
BRANCH  41  42
ATOM     42  C   LIG d   1       3.759  -7.350  -8.883  0.00  0.00     0.079 C 
ATOM     43  H   LIG d   1       3.322  -8.281  -8.524  0.00  0.00     0.066 H 
ATOM     44  H   LIG d   1       4.206  -7.512  -9.864  0.00  0.00     0.066 H 
ATOM     45  H   LIG d   1       4.526  -7.015  -8.185  0.00  0.00     0.066 H 
ENDBRANCH  41  42
ENDBRANCH  25  41
ENDBRANCH   3  21
BRANCH   1  46
ATOM     46  C   LIG d   1       3.414   1.293  -8.513  0.00  0.00     0.349 C 
ATOM     47  O   LIG d   1       2.885   2.273  -8.043  0.00  0.00    -0.247 OA
BRANCH  46  48
ATOM     48  O   LIG d   1       4.331   1.426  -9.484  0.00  0.00    -0.462 OA
BRANCH  48  49
ATOM     49  C   LIG d   1       3.850   1.488 -10.827  0.00  0.00     0.090 C 
ATOM     50  H   LIG d   1       4.284   2.354 -11.329  0.00  0.00     0.069 H 
ATOM     51  H   LIG d   1       2.763   1.580 -10.820  0.00  0.00     0.069 H 
BRANCH  49  52
ATOM     52  C   LIG d   1       4.250   0.213 -11.572  0.00  0.00    -0.031 C 
ATOM     53  H   LIG d   1       5.102  -0.247 -11.072  0.00  0.00     0.026 H 
ATOM     54  H   LIG d   1       3.411  -0.483 -11.576  0.00  0.00     0.026 H 
ATOM     55  H   LIG d   1       4.521   0.462 -12.599  0.00  0.00     0.026 H 
ENDBRANCH  49  52
ENDBRANCH  48  49
ENDBRANCH  46  48
ENDBRANCH   1  46
TORSDOF 11
ENDMDL
MODEL 2
REMARK VINA RESULT:      -6.4      1.363      2.858
REMARK  11 active torsions:
REMARK  status: ('A' for Active; 'I' for Inactive)
REMARK    1  A    between atoms: C_1  and  C_2 
REMARK    2  A    between atoms: C_2  and  O_3 
REMARK    3  A    between atoms: O_3  and  C_4 
REMARK    4  A    between atoms: C_4  and  C_6 
REMARK    5  A    between atoms: C_8  and  C_22 
REMARK    6  A    between atoms: C_25  and  O_32 
REMARK    7  A    between atoms: C_26  and  O_28 
REMARK    8  A    between atoms: O_28  and  C_29 
REMARK    9  A    between atoms: C_29  and  C_30 
REMARK   10  A    between atoms: C_29  and  C_31 
REMARK   11  A    between atoms: O_32  and  C_33 
ROOT
ATOM      1  C   LIG d   1       2.757  -0.318  -7.939  0.00  0.00     0.207 C 
ATOM      2  H   LIG d   1       1.953  -0.867  -8.428  0.00  0.00     0.086 H 
ATOM      3  C   LIG d   1       4.086  -1.108  -8.012  0.00  0.00     0.067 C 
ATOM      4  H   LIG d   1       4.714  -0.741  -8.824  0.00  0.00     0.044 H 
ATOM      5  C   LIG d   1       4.706  -0.795  -6.663  0.00  0.00     0.091 A 
ATOM      6  C   LIG d   1       3.717  -0.274  -5.875  0.00  0.00     0.143 A 
ATOM      7  C   LIG d   1       4.084   0.125  -4.504  0.00  0.00     0.059 A 
ATOM      8  C   LIG d   1       3.134   0.670  -3.639  0.00  0.00    -0.048 A 
ATOM      9  C   LIG d   1       3.505   1.034  -2.364  0.00  0.00    -0.061 A 
ATOM     10  C   LIG d   1       4.814   0.861  -1.940  0.00  0.00    -0.058 A 
ATOM     11  C   LIG d   1       5.761   0.324  -2.784  0.00  0.00    -0.018 A 
ATOM     12  C   LIG d   1       5.408  -0.051  -4.075  0.00  0.00     0.143 A 
ATOM     13  O   LIG d   1       6.326  -0.582  -4.912  0.00  0.00    -0.422 OA
ATOM     14  C   LIG d   1       6.005  -0.946  -6.164  0.00  0.00     0.345 A 
ATOM     15  O   LIG d   1       6.866  -1.422  -6.884  0.00  0.00    -0.245 OA
ATOM     16  O   LIG d   1       2.524  -0.225  -6.522  0.00  0.00    -0.475 OA
ATOM     17  H   LIG d   1       2.114   0.807  -3.968  0.00  0.00     0.063 H 
ATOM     18  H   LIG d   1       2.773   1.457  -1.691  0.00  0.00     0.062 H 
ATOM     19  H   LIG d   1       5.094   1.150  -0.937  0.00  0.00     0.062 H 
ATOM     20  H   LIG d   1       6.778   0.193  -2.443  0.00  0.00     0.065 H 
ENDROOT
BRANCH   3  21
ATOM     21  C   LIG d   1       3.828  -2.585  -8.158  0.00  0.00    -0.032 A 
ATOM     22  C   LIG d   1       4.029  -3.430  -7.082  0.00  0.00    -0.012 A 
ATOM     23  C   LIG d   1       3.786  -4.788  -7.212  0.00  0.00     0.163 A 
ATOM     24  H   LIG d   1       4.370  -3.030  -6.138  0.00  0.00     0.066 H 
ATOM     25  C   LIG d   1       3.350  -5.299  -8.430  0.00  0.00     0.162 A 
ATOM     26  C   LIG d   1       3.156  -4.448  -9.507  0.00  0.00    -0.016 A 
ATOM     27  C   LIG d   1       3.395  -3.094  -9.368  0.00  0.00    -0.054 A 
ATOM     28  H   LIG d   1       2.818  -4.844 -10.452  0.00  0.00     0.066 H 
ATOM     29  H   LIG d   1       3.244  -2.431 -10.208  0.00  0.00     0.062 H 
BRANCH  23  30
ATOM     30  O   LIG d   1       3.979  -5.619  -6.153  0.00  0.00    -0.486 OA
BRANCH  30  31
ATOM     31  C   LIG d   1       5.167  -6.413  -6.159  0.00  0.00     0.095 C 
ATOM     32  H   LIG d   1       5.423  -6.675  -7.185  0.00  0.00     0.073 H 
BRANCH  31  33
ATOM     33  C   LIG d   1       6.315  -5.619  -5.533  0.00  0.00    -0.028 C 
ATOM     34  H   LIG d   1       6.199  -5.607  -4.449  0.00  0.00     0.026 H 
ATOM     35  H   LIG d   1       7.264  -6.088  -5.791  0.00  0.00     0.026 H 
ATOM     36  H   LIG d   1       6.299  -4.598  -5.912  0.00  0.00     0.026 H 
ENDBRANCH  31  33
BRANCH  31  37
ATOM     37  C   LIG d   1       4.930  -7.690  -5.350  0.00  0.00    -0.028 C 
ATOM     38  H   LIG d   1       5.772  -8.369  -5.486  0.00  0.00     0.026 H 
ATOM     39  H   LIG d   1       4.833  -7.439  -4.293  0.00  0.00     0.026 H 
ATOM     40  H   LIG d   1       4.015  -8.173  -5.693  0.00  0.00     0.026 H 
ENDBRANCH  31  37
ENDBRANCH  30  31
ENDBRANCH  23  30
BRANCH  25  41
ATOM     41  O   LIG d   1       3.116  -6.632  -8.565  0.00  0.00    -0.491 OA
BRANCH  41  42
ATOM     42  C   LIG d   1       2.773  -7.103  -9.870  0.00  0.00     0.079 C 
ATOM     43  H   LIG d   1       2.012  -7.878  -9.789  0.00  0.00     0.066 H 
ATOM     44  H   LIG d   1       2.387  -6.274 -10.465  0.00  0.00     0.066 H 
ATOM     45  H   LIG d   1       3.660  -7.513 -10.353  0.00  0.00     0.066 H 
ENDBRANCH  41  42
ENDBRANCH  25  41
ENDBRANCH   3  21
BRANCH   1  46
ATOM     46  C   LIG d   1       2.914   1.052  -8.547  0.00  0.00     0.349 C 
ATOM     47  O   LIG d   1       3.116   2.009  -7.836  0.00  0.00    -0.247 OA
BRANCH  46  48
ATOM     48  O   LIG d   1       2.829   1.211  -9.877  0.00  0.00    -0.462 OA
BRANCH  48  49
ATOM     49  C   LIG d   1       4.048   1.456 -10.580  0.00  0.00     0.090 C 
ATOM     50  H   LIG d   1       4.872   1.523  -9.869  0.00  0.00     0.069 H 
ATOM     51  H   LIG d   1       3.968   2.393 -11.131  0.00  0.00     0.069 H 
BRANCH  49  52
ATOM     52  C   LIG d   1       4.312   0.309 -11.559  0.00  0.00    -0.031 C 
ATOM     53  H   LIG d   1       5.197  -0.242 -11.242  0.00  0.00     0.026 H 
ATOM     54  H   LIG d   1       3.452  -0.361 -11.572  0.00  0.00     0.026 H 
ATOM     55  H   LIG d   1       4.473   0.714 -12.558  0.00  0.00     0.026 H 
ENDBRANCH  49  52
ENDBRANCH  48  49
ENDBRANCH  46  48
ENDBRANCH   1  46
TORSDOF 11
ENDMDL
MODEL 3
REMARK VINA RESULT:      -6.4      4.339      6.599
REMARK  11 active torsions:
REMARK  status: ('A' for Active; 'I' for Inactive)
REMARK    1  A    between atoms: C_1  and  C_2 
REMARK    2  A    between atoms: C_2  and  O_3 
REMARK    3  A    between atoms: O_3  and  C_4 
REMARK    4  A    between atoms: C_4  and  C_6 
REMARK    5  A    between atoms: C_8  and  C_22 
REMARK    6  A    between atoms: C_25  and  O_32 
REMARK    7  A    between atoms: C_26  and  O_28 
REMARK    8  A    between atoms: O_28  and  C_29 
REMARK    9  A    between atoms: C_29  and  C_30 
REMARK   10  A    between atoms: C_29  and  C_31 
REMARK   11  A    between atoms: O_32  and  C_33 
ROOT
ATOM      1  C   LIG d   1       8.943   2.343  -4.847  0.00  0.00     0.207 C 
ATOM      2  H   LIG d   1       9.088   3.086  -5.631  0.00  0.00     0.086 H 
ATOM      3  C   LIG d   1       9.205   0.916  -5.387  0.00  0.00     0.067 C 
ATOM      4  H   LIG d   1      10.209   0.579  -5.128  0.00  0.00     0.044 H 
ATOM      5  C   LIG d   1       8.154   0.109  -4.650  0.00  0.00     0.091 A 
ATOM      6  C   LIG d   1       7.253   0.997  -4.131  0.00  0.00     0.143 A 
ATOM      7  C   LIG d   1       6.131   0.445  -3.350  0.00  0.00     0.059 A 
ATOM      8  C   LIG d   1       5.171   1.286  -2.784  0.00  0.00    -0.048 A 
ATOM      9  C   LIG d   1       4.134   0.742  -2.059  0.00  0.00    -0.061 A 
ATOM     10  C   LIG d   1       4.041  -0.632  -1.892  0.00  0.00    -0.058 A 
ATOM     11  C   LIG d   1       4.982  -1.472  -2.447  0.00  0.00    -0.018 A 
ATOM     12  C   LIG d   1       6.037  -0.945  -3.183  0.00  0.00     0.143 A 
ATOM     13  O   LIG d   1       6.964  -1.757  -3.735  0.00  0.00    -0.422 OA
ATOM     14  C   LIG d   1       7.992  -1.266  -4.446  0.00  0.00     0.345 A 
ATOM     15  O   LIG d   1       8.804  -2.037  -4.927  0.00  0.00    -0.245 OA
ATOM     16  O   LIG d   1       7.562   2.280  -4.451  0.00  0.00    -0.475 OA
ATOM     17  H   LIG d   1       5.243   2.356  -2.911  0.00  0.00     0.063 H 
ATOM     18  H   LIG d   1       3.389   1.389  -1.618  0.00  0.00     0.062 H 
ATOM     19  H   LIG d   1       3.224  -1.047  -1.321  0.00  0.00     0.062 H 
ATOM     20  H   LIG d   1       4.900  -2.541  -2.312  0.00  0.00     0.065 H 
ENDROOT
BRANCH   3  21
ATOM     21  C   LIG d   1       8.987   0.855  -6.877  0.00  0.00    -0.032 A 
ATOM     22  C   LIG d   1       7.894   1.490  -7.439  0.00  0.00    -0.012 A 
ATOM     23  C   LIG d   1       7.695   1.440  -8.810  0.00  0.00     0.163 A 
ATOM     24  H   LIG d   1       7.200   2.028  -6.811  0.00  0.00     0.066 H 
ATOM     25  C   LIG d   1       8.589   0.742  -9.615  0.00  0.00     0.162 A 
ATOM     26  C   LIG d   1       9.679   0.103  -9.044  0.00  0.00    -0.016 A 
ATOM     27  C   LIG d   1       9.875   0.162  -7.677  0.00  0.00    -0.054 A 
ATOM     28  H   LIG d   1      10.374  -0.438  -9.668  0.00  0.00     0.066 H 
ATOM     29  H   LIG d   1      10.725  -0.336  -7.233  0.00  0.00     0.062 H 
BRANCH  23  30
ATOM     30  O   LIG d   1       6.623   2.067  -9.365  0.00  0.00    -0.486 OA
BRANCH  30  31
ATOM     31  C   LIG d   1       5.328   1.604  -8.980  0.00  0.00     0.095 C 
ATOM     32  H   LIG d   1       5.327   1.373  -7.914  0.00  0.00     0.073 H 
BRANCH  31  33
ATOM     33  C   LIG d   1       4.291   2.692  -9.267  0.00  0.00    -0.028 C 
ATOM     34  H   LIG d   1       4.743   3.673  -9.118  0.00  0.00     0.026 H 
ATOM     35  H   LIG d   1       3.947   2.603 -10.297  0.00  0.00     0.026 H 
ATOM     36  H   LIG d   1       3.445   2.575  -8.590  0.00  0.00     0.026 H 
ENDBRANCH  31  33
BRANCH  31  37
ATOM     37  C   LIG d   1       4.979   0.345  -9.775  0.00  0.00    -0.028 C 
ATOM     38  H   LIG d   1       4.703   0.622 -10.793  0.00  0.00     0.026 H 
ATOM     39  H   LIG d   1       5.843  -0.319  -9.802  0.00  0.00     0.026 H 
ATOM     40  H   LIG d   1       4.143  -0.166  -9.298  0.00  0.00     0.026 H 
ENDBRANCH  31  37
ENDBRANCH  30  31
ENDBRANCH  23  30
BRANCH  25  41
ATOM     41  O   LIG d   1       8.395   0.686 -10.960  0.00  0.00    -0.491 OA
BRANCH  41  42
ATOM     42  C   LIG d   1       8.153  -0.603 -11.528  0.00  0.00     0.079 C 
ATOM     43  H   LIG d   1       8.581  -1.370 -10.882  0.00  0.00     0.066 H 
ATOM     44  H   LIG d   1       7.079  -0.764 -11.620  0.00  0.00     0.066 H 
ATOM     45  H   LIG d   1       8.615  -0.659 -12.513  0.00  0.00     0.066 H 
ENDBRANCH  41  42
ENDBRANCH  25  41
ENDBRANCH   3  21
BRANCH   1  46
ATOM     46  C   LIG d   1       9.827   2.637  -3.662  0.00  0.00     0.349 C 
ATOM     47  O   LIG d   1      10.869   2.041  -3.522  0.00  0.00    -0.247 OA
BRANCH  46  48
ATOM     48  O   LIG d   1       9.457   3.561  -2.761  0.00  0.00    -0.462 OA
BRANCH  48  49
ATOM     49  C   LIG d   1      10.250   4.747  -2.684  0.00  0.00     0.090 C 
ATOM     50  H   LIG d   1      11.279   4.514  -2.960  0.00  0.00     0.069 H 
ATOM     51  H   LIG d   1      10.226   5.134  -1.665  0.00  0.00     0.069 H 
BRANCH  49  52
ATOM     52  C   LIG d   1       9.690   5.798  -3.644  0.00  0.00    -0.031 C 
ATOM     53  H   LIG d   1       8.715   6.132  -3.288  0.00  0.00     0.026 H 
ATOM     54  H   LIG d   1      10.371   6.648  -3.689  0.00  0.00     0.026 H 
ATOM     55  H   LIG d   1       9.585   5.364  -4.638  0.00  0.00     0.026 H 
ENDBRANCH  49  52
ENDBRANCH  48  49
ENDBRANCH  46  48
ENDBRANCH   1  46
TORSDOF 11
ENDMDL
MODEL 4
REMARK VINA RESULT:      -6.4      1.940      4.460
REMARK  11 active torsions:
REMARK  status: ('A' for Active; 'I' for Inactive)
REMARK    1  A    between atoms: C_1  and  C_2 
REMARK    2  A    between atoms: C_2  and  O_3 
REMARK    3  A    between atoms: O_3  and  C_4 
REMARK    4  A    between atoms: C_4  and  C_6 
REMARK    5  A    between atoms: C_8  and  C_22 
REMARK    6  A    between atoms: C_25  and  O_32 
REMARK    7  A    between atoms: C_26  and  O_28 
REMARK    8  A    between atoms: O_28  and  C_29 
REMARK    9  A    between atoms: C_29  and  C_30 
REMARK   10  A    between atoms: C_29  and  C_31 
REMARK   11  A    between atoms: O_32  and  C_33 
ROOT
ATOM      1  C   LIG d   1       6.795  -1.809  -7.223  0.00  0.00     0.207 C 
ATOM      2  H   LIG d   1       6.765  -1.498  -8.267  0.00  0.00     0.086 H 
ATOM      3  C   LIG d   1       5.782  -2.950  -6.960  0.00  0.00     0.067 C 
ATOM      4  H   LIG d   1       6.276  -3.921  -6.969  0.00  0.00     0.044 H 
ATOM      5  C   LIG d   1       5.283  -2.606  -5.570  0.00  0.00     0.091 A 
ATOM      6  C   LIG d   1       5.658  -1.316  -5.313  0.00  0.00     0.143 A 
ATOM      7  C   LIG d   1       5.294  -0.754  -4.000  0.00  0.00     0.059 A 
ATOM      8  C   LIG d   1       5.644   0.554  -3.660  0.00  0.00    -0.048 A 
ATOM      9  C   LIG d   1       5.291   1.053  -2.425  0.00  0.00    -0.061 A 
ATOM     10  C   LIG d   1       4.591   0.263  -1.525  0.00  0.00    -0.058 A 
ATOM     11  C   LIG d   1       4.239  -1.030  -1.850  0.00  0.00    -0.018 A 
ATOM     12  C   LIG d   1       4.586  -1.553  -3.090  0.00  0.00     0.143 A 
ATOM     13  O   LIG d   1       4.244  -2.817  -3.423  0.00  0.00    -0.422 OA
ATOM     14  C   LIG d   1       4.572  -3.341  -4.614  0.00  0.00     0.345 A 
ATOM     15  O   LIG d   1       4.242  -4.486  -4.871  0.00  0.00    -0.245 OA
ATOM     16  O   LIG d   1       6.316  -0.760  -6.363  0.00  0.00    -0.475 OA
ATOM     17  H   LIG d   1       6.190   1.170  -4.359  0.00  0.00     0.063 H 
ATOM     18  H   LIG d   1       5.560   2.064  -2.157  0.00  0.00     0.062 H 
ATOM     19  H   LIG d   1       4.320   0.664  -0.560  0.00  0.00     0.062 H 
ATOM     20  H   LIG d   1       3.694  -1.636  -1.141  0.00  0.00     0.065 H 
ENDROOT
BRANCH   3  21
ATOM     21  C   LIG d   1       4.656  -2.912  -7.962  0.00  0.00    -0.032 A 
ATOM     22  C   LIG d   1       4.155  -1.696  -8.390  0.00  0.00    -0.012 A 
ATOM     23  C   LIG d   1       3.124  -1.659  -9.316  0.00  0.00     0.163 A 
ATOM     24  H   LIG d   1       4.571  -0.776  -8.007  0.00  0.00     0.066 H 
ATOM     25  C   LIG d   1       2.589  -2.847  -9.804  0.00  0.00     0.162 A 
ATOM     26  C   LIG d   1       3.092  -4.062  -9.366  0.00  0.00    -0.016 A 
ATOM     27  C   LIG d   1       4.124  -4.091  -8.447  0.00  0.00    -0.054 A 
ATOM     28  H   LIG d   1       2.677  -4.984  -9.744  0.00  0.00     0.066 H 
ATOM     29  H   LIG d   1       4.515  -5.039  -8.106  0.00  0.00     0.062 H 
BRANCH  23  30
ATOM     30  O   LIG d   1       2.634  -0.464  -9.742  0.00  0.00    -0.486 OA
BRANCH  30  31
ATOM     31  C   LIG d   1       3.479   0.678  -9.584  0.00  0.00     0.095 C 
ATOM     32  H   LIG d   1       4.341   0.409  -8.973  0.00  0.00     0.073 H 
BRANCH  31  33
ATOM     33  C   LIG d   1       3.956   1.154 -10.957  0.00  0.00    -0.028 C 
ATOM     34  H   LIG d   1       3.527   0.517 -11.731  0.00  0.00     0.026 H 
ATOM     35  H   LIG d   1       3.636   2.183 -11.117  0.00  0.00     0.026 H 
ATOM     36  H   LIG d   1       5.043   1.100 -11.003  0.00  0.00     0.026 H 
ENDBRANCH  31  33
BRANCH  31  37
ATOM     37  C   LIG d   1       2.697   1.800  -8.899  0.00  0.00    -0.028 C 
ATOM     38  H   LIG d   1       2.500   2.597  -9.616  0.00  0.00     0.026 H 
ATOM     39  H   LIG d   1       1.752   1.408  -8.523  0.00  0.00     0.026 H 
ATOM     40  H   LIG d   1       3.282   2.195  -8.068  0.00  0.00     0.026 H 
ENDBRANCH  31  37
ENDBRANCH  30  31
ENDBRANCH  23  30
BRANCH  25  41
ATOM     41  O   LIG d   1       1.574  -2.816 -10.708  0.00  0.00    -0.491 OA
BRANCH  41  42
ATOM     42  C   LIG d   1       0.610  -3.869 -10.639  0.00  0.00     0.079 C 
ATOM     43  H   LIG d   1       0.403  -4.238 -11.643  0.00  0.00     0.066 H 
ATOM     44  H   LIG d   1       1.004  -4.681 -10.027  0.00  0.00     0.066 H 
ATOM     45  H   LIG d   1      -0.309  -3.492 -10.193  0.00  0.00     0.066 H 
ENDBRANCH  41  42
ENDBRANCH  25  41
ENDBRANCH   3  21
BRANCH   1  46
ATOM     46  C   LIG d   1       8.188  -2.230  -6.831  0.00  0.00     0.349 C 
ATOM     47  O   LIG d   1       9.098  -1.438  -6.893  0.00  0.00    -0.247 OA
BRANCH  46  48
ATOM     48  O   LIG d   1       8.418  -3.485  -6.415  0.00  0.00    -0.462 OA
BRANCH  48  49
ATOM     49  C   LIG d   1       9.263  -3.646  -5.274  0.00  0.00     0.090 C 
ATOM     50  H   LIG d   1      10.071  -2.915  -5.314  0.00  0.00     0.069 H 
ATOM     51  H   LIG d   1       9.683  -4.652  -5.272  0.00  0.00     0.069 H 
BRANCH  49  52
ATOM     52  C   LIG d   1       8.444  -3.431  -3.999  0.00  0.00    -0.031 C 
ATOM     53  H   LIG d   1       7.562  -2.835  -4.230  0.00  0.00     0.026 H 
ATOM     54  H   LIG d   1       8.135  -4.398  -3.599  0.00  0.00     0.026 H 
ATOM     55  H   LIG d   1       9.053  -2.910  -3.260  0.00  0.00     0.026 H 
ENDBRANCH  49  52
ENDBRANCH  48  49
ENDBRANCH  46  48
ENDBRANCH   1  46
TORSDOF 11
ENDMDL
MODEL 5
REMARK VINA RESULT:      -6.0      2.939      6.475
REMARK  11 active torsions:
REMARK  status: ('A' for Active; 'I' for Inactive)
REMARK    1  A    between atoms: C_1  and  C_2 
REMARK    2  A    between atoms: C_2  and  O_3 
REMARK    3  A    between atoms: O_3  and  C_4 
REMARK    4  A    between atoms: C_4  and  C_6 
REMARK    5  A    between atoms: C_8  and  C_22 
REMARK    6  A    between atoms: C_25  and  O_32 
REMARK    7  A    between atoms: C_26  and  O_28 
REMARK    8  A    between atoms: O_28  and  C_29 
REMARK    9  A    between atoms: C_29  and  C_30 
REMARK   10  A    between atoms: C_29  and  C_31 
REMARK   11  A    between atoms: O_32  and  C_33 
ROOT
ATOM      1  C   LIG d   1       4.560  -1.718  -4.353  0.00  0.00     0.207 C 
ATOM      2  H   LIG d   1       3.953  -0.914  -4.771  0.00  0.00     0.086 H 
ATOM      3  C   LIG d   1       6.065  -1.463  -4.612  0.00  0.00     0.067 C 
ATOM      4  H   LIG d   1       6.544  -1.028  -3.735  0.00  0.00     0.044 H 
ATOM      5  C   LIG d   1       6.576  -2.867  -4.871  0.00  0.00     0.091 A 
ATOM      6  C   LIG d   1       5.485  -3.658  -5.102  0.00  0.00     0.143 A 
ATOM      7  C   LIG d   1       5.729  -5.088  -5.368  0.00  0.00     0.059 A 
ATOM      8  C   LIG d   1       4.668  -5.962  -5.609  0.00  0.00    -0.048 A 
ATOM      9  C   LIG d   1       4.926  -7.293  -5.854  0.00  0.00    -0.061 A 
ATOM     10  C   LIG d   1       6.231  -7.762  -5.863  0.00  0.00    -0.058 A 
ATOM     11  C   LIG d   1       7.287  -6.908  -5.627  0.00  0.00    -0.018 A 
ATOM     12  C   LIG d   1       7.049  -5.562  -5.378  0.00  0.00     0.143 A 
ATOM     13  O   LIG d   1       8.075  -4.714  -5.149  0.00  0.00    -0.422 OA
ATOM     14  C   LIG d   1       7.865  -3.411  -4.902  0.00  0.00     0.345 A 
ATOM     15  O   LIG d   1       8.822  -2.682  -4.702  0.00  0.00    -0.245 OA
ATOM     16  O   LIG d   1       4.326  -2.952  -5.053  0.00  0.00    -0.475 OA
ATOM     17  H   LIG d   1       3.651  -5.598  -5.601  0.00  0.00     0.063 H 
ATOM     18  H   LIG d   1       4.108  -7.974  -6.040  0.00  0.00     0.062 H 
ATOM     19  H   LIG d   1       6.422  -8.808  -6.056  0.00  0.00     0.062 H 
ATOM     20  H   LIG d   1       8.300  -7.285  -5.637  0.00  0.00     0.065 H 
ENDROOT
BRANCH   3  21
ATOM     21  C   LIG d   1       6.262  -0.585  -5.822  0.00  0.00    -0.032 A 
ATOM     22  C   LIG d   1       5.286  -0.531  -6.800  0.00  0.00    -0.012 A 
ATOM     23  C   LIG d   1       5.463   0.280  -7.910  0.00  0.00     0.163 A 
ATOM     24  H   LIG d   1       4.385  -1.116  -6.696  0.00  0.00     0.066 H 
ATOM     25  C   LIG d   1       6.627   1.030  -8.042  0.00  0.00     0.162 A 
ATOM     26  C   LIG d   1       7.604   0.966  -7.060  0.00  0.00    -0.016 A 
ATOM     27  C   LIG d   1       7.419   0.160  -5.953  0.00  0.00    -0.054 A 
ATOM     28  H   LIG d   1       8.508   1.547  -7.161  0.00  0.00     0.066 H 
ATOM     29  H   LIG d   1       8.181   0.111  -5.188  0.00  0.00     0.062 H 
BRANCH  23  30
ATOM     30  O   LIG d   1       4.502   0.338  -8.871  0.00  0.00    -0.486 OA
BRANCH  30  31
ATOM     31  C   LIG d   1       3.168   0.612  -8.438  0.00  0.00     0.095 C 
ATOM     32  H   LIG d   1       3.050   0.296  -7.401  0.00  0.00     0.073 H 
BRANCH  31  33
ATOM     33  C   LIG d   1       2.893   2.112  -8.549  0.00  0.00    -0.028 C 
ATOM     34  H   LIG d   1       1.885   2.269  -8.936  0.00  0.00     0.026 H 
ATOM     35  H   LIG d   1       2.978   2.572  -7.564  0.00  0.00     0.026 H 
ATOM     36  H   LIG d   1       3.617   2.565  -9.225  0.00  0.00     0.026 H 
ENDBRANCH  31  33
BRANCH  31  37
ATOM     37  C   LIG d   1       2.179  -0.154  -9.320  0.00  0.00    -0.028 C 
ATOM     38  H   LIG d   1       1.286  -0.394  -8.742  0.00  0.00     0.026 H 
ATOM     39  H   LIG d   1       1.904   0.461 -10.176  0.00  0.00     0.026 H 
ATOM     40  H   LIG d   1       2.644  -1.076  -9.669  0.00  0.00     0.026 H 
ENDBRANCH  31  37
ENDBRANCH  30  31
ENDBRANCH  23  30
BRANCH  25  41
ATOM     41  O   LIG d   1       6.808   1.823  -9.132  0.00  0.00    -0.491 OA
BRANCH  41  42
ATOM     42  C   LIG d   1       7.940   2.694  -9.120  0.00  0.00     0.079 C 
ATOM     43  H   LIG d   1       8.335   2.764  -8.106  0.00  0.00     0.066 H 
ATOM     44  H   LIG d   1       8.710   2.298  -9.784  0.00  0.00     0.066 H 
ATOM     45  H   LIG d   1       7.641   3.684  -9.462  0.00  0.00     0.066 H 
ENDBRANCH  41  42
ENDBRANCH  25  41
ENDBRANCH   3  21
BRANCH   1  46
ATOM     46  C   LIG d   1       4.291  -1.878  -2.879  0.00  0.00     0.349 C 
ATOM     47  O   LIG d   1       3.576  -2.771  -2.488  0.00  0.00    -0.247 OA
BRANCH  46  48
ATOM     48  O   LIG d   1       4.844  -1.028  -1.999  0.00  0.00    -0.462 OA
BRANCH  48  49
ATOM     49  C   LIG d   1       4.219   0.248  -1.849  0.00  0.00     0.090 C 
ATOM     50  H   LIG d   1       4.127   0.485  -0.788  0.00  0.00     0.069 H 
ATOM     51  H   LIG d   1       3.229   0.224  -2.303  0.00  0.00     0.069 H 
BRANCH  49  52
ATOM     52  C   LIG d   1       5.071   1.316  -2.538  0.00  0.00    -0.031 C 
ATOM     53  H   LIG d   1       4.514   1.741  -3.373  0.00  0.00     0.026 H 
ATOM     54  H   LIG d   1       5.312   2.104  -1.824  0.00  0.00     0.026 H 
ATOM     55  H   LIG d   1       5.993   0.866  -2.906  0.00  0.00     0.026 H 
ENDBRANCH  49  52
ENDBRANCH  48  49
ENDBRANCH  46  48
ENDBRANCH   1  46
TORSDOF 11
ENDMDL
MODEL 6
REMARK VINA RESULT:      -6.0      4.219      6.548
REMARK  11 active torsions:
REMARK  status: ('A' for Active; 'I' for Inactive)
REMARK    1  A    between atoms: C_1  and  C_2 
REMARK    2  A    between atoms: C_2  and  O_3 
REMARK    3  A    between atoms: O_3  and  C_4 
REMARK    4  A    between atoms: C_4  and  C_6 
REMARK    5  A    between atoms: C_8  and  C_22 
REMARK    6  A    between atoms: C_25  and  O_32 
REMARK    7  A    between atoms: C_26  and  O_28 
REMARK    8  A    between atoms: O_28  and  C_29 
REMARK    9  A    between atoms: C_29  and  C_30 
REMARK   10  A    between atoms: C_29  and  C_31 
REMARK   11  A    between atoms: O_32  and  C_33 
ROOT
ATOM      1  C   LIG d   1       5.254  -4.598  -5.360  0.00  0.00     0.207 C 
ATOM      2  H   LIG d   1       5.391  -5.644  -5.085  0.00  0.00     0.086 H 
ATOM      3  C   LIG d   1       6.620  -3.901  -5.573  0.00  0.00     0.067 C 
ATOM      4  H   LIG d   1       6.873  -3.852  -6.632  0.00  0.00     0.044 H 
ATOM      5  C   LIG d   1       6.352  -2.517  -5.014  0.00  0.00     0.091 A 
ATOM      6  C   LIG d   1       5.199  -2.594  -4.282  0.00  0.00     0.143 A 
ATOM      7  C   LIG d   1       4.719  -1.355  -3.643  0.00  0.00     0.059 A 
ATOM      8  C   LIG d   1       3.548  -1.348  -2.884  0.00  0.00    -0.048 A 
ATOM      9  C   LIG d   1       3.124  -0.176  -2.298  0.00  0.00    -0.061 A 
ATOM     10  C   LIG d   1       3.855   0.992  -2.460  0.00  0.00    -0.058 A 
ATOM     11  C   LIG d   1       5.013   0.998  -3.207  0.00  0.00    -0.018 A 
ATOM     12  C   LIG d   1       5.459  -0.174  -3.806  0.00  0.00     0.143 A 
ATOM     13  O   LIG d   1       6.595  -0.183  -4.538  0.00  0.00    -0.422 OA
ATOM     14  C   LIG d   1       7.040  -1.304  -5.128  0.00  0.00     0.345 A 
ATOM     15  O   LIG d   1       8.071  -1.265  -5.777  0.00  0.00    -0.245 OA
ATOM     16  O   LIG d   1       4.688  -3.852  -4.269  0.00  0.00    -0.475 OA
ATOM     17  H   LIG d   1       2.977  -2.256  -2.758  0.00  0.00     0.063 H 
ATOM     18  H   LIG d   1       2.217  -0.166  -1.710  0.00  0.00     0.062 H 
ATOM     19  H   LIG d   1       3.513   1.905  -1.997  0.00  0.00     0.062 H 
ATOM     20  H   LIG d   1       5.575   1.913  -3.326  0.00  0.00     0.065 H 
ENDROOT
BRANCH   3  21
ATOM     21  C   LIG d   1       7.706  -4.597  -4.794  0.00  0.00    -0.032 A 
ATOM     22  C   LIG d   1       7.947  -5.943  -4.999  0.00  0.00    -0.012 A 
ATOM     23  C   LIG d   1       8.950  -6.583  -4.287  0.00  0.00     0.163 A 
ATOM     24  H   LIG d   1       7.358  -6.494  -5.716  0.00  0.00     0.066 H 
ATOM     25  C   LIG d   1       9.705  -5.871  -3.360  0.00  0.00     0.162 A 
ATOM     26  C   LIG d   1       9.453  -4.523  -3.155  0.00  0.00    -0.016 A 
ATOM     27  C   LIG d   1       8.456  -3.890  -3.873  0.00  0.00    -0.054 A 
ATOM     28  H   LIG d   1      10.039  -3.970  -2.437  0.00  0.00     0.066 H 
ATOM     29  H   LIG d   1       8.261  -2.839  -3.712  0.00  0.00     0.062 H 
BRANCH  23  30
ATOM     30  O   LIG d   1       9.191  -7.906  -4.491  0.00  0.00    -0.486 OA
BRANCH  30  31
ATOM     31  C   LIG d   1       8.082  -8.797  -4.357  0.00  0.00     0.095 C 
ATOM     32  H   LIG d   1       7.190  -8.332  -4.779  0.00  0.00     0.073 H 
BRANCH  31  33
ATOM     33  C   LIG d   1       8.380 -10.099  -5.103  0.00  0.00    -0.028 C 
ATOM     34  H   LIG d   1       8.610  -9.876  -6.145  0.00  0.00     0.026 H 
ATOM     35  H   LIG d   1       9.234 -10.595  -4.641  0.00  0.00     0.026 H 
ATOM     36  H   LIG d   1       7.510 -10.753  -5.054  0.00  0.00     0.026 H 
ENDBRANCH  31  33
BRANCH  31  37
ATOM     37  C   LIG d   1       7.848  -9.100  -2.876  0.00  0.00    -0.028 C 
ATOM     38  H   LIG d   1       6.873  -8.715  -2.575  0.00  0.00     0.026 H 
ATOM     39  H   LIG d   1       7.878 -10.177  -2.716  0.00  0.00     0.026 H 
ATOM     40  H   LIG d   1       8.626  -8.622  -2.280  0.00  0.00     0.026 H 
ENDBRANCH  31  37
ENDBRANCH  30  31
ENDBRANCH  23  30
BRANCH  25  41
ATOM     41  O   LIG d   1      10.686  -6.496  -2.656  0.00  0.00    -0.491 OA
BRANCH  41  42
ATOM     42  C   LIG d   1      10.390  -6.848  -1.303  0.00  0.00     0.079 C 
ATOM     43  H   LIG d   1      11.262  -7.320  -0.851  0.00  0.00     0.066 H 
ATOM     44  H   LIG d   1      10.132  -5.948  -0.742  0.00  0.00     0.066 H 
ATOM     45  H   LIG d   1       9.550  -7.541  -1.283  0.00  0.00     0.066 H 
ENDBRANCH  41  42
ENDBRANCH  25  41
ENDBRANCH   3  21
BRANCH   1  46
ATOM     46  C   LIG d   1       4.395  -4.479  -6.593  0.00  0.00     0.349 C 
ATOM     47  O   LIG d   1       3.348  -5.078  -6.660  0.00  0.00    -0.247 OA
BRANCH  46  48
ATOM     48  O   LIG d   1       4.794  -3.709  -7.617  0.00  0.00    -0.462 OA
BRANCH  48  49
ATOM     49  C   LIG d   1       3.821  -2.832  -8.188  0.00  0.00     0.090 C 
ATOM     50  H   LIG d   1       2.821  -3.184  -7.932  0.00  0.00     0.069 H 
ATOM     51  H   LIG d   1       3.935  -2.819  -9.272  0.00  0.00     0.069 H 
BRANCH  49  52
ATOM     52  C   LIG d   1       4.022  -1.419  -7.636  0.00  0.00    -0.031 C 
ATOM     53  H   LIG d   1       3.894  -1.431  -6.553  0.00  0.00     0.026 H 
ATOM     54  H   LIG d   1       5.027  -1.074  -7.879  0.00  0.00     0.026 H 
ATOM     55  H   LIG d   1       3.288  -0.747  -8.082  0.00  0.00     0.026 H 
ENDBRANCH  49  52
ENDBRANCH  48  49
ENDBRANCH  46  48
ENDBRANCH   1  46
TORSDOF 11
ENDMDL
MODEL 7
REMARK VINA RESULT:      -5.9      3.188      7.285
REMARK  11 active torsions:
REMARK  status: ('A' for Active; 'I' for Inactive)
REMARK    1  A    between atoms: C_1  and  C_2 
REMARK    2  A    between atoms: C_2  and  O_3 
REMARK    3  A    between atoms: O_3  and  C_4 
REMARK    4  A    between atoms: C_4  and  C_6 
REMARK    5  A    between atoms: C_8  and  C_22 
REMARK    6  A    between atoms: C_25  and  O_32 
REMARK    7  A    between atoms: C_26  and  O_28 
REMARK    8  A    between atoms: O_28  and  C_29 
REMARK    9  A    between atoms: C_29  and  C_30 
REMARK   10  A    between atoms: C_29  and  C_31 
REMARK   11  A    between atoms: O_32  and  C_33 
ROOT
ATOM      1  C   LIG d   1       4.873  -0.713  -4.366  0.00  0.00     0.207 C 
ATOM      2  H   LIG d   1       5.680  -0.231  -3.814  0.00  0.00     0.086 H 
ATOM      3  C   LIG d   1       5.309  -2.109  -4.872  0.00  0.00     0.067 C 
ATOM      4  H   LIG d   1       4.945  -2.896  -4.211  0.00  0.00     0.044 H 
ATOM      5  C   LIG d   1       4.626  -2.176  -6.224  0.00  0.00     0.091 A 
ATOM      6  C   LIG d   1       4.237  -0.904  -6.543  0.00  0.00     0.143 A 
ATOM      7  C   LIG d   1       3.530  -0.713  -7.823  0.00  0.00     0.059 A 
ATOM      8  C   LIG d   1       3.097   0.554  -8.219  0.00  0.00    -0.048 A 
ATOM      9  C   LIG d   1       2.438   0.702  -9.420  0.00  0.00    -0.061 A 
ATOM     10  C   LIG d   1       2.206  -0.399 -10.231  0.00  0.00    -0.058 A 
ATOM     11  C   LIG d   1       2.629  -1.654  -9.851  0.00  0.00    -0.018 A 
ATOM     12  C   LIG d   1       3.296  -1.826  -8.644  0.00  0.00     0.143 A 
ATOM     13  O   LIG d   1       3.720  -3.050  -8.261  0.00  0.00    -0.422 OA
ATOM     14  C   LIG d   1       4.362  -3.237  -7.097  0.00  0.00     0.345 A 
ATOM     15  O   LIG d   1       4.727  -4.360  -6.793  0.00  0.00    -0.245 OA
ATOM     16  O   LIG d   1       4.598  -0.008  -5.589  0.00  0.00    -0.475 OA
ATOM     17  H   LIG d   1       3.275   1.411  -7.588  0.00  0.00     0.063 H 
ATOM     18  H   LIG d   1       2.100   1.680  -9.730  0.00  0.00     0.062 H 
ATOM     19  H   LIG d   1       1.688  -0.271 -11.170  0.00  0.00     0.062 H 
ATOM     20  H   LIG d   1       2.444  -2.504 -10.492  0.00  0.00     0.065 H 
ENDROOT
BRANCH   3  21
ATOM     21  C   LIG d   1       6.807  -2.184  -5.020  0.00  0.00    -0.032 A 
ATOM     22  C   LIG d   1       7.465  -3.375  -4.775  0.00  0.00    -0.012 A 
ATOM     23  C   LIG d   1       8.842  -3.448  -4.916  0.00  0.00     0.163 A 
ATOM     24  H   LIG d   1       6.905  -4.250  -4.478  0.00  0.00     0.066 H 
ATOM     25  C   LIG d   1       9.560  -2.318  -5.295  0.00  0.00     0.162 A 
ATOM     26  C   LIG d   1       8.894  -1.125  -5.533  0.00  0.00    -0.016 A 
ATOM     27  C   LIG d   1       7.521  -1.062  -5.397  0.00  0.00    -0.054 A 
ATOM     28  H   LIG d   1       9.450  -0.248  -5.828  0.00  0.00     0.066 H 
ATOM     29  H   LIG d   1       7.003  -0.132  -5.582  0.00  0.00     0.062 H 
BRANCH  23  30
ATOM     30  O   LIG d   1       9.490  -4.620  -4.680  0.00  0.00    -0.486 OA
BRANCH  30  31
ATOM     31  C   LIG d   1       9.234  -5.263  -3.429  0.00  0.00     0.095 C 
ATOM     32  H   LIG d   1       8.161  -5.263  -3.234  0.00  0.00     0.073 H 
BRANCH  31  33
ATOM     33  C   LIG d   1       9.743  -6.705  -3.483  0.00  0.00    -0.028 C 
ATOM     34  H   LIG d   1       9.654  -7.158  -2.496  0.00  0.00     0.026 H 
ATOM     35  H   LIG d   1       9.148  -7.274  -4.198  0.00  0.00     0.026 H 
ATOM     36  H   LIG d   1      10.787  -6.710  -3.793  0.00  0.00     0.026 H 
ENDBRANCH  31  33
BRANCH  31  37
ATOM     37  C   LIG d   1       9.956  -4.509  -2.312  0.00  0.00    -0.028 C 
ATOM     38  H   LIG d   1       9.263  -3.817  -1.832  0.00  0.00     0.026 H 
ATOM     39  H   LIG d   1      10.327  -5.220  -1.574  0.00  0.00     0.026 H 
ATOM     40  H   LIG d   1      10.793  -3.951  -2.732  0.00  0.00     0.026 H 
ENDBRANCH  31  37
ENDBRANCH  30  31
ENDBRANCH  23  30
BRANCH  25  41
ATOM     41  O   LIG d   1      10.912  -2.383  -5.430  0.00  0.00    -0.491 OA
BRANCH  41  42
ATOM     42  C   LIG d   1      11.670  -1.298  -4.892  0.00  0.00     0.079 C 
ATOM     43  H   LIG d   1      11.667  -0.468  -5.598  0.00  0.00     0.066 H 
ATOM     44  H   LIG d   1      11.226  -0.976  -3.950  0.00  0.00     0.066 H 
ATOM     45  H   LIG d   1      12.695  -1.623  -4.717  0.00  0.00     0.066 H 
ENDBRANCH  41  42
ENDBRANCH  25  41
ENDBRANCH   3  21
BRANCH   1  46
ATOM     46  C   LIG d   1       3.632  -0.815  -3.516  0.00  0.00     0.349 C 
ATOM     47  O   LIG d   1       3.253  -1.896  -3.129  0.00  0.00    -0.247 OA
BRANCH  46  48
ATOM     48  O   LIG d   1       2.948   0.292  -3.191  0.00  0.00    -0.462 OA
BRANCH  48  49
ATOM     49  C   LIG d   1       3.703   1.401  -2.700  0.00  0.00     0.090 C 
ATOM     50  H   LIG d   1       3.022   2.182  -2.360  0.00  0.00     0.069 H 
ATOM     51  H   LIG d   1       4.335   1.792  -3.497  0.00  0.00     0.069 H 
BRANCH  49  52
ATOM     52  C   LIG d   1       4.578   0.944  -1.530  0.00  0.00    -0.031 C 
ATOM     53  H   LIG d   1       5.175   0.086  -1.837  0.00  0.00     0.026 H 
ATOM     54  H   LIG d   1       5.239   1.758  -1.233  0.00  0.00     0.026 H 
ATOM     55  H   LIG d   1       3.944   0.665  -0.689  0.00  0.00     0.026 H 
ENDBRANCH  49  52
ENDBRANCH  48  49
ENDBRANCH  46  48
ENDBRANCH   1  46
TORSDOF 11
ENDMDL
MODEL 8
REMARK VINA RESULT:      -5.9      4.229      6.775
REMARK  11 active torsions:
REMARK  status: ('A' for Active; 'I' for Inactive)
REMARK    1  A    between atoms: C_1  and  C_2 
REMARK    2  A    between atoms: C_2  and  O_3 
REMARK    3  A    between atoms: O_3  and  C_4 
REMARK    4  A    between atoms: C_4  and  C_6 
REMARK    5  A    between atoms: C_8  and  C_22 
REMARK    6  A    between atoms: C_25  and  O_32 
REMARK    7  A    between atoms: C_26  and  O_28 
REMARK    8  A    between atoms: O_28  and  C_29 
REMARK    9  A    between atoms: C_29  and  C_30 
REMARK   10  A    between atoms: C_29  and  C_31 
REMARK   11  A    between atoms: O_32  and  C_33 
ROOT
ATOM      1  C   LIG d   1       7.553  -0.058  -7.086  0.00  0.00     0.207 C 
ATOM      2  H   LIG d   1       8.142  -0.792  -7.637  0.00  0.00     0.086 H 
ATOM      3  C   LIG d   1       8.404   0.612  -5.980  0.00  0.00     0.067 C 
ATOM      4  H   LIG d   1       8.780   1.581  -6.309  0.00  0.00     0.044 H 
ATOM      5  C   LIG d   1       7.389   0.773  -4.865  0.00  0.00     0.091 A 
ATOM      6  C   LIG d   1       6.319  -0.021  -5.174  0.00  0.00     0.143 A 
ATOM      7  C   LIG d   1       5.183  -0.022  -4.234  0.00  0.00     0.059 A 
ATOM      8  C   LIG d   1       4.052  -0.802  -4.480  0.00  0.00    -0.048 A 
ATOM      9  C   LIG d   1       3.005  -0.784  -3.585  0.00  0.00    -0.061 A 
ATOM     10  C   LIG d   1       3.073   0.004  -2.445  0.00  0.00    -0.058 A 
ATOM     11  C   LIG d   1       4.185   0.779  -2.191  0.00  0.00    -0.018 A 
ATOM     12  C   LIG d   1       5.252   0.774  -3.081  0.00  0.00     0.143 A 
ATOM     13  O   LIG d   1       6.349   1.525  -2.842  0.00  0.00    -0.422 OA
ATOM     14  C   LIG d   1       7.389   1.537  -3.692  0.00  0.00     0.345 A 
ATOM     15  O   LIG d   1       8.359   2.230  -3.435  0.00  0.00    -0.245 OA
ATOM     16  O   LIG d   1       6.509  -0.701  -6.334  0.00  0.00    -0.475 OA
ATOM     17  H   LIG d   1       3.997  -1.415  -5.368  0.00  0.00     0.063 H 
ATOM     18  H   LIG d   1       2.127  -1.385  -3.771  0.00  0.00     0.062 H 
ATOM     19  H   LIG d   1       2.246   0.012  -1.750  0.00  0.00     0.062 H 
ATOM     20  H   LIG d   1       4.227   1.388  -1.300  0.00  0.00     0.065 H 
ENDROOT
BRANCH   3  21
ATOM     21  C   LIG d   1       9.536  -0.286  -5.553  0.00  0.00    -0.032 A 
ATOM     22  C   LIG d   1       9.332  -1.650  -5.447  0.00  0.00    -0.012 A 
ATOM     23  C   LIG d   1      10.374  -2.478  -5.060  0.00  0.00     0.163 A 
ATOM     24  H   LIG d   1       8.362  -2.069  -5.670  0.00  0.00     0.066 H 
ATOM     25  C   LIG d   1      11.621  -1.933  -4.770  0.00  0.00     0.162 A 
ATOM     26  C   LIG d   1      11.817  -0.565  -4.873  0.00  0.00    -0.016 A 
ATOM     27  C   LIG d   1      10.775   0.255  -5.265  0.00  0.00    -0.054 A 
ATOM     28  H   LIG d   1      12.784  -0.141  -4.648  0.00  0.00     0.066 H 
ATOM     29  H   LIG d   1      10.929   1.321  -5.344  0.00  0.00     0.062 H 
BRANCH  23  30
ATOM     30  O   LIG d   1      10.176  -3.820  -4.960  0.00  0.00    -0.486 OA
BRANCH  30  31
ATOM     31  C   LIG d   1       9.157  -4.260  -4.059  0.00  0.00     0.095 C 
ATOM     32  H   LIG d   1       8.284  -3.615  -4.155  0.00  0.00     0.073 H 
BRANCH  31  33
ATOM     33  C   LIG d   1       8.767  -5.701  -4.395  0.00  0.00    -0.028 C 
ATOM     34  H   LIG d   1       7.688  -5.818  -4.291  0.00  0.00     0.026 H 
ATOM     35  H   LIG d   1       9.059  -5.927  -5.421  0.00  0.00     0.026 H 
ATOM     36  H   LIG d   1       9.275  -6.383  -3.715  0.00  0.00     0.026 H 
ENDBRANCH  31  33
BRANCH  31  37
ATOM     37  C   LIG d   1       9.684  -4.196  -2.624  0.00  0.00    -0.028 C 
ATOM     38  H   LIG d   1      10.772  -4.134  -2.638  0.00  0.00     0.026 H 
ATOM     39  H   LIG d   1       9.276  -3.317  -2.126  0.00  0.00     0.026 H 
ATOM     40  H   LIG d   1       9.379  -5.093  -2.085  0.00  0.00     0.026 H 
ENDBRANCH  31  37
ENDBRANCH  30  31
ENDBRANCH  23  30
BRANCH  25  41
ATOM     41  O   LIG d   1      12.645  -2.741  -4.385  0.00  0.00    -0.491 OA
BRANCH  41  42
ATOM     42  C   LIG d   1      13.826  -2.720  -5.189  0.00  0.00     0.079 C 
ATOM     43  H   LIG d   1      14.502  -1.948  -4.822  0.00  0.00     0.066 H 
ATOM     44  H   LIG d   1      14.319  -3.692  -5.136  0.00  0.00     0.066 H 
ATOM     45  H   LIG d   1      13.557  -2.507  -6.224  0.00  0.00     0.066 H 
ENDBRANCH  41  42
ENDBRANCH  25  41
ENDBRANCH   3  21
BRANCH   1  46
ATOM     46  C   LIG d   1       6.980   0.976  -8.021  0.00  0.00     0.349 C 
ATOM     47  O   LIG d   1       7.719   1.680  -8.669  0.00  0.00    -0.247 OA
BRANCH  46  48
ATOM     48  O   LIG d   1       5.651   1.118  -8.133  0.00  0.00    -0.462 OA
BRANCH  48  49
ATOM     49  C   LIG d   1       5.143   1.497  -9.413  0.00  0.00     0.090 C 
ATOM     50  H   LIG d   1       4.638   0.646  -9.871  0.00  0.00     0.069 H 
ATOM     51  H   LIG d   1       5.968   1.817 -10.050  0.00  0.00     0.069 H 
BRANCH  49  52
ATOM     52  C   LIG d   1       4.150   2.649  -9.246  0.00  0.00    -0.031 C 
ATOM     53  H   LIG d   1       3.551   2.746 -10.152  0.00  0.00     0.026 H 
ATOM     54  H   LIG d   1       3.496   2.445  -8.399  0.00  0.00     0.026 H 
ATOM     55  H   LIG d   1       4.695   3.577  -9.070  0.00  0.00     0.026 H 
ENDBRANCH  49  52
ENDBRANCH  48  49
ENDBRANCH  46  48
ENDBRANCH   1  46
TORSDOF 11
ENDMDL
MODEL 9
REMARK VINA RESULT:      -5.8      1.676      2.463
REMARK  11 active torsions:
REMARK  status: ('A' for Active; 'I' for Inactive)
REMARK    1  A    between atoms: C_1  and  C_2 
REMARK    2  A    between atoms: C_2  and  O_3 
REMARK    3  A    between atoms: O_3  and  C_4 
REMARK    4  A    between atoms: C_4  and  C_6 
REMARK    5  A    between atoms: C_8  and  C_22 
REMARK    6  A    between atoms: C_25  and  O_32 
REMARK    7  A    between atoms: C_26  and  O_28 
REMARK    8  A    between atoms: O_28  and  C_29 
REMARK    9  A    between atoms: C_29  and  C_30 
REMARK   10  A    between atoms: C_29  and  C_31 
REMARK   11  A    between atoms: O_32  and  C_33 
ROOT
ATOM      1  C   LIG d   1       4.863  -1.417  -7.596  0.00  0.00     0.207 C 
ATOM      2  H   LIG d   1       4.282  -2.008  -8.304  0.00  0.00     0.086 H 
ATOM      3  C   LIG d   1       5.849  -2.315  -6.810  0.00  0.00     0.067 C 
ATOM      4  H   LIG d   1       6.850  -2.265  -7.239  0.00  0.00     0.044 H 
ATOM      5  C   LIG d   1       5.815  -1.679  -5.433  0.00  0.00     0.091 A 
ATOM      6  C   LIG d   1       4.723  -0.858  -5.394  0.00  0.00     0.143 A 
ATOM      7  C   LIG d   1       4.482  -0.109  -4.147  0.00  0.00     0.059 A 
ATOM      8  C   LIG d   1       3.391   0.753  -4.029  0.00  0.00    -0.048 A 
ATOM      9  C   LIG d   1       3.192   1.440  -2.851  0.00  0.00    -0.061 A 
ATOM     10  C   LIG d   1       4.069   1.277  -1.789  0.00  0.00    -0.058 A 
ATOM     11  C   LIG d   1       5.150   0.428  -1.894  0.00  0.00    -0.018 A 
ATOM     12  C   LIG d   1       5.369  -0.275  -3.072  0.00  0.00     0.143 A 
ATOM     13  O   LIG d   1       6.422  -1.113  -3.187  0.00  0.00    -0.422 OA
ATOM     14  C   LIG d   1       6.653  -1.798  -4.319  0.00  0.00     0.345 A 
ATOM     15  O   LIG d   1       7.615  -2.544  -4.376  0.00  0.00    -0.245 OA
ATOM     16  O   LIG d   1       4.021  -0.890  -6.556  0.00  0.00    -0.475 OA
ATOM     17  H   LIG d   1       2.709   0.883  -4.855  0.00  0.00     0.063 H 
ATOM     18  H   LIG d   1       2.349   2.109  -2.755  0.00  0.00     0.062 H 
ATOM     19  H   LIG d   1       3.903   1.821  -0.871  0.00  0.00     0.062 H 
ATOM     20  H   LIG d   1       5.826   0.308  -1.059  0.00  0.00     0.065 H 
ENDROOT
BRANCH   3  21
ATOM     21  C   LIG d   1       5.358  -3.738  -6.759  0.00  0.00    -0.032 A 
ATOM     22  C   LIG d   1       4.310  -4.135  -7.569  0.00  0.00    -0.012 A 
ATOM     23  C   LIG d   1       3.860  -5.446  -7.528  0.00  0.00     0.163 A 
ATOM     24  H   LIG d   1       3.846  -3.425  -8.237  0.00  0.00     0.066 H 
ATOM     25  C   LIG d   1       4.459  -6.356  -6.663  0.00  0.00     0.162 A 
ATOM     26  C   LIG d   1       5.505  -5.950  -5.849  0.00  0.00    -0.016 A 
ATOM     27  C   LIG d   1       5.952  -4.644  -5.900  0.00  0.00    -0.054 A 
ATOM     28  H   LIG d   1       5.970  -6.656  -5.178  0.00  0.00     0.066 H 
ATOM     29  H   LIG d   1       6.767  -4.328  -5.265  0.00  0.00     0.062 H 
BRANCH  23  30
ATOM     30  O   LIG d   1       2.833  -5.838  -8.328  0.00  0.00    -0.486 OA
BRANCH  30  31
ATOM     31  C   LIG d   1       2.944  -5.539  -9.721  0.00  0.00     0.095 C 
ATOM     32  H   LIG d   1       3.440  -4.577  -9.847  0.00  0.00     0.073 H 
BRANCH  31  33
ATOM     33  C   LIG d   1       3.763  -6.630 -10.414  0.00  0.00    -0.028 C 
ATOM     34  H   LIG d   1       3.407  -6.757 -11.436  0.00  0.00     0.026 H 
ATOM     35  H   LIG d   1       4.814  -6.341 -10.429  0.00  0.00     0.026 H 
ATOM     36  H   LIG d   1       3.652  -7.567  -9.870  0.00  0.00     0.026 H 
ENDBRANCH  31  33
BRANCH  31  37
ATOM     37  C   LIG d   1       1.547  -5.479 -10.342  0.00  0.00    -0.028 C 
ATOM     38  H   LIG d   1       1.627  -5.198 -11.393  0.00  0.00     0.026 H 
ATOM     39  H   LIG d   1       1.071  -6.456 -10.263  0.00  0.00     0.026 H 
ATOM     40  H   LIG d   1       0.946  -4.738  -9.813  0.00  0.00     0.026 H 
ENDBRANCH  31  37
ENDBRANCH  30  31
ENDBRANCH  23  30
BRANCH  25  41
ATOM     41  O   LIG d   1       4.017  -7.642  -6.615  0.00  0.00    -0.491 OA
BRANCH  41  42
ATOM     42  C   LIG d   1       4.789  -8.619  -7.317  0.00  0.00     0.079 C 
ATOM     43  H   LIG d   1       5.794  -8.658  -6.897  0.00  0.00     0.066 H 
ATOM     44  H   LIG d   1       4.314  -9.596  -7.217  0.00  0.00     0.066 H 
ATOM     45  H   LIG d   1       4.845  -8.349  -8.371  0.00  0.00     0.066 H 
ENDBRANCH  41  42
ENDBRANCH  25  41
ENDBRANCH   3  21
BRANCH   1  46
ATOM     46  C   LIG d   1       5.598  -0.308  -8.304  0.00  0.00     0.349 C 
ATOM     47  O   LIG d   1       6.563  -0.561  -8.986  0.00  0.00    -0.247 OA
BRANCH  46  48
ATOM     48  O   LIG d   1       5.182   0.962  -8.177  0.00  0.00    -0.462 OA
BRANCH  48  49
ATOM     49  C   LIG d   1       4.341   1.476  -9.210  0.00  0.00     0.090 C 
ATOM     50  H   LIG d   1       4.119   0.685  -9.927  0.00  0.00     0.069 H 
ATOM     51  H   LIG d   1       4.849   2.295  -9.719  0.00  0.00     0.069 H 
BRANCH  49  52
ATOM     52  C   LIG d   1       3.035   1.988  -8.597  0.00  0.00    -0.031 C 
ATOM     53  H   LIG d   1       3.130   2.015  -7.512  0.00  0.00     0.026 H 
ATOM     54  H   LIG d   1       2.829   2.992  -8.968  0.00  0.00     0.026 H 
ATOM     55  H   LIG d   1       2.218   1.323  -8.875  0.00  0.00     0.026 H 
ENDBRANCH  49  52
ENDBRANCH  48  49
ENDBRANCH  46  48
ENDBRANCH   1  46
TORSDOF 11
ENDMDL
MODEL 10
REMARK VINA RESULT:      -5.8      1.772      3.231
REMARK  11 active torsions:
REMARK  status: ('A' for Active; 'I' for Inactive)
REMARK    1  A    between atoms: C_1  and  C_2 
REMARK    2  A    between atoms: C_2  and  O_3 
REMARK    3  A    between atoms: O_3  and  C_4 
REMARK    4  A    between atoms: C_4  and  C_6 
REMARK    5  A    between atoms: C_8  and  C_22 
REMARK    6  A    between atoms: C_25  and  O_32 
REMARK    7  A    between atoms: C_26  and  O_28 
REMARK    8  A    between atoms: O_28  and  C_29 
REMARK    9  A    between atoms: C_29  and  C_30 
REMARK   10  A    between atoms: C_29  and  C_31 
REMARK   11  A    between atoms: O_32  and  C_33 
ROOT
ATOM      1  C   LIG d   1       4.487   0.525  -8.446  0.00  0.00     0.207 C 
ATOM      2  H   LIG d   1       3.881   0.967  -9.237  0.00  0.00     0.086 H 
ATOM      3  C   LIG d   1       4.611  -1.006  -8.639  0.00  0.00     0.067 C 
ATOM      4  H   LIG d   1       5.555  -1.264  -9.117  0.00  0.00     0.044 H 
ATOM      5  C   LIG d   1       4.574  -1.501  -7.206  0.00  0.00     0.091 A 
ATOM      6  C   LIG d   1       4.115  -0.470  -6.433  0.00  0.00     0.143 A 
ATOM      7  C   LIG d   1       4.004  -0.708  -4.983  0.00  0.00     0.059 A 
ATOM      8  C   LIG d   1       3.548   0.294  -4.125  0.00  0.00    -0.048 A 
ATOM      9  C   LIG d   1       3.455   0.043  -2.774  0.00  0.00    -0.061 A 
ATOM     10  C   LIG d   1       3.810  -1.198  -2.267  0.00  0.00    -0.058 A 
ATOM     11  C   LIG d   1       4.261  -2.196  -3.103  0.00  0.00    -0.018 A 
ATOM     12  C   LIG d   1       4.363  -1.964  -4.470  0.00  0.00     0.143 A 
ATOM     13  O   LIG d   1       4.800  -2.935  -5.301  0.00  0.00    -0.422 OA
ATOM     14  C   LIG d   1       4.908  -2.729  -6.623  0.00  0.00     0.345 A 
ATOM     15  O   LIG d   1       5.306  -3.635  -7.335  0.00  0.00    -0.245 OA
ATOM     16  O   LIG d   1       3.823   0.629  -7.175  0.00  0.00    -0.475 OA
ATOM     17  H   LIG d   1       3.272   1.262  -4.519  0.00  0.00     0.063 H 
ATOM     18  H   LIG d   1       3.103   0.817  -2.107  0.00  0.00     0.062 H 
ATOM     19  H   LIG d   1       3.734  -1.383  -1.206  0.00  0.00     0.062 H 
ATOM     20  H   LIG d   1       4.535  -3.159  -2.697  0.00  0.00     0.065 H 
ENDROOT
BRANCH   3  21
ATOM     21  C   LIG d   1       3.445  -1.545  -9.426  0.00  0.00    -0.032 A 
ATOM     22  C   LIG d   1       3.437  -2.869  -9.827  0.00  0.00    -0.012 A 
ATOM     23  C   LIG d   1       2.363  -3.368 -10.547  0.00  0.00     0.163 A 
ATOM     24  H   LIG d   1       4.266  -3.514  -9.575  0.00  0.00     0.066 H 
ATOM     25  C   LIG d   1       1.299  -2.533 -10.873  0.00  0.00     0.162 A 
ATOM     26  C   LIG d   1       1.316  -1.206 -10.473  0.00  0.00    -0.016 A 
ATOM     27  C   LIG d   1       2.388  -0.716  -9.751  0.00  0.00    -0.054 A 
ATOM     28  H   LIG d   1       0.492  -0.557 -10.726  0.00  0.00     0.066 H 
ATOM     29  H   LIG d   1       2.400   0.319  -9.440  0.00  0.00     0.062 H 
BRANCH  23  30
ATOM     30  O   LIG d   1       2.352  -4.671 -10.937  0.00  0.00    -0.486 OA
BRANCH  30  31
ATOM     31  C   LIG d   1       2.014  -5.643  -9.945  0.00  0.00     0.095 C 
ATOM     32  H   LIG d   1       1.942  -5.158  -8.972  0.00  0.00     0.073 H 
BRANCH  31  33
ATOM     33  C   LIG d   1       0.670  -6.284 -10.297  0.00  0.00    -0.028 C 
ATOM     34  H   LIG d   1       0.148  -5.659 -11.022  0.00  0.00     0.026 H 
ATOM     35  H   LIG d   1       0.840  -7.272 -10.726  0.00  0.00     0.026 H 
ATOM     36  H   LIG d   1       0.066  -6.379  -9.396  0.00  0.00     0.026 H 
ENDBRANCH  31  33
BRANCH  31  37
ATOM     37  C   LIG d   1       3.097  -6.722  -9.899  0.00  0.00    -0.028 C 
ATOM     38  H   LIG d   1       3.352  -6.938  -8.862  0.00  0.00     0.026 H 
ATOM     39  H   LIG d   1       2.728  -7.629 -10.378  0.00  0.00     0.026 H 
ATOM     40  H   LIG d   1       3.984  -6.369 -10.425  0.00  0.00     0.026 H 
ENDBRANCH  31  37
ENDBRANCH  30  31
ENDBRANCH  23  30
BRANCH  25  41
ATOM     41  O   LIG d   1       0.246  -3.017 -11.584  0.00  0.00    -0.491 OA
BRANCH  41  42
ATOM     42  C   LIG d   1       0.047  -2.484 -12.894  0.00  0.00     0.079 C 
ATOM     43  H   LIG d   1       0.342  -3.225 -13.637  0.00  0.00     0.066 H 
ATOM     44  H   LIG d   1      -1.006  -2.233 -13.028  0.00  0.00     0.066 H 
ATOM     45  H   LIG d   1       0.652  -1.586 -13.017  0.00  0.00     0.066 H 
ENDBRANCH  41  42
ENDBRANCH  25  41
ENDBRANCH   3  21
BRANCH   1  46
ATOM     46  C   LIG d   1       5.849   1.170  -8.394  0.00  0.00     0.349 C 
ATOM     47  O   LIG d   1       6.377   1.550  -9.412  0.00  0.00    -0.247 OA
BRANCH  46  48
ATOM     48  O   LIG d   1       6.475   1.320  -7.217  0.00  0.00    -0.462 OA
BRANCH  48  49
ATOM     49  C   LIG d   1       7.677   0.573  -7.021  0.00  0.00     0.090 C 
ATOM     50  H   LIG d   1       8.537   1.239  -7.107  0.00  0.00     0.069 H 
ATOM     51  H   LIG d   1       7.746  -0.209  -7.776  0.00  0.00     0.069 H 
BRANCH  49  52
ATOM     52  C   LIG d   1       7.661  -0.061  -5.628  0.00  0.00    -0.031 C 
ATOM     53  H   LIG d   1       7.762   0.718  -4.873  0.00  0.00     0.026 H 
ATOM     54  H   LIG d   1       6.719  -0.590  -5.481  0.00  0.00     0.026 H 
ATOM     55  H   LIG d   1       8.490  -0.764  -5.539  0.00  0.00     0.026 H 
ENDBRANCH  49  52
ENDBRANCH  48  49
ENDBRANCH  46  48
ENDBRANCH   1  46
TORSDOF 11
ENDMDL
