MODEL 1
REMARK VINA RESULT:      -4.0      0.000      0.000
REMARK  6 active torsions:
REMARK  status: ('A' for Active; 'I' for Inactive)
REMARK    1  A    between atoms: C_1  and  C_2 
REMARK    2  A    between atoms: C_2  and  C_4 
REMARK    3  A    between atoms: C_2  and  O_7 
REMARK    4  A    between atoms: C_4  and  C_6 
REMARK    5  A    between atoms: O_7  and  C_8 
REMARK    6  A    between atoms: C_8  and  C_10 
ROOT
ATOM      1  C   LIG d   1       3.695  -0.035  -3.894  0.00  0.00     0.157 C 
ATOM      2  H   LIG d   1       4.434  -0.087  -4.566  0.00  0.00     0.081 H 
ENDROOT
BRANCH   1   3
ATOM      3  C   LIG d   1       2.358   0.129  -4.619  0.00  0.00    -0.021 C 
ATOM      4  H   LIG d   1       2.277  -0.619  -5.408  0.00  0.00     0.027 H 
ATOM      5  H   LIG d   1       1.541  -0.003  -3.908  0.00  0.00     0.027 H 
ATOM      6  H   LIG d   1       2.302   1.126  -5.056  0.00  0.00     0.027 H 
ENDBRANCH   1   3
BRANCH   1   7
ATOM      7  C   LIG d   1       3.922   1.145  -2.986  0.00  0.00     0.170 C 
ATOM      8  O   LIG d   1       3.619   2.255  -3.351  0.00  0.00    -0.294 OA
BRANCH   7   9
ATOM      9  C   LIG d   1       4.529   0.939  -1.621  0.00  0.00    -0.002 C 
ATOM     10  H   LIG d   1       5.223   0.220  -1.670  0.00  0.00     0.031 H 
ATOM     11  H   LIG d   1       4.991   1.867  -1.285  0.00  0.00     0.031 H 
ATOM     12  H   LIG d   1       3.750   0.646  -0.918  0.00  0.00     0.031 H 
ENDBRANCH   7   9
ENDBRANCH   1   7
BRANCH   1  13
ATOM     13  O   LIG d   1       3.673  -1.255  -3.106  0.00  0.00    -0.454 OA
BRANCH  13  14
ATOM     14  C   LIG d   1       4.540  -2.219  -3.450  0.00  0.00     0.305 C 
ATOM     15  O   LIG d   1       4.138  -3.327  -3.715  0.00  0.00    -0.251 OA
BRANCH  14  16
ATOM     16  C   LIG d   1       6.016  -1.920  -3.507  0.00  0.00     0.033 C 
ATOM     17  H   LIG d   1       6.179  -0.857  -3.332  0.00  0.00     0.034 H 
ATOM     18  H   LIG d   1       6.534  -2.498  -2.741  0.00  0.00     0.034 H 
ATOM     19  H   LIG d   1       6.404  -2.190  -4.489  0.00  0.00     0.034 H 
ENDBRANCH  14  16
ENDBRANCH  13  14
ENDBRANCH   1  13
TORSDOF 6
ENDMDL
MODEL 2
REMARK VINA RESULT:      -4.0      1.483      3.372
REMARK  6 active torsions:
REMARK  status: ('A' for Active; 'I' for Inactive)
REMARK    1  A    between atoms: C_1  and  C_2 
REMARK    2  A    between atoms: C_2  and  C_4 
REMARK    3  A    between atoms: C_2  and  O_7 
REMARK    4  A    between atoms: C_4  and  C_6 
REMARK    5  A    between atoms: O_7  and  C_8 
REMARK    6  A    between atoms: C_8  and  C_10 
ROOT
ATOM      1  C   LIG d   1       3.418  -0.010  -3.793  0.00  0.00     0.157 C 
ATOM      2  H   LIG d   1       2.992   0.197  -2.911  0.00  0.00     0.081 H 
ENDROOT
BRANCH   1   3
ATOM      3  C   LIG d   1       2.412   0.245  -4.916  0.00  0.00    -0.021 C 
ATOM      4  H   LIG d   1       2.874   0.018  -5.877  0.00  0.00     0.027 H 
ATOM      5  H   LIG d   1       1.539  -0.391  -4.773  0.00  0.00     0.027 H 
ATOM      6  H   LIG d   1       2.106   1.292  -4.899  0.00  0.00     0.027 H 
ENDBRANCH   1   3
BRANCH   1   7
ATOM      7  C   LIG d   1       3.845  -1.454  -3.819  0.00  0.00     0.170 C 
ATOM      8  O   LIG d   1       4.219  -1.955  -4.852  0.00  0.00    -0.294 OA
BRANCH   7   9
ATOM      9  C   LIG d   1       3.807  -2.274  -2.554  0.00  0.00    -0.002 C 
ATOM     10  H   LIG d   1       3.747  -3.245  -2.788  0.00  0.00     0.031 H 
ATOM     11  H   LIG d   1       4.715  -2.095  -1.979  0.00  0.00     0.031 H 
ATOM     12  H   LIG d   1       2.939  -1.988  -1.961  0.00  0.00     0.031 H 
ENDBRANCH   7   9
ENDBRANCH   1   7
BRANCH   1  13
ATOM     13  O   LIG d   1       4.579   0.842  -3.980  0.00  0.00    -0.454 OA
BRANCH  13  14
ATOM     14  C   LIG d   1       5.277   1.171  -2.882  0.00  0.00     0.305 C 
ATOM     15  O   LIG d   1       6.437   1.495  -2.978  0.00  0.00    -0.251 OA
BRANCH  14  16
ATOM     16  C   LIG d   1       4.614   1.137  -1.528  0.00  0.00     0.033 C 
ATOM     17  H   LIG d   1       4.864   0.203  -1.025  0.00  0.00     0.034 H 
ATOM     18  H   LIG d   1       4.966   1.977  -0.930  0.00  0.00     0.034 H 
ATOM     19  H   LIG d   1       3.533   1.206  -1.652  0.00  0.00     0.034 H 
ENDBRANCH  14  16
ENDBRANCH  13  14
ENDBRANCH   1  13
TORSDOF 6
ENDMDL
MODEL 3
REMARK VINA RESULT:      -3.9      1.984      2.664
REMARK  6 active torsions:
REMARK  status: ('A' for Active; 'I' for Inactive)
REMARK    1  A    between atoms: C_1  and  C_2 
REMARK    2  A    between atoms: C_2  and  C_4 
REMARK    3  A    between atoms: C_2  and  O_7 
REMARK    4  A    between atoms: C_4  and  C_6 
REMARK    5  A    between atoms: O_7  and  C_8 
REMARK    6  A    between atoms: C_8  and  C_10 
ROOT
ATOM      1  C   LIG d   1       3.296  -0.094  -3.797  0.00  0.00     0.157 C 
ATOM      2  H   LIG d   1       2.398   0.108  -4.189  0.00  0.00     0.081 H 
ENDROOT
BRANCH   1   3
ATOM      3  C   LIG d   1       3.190  -1.310  -2.876  0.00  0.00    -0.021 C 
ATOM      4  H   LIG d   1       3.841  -1.172  -2.013  0.00  0.00     0.027 H 
ATOM      5  H   LIG d   1       2.159  -1.421  -2.540  0.00  0.00     0.027 H 
ATOM      6  H   LIG d   1       3.493  -2.205  -3.421  0.00  0.00     0.027 H 
ENDBRANCH   1   3
BRANCH   1   7
ATOM      7  C   LIG d   1       3.778   1.095  -3.007  0.00  0.00     0.170 C 
ATOM      8  O   LIG d   1       3.574   2.213  -3.413  0.00  0.00    -0.294 OA
BRANCH   7   9
ATOM      9  C   LIG d   1       4.515   0.887  -1.708  0.00  0.00    -0.002 C 
ATOM     10  H   LIG d   1       4.128   0.099  -1.228  0.00  0.00     0.031 H 
ATOM     11  H   LIG d   1       5.570   0.704  -1.914  0.00  0.00     0.031 H 
ATOM     12  H   LIG d   1       4.415   1.776  -1.087  0.00  0.00     0.031 H 
ENDBRANCH   7   9
ENDBRANCH   1   7
BRANCH   1  13
ATOM     13  O   LIG d   1       4.237  -0.377  -4.867  0.00  0.00    -0.454 OA
BRANCH  13  14
ATOM     14  C   LIG d   1       3.788  -0.244  -6.125  0.00  0.00     0.305 C 
ATOM     15  O   LIG d   1       3.119   0.714  -6.429  0.00  0.00    -0.251 OA
BRANCH  14  16
ATOM     16  C   LIG d   1       4.119  -1.291  -7.157  0.00  0.00     0.033 C 
ATOM     17  H   LIG d   1       4.697  -0.837  -7.962  0.00  0.00     0.034 H 
ATOM     18  H   LIG d   1       4.703  -2.087  -6.695  0.00  0.00     0.034 H 
ATOM     19  H   LIG d   1       3.196  -1.706  -7.562  0.00  0.00     0.034 H 
ENDBRANCH  14  16
ENDBRANCH  13  14
ENDBRANCH   1  13
TORSDOF 6
ENDMDL
MODEL 4
REMARK VINA RESULT:      -3.7      2.199      3.029
REMARK  6 active torsions:
REMARK  status: ('A' for Active; 'I' for Inactive)
REMARK    1  A    between atoms: C_1  and  C_2 
REMARK    2  A    between atoms: C_2  and  C_4 
REMARK    3  A    between atoms: C_2  and  O_7 
REMARK    4  A    between atoms: C_4  and  C_6 
REMARK    5  A    between atoms: O_7  and  C_8 
REMARK    6  A    between atoms: C_8  and  C_10 
ROOT
ATOM      1  C   LIG d   1       4.395   0.303  -2.647  0.00  0.00     0.157 C 
ATOM      2  H   LIG d   1       4.962   0.123  -1.843  0.00  0.00     0.081 H 
ENDROOT
BRANCH   1   3
ATOM      3  C   LIG d   1       3.569   1.569  -2.415  0.00  0.00    -0.021 C 
ATOM      4  H   LIG d   1       3.932   2.365  -3.065  0.00  0.00     0.027 H 
ATOM      5  H   LIG d   1       2.522   1.366  -2.640  0.00  0.00     0.027 H 
ATOM      6  H   LIG d   1       3.664   1.879  -1.374  0.00  0.00     0.027 H 
ENDBRANCH   1   3
BRANCH   1   7
ATOM      7  C   LIG d   1       3.471  -0.863  -2.884  0.00  0.00     0.170 C 
ATOM      8  O   LIG d   1       2.411  -0.692  -3.436  0.00  0.00    -0.294 OA
BRANCH   7   9
ATOM      9  C   LIG d   1       3.872  -2.245  -2.432  0.00  0.00    -0.002 C 
ATOM     10  H   LIG d   1       3.506  -2.414  -1.516  0.00  0.00     0.031 H 
ATOM     11  H   LIG d   1       3.470  -2.984  -3.125  0.00  0.00     0.031 H 
ATOM     12  H   LIG d   1       4.958  -2.319  -2.410  0.00  0.00     0.031 H 
ENDBRANCH   7   9
ENDBRANCH   1   7
BRANCH   1  13
ATOM     13  O   LIG d   1       5.248   0.488  -3.808  0.00  0.00    -0.454 OA
BRANCH  13  14
ATOM     14  C   LIG d   1       6.571   0.357  -3.619  0.00  0.00     0.305 C 
ATOM     15  O   LIG d   1       7.033  -0.714  -3.306  0.00  0.00    -0.251 OA
BRANCH  14  16
ATOM     16  C   LIG d   1       7.479   1.546  -3.799  0.00  0.00     0.033 C 
ATOM     17  H   LIG d   1       6.879   2.441  -3.957  0.00  0.00     0.034 H 
ATOM     18  H   LIG d   1       8.093   1.672  -2.907  0.00  0.00     0.034 H 
ATOM     19  H   LIG d   1       8.123   1.383  -4.663  0.00  0.00     0.034 H 
ENDBRANCH  14  16
ENDBRANCH  13  14
ENDBRANCH   1  13
TORSDOF 6
ENDMDL
MODEL 5
REMARK VINA RESULT:      -3.7      1.149      3.682
REMARK  6 active torsions:
REMARK  status: ('A' for Active; 'I' for Inactive)
REMARK    1  A    between atoms: C_1  and  C_2 
REMARK    2  A    between atoms: C_2  and  C_4 
REMARK    3  A    between atoms: C_2  and  O_7 
REMARK    4  A    between atoms: C_4  and  C_6 
REMARK    5  A    between atoms: O_7  and  C_8 
REMARK    6  A    between atoms: C_8  and  C_10 
ROOT
ATOM      1  C   LIG d   1       4.108  -0.635  -4.489  0.00  0.00     0.157 C 
ATOM      2  H   LIG d   1       3.174  -0.581  -4.132  0.00  0.00     0.081 H 
ENDROOT
BRANCH   1   3
ATOM      3  C   LIG d   1       4.071  -0.618  -6.018  0.00  0.00    -0.021 C 
ATOM      4  H   LIG d   1       3.130  -0.182  -6.355  0.00  0.00     0.027 H 
ATOM      5  H   LIG d   1       4.902  -0.023  -6.395  0.00  0.00     0.027 H 
ATOM      6  H   LIG d   1       4.153  -1.638  -6.394  0.00  0.00     0.027 H 
ENDBRANCH   1   3
BRANCH   1   7
ATOM      7  C   LIG d   1       4.754  -1.910  -4.015  0.00  0.00     0.170 C 
ATOM      8  O   LIG d   1       4.141  -2.949  -4.055  0.00  0.00    -0.294 OA
BRANCH   7   9
ATOM      9  C   LIG d   1       6.168  -1.889  -3.492  0.00  0.00    -0.002 C 
ATOM     10  H   LIG d   1       6.790  -1.610  -4.225  0.00  0.00     0.031 H 
ATOM     11  H   LIG d   1       6.239  -1.180  -2.667  0.00  0.00     0.031 H 
ATOM     12  H   LIG d   1       6.441  -2.883  -3.142  0.00  0.00     0.031 H 
ENDBRANCH   7   9
ENDBRANCH   1   7
BRANCH   1  13
ATOM     13  O   LIG d   1       4.874   0.503  -4.011  0.00  0.00    -0.454 OA
BRANCH  13  14
ATOM     14  C   LIG d   1       4.314   1.255  -3.051  0.00  0.00     0.305 C 
ATOM     15  O   LIG d   1       3.643   2.214  -3.350  0.00  0.00    -0.251 OA
BRANCH  14  16
ATOM     16  C   LIG d   1       4.521   0.904  -1.600  0.00  0.00     0.033 C 
ATOM     17  H   LIG d   1       3.675   0.318  -1.243  0.00  0.00     0.034 H 
ATOM     18  H   LIG d   1       5.437   0.322  -1.494  0.00  0.00     0.034 H 
ATOM     19  H   LIG d   1       4.603   1.819  -1.013  0.00  0.00     0.034 H 
ENDBRANCH  14  16
ENDBRANCH  13  14
ENDBRANCH   1  13
TORSDOF 6
ENDMDL
MODEL 6
REMARK VINA RESULT:      -3.6      1.926      3.025
REMARK  6 active torsions:
REMARK  status: ('A' for Active; 'I' for Inactive)
REMARK    1  A    between atoms: C_1  and  C_2 
REMARK    2  A    between atoms: C_2  and  C_4 
REMARK    3  A    between atoms: C_2  and  O_7 
REMARK    4  A    between atoms: C_4  and  C_6 
REMARK    5  A    between atoms: O_7  and  C_8 
REMARK    6  A    between atoms: C_8  and  C_10 
ROOT
ATOM      1  C   LIG d   1       4.441  -0.805  -3.164  0.00  0.00     0.157 C 
ATOM      2  H   LIG d   1       4.671  -1.109  -4.090  0.00  0.00     0.081 H 
ENDROOT
BRANCH   1   3
ATOM      3  C   LIG d   1       3.968  -2.002  -2.338  0.00  0.00    -0.021 C 
ATOM      4  H   LIG d   1       3.258  -2.589  -2.920  0.00  0.00     0.027 H 
ATOM      5  H   LIG d   1       4.824  -2.624  -2.076  0.00  0.00     0.027 H 
ATOM      6  H   LIG d   1       3.485  -1.646  -1.428  0.00  0.00     0.027 H 
ENDBRANCH   1   3
BRANCH   1   7
ATOM      7  C   LIG d   1       3.345   0.226  -3.231  0.00  0.00     0.170 C 
ATOM      8  O   LIG d   1       3.132   0.942  -2.283  0.00  0.00    -0.294 OA
BRANCH   7   9
ATOM      9  C   LIG d   1       2.516   0.364  -4.482  0.00  0.00    -0.002 C 
ATOM     10  H   LIG d   1       2.491   1.324  -4.761  0.00  0.00     0.031 H 
ATOM     11  H   LIG d   1       2.959  -0.234  -5.279  0.00  0.00     0.031 H 
ATOM     12  H   LIG d   1       1.502   0.016  -4.287  0.00  0.00     0.031 H 
ENDBRANCH   7   9
ENDBRANCH   1   7
BRANCH   1  13
ATOM     13  O   LIG d   1       5.617  -0.222  -2.543  0.00  0.00    -0.454 OA
BRANCH  13  14
ATOM     14  C   LIG d   1       6.468   0.436  -3.345  0.00  0.00     0.305 C 
ATOM     15  O   LIG d   1       6.519   1.642  -3.311  0.00  0.00    -0.251 OA
BRANCH  14  16
ATOM     16  C   LIG d   1       7.361  -0.329  -4.288  0.00  0.00     0.033 C 
ATOM     17  H   LIG d   1       8.136   0.332  -4.672  0.00  0.00     0.034 H 
ATOM     18  H   LIG d   1       7.823  -1.161  -3.756  0.00  0.00     0.034 H 
ATOM     19  H   LIG d   1       6.767  -0.714  -5.118  0.00  0.00     0.034 H 
ENDBRANCH  14  16
ENDBRANCH  13  14
ENDBRANCH   1  13
TORSDOF 6
ENDMDL
MODEL 7
REMARK VINA RESULT:      -3.6      1.879      2.503
REMARK  6 active torsions:
REMARK  status: ('A' for Active; 'I' for Inactive)
REMARK    1  A    between atoms: C_1  and  C_2 
REMARK    2  A    between atoms: C_2  and  C_4 
REMARK    3  A    between atoms: C_2  and  O_7 
REMARK    4  A    between atoms: C_4  and  C_6 
REMARK    5  A    between atoms: O_7  and  C_8 
REMARK    6  A    between atoms: C_8  and  C_10 
ROOT
ATOM      1  C   LIG d   1       5.063   0.055  -2.921  0.00  0.00     0.157 C 
ATOM      2  H   LIG d   1       4.373   0.066  -3.645  0.00  0.00     0.081 H 
ENDROOT
BRANCH   1   3
ATOM      3  C   LIG d   1       4.558   0.861  -1.723  0.00  0.00    -0.021 C 
ATOM      4  H   LIG d   1       3.678   1.434  -2.015  0.00  0.00     0.027 H 
ATOM      5  H   LIG d   1       4.296   0.181  -0.912  0.00  0.00     0.027 H 
ATOM      6  H   LIG d   1       5.340   1.543  -1.388  0.00  0.00     0.027 H 
ENDBRANCH   1   3
BRANCH   1   7
ATOM      7  C   LIG d   1       6.341   0.666  -3.435  0.00  0.00     0.170 C 
ATOM      8  O   LIG d   1       6.528   1.854  -3.327  0.00  0.00    -0.294 OA
BRANCH   7   9
ATOM      9  C   LIG d   1       7.385  -0.207  -4.083  0.00  0.00    -0.002 C 
ATOM     10  H   LIG d   1       8.244  -0.132  -3.575  0.00  0.00     0.031 H 
ATOM     11  H   LIG d   1       7.048  -1.243  -4.075  0.00  0.00     0.031 H 
ATOM     12  H   LIG d   1       7.541   0.116  -5.112  0.00  0.00     0.031 H 
ENDBRANCH   7   9
ENDBRANCH   1   7
BRANCH   1  13
ATOM     13  O   LIG d   1       5.313  -1.316  -2.511  0.00  0.00    -0.454 OA
BRANCH  13  14
ATOM     14  C   LIG d   1       4.476  -2.254  -2.982  0.00  0.00     0.305 C 
ATOM     15  O   LIG d   1       3.454  -2.503  -2.389  0.00  0.00    -0.251 OA
BRANCH  14  16
ATOM     16  C   LIG d   1       4.813  -2.998  -4.249  0.00  0.00     0.033 C 
ATOM     17  H   LIG d   1       5.565  -3.756  -4.036  0.00  0.00     0.034 H 
ATOM     18  H   LIG d   1       3.914  -3.476  -4.639  0.00  0.00     0.034 H 
ATOM     19  H   LIG d   1       5.202  -2.297  -4.988  0.00  0.00     0.034 H 
ENDBRANCH  14  16
ENDBRANCH  13  14
ENDBRANCH   1  13
TORSDOF 6
ENDMDL
MODEL 8
REMARK VINA RESULT:      -3.6      2.161      3.390
REMARK  6 active torsions:
REMARK  status: ('A' for Active; 'I' for Inactive)
REMARK    1  A    between atoms: C_1  and  C_2 
REMARK    2  A    between atoms: C_2  and  C_4 
REMARK    3  A    between atoms: C_2  and  O_7 
REMARK    4  A    between atoms: C_4  and  C_6 
REMARK    5  A    between atoms: O_7  and  C_8 
REMARK    6  A    between atoms: C_8  and  C_10 
ROOT
ATOM      1  C   LIG d   1       3.552  -0.052  -4.525  0.00  0.00     0.157 C 
ATOM      2  H   LIG d   1       3.425  -0.800  -3.872  0.00  0.00     0.081 H 
ENDROOT
BRANCH   1   3
ATOM      3  C   LIG d   1       2.188   0.431  -5.019  0.00  0.00    -0.021 C 
ATOM      4  H   LIG d   1       1.422   0.168  -4.289  0.00  0.00     0.027 H 
ATOM      5  H   LIG d   1       2.210   1.513  -5.147  0.00  0.00     0.027 H 
ATOM      6  H   LIG d   1       1.958  -0.044  -5.973  0.00  0.00     0.027 H 
ENDBRANCH   1   3
BRANCH   1   7
ATOM      7  C   LIG d   1       4.367  -0.539  -5.695  0.00  0.00     0.170 C 
ATOM      8  O   LIG d   1       4.609   0.206  -6.614  0.00  0.00    -0.294 OA
BRANCH   7   9
ATOM      9  C   LIG d   1       4.879  -1.957  -5.718  0.00  0.00    -0.002 C 
ATOM     10  H   LIG d   1       5.484  -2.080  -6.506  0.00  0.00     0.031 H 
ATOM     11  H   LIG d   1       5.433  -2.157  -4.801  0.00  0.00     0.031 H 
ATOM     12  H   LIG d   1       4.039  -2.646  -5.793  0.00  0.00     0.031 H 
ENDBRANCH   7   9
ENDBRANCH   1   7
BRANCH   1  13
ATOM     13  O   LIG d   1       4.248   1.044  -3.874  0.00  0.00    -0.454 OA
BRANCH  13  14
ATOM     14  C   LIG d   1       4.839   0.779  -2.699  0.00  0.00     0.305 C 
ATOM     15  O   LIG d   1       5.754   1.468  -2.314  0.00  0.00    -0.251 OA
BRANCH  14  16
ATOM     16  C   LIG d   1       4.362  -0.378  -1.859  0.00  0.00     0.033 C 
ATOM     17  H   LIG d   1       3.348  -0.647  -2.152  0.00  0.00     0.034 H 
ATOM     18  H   LIG d   1       5.023  -1.232  -2.008  0.00  0.00     0.034 H 
ATOM     19  H   LIG d   1       4.372  -0.091  -0.807  0.00  0.00     0.034 H 
ENDBRANCH  14  16
ENDBRANCH  13  14
ENDBRANCH   1  13
TORSDOF 6
ENDMDL
MODEL 9
REMARK VINA RESULT:      -3.6      1.567      3.834
REMARK  6 active torsions:
REMARK  status: ('A' for Active; 'I' for Inactive)
REMARK    1  A    between atoms: C_1  and  C_2 
REMARK    2  A    between atoms: C_2  and  C_4 
REMARK    3  A    between atoms: C_2  and  O_7 
REMARK    4  A    between atoms: C_4  and  C_6 
REMARK    5  A    between atoms: O_7  and  C_8 
REMARK    6  A    between atoms: C_8  and  C_10 
ROOT
ATOM      1  C   LIG d   1       4.710  -1.183  -2.929  0.00  0.00     0.157 C 
ATOM      2  H   LIG d   1       4.982  -0.525  -2.226  0.00  0.00     0.081 H 
ENDROOT
BRANCH   1   3
ATOM      3  C   LIG d   1       3.812  -2.253  -2.305  0.00  0.00    -0.021 C 
ATOM      4  H   LIG d   1       3.777  -2.114  -1.225  0.00  0.00     0.027 H 
ATOM      5  H   LIG d   1       2.806  -2.166  -2.715  0.00  0.00     0.027 H 
ATOM      6  H   LIG d   1       4.214  -3.241  -2.532  0.00  0.00     0.027 H 
ENDBRANCH   1   3
BRANCH   1   7
ATOM      7  C   LIG d   1       5.939  -1.834  -3.509  0.00  0.00     0.170 C 
ATOM      8  O   LIG d   1       7.036  -1.426  -3.213  0.00  0.00    -0.294 OA
BRANCH   7   9
ATOM      9  C   LIG d   1       5.798  -2.995  -4.460  0.00  0.00    -0.002 C 
ATOM     10  H   LIG d   1       5.089  -3.616  -4.125  0.00  0.00     0.031 H 
ATOM     11  H   LIG d   1       5.519  -2.625  -5.447  0.00  0.00     0.031 H 
ATOM     12  H   LIG d   1       6.746  -3.528  -4.527  0.00  0.00     0.031 H 
ENDBRANCH   7   9
ENDBRANCH   1   7
BRANCH   1  13
ATOM     13  O   LIG d   1       3.984  -0.495  -3.981  0.00  0.00    -0.454 OA
BRANCH  13  14
ATOM     14  C   LIG d   1       3.492   0.719  -3.689  0.00  0.00     0.305 C 
ATOM     15  O   LIG d   1       2.844   1.322  -4.512  0.00  0.00    -0.251 OA
BRANCH  14  16
ATOM     16  C   LIG d   1       3.745   1.330  -2.335  0.00  0.00     0.033 C 
ATOM     17  H   LIG d   1       4.785   1.648  -2.269  0.00  0.00     0.034 H 
ATOM     18  H   LIG d   1       3.092   2.191  -2.196  0.00  0.00     0.034 H 
ATOM     19  H   LIG d   1       3.541   0.590  -1.560  0.00  0.00     0.034 H 
ENDBRANCH  14  16
ENDBRANCH  13  14
ENDBRANCH   1  13
TORSDOF 6
ENDMDL
