MODEL 1
REMARK VINA RESULT:      -7.3      0.000      0.000
REMARK  7 active torsions:
REMARK  status: ('A' for Active; 'I' for Inactive)
REMARK    1  A    between atoms: C_1  and  C_2 
REMARK    2  A    between atoms: C_7  and  C_30 
REMARK    3  A    between atoms: C_8  and  C_10 
REMARK    4  A    between atoms: C_10  and  O_11 
REMARK    5  A    between atoms: O_11  and  C_12 
REMARK    6  A    between atoms: C_27  and  C_28 
REMARK    7  A    between atoms: C_27  and  C_29 
ROOT
ATOM      1  C   LIG d   1       6.307  -3.211  -4.635  0.00  0.00    -0.070 C 
ATOM      2  C   LIG d   1       7.052  -2.543  -3.813  0.00  0.00    -0.084 C 
ATOM      3  C   LIG d   1       6.635  -1.264  -3.158  0.00  0.00    -0.030 C 
ATOM      4  C   LIG d   1       5.433  -0.642  -3.881  0.00  0.00    -0.020 C 
ATOM      5  H   LIG d   1       5.748  -0.218  -4.834  0.00  0.00     0.032 H 
ATOM      6  C   LIG d   1       4.379  -1.731  -4.112  0.00  0.00    -0.018 C 
ATOM      7  C   LIG d   1       4.938  -2.782  -5.057  0.00  0.00     0.020 C 
ATOM      8  H   LIG d   1       4.276  -3.649  -5.063  0.00  0.00     0.038 H 
ATOM      9  C   LIG d   1       3.134  -1.131  -4.775  0.00  0.00    -0.040 C 
ATOM     10  C   LIG d   1       2.495  -0.090  -3.855  0.00  0.00     0.007 C 
ATOM     11  C   LIG d   1       3.551   0.942  -3.519  0.00  0.00     0.139 C 
ATOM     12  O   LIG d   1       3.348   2.121  -3.690  0.00  0.00    -0.297 OA
ATOM     13  C   LIG d   1       4.877   0.462  -2.972  0.00  0.00     0.027 C 
ATOM     14  H   LIG d   1       8.034  -2.932  -3.588  0.00  0.00     0.057 H 
ATOM     15  H   LIG d   1       6.363  -1.465  -2.122  0.00  0.00     0.031 H 
ATOM     16  H   LIG d   1       7.468  -0.562  -3.180  0.00  0.00     0.031 H 
ATOM     17  H   LIG d   1       3.419  -0.657  -5.715  0.00  0.00     0.028 H 
ATOM     18  H   LIG d   1       2.416  -1.925  -4.977  0.00  0.00     0.028 H 
ATOM     19  H   LIG d   1       1.660   0.388  -4.364  0.00  0.00     0.034 H 
ATOM     20  H   LIG d   1       2.146  -0.571  -2.941  0.00  0.00     0.034 H 
ENDROOT
BRANCH   7  21
ATOM     21  C   LIG d   1       5.008  -2.195  -6.469  0.00  0.00     0.097 C 
ATOM     22  H   LIG d   1       4.466  -1.251  -6.497  0.00  0.00     0.070 H 
ATOM     23  H   LIG d   1       6.050  -2.025  -6.739  0.00  0.00     0.070 H 
BRANCH  21  24
ATOM     24  O   LIG d   1       4.418  -3.110  -7.395  0.00  0.00    -0.491 OA
BRANCH  24  25
ATOM     25  C   LIG d   1       3.615  -2.584  -8.354  0.00  0.00     0.124 A 
ATOM     26  C   LIG d   1       3.097  -3.406  -9.342  0.00  0.00     0.023 A 
ATOM     27  C   LIG d   1       2.271  -2.871 -10.319  0.00  0.00     0.142 A 
ATOM     28  H   LIG d   1       3.333  -4.459  -9.350  0.00  0.00     0.069 H 
ATOM     29  C   LIG d   1       1.978  -1.494 -10.299  0.00  0.00     0.018 A 
ATOM     30  O   LIG d   1       1.753  -3.654 -11.289  0.00  0.00    -0.422 OA
ATOM     31  C   LIG d   1       2.515  -0.679  -9.296  0.00  0.00    -0.048 A 
ATOM     32  C   LIG d   1       1.111  -0.938 -11.338  0.00  0.00    -0.044 A 
ATOM     33  C   LIG d   1       3.322  -1.222  -8.339  0.00  0.00    -0.019 A 
ATOM     34  H   LIG d   1       2.290   0.378  -9.279  0.00  0.00     0.063 H 
ATOM     35  H   LIG d   1       3.735  -0.593  -7.565  0.00  0.00     0.065 H 
ATOM     36  C   LIG d   1       0.621  -1.782 -12.286  0.00  0.00     0.024 A 
ATOM     37  H   LIG d   1       0.865   0.113 -11.353  0.00  0.00     0.063 H 
ATOM     38  C   LIG d   1       0.956  -3.151 -12.245  0.00  0.00     0.337 A 
ATOM     39  H   LIG d   1      -0.022  -1.404 -13.066  0.00  0.00     0.069 H 
ATOM     40  O   LIG d   1       0.511  -3.896 -13.099  0.00  0.00    -0.245 OA
ENDBRANCH  24  25
ENDBRANCH  21  24
ENDBRANCH   7  21
BRANCH   1  41
ATOM     41  C   LIG d   1       6.854  -4.496  -5.203  0.00  0.00    -0.043 C 
ATOM     42  H   LIG d   1       6.281  -4.774  -6.088  0.00  0.00     0.027 H 
ATOM     43  H   LIG d   1       7.900  -4.356  -5.476  0.00  0.00     0.027 H 
ATOM     44  H   LIG d   1       6.777  -5.285  -4.456  0.00  0.00     0.027 H 
ENDBRANCH   1  41
BRANCH   6  45
ATOM     45  C   LIG d   1       4.012  -2.394  -2.782  0.00  0.00    -0.059 C 
ATOM     46  H   LIG d   1       2.927  -2.430  -2.682  0.00  0.00     0.024 H 
ATOM     47  H   LIG d   1       4.414  -3.407  -2.759  0.00  0.00     0.024 H 
ATOM     48  H   LIG d   1       4.434  -1.816  -1.960  0.00  0.00     0.024 H 
ENDBRANCH   6  45
BRANCH  13  49
ATOM     49  C   LIG d   1       5.873   1.622  -2.908  0.00  0.00    -0.053 C 
ATOM     50  H   LIG d   1       5.433   2.448  -2.348  0.00  0.00     0.024 H 
ATOM     51  H   LIG d   1       6.785   1.291  -2.412  0.00  0.00     0.024 H 
ATOM     52  H   LIG d   1       6.109   1.954  -3.919  0.00  0.00     0.024 H 
ENDBRANCH  13  49
BRANCH  13  53
ATOM     53  C   LIG d   1       4.657  -0.098  -1.565  0.00  0.00    -0.053 C 
ATOM     54  H   LIG d   1       4.519  -1.178  -1.622  0.00  0.00     0.024 H 
ATOM     55  H   LIG d   1       5.525   0.125  -0.945  0.00  0.00     0.024 H 
ATOM     56  H   LIG d   1       3.770   0.359  -1.125  0.00  0.00     0.024 H 
ENDBRANCH  13  53
TORSDOF 7
ENDMDL
MODEL 2
REMARK VINA RESULT:      -7.2      4.113      7.828
REMARK  7 active torsions:
REMARK  status: ('A' for Active; 'I' for Inactive)
REMARK    1  A    between atoms: C_1  and  C_2 
REMARK    2  A    between atoms: C_7  and  C_30 
REMARK    3  A    between atoms: C_8  and  C_10 
REMARK    4  A    between atoms: C_10  and  O_11 
REMARK    5  A    between atoms: O_11  and  C_12 
REMARK    6  A    between atoms: C_27  and  C_28 
REMARK    7  A    between atoms: C_27  and  C_29 
ROOT
ATOM      1  C   LIG d   1       7.268  -2.096  -4.262  0.00  0.00    -0.070 C 
ATOM      2  C   LIG d   1       6.872  -1.890  -3.047  0.00  0.00    -0.084 C 
ATOM      3  C   LIG d   1       5.626  -1.143  -2.689  0.00  0.00    -0.030 C 
ATOM      4  C   LIG d   1       5.120  -0.315  -3.877  0.00  0.00    -0.020 C 
ATOM      5  H   LIG d   1       5.764   0.550  -4.032  0.00  0.00     0.032 H 
ATOM      6  C   LIG d   1       5.116  -1.200  -5.128  0.00  0.00    -0.018 C 
ATOM      7  C   LIG d   1       6.542  -1.596  -5.472  0.00  0.00     0.020 C 
ATOM      8  H   LIG d   1       6.527  -2.380  -6.230  0.00  0.00     0.038 H 
ATOM      9  C   LIG d   1       4.553  -0.424  -6.324  0.00  0.00    -0.040 C 
ATOM     10  C   LIG d   1       3.099  -0.029  -6.061  0.00  0.00     0.007 C 
ATOM     11  C   LIG d   1       3.058   0.754  -4.766  0.00  0.00     0.139 C 
ATOM     12  O   LIG d   1       2.539   1.843  -4.712  0.00  0.00    -0.297 OA
ATOM     13  C   LIG d   1       3.695   0.145  -3.537  0.00  0.00     0.027 C 
ATOM     14  H   LIG d   1       7.480  -2.279  -2.243  0.00  0.00     0.057 H 
ATOM     15  H   LIG d   1       4.855  -1.855  -2.395  0.00  0.00     0.031 H 
ATOM     16  H   LIG d   1       5.835  -0.477  -1.851  0.00  0.00     0.031 H 
ATOM     17  H   LIG d   1       5.149   0.475  -6.483  0.00  0.00     0.028 H 
ATOM     18  H   LIG d   1       4.602  -1.050  -7.215  0.00  0.00     0.028 H 
ATOM     19  H   LIG d   1       2.731   0.589  -6.878  0.00  0.00     0.034 H 
ATOM     20  H   LIG d   1       2.485  -0.926  -5.969  0.00  0.00     0.034 H 
ENDROOT
BRANCH   7  21
ATOM     21  C   LIG d   1       7.278  -0.375  -6.029  0.00  0.00     0.097 C 
ATOM     22  H   LIG d   1       7.684  -0.612  -7.011  0.00  0.00     0.070 H 
ATOM     23  H   LIG d   1       6.581   0.459  -6.116  0.00  0.00     0.070 H 
BRANCH  21  24
ATOM     24  O   LIG d   1       8.343  -0.016  -5.147  0.00  0.00    -0.491 OA
BRANCH  24  25
ATOM     25  C   LIG d   1       8.695   1.293  -5.106  0.00  0.00     0.124 A 
ATOM     26  C   LIG d   1       8.969   1.894  -3.888  0.00  0.00     0.023 A 
ATOM     27  C   LIG d   1       9.335   3.230  -3.846  0.00  0.00     0.142 A 
ATOM     28  H   LIG d   1       8.900   1.322  -2.974  0.00  0.00     0.069 H 
ATOM     29  C   LIG d   1       9.415   3.964  -5.044  0.00  0.00     0.018 A 
ATOM     30  O   LIG d   1       9.610   3.834  -2.669  0.00  0.00    -0.422 OA
ATOM     31  C   LIG d   1       9.130   3.342  -6.265  0.00  0.00    -0.048 A 
ATOM     32  C   LIG d   1       9.797   5.375  -4.988  0.00  0.00    -0.044 A 
ATOM     33  C   LIG d   1       8.776   2.024  -6.290  0.00  0.00    -0.019 A 
ATOM     34  H   LIG d   1       9.192   3.904  -7.186  0.00  0.00     0.063 H 
ATOM     35  H   LIG d   1       8.557   1.545  -7.233  0.00  0.00     0.065 H 
ATOM     36  C   LIG d   1      10.060   5.922  -3.772  0.00  0.00     0.024 A 
ATOM     37  H   LIG d   1       9.868   5.967  -5.888  0.00  0.00     0.063 H 
ATOM     38  C   LIG d   1       9.960   5.128  -2.611  0.00  0.00     0.337 A 
ATOM     39  H   LIG d   1      10.345   6.961  -3.695  0.00  0.00     0.069 H 
ATOM     40  O   LIG d   1      10.199   5.629  -1.527  0.00  0.00    -0.245 OA
ENDBRANCH  24  25
ENDBRANCH  21  24
ENDBRANCH   7  21
BRANCH   1  41
ATOM     41  C   LIG d   1       8.536  -2.884  -4.471  0.00  0.00    -0.043 C 
ATOM     42  H   LIG d   1       8.374  -3.918  -4.166  0.00  0.00     0.027 H 
ATOM     43  H   LIG d   1       8.812  -2.855  -5.525  0.00  0.00     0.027 H 
ATOM     44  H   LIG d   1       9.336  -2.448  -3.874  0.00  0.00     0.027 H 
ENDBRANCH   1  41
BRANCH   6  45
ATOM     45  C   LIG d   1       4.291  -2.464  -4.872  0.00  0.00    -0.059 C 
ATOM     46  H   LIG d   1       3.632  -2.300  -4.019  0.00  0.00     0.024 H 
ATOM     47  H   LIG d   1       3.694  -2.693  -5.755  0.00  0.00     0.024 H 
ATOM     48  H   LIG d   1       4.961  -3.297  -4.659  0.00  0.00     0.024 H 
ENDBRANCH   6  45
BRANCH  13  49
ATOM     49  C   LIG d   1       3.746   1.171  -2.404  0.00  0.00    -0.053 C 
ATOM     50  H   LIG d   1       2.846   1.085  -1.795  0.00  0.00     0.024 H 
ATOM     51  H   LIG d   1       4.624   0.986  -1.784  0.00  0.00     0.024 H 
ATOM     52  H   LIG d   1       3.805   2.175  -2.826  0.00  0.00     0.024 H 
ENDBRANCH  13  49
BRANCH  13  53
ATOM     53  C   LIG d   1       2.863  -1.061  -3.094  0.00  0.00    -0.053 C 
ATOM     54  H   LIG d   1       3.150  -1.349  -2.083  0.00  0.00     0.024 H 
ATOM     55  H   LIG d   1       1.805  -0.799  -3.112  0.00  0.00     0.024 H 
ATOM     56  H   LIG d   1       3.041  -1.895  -3.774  0.00  0.00     0.024 H 
ENDBRANCH  13  53
TORSDOF 7
ENDMDL
MODEL 3
REMARK VINA RESULT:      -6.9      4.334      7.096
REMARK  7 active torsions:
REMARK  status: ('A' for Active; 'I' for Inactive)
REMARK    1  A    between atoms: C_1  and  C_2 
REMARK    2  A    between atoms: C_7  and  C_30 
REMARK    3  A    between atoms: C_8  and  C_10 
REMARK    4  A    between atoms: C_10  and  O_11 
REMARK    5  A    between atoms: O_11  and  C_12 
REMARK    6  A    between atoms: C_27  and  C_28 
REMARK    7  A    between atoms: C_27  and  C_29 
ROOT
ATOM      1  C   LIG d   1       7.465  -2.462  -4.806  0.00  0.00    -0.070 C 
ATOM      2  C   LIG d   1       7.411  -2.335  -3.519  0.00  0.00    -0.084 C 
ATOM      3  C   LIG d   1       6.363  -1.544  -2.801  0.00  0.00    -0.030 C 
ATOM      4  C   LIG d   1       5.641  -0.588  -3.759  0.00  0.00    -0.020 C 
ATOM      5  H   LIG d   1       6.293   0.244  -4.020  0.00  0.00     0.032 H 
ATOM      6  C   LIG d   1       5.245  -1.362  -5.021  0.00  0.00    -0.018 C 
ATOM      7  C   LIG d   1       6.499  -1.816  -5.750  0.00  0.00     0.020 C 
ATOM      8  H   LIG d   1       6.226  -2.531  -6.527  0.00  0.00     0.038 H 
ATOM      9  C   LIG d   1       4.462  -0.454  -5.976  0.00  0.00    -0.040 C 
ATOM     10  C   LIG d   1       3.161   0.008  -5.318  0.00  0.00     0.007 C 
ATOM     11  C   LIG d   1       3.516   0.680  -4.009  0.00  0.00     0.139 C 
ATOM     12  O   LIG d   1       3.119   1.791  -3.751  0.00  0.00    -0.297 OA
ATOM     13  C   LIG d   1       4.392  -0.070  -3.031  0.00  0.00     0.027 C 
ATOM     14  H   LIG d   1       8.169  -2.828  -2.929  0.00  0.00     0.057 H 
ATOM     15  H   LIG d   1       5.636  -2.229  -2.363  0.00  0.00     0.031 H 
ATOM     16  H   LIG d   1       6.833  -0.966  -2.005  0.00  0.00     0.031 H 
ATOM     17  H   LIG d   1       5.070   0.417  -6.225  0.00  0.00     0.028 H 
ATOM     18  H   LIG d   1       4.231  -1.004  -6.888  0.00  0.00     0.028 H 
ATOM     19  H   LIG d   1       2.649   0.715  -5.970  0.00  0.00     0.034 H 
ATOM     20  H   LIG d   1       2.519  -0.853  -5.129  0.00  0.00     0.034 H 
ENDROOT
BRANCH   7  21
ATOM     21  C   LIG d   1       7.166  -0.601  -6.398  0.00  0.00     0.097 C 
ATOM     22  H   LIG d   1       7.358  -0.810  -7.450  0.00  0.00     0.070 H 
ATOM     23  H   LIG d   1       6.506   0.263  -6.313  0.00  0.00     0.070 H 
BRANCH  21  24
ATOM     24  O   LIG d   1       8.401  -0.325  -5.735  0.00  0.00    -0.491 OA
BRANCH  24  25
ATOM     25  C   LIG d   1       8.658   0.971  -5.425  0.00  0.00     0.124 A 
ATOM     26  C   LIG d   1       8.997   1.864  -6.428  0.00  0.00     0.023 A 
ATOM     27  C   LIG d   1       9.253   3.190  -6.113  0.00  0.00     0.142 A 
ATOM     28  H   LIG d   1       9.057   1.530  -7.453  0.00  0.00     0.069 H 
ATOM     29  C   LIG d   1       9.175   3.609  -4.772  0.00  0.00     0.018 A 
ATOM     30  O   LIG d   1       9.581   4.077  -7.076  0.00  0.00    -0.422 OA
ATOM     31  C   LIG d   1       8.836   2.692  -3.770  0.00  0.00    -0.048 A 
ATOM     32  C   LIG d   1       9.453   5.009  -4.449  0.00  0.00    -0.044 A 
ATOM     33  C   LIG d   1       8.582   1.392  -4.098  0.00  0.00    -0.019 A 
ATOM     34  H   LIG d   1       8.775   3.013  -2.740  0.00  0.00     0.063 H 
ATOM     35  H   LIG d   1       8.320   0.685  -3.325  0.00  0.00     0.065 H 
ATOM     36  C   LIG d   1       9.778   5.851  -5.466  0.00  0.00     0.024 A 
ATOM     37  H   LIG d   1       9.403   5.365  -3.430  0.00  0.00     0.063 H 
ATOM     38  C   LIG d   1       9.837   5.363  -6.787  0.00  0.00     0.337 A 
ATOM     39  H   LIG d   1       9.988   6.890  -5.262  0.00  0.00     0.069 H 
ATOM     40  O   LIG d   1      10.129   6.127  -7.690  0.00  0.00    -0.245 OA
ENDBRANCH  24  25
ENDBRANCH  21  24
ENDBRANCH   7  21
BRANCH   1  41
ATOM     41  C   LIG d   1       8.568  -3.307  -5.389  0.00  0.00    -0.043 C 
ATOM     42  H   LIG d   1       9.311  -2.660  -5.858  0.00  0.00     0.027 H 
ATOM     43  H   LIG d   1       9.040  -3.886  -4.596  0.00  0.00     0.027 H 
ATOM     44  H   LIG d   1       8.152  -3.983  -6.135  0.00  0.00     0.027 H 
ENDBRANCH   1  41
BRANCH   6  45
ATOM     45  C   LIG d   1       4.411  -2.589  -4.643  0.00  0.00    -0.059 C 
ATOM     46  H   LIG d   1       4.695  -2.926  -3.646  0.00  0.00     0.024 H 
ATOM     47  H   LIG d   1       3.354  -2.325  -4.651  0.00  0.00     0.024 H 
ATOM     48  H   LIG d   1       4.593  -3.387  -5.363  0.00  0.00     0.024 H 
ENDBRANCH   6  45
BRANCH  13  49
ATOM     49  C   LIG d   1       4.815   0.851  -1.886  0.00  0.00    -0.053 C 
ATOM     50  H   LIG d   1       5.453   1.645  -2.275  0.00  0.00     0.024 H 
ATOM     51  H   LIG d   1       3.929   1.290  -1.426  0.00  0.00     0.024 H 
ATOM     52  H   LIG d   1       5.364   0.276  -1.140  0.00  0.00     0.024 H 
ENDBRANCH  13  49
BRANCH  13  53
ATOM     53  C   LIG d   1       3.604  -1.254  -2.467  0.00  0.00    -0.053 C 
ATOM     54  H   LIG d   1       4.287  -1.939  -1.964  0.00  0.00     0.024 H 
ATOM     55  H   LIG d   1       2.862  -0.892  -1.756  0.00  0.00     0.024 H 
ATOM     56  H   LIG d   1       3.100  -1.777  -3.281  0.00  0.00     0.024 H 
ENDBRANCH  13  53
TORSDOF 7
ENDMDL
MODEL 4
REMARK VINA RESULT:      -6.8      5.940      9.578
REMARK  7 active torsions:
REMARK  status: ('A' for Active; 'I' for Inactive)
REMARK    1  A    between atoms: C_1  and  C_2 
REMARK    2  A    between atoms: C_7  and  C_30 
REMARK    3  A    between atoms: C_8  and  C_10 
REMARK    4  A    between atoms: C_10  and  O_11 
REMARK    5  A    between atoms: O_11  and  C_12 
REMARK    6  A    between atoms: C_27  and  C_28 
REMARK    7  A    between atoms: C_27  and  C_29 
ROOT
ATOM      1  C   LIG d   1      10.032   5.943  -5.831  0.00  0.00    -0.070 C 
ATOM      2  C   LIG d   1       9.768   7.168  -5.507  0.00  0.00    -0.084 C 
ATOM      3  C   LIG d   1       9.904   7.714  -4.120  0.00  0.00    -0.030 C 
ATOM      4  C   LIG d   1       9.978   6.581  -3.088  0.00  0.00    -0.020 C 
ATOM      5  H   LIG d   1       8.997   6.122  -2.965  0.00  0.00     0.032 H 
ATOM      6  C   LIG d   1      10.990   5.538  -3.572  0.00  0.00    -0.018 C 
ATOM      7  C   LIG d   1      10.485   4.902  -4.856  0.00  0.00     0.020 C 
ATOM      8  H   LIG d   1      11.286   4.314  -5.307  0.00  0.00     0.038 H 
ATOM      9  C   LIG d   1      11.139   4.422  -2.533  0.00  0.00    -0.040 C 
ATOM     10  C   LIG d   1      11.687   4.989  -1.222  0.00  0.00     0.007 C 
ATOM     11  C   LIG d   1      10.762   6.101  -0.777  0.00  0.00     0.139 C 
ATOM     12  O   LIG d   1      10.286   6.110   0.333  0.00  0.00    -0.297 OA
ATOM     13  C   LIG d   1      10.437   7.203  -1.761  0.00  0.00     0.027 C 
ATOM     14  H   LIG d   1       9.429   7.837  -6.284  0.00  0.00     0.057 H 
ATOM     15  H   LIG d   1      10.812   8.313  -4.058  0.00  0.00     0.031 H 
ATOM     16  H   LIG d   1       9.043   8.345  -3.897  0.00  0.00     0.031 H 
ATOM     17  H   LIG d   1      10.166   3.966  -2.351  0.00  0.00     0.028 H 
ATOM     18  H   LIG d   1      11.825   3.665  -2.913  0.00  0.00     0.028 H 
ATOM     19  H   LIG d   1      11.715   4.206  -0.465  0.00  0.00     0.034 H 
ATOM     20  H   LIG d   1      12.690   5.385  -1.383  0.00  0.00     0.034 H 
ENDROOT
BRANCH   7  21
ATOM     21  C   LIG d   1       9.310   3.978  -4.526  0.00  0.00     0.097 C 
ATOM     22  H   LIG d   1       9.182   3.926  -3.445  0.00  0.00     0.070 H 
ATOM     23  H   LIG d   1       8.401   4.370  -4.982  0.00  0.00     0.070 H 
BRANCH  21  24
ATOM     24  O   LIG d   1       9.575   2.670  -5.036  0.00  0.00    -0.491 OA
BRANCH  24  25
ATOM     25  C   LIG d   1       8.739   1.675  -4.645  0.00  0.00     0.124 A 
ATOM     26  C   LIG d   1       7.653   1.968  -3.835  0.00  0.00     0.023 A 
ATOM     27  C   LIG d   1       6.795   0.952  -3.441  0.00  0.00     0.142 A 
ATOM     28  H   LIG d   1       7.473   2.983  -3.516  0.00  0.00     0.069 H 
ATOM     29  C   LIG d   1       7.046  -0.368  -3.860  0.00  0.00     0.018 A 
ATOM     30  O   LIG d   1       5.729   1.216  -2.656  0.00  0.00    -0.422 OA
ATOM     31  C   LIG d   1       8.151  -0.645  -4.673  0.00  0.00    -0.048 A 
ATOM     32  C   LIG d   1       6.138  -1.433  -3.433  0.00  0.00    -0.044 A 
ATOM     33  C   LIG d   1       8.983   0.366  -5.058  0.00  0.00    -0.019 A 
ATOM     34  H   LIG d   1       8.344  -1.658  -4.997  0.00  0.00     0.063 H 
ATOM     35  H   LIG d   1       9.835   0.151  -5.685  0.00  0.00     0.065 H 
ATOM     36  C   LIG d   1       5.083  -1.099  -2.643  0.00  0.00     0.024 A 
ATOM     37  H   LIG d   1       6.300  -2.456  -3.737  0.00  0.00     0.063 H 
ATOM     38  C   LIG d   1       4.892   0.244  -2.260  0.00  0.00     0.337 A 
ATOM     39  H   LIG d   1       4.394  -1.861  -2.311  0.00  0.00     0.069 H 
ATOM     40  O   LIG d   1       3.943   0.530  -1.552  0.00  0.00    -0.245 OA
ENDBRANCH  24  25
ENDBRANCH  21  24
ENDBRANCH   7  21
BRANCH   1  41
ATOM     41  C   LIG d   1       9.867   5.541  -7.274  0.00  0.00    -0.043 C 
ATOM     42  H   LIG d   1       8.806   5.443  -7.504  0.00  0.00     0.027 H 
ATOM     43  H   LIG d   1      10.310   6.302  -7.916  0.00  0.00     0.027 H 
ATOM     44  H   LIG d   1      10.366   4.587  -7.443  0.00  0.00     0.027 H 
ENDBRANCH   1  41
BRANCH   6  45
ATOM     45  C   LIG d   1      12.341   6.206  -3.840  0.00  0.00    -0.059 C 
ATOM     46  H   LIG d   1      12.253   7.281  -3.680  0.00  0.00     0.024 H 
ATOM     47  H   LIG d   1      13.089   5.797  -3.160  0.00  0.00     0.024 H 
ATOM     48  H   LIG d   1      12.643   6.015  -4.870  0.00  0.00     0.024 H 
ENDBRANCH   6  45
BRANCH  13  49
ATOM     49  C   LIG d   1       9.328   8.098  -1.205  0.00  0.00    -0.053 C 
ATOM     50  H   LIG d   1       9.706   8.655  -0.348  0.00  0.00     0.024 H 
ATOM     51  H   LIG d   1       9.001   8.795  -1.977  0.00  0.00     0.024 H 
ATOM     52  H   LIG d   1       8.485   7.480  -0.894  0.00  0.00     0.024 H 
ENDBRANCH  13  49
BRANCH  13  53
ATOM     53  C   LIG d   1      11.695   8.041  -2.000  0.00  0.00    -0.053 C 
ATOM     54  H   LIG d   1      12.018   8.486  -1.059  0.00  0.00     0.024 H 
ATOM     55  H   LIG d   1      12.487   7.404  -2.393  0.00  0.00     0.024 H 
ATOM     56  H   LIG d   1      11.474   8.831  -2.719  0.00  0.00     0.024 H 
ENDBRANCH  13  53
TORSDOF 7
ENDMDL
MODEL 5
REMARK VINA RESULT:      -6.8      1.834      2.515
REMARK  7 active torsions:
REMARK  status: ('A' for Active; 'I' for Inactive)
REMARK    1  A    between atoms: C_1  and  C_2 
REMARK    2  A    between atoms: C_7  and  C_30 
REMARK    3  A    between atoms: C_8  and  C_10 
REMARK    4  A    between atoms: C_10  and  O_11 
REMARK    5  A    between atoms: O_11  and  C_12 
REMARK    6  A    between atoms: C_27  and  C_28 
REMARK    7  A    between atoms: C_27  and  C_29 
ROOT
ATOM      1  C   LIG d   1       7.948  -0.392  -4.968  0.00  0.00    -0.070 C 
ATOM      2  C   LIG d   1       7.659   0.763  -4.460  0.00  0.00    -0.084 C 
ATOM      3  C   LIG d   1       6.393   1.057  -3.718  0.00  0.00    -0.030 C 
ATOM      4  C   LIG d   1       5.332  -0.017  -3.993  0.00  0.00    -0.020 C 
ATOM      5  H   LIG d   1       4.936   0.097  -5.002  0.00  0.00     0.032 H 
ATOM      6  C   LIG d   1       5.977  -1.398  -3.834  0.00  0.00    -0.018 C 
ATOM      7  C   LIG d   1       7.045  -1.583  -4.900  0.00  0.00     0.020 C 
ATOM      8  H   LIG d   1       7.637  -2.469  -4.668  0.00  0.00     0.038 H 
ATOM      9  C   LIG d   1       4.930  -2.499  -4.038  0.00  0.00    -0.040 C 
ATOM     10  C   LIG d   1       3.842  -2.397  -2.968  0.00  0.00     0.007 C 
ATOM     11  C   LIG d   1       3.262  -1.000  -3.028  0.00  0.00     0.139 C 
ATOM     12  O   LIG d   1       2.072  -0.822  -3.134  0.00  0.00    -0.297 OA
ATOM     13  C   LIG d   1       4.211   0.176  -2.962  0.00  0.00     0.027 C 
ATOM     14  H   LIG d   1       8.374   1.564  -4.581  0.00  0.00     0.057 H 
ATOM     15  H   LIG d   1       6.604   1.086  -2.649  0.00  0.00     0.031 H 
ATOM     16  H   LIG d   1       6.010   2.027  -4.033  0.00  0.00     0.031 H 
ATOM     17  H   LIG d   1       4.478  -2.388  -5.024  0.00  0.00     0.028 H 
ATOM     18  H   LIG d   1       5.413  -3.473  -3.971  0.00  0.00     0.028 H 
ATOM     19  H   LIG d   1       3.061  -3.130  -3.165  0.00  0.00     0.034 H 
ATOM     20  H   LIG d   1       4.276  -2.574  -1.984  0.00  0.00     0.034 H 
ENDROOT
BRANCH   7  21
ATOM     21  C   LIG d   1       6.365  -1.776  -6.258  0.00  0.00     0.097 C 
ATOM     22  H   LIG d   1       7.078  -2.203  -6.963  0.00  0.00     0.070 H 
ATOM     23  H   LIG d   1       5.516  -2.450  -6.146  0.00  0.00     0.070 H 
BRANCH  21  24
ATOM     24  O   LIG d   1       5.910  -0.514  -6.747  0.00  0.00    -0.491 OA
BRANCH  24  25
ATOM     25  C   LIG d   1       4.816  -0.521  -7.549  0.00  0.00     0.124 A 
ATOM     26  C   LIG d   1       4.939  -0.897  -8.877  0.00  0.00     0.023 A 
ATOM     27  C   LIG d   1       3.820  -0.912  -9.696  0.00  0.00     0.142 A 
ATOM     28  H   LIG d   1       5.903  -1.182  -9.272  0.00  0.00     0.069 H 
ATOM     29  C   LIG d   1       2.572  -0.532  -9.167  0.00  0.00     0.018 A 
ATOM     30  O   LIG d   1       3.918  -1.279 -10.991  0.00  0.00    -0.422 OA
ATOM     31  C   LIG d   1       2.467  -0.150  -7.825  0.00  0.00    -0.048 A 
ATOM     32  C   LIG d   1       1.398  -0.545 -10.041  0.00  0.00    -0.044 A 
ATOM     33  C   LIG d   1       3.578  -0.147  -7.031  0.00  0.00    -0.019 A 
ATOM     34  H   LIG d   1       1.509   0.140  -7.418  0.00  0.00     0.063 H 
ATOM     35  H   LIG d   1       3.496   0.148  -5.995  0.00  0.00     0.065 H 
ATOM     36  C   LIG d   1       1.565  -0.925 -11.335  0.00  0.00     0.024 A 
ATOM     37  H   LIG d   1       0.425  -0.261  -9.668  0.00  0.00     0.063 H 
ATOM     38  C   LIG d   1       2.845  -1.293 -11.798  0.00  0.00     0.337 A 
ATOM     39  H   LIG d   1       0.719  -0.946 -12.006  0.00  0.00     0.069 H 
ATOM     40  O   LIG d   1       2.981  -1.632 -12.960  0.00  0.00    -0.245 OA
ENDBRANCH  24  25
ENDBRANCH  21  24
ENDBRANCH   7  21
BRANCH   1  41
ATOM     41  C   LIG d   1       9.272  -0.545  -5.673  0.00  0.00    -0.043 C 
ATOM     42  H   LIG d   1       9.491   0.365  -6.233  0.00  0.00     0.027 H 
ATOM     43  H   LIG d   1      10.057  -0.717  -4.937  0.00  0.00     0.027 H 
ATOM     44  H   LIG d   1       9.223  -1.391  -6.357  0.00  0.00     0.027 H 
ENDBRANCH   1  41
BRANCH   6  45
ATOM     45  C   LIG d   1       6.621  -1.519  -2.451  0.00  0.00    -0.059 C 
ATOM     46  H   LIG d   1       6.472  -2.529  -2.069  0.00  0.00     0.024 H 
ATOM     47  H   LIG d   1       7.688  -1.313  -2.528  0.00  0.00     0.024 H 
ATOM     48  H   LIG d   1       6.160  -0.802  -1.772  0.00  0.00     0.024 H 
ENDBRANCH   6  45
BRANCH  13  49
ATOM     49  C   LIG d   1       3.463   1.477  -3.259  0.00  0.00    -0.053 C 
ATOM     50  H   LIG d   1       3.277   1.552  -4.331  0.00  0.00     0.024 H 
ATOM     51  H   LIG d   1       2.513   1.480  -2.724  0.00  0.00     0.024 H 
ATOM     52  H   LIG d   1       4.066   2.325  -2.934  0.00  0.00     0.024 H 
ENDBRANCH  13  49
BRANCH  13  53
ATOM     53  C   LIG d   1       4.816   0.246  -1.559  0.00  0.00    -0.053 C 
ATOM     54  H   LIG d   1       4.017   0.232  -0.818  0.00  0.00     0.024 H 
ATOM     55  H   LIG d   1       5.472  -0.610  -1.402  0.00  0.00     0.024 H 
ATOM     56  H   LIG d   1       5.391   1.167  -1.456  0.00  0.00     0.024 H 
ENDBRANCH  13  53
TORSDOF 7
ENDMDL
MODEL 6
REMARK VINA RESULT:      -6.7      5.031      8.376
REMARK  7 active torsions:
REMARK  status: ('A' for Active; 'I' for Inactive)
REMARK    1  A    between atoms: C_1  and  C_2 
REMARK    2  A    between atoms: C_7  and  C_30 
REMARK    3  A    between atoms: C_8  and  C_10 
REMARK    4  A    between atoms: C_10  and  O_11 
REMARK    5  A    between atoms: O_11  and  C_12 
REMARK    6  A    between atoms: C_27  and  C_28 
REMARK    7  A    between atoms: C_27  and  C_29 
ROOT
ATOM      1  C   LIG d   1       9.815   4.142  -6.690  0.00  0.00    -0.070 C 
ATOM      2  C   LIG d   1       9.914   5.432  -6.740  0.00  0.00    -0.084 C 
ATOM      3  C   LIG d   1      10.178   6.297  -5.548  0.00  0.00    -0.030 C 
ATOM      4  C   LIG d   1       9.902   5.537  -4.245  0.00  0.00    -0.020 C 
ATOM      5  H   LIG d   1       8.828   5.419  -4.100  0.00  0.00     0.032 H 
ATOM      6  C   LIG d   1      10.576   4.163  -4.323  0.00  0.00    -0.018 C 
ATOM      7  C   LIG d   1       9.929   3.345  -5.429  0.00  0.00     0.020 C 
ATOM      8  H   LIG d   1      10.532   2.456  -5.620  0.00  0.00     0.038 H 
ATOM      9  C   LIG d   1      10.376   3.399  -3.009  0.00  0.00    -0.040 C 
ATOM     10  C   LIG d   1      11.043   4.149  -1.855  0.00  0.00     0.007 C 
ATOM     11  C   LIG d   1      10.474   5.552  -1.825  0.00  0.00     0.139 C 
ATOM     12  O   LIG d   1      10.003   6.011  -0.812  0.00  0.00    -0.297 OA
ATOM     13  C   LIG d   1      10.500   6.366  -3.099  0.00  0.00     0.027 C 
ATOM     14  H   LIG d   1       9.797   5.913  -7.701  0.00  0.00     0.057 H 
ATOM     15  H   LIG d   1      11.221   6.616  -5.562  0.00  0.00     0.031 H 
ATOM     16  H   LIG d   1       9.535   7.176  -5.594  0.00  0.00     0.031 H 
ATOM     17  H   LIG d   1       9.309   3.300  -2.808  0.00  0.00     0.028 H 
ATOM     18  H   LIG d   1      10.818   2.407  -3.099  0.00  0.00     0.028 H 
ATOM     19  H   LIG d   1      10.829   3.643  -0.915  0.00  0.00     0.034 H 
ATOM     20  H   LIG d   1      12.120   4.191  -2.017  0.00  0.00     0.034 H 
ENDROOT
BRANCH   7  21
ATOM     21  C   LIG d   1       8.531   2.915  -4.978  0.00  0.00     0.097 C 
ATOM     22  H   LIG d   1       8.413   3.122  -3.915  0.00  0.00     0.070 H 
ATOM     23  H   LIG d   1       7.782   3.470  -5.542  0.00  0.00     0.070 H 
BRANCH  21  24
ATOM     24  O   LIG d   1       8.364   1.516  -5.212  0.00  0.00    -0.491 OA
BRANCH  24  25
ATOM     25  C   LIG d   1       7.383   0.887  -4.517  0.00  0.00     0.124 A 
ATOM     26  C   LIG d   1       6.986  -0.387  -4.888  0.00  0.00     0.023 A 
ATOM     27  C   LIG d   1       5.987  -1.033  -4.175  0.00  0.00     0.142 A 
ATOM     28  H   LIG d   1       7.454  -0.878  -5.729  0.00  0.00     0.069 H 
ATOM     29  C   LIG d   1       5.382  -0.379  -3.086  0.00  0.00     0.018 A 
ATOM     30  O   LIG d   1       5.588  -2.277  -4.518  0.00  0.00    -0.422 OA
ATOM     31  C   LIG d   1       5.793   0.910  -2.727  0.00  0.00    -0.048 A 
ATOM     32  C   LIG d   1       4.326  -1.067  -2.343  0.00  0.00    -0.044 A 
ATOM     33  C   LIG d   1       6.781   1.530  -3.437  0.00  0.00    -0.019 A 
ATOM     34  H   LIG d   1       5.330   1.413  -1.891  0.00  0.00     0.063 H 
ATOM     35  H   LIG d   1       7.097   2.525  -3.160  0.00  0.00     0.065 H 
ATOM     36  C   LIG d   1       3.971  -2.317  -2.740  0.00  0.00     0.024 A 
ATOM     37  H   LIG d   1       3.840  -0.594  -1.502  0.00  0.00     0.063 H 
ATOM     38  C   LIG d   1       4.620  -2.913  -3.841  0.00  0.00     0.337 A 
ATOM     39  H   LIG d   1       3.195  -2.853  -2.213  0.00  0.00     0.069 H 
ATOM     40  O   LIG d   1       4.293  -4.034  -4.187  0.00  0.00    -0.245 OA
ENDBRANCH  24  25
ENDBRANCH  21  24
ENDBRANCH   7  21
BRANCH   1  41
ATOM     41  C   LIG d   1       9.565   3.400  -7.978  0.00  0.00    -0.043 C 
ATOM     42  H   LIG d   1       8.516   3.503  -8.258  0.00  0.00     0.027 H 
ATOM     43  H   LIG d   1      10.194   3.816  -8.765  0.00  0.00     0.027 H 
ATOM     44  H   LIG d   1       9.803   2.346  -7.841  0.00  0.00     0.027 H 
ENDBRANCH   1  41
BRANCH   6  45
ATOM     45  C   LIG d   1      12.067   4.328  -4.626  0.00  0.00    -0.059 C 
ATOM     46  H   LIG d   1      12.190   4.746  -5.626  0.00  0.00     0.024 H 
ATOM     47  H   LIG d   1      12.514   4.999  -3.893  0.00  0.00     0.024 H 
ATOM     48  H   LIG d   1      12.558   3.355  -4.576  0.00  0.00     0.024 H 
ENDBRANCH   6  45
BRANCH  13  49
ATOM     49  C   LIG d   1       9.690   7.651  -2.922  0.00  0.00    -0.053 C 
ATOM     50  H   LIG d   1       9.028   7.784  -3.778  0.00  0.00     0.024 H 
ATOM     51  H   LIG d   1       9.096   7.584  -2.010  0.00  0.00     0.024 H 
ATOM     52  H   LIG d   1      10.368   8.502  -2.852  0.00  0.00     0.024 H 
ENDBRANCH  13  49
BRANCH  13  53
ATOM     53  C   LIG d   1      11.951   6.720  -3.430  0.00  0.00    -0.053 C 
ATOM     54  H   LIG d   1      11.974   7.626  -4.036  0.00  0.00     0.024 H 
ATOM     55  H   LIG d   1      12.505   6.886  -2.507  0.00  0.00     0.024 H 
ATOM     56  H   LIG d   1      12.408   5.900  -3.986  0.00  0.00     0.024 H 
ENDBRANCH  13  53
TORSDOF 7
ENDMDL
MODEL 7
REMARK VINA RESULT:      -6.7      2.240      8.303
REMARK  7 active torsions:
REMARK  status: ('A' for Active; 'I' for Inactive)
REMARK    1  A    between atoms: C_1  and  C_2 
REMARK    2  A    between atoms: C_7  and  C_30 
REMARK    3  A    between atoms: C_8  and  C_10 
REMARK    4  A    between atoms: C_10  and  O_11 
REMARK    5  A    between atoms: O_11  and  C_12 
REMARK    6  A    between atoms: C_27  and  C_28 
REMARK    7  A    between atoms: C_27  and  C_29 
ROOT
ATOM      1  C   LIG d   1       3.457   0.861 -10.568  0.00  0.00    -0.070 C 
ATOM      2  C   LIG d   1       4.232   0.537 -11.553  0.00  0.00    -0.084 C 
ATOM      3  C   LIG d   1       4.286  -0.830 -12.160  0.00  0.00    -0.030 C 
ATOM      4  C   LIG d   1       3.650  -1.871 -11.230  0.00  0.00    -0.020 C 
ATOM      5  H   LIG d   1       4.306  -2.065 -10.381  0.00  0.00     0.032 H 
ATOM      6  C   LIG d   1       2.300  -1.334 -10.740  0.00  0.00    -0.018 C 
ATOM      7  C   LIG d   1       2.528  -0.096  -9.889  0.00  0.00     0.020 C 
ATOM      8  H   LIG d   1       1.573   0.399  -9.709  0.00  0.00     0.038 H 
ATOM      9  C   LIG d   1       1.604  -2.377  -9.858  0.00  0.00    -0.040 C 
ATOM     10  C   LIG d   1       1.306  -3.640 -10.668  0.00  0.00     0.007 C 
ATOM     11  C   LIG d   1       2.611  -4.130 -11.258  0.00  0.00     0.139 C 
ATOM     12  O   LIG d   1       2.979  -5.269 -11.098  0.00  0.00    -0.297 OA
ATOM     13  C   LIG d   1       3.454  -3.154 -12.049  0.00  0.00     0.027 C 
ATOM     14  H   LIG d   1       4.879   1.300 -11.962  0.00  0.00     0.057 H 
ATOM     15  H   LIG d   1       3.748  -0.822 -13.108  0.00  0.00     0.031 H 
ATOM     16  H   LIG d   1       5.326  -1.100 -12.342  0.00  0.00     0.031 H 
ATOM     17  H   LIG d   1       2.253  -2.630  -9.019  0.00  0.00     0.028 H 
ATOM     18  H   LIG d   1       0.670  -1.962  -9.479  0.00  0.00     0.028 H 
ATOM     19  H   LIG d   1       0.885  -4.404 -10.017  0.00  0.00     0.034 H 
ATOM     20  H   LIG d   1       0.604  -3.406 -11.468  0.00  0.00     0.034 H 
ENDROOT
BRANCH   7  21
ATOM     21  C   LIG d   1       3.133  -0.518  -8.548  0.00  0.00     0.097 C 
ATOM     22  H   LIG d   1       2.903  -1.566  -8.359  0.00  0.00     0.070 H 
ATOM     23  H   LIG d   1       4.215  -0.383  -8.580  0.00  0.00     0.070 H 
BRANCH  21  24
ATOM     24  O   LIG d   1       2.584   0.286  -7.503  0.00  0.00    -0.491 OA
BRANCH  24  25
ATOM     25  C   LIG d   1       2.994   0.018  -6.238  0.00  0.00     0.124 A 
ATOM     26  C   LIG d   1       4.213  -0.607  -6.028  0.00  0.00     0.023 A 
ATOM     27  C   LIG d   1       4.636  -0.875  -4.735  0.00  0.00     0.142 A 
ATOM     28  H   LIG d   1       4.832  -0.882  -6.869  0.00  0.00     0.069 H 
ATOM     29  C   LIG d   1       3.814  -0.516  -3.650  0.00  0.00     0.018 A 
ATOM     30  O   LIG d   1       5.822  -1.481  -4.509  0.00  0.00    -0.422 OA
ATOM     31  C   LIG d   1       2.585   0.111  -3.881  0.00  0.00    -0.048 A 
ATOM     32  C   LIG d   1       4.268  -0.809  -2.290  0.00  0.00    -0.044 A 
ATOM     33  C   LIG d   1       2.185   0.372  -5.160  0.00  0.00    -0.019 A 
ATOM     34  H   LIG d   1       1.954   0.388  -3.049  0.00  0.00     0.063 H 
ATOM     35  H   LIG d   1       1.236   0.856  -5.337  0.00  0.00     0.065 H 
ATOM     36  C   LIG d   1       5.472  -1.420  -2.132  0.00  0.00     0.024 A 
ATOM     37  H   LIG d   1       3.663  -0.547  -1.435  0.00  0.00     0.063 H 
ATOM     38  C   LIG d   1       6.243  -1.752  -3.264  0.00  0.00     0.337 A 
ATOM     39  H   LIG d   1       5.836  -1.650  -1.141  0.00  0.00     0.069 H 
ATOM     40  O   LIG d   1       7.320  -2.299  -3.109  0.00  0.00    -0.245 OA
ENDBRANCH  24  25
ENDBRANCH  21  24
ENDBRANCH   7  21
BRANCH   1  41
ATOM     41  C   LIG d   1       3.496   2.284 -10.073  0.00  0.00    -0.043 C 
ATOM     42  H   LIG d   1       2.500   2.720 -10.148  0.00  0.00     0.027 H 
ATOM     43  H   LIG d   1       3.823   2.298  -9.034  0.00  0.00     0.027 H 
ATOM     44  H   LIG d   1       4.193   2.860 -10.681  0.00  0.00     0.027 H 
ENDBRANCH   1  41
BRANCH   6  45
ATOM     45  C   LIG d   1       1.418  -0.967 -11.936  0.00  0.00    -0.059 C 
ATOM     46  H   LIG d   1       0.732  -1.788 -12.145  0.00  0.00     0.024 H 
ATOM     47  H   LIG d   1       0.849  -0.067 -11.704  0.00  0.00     0.024 H 
ATOM     48  H   LIG d   1       2.046  -0.787 -12.808  0.00  0.00     0.024 H 
ENDBRANCH   6  45
BRANCH  13  49
ATOM     49  C   LIG d   1       4.818  -3.770 -12.366  0.00  0.00    -0.053 C 
ATOM     50  H   LIG d   1       4.954  -3.813 -13.447  0.00  0.00     0.024 H 
ATOM     51  H   LIG d   1       5.605  -3.160 -11.924  0.00  0.00     0.024 H 
ATOM     52  H   LIG d   1       4.866  -4.779 -11.954  0.00  0.00     0.024 H 
ENDBRANCH  13  49
BRANCH  13  53
ATOM     53  C   LIG d   1       2.730  -2.820 -13.355  0.00  0.00    -0.053 C 
ATOM     54  H   LIG d   1       2.075  -3.647 -13.629  0.00  0.00     0.024 H 
ATOM     55  H   LIG d   1       2.138  -1.916 -13.221  0.00  0.00     0.024 H 
ATOM     56  H   LIG d   1       3.464  -2.660 -14.146  0.00  0.00     0.024 H 
ENDBRANCH  13  53
TORSDOF 7
ENDMDL
MODEL 8
REMARK VINA RESULT:      -6.6      3.912      6.508
REMARK  7 active torsions:
REMARK  status: ('A' for Active; 'I' for Inactive)
REMARK    1  A    between atoms: C_1  and  C_2 
REMARK    2  A    between atoms: C_7  and  C_30 
REMARK    3  A    between atoms: C_8  and  C_10 
REMARK    4  A    between atoms: C_10  and  O_11 
REMARK    5  A    between atoms: O_11  and  C_12 
REMARK    6  A    between atoms: C_27  and  C_28 
REMARK    7  A    between atoms: C_27  and  C_29 
ROOT
ATOM      1  C   LIG d   1       6.656  -2.413  -6.545  0.00  0.00    -0.070 C 
ATOM      2  C   LIG d   1       6.388  -1.179  -6.831  0.00  0.00    -0.084 C 
ATOM      3  C   LIG d   1       5.431  -0.329  -6.056  0.00  0.00    -0.030 C 
ATOM      4  C   LIG d   1       4.519  -1.192  -5.174  0.00  0.00    -0.020 C 
ATOM      5  H   LIG d   1       3.783  -1.709  -5.789  0.00  0.00     0.032 H 
ATOM      6  C   LIG d   1       5.382  -2.208  -4.418  0.00  0.00    -0.018 C 
ATOM      7  C   LIG d   1       6.026  -3.161  -5.412  0.00  0.00     0.020 C 
ATOM      8  H   LIG d   1       6.791  -3.750  -4.903  0.00  0.00     0.038 H 
ATOM      9  C   LIG d   1       4.511  -3.046  -3.476  0.00  0.00    -0.040 C 
ATOM     10  C   LIG d   1       3.863  -2.150  -2.419  0.00  0.00     0.007 C 
ATOM     11  C   LIG d   1       3.092  -1.066  -3.142  0.00  0.00     0.139 C 
ATOM     12  O   LIG d   1       1.927  -0.860  -2.896  0.00  0.00    -0.297 OA
ATOM     13  C   LIG d   1       3.812  -0.248  -4.190  0.00  0.00     0.027 C 
ATOM     14  H   LIG d   1       6.885  -0.737  -7.683  0.00  0.00     0.057 H 
ATOM     15  H   LIG d   1       5.994   0.358  -5.424  0.00  0.00     0.031 H 
ATOM     16  H   LIG d   1       4.818   0.245  -6.751  0.00  0.00     0.031 H 
ATOM     17  H   LIG d   1       3.733  -3.546  -4.053  0.00  0.00     0.028 H 
ATOM     18  H   LIG d   1       5.131  -3.795  -2.983  0.00  0.00     0.028 H 
ATOM     19  H   LIG d   1       3.184  -2.738  -1.803  0.00  0.00     0.034 H 
ATOM     20  H   LIG d   1       4.635  -1.700  -1.794  0.00  0.00     0.034 H 
ENDROOT
BRANCH   7  21
ATOM     21  C   LIG d   1       4.954  -4.103  -5.965  0.00  0.00     0.097 C 
ATOM     22  H   LIG d   1       4.365  -4.506  -5.143  0.00  0.00     0.070 H 
ATOM     23  H   LIG d   1       4.303  -3.551  -6.643  0.00  0.00     0.070 H 
BRANCH  21  24
ATOM     24  O   LIG d   1       5.581  -5.175  -6.672  0.00  0.00    -0.491 OA
BRANCH  24  25
ATOM     25  C   LIG d   1       5.826  -6.313  -5.975  0.00  0.00     0.124 A 
ATOM     26  C   LIG d   1       4.776  -7.148  -5.631  0.00  0.00     0.023 A 
ATOM     27  C   LIG d   1       5.028  -8.315  -4.924  0.00  0.00     0.142 A 
ATOM     28  H   LIG d   1       3.766  -6.894  -5.914  0.00  0.00     0.069 H 
ATOM     29  C   LIG d   1       6.349  -8.629  -4.556  0.00  0.00     0.018 A 
ATOM     30  O   LIG d   1       4.019  -9.145  -4.582  0.00  0.00    -0.422 OA
ATOM     31  C   LIG d   1       7.397  -7.771  -4.908  0.00  0.00    -0.048 A 
ATOM     32  C   LIG d   1       6.603  -9.859  -3.805  0.00  0.00    -0.044 A 
ATOM     33  C   LIG d   1       7.133  -6.629  -5.609  0.00  0.00    -0.019 A 
ATOM     34  H   LIG d   1       8.412  -8.012  -4.628  0.00  0.00     0.063 H 
ATOM     35  H   LIG d   1       7.942  -5.967  -5.881  0.00  0.00     0.065 H 
ATOM     36  C   LIG d   1       5.543 -10.651  -3.493  0.00  0.00     0.024 A 
ATOM     37  H   LIG d   1       7.605 -10.132  -3.508  0.00  0.00     0.063 H 
ATOM     38  C   LIG d   1       4.245 -10.275  -3.893  0.00  0.00     0.337 A 
ATOM     39  H   LIG d   1       5.696 -11.566  -2.940  0.00  0.00     0.069 H 
ATOM     40  O   LIG d   1       3.304 -10.993  -3.607  0.00  0.00    -0.245 OA
ENDBRANCH  24  25
ENDBRANCH  21  24
ENDBRANCH   7  21
BRANCH   1  41
ATOM     41  C   LIG d   1       7.657  -3.140  -7.405  0.00  0.00    -0.043 C 
ATOM     42  H   LIG d   1       8.563  -2.539  -7.493  0.00  0.00     0.027 H 
ATOM     43  H   LIG d   1       7.900  -4.099  -6.948  0.00  0.00     0.027 H 
ATOM     44  H   LIG d   1       7.233  -3.305  -8.394  0.00  0.00     0.027 H 
ENDBRANCH   1  41
BRANCH   6  45
ATOM     45  C   LIG d   1       6.478  -1.483  -3.634  0.00  0.00    -0.059 C 
ATOM     46  H   LIG d   1       6.341  -0.406  -3.730  0.00  0.00     0.024 H 
ATOM     47  H   LIG d   1       6.419  -1.765  -2.583  0.00  0.00     0.024 H 
ATOM     48  H   LIG d   1       7.454  -1.762  -4.031  0.00  0.00     0.024 H 
ENDBRANCH   6  45
BRANCH  13  49
ATOM     49  C   LIG d   1       2.818   0.630  -4.951  0.00  0.00    -0.053 C 
ATOM     50  H   LIG d   1       2.854   1.646  -4.556  0.00  0.00     0.024 H 
ATOM     51  H   LIG d   1       3.078   0.643  -6.010  0.00  0.00     0.024 H 
ATOM     52  H   LIG d   1       1.811   0.229  -4.829  0.00  0.00     0.024 H 
ENDBRANCH  13  49
BRANCH  13  53
ATOM     53  C   LIG d   1       4.850   0.639  -3.500  0.00  0.00    -0.053 C 
ATOM     54  H   LIG d   1       5.833   0.172  -3.573  0.00  0.00     0.024 H 
ATOM     55  H   LIG d   1       4.874   1.615  -3.983  0.00  0.00     0.024 H 
ATOM     56  H   LIG d   1       4.584   0.760  -2.449  0.00  0.00     0.024 H 
ENDBRANCH  13  53
TORSDOF 7
ENDMDL
MODEL 9
REMARK VINA RESULT:      -6.6      4.228      5.722
REMARK  7 active torsions:
REMARK  status: ('A' for Active; 'I' for Inactive)
REMARK    1  A    between atoms: C_1  and  C_2 
REMARK    2  A    between atoms: C_7  and  C_30 
REMARK    3  A    between atoms: C_8  and  C_10 
REMARK    4  A    between atoms: C_10  and  O_11 
REMARK    5  A    between atoms: O_11  and  C_12 
REMARK    6  A    between atoms: C_27  and  C_28 
REMARK    7  A    between atoms: C_27  and  C_29 
ROOT
ATOM      1  C   LIG d   1       7.956  -0.549  -4.857  0.00  0.00    -0.070 C 
ATOM      2  C   LIG d   1       7.717   0.630  -4.379  0.00  0.00    -0.084 C 
ATOM      3  C   LIG d   1       6.456   1.003  -3.665  0.00  0.00    -0.030 C 
ATOM      4  C   LIG d   1       5.347  -0.022  -3.936  0.00  0.00    -0.020 C 
ATOM      5  H   LIG d   1       4.973   0.090  -4.954  0.00  0.00     0.032 H 
ATOM      6  C   LIG d   1       5.918  -1.430  -3.737  0.00  0.00    -0.018 C 
ATOM      7  C   LIG d   1       6.992  -1.691  -4.780  0.00  0.00     0.020 C 
ATOM      8  H   LIG d   1       7.535  -2.601  -4.518  0.00  0.00     0.038 H 
ATOM      9  C   LIG d   1       4.820  -2.480  -3.935  0.00  0.00    -0.040 C 
ATOM     10  C   LIG d   1       3.721  -2.300  -2.886  0.00  0.00     0.007 C 
ATOM     11  C   LIG d   1       3.214  -0.877  -2.986  0.00  0.00     0.139 C 
ATOM     12  O   LIG d   1       2.036  -0.643  -3.117  0.00  0.00    -0.297 OA
ATOM     13  C   LIG d   1       4.221   0.250  -2.929  0.00  0.00     0.027 C 
ATOM     14  H   LIG d   1       8.474   1.391  -4.504  0.00  0.00     0.057 H 
ATOM     15  H   LIG d   1       6.651   1.045  -2.594  0.00  0.00     0.031 H 
ATOM     16  H   LIG d   1       6.128   1.985  -4.008  0.00  0.00     0.031 H 
ATOM     17  H   LIG d   1       4.390  -2.369  -4.931  0.00  0.00     0.028 H 
ATOM     18  H   LIG d   1       5.252  -3.476  -3.838  0.00  0.00     0.028 H 
ATOM     19  H   LIG d   1       2.907  -2.997  -3.082  0.00  0.00     0.034 H 
ATOM     20  H   LIG d   1       4.130  -2.477  -1.891  0.00  0.00     0.034 H 
ENDROOT
BRANCH   7  21
ATOM     21  C   LIG d   1       6.326  -1.880  -6.145  0.00  0.00     0.097 C 
ATOM     22  H   LIG d   1       5.303  -2.228  -6.005  0.00  0.00     0.070 H 
ATOM     23  H   LIG d   1       6.318  -0.930  -6.678  0.00  0.00     0.070 H 
BRANCH  21  24
ATOM     24  O   LIG d   1       7.057  -2.846  -6.902  0.00  0.00    -0.491 OA
BRANCH  24  25
ATOM     25  C   LIG d   1       7.170  -4.090  -6.371  0.00  0.00     0.124 A 
ATOM     26  C   LIG d   1       6.052  -4.903  -6.283  0.00  0.00     0.023 A 
ATOM     27  C   LIG d   1       6.168  -6.177  -5.746  0.00  0.00     0.142 A 
ATOM     28  H   LIG d   1       5.095  -4.549  -6.634  0.00  0.00     0.069 H 
ATOM     29  C   LIG d   1       7.422  -6.622  -5.287  0.00  0.00     0.018 A 
ATOM     30  O   LIG d   1       5.092  -6.987  -5.655  0.00  0.00    -0.422 OA
ATOM     31  C   LIG d   1       8.539  -5.785  -5.380  0.00  0.00    -0.048 A 
ATOM     32  C   LIG d   1       7.532  -7.966  -4.717  0.00  0.00    -0.044 A 
ATOM     33  C   LIG d   1       8.409  -4.536  -5.915  0.00  0.00    -0.019 A 
ATOM     34  H   LIG d   1       9.502  -6.126  -5.029  0.00  0.00     0.063 H 
ATOM     35  H   LIG d   1       9.272  -3.890  -5.987  0.00  0.00     0.065 H 
ATOM     36  C   LIG d   1       6.410  -8.731  -4.655  0.00  0.00     0.024 A 
ATOM     37  H   LIG d   1       8.478  -8.340  -4.356  0.00  0.00     0.063 H 
ATOM     38  C   LIG d   1       5.186  -8.220  -5.133  0.00  0.00     0.337 A 
ATOM     39  H   LIG d   1       6.457  -9.727  -4.240  0.00  0.00     0.069 H 
ATOM     40  O   LIG d   1       4.188  -8.916  -5.071  0.00  0.00    -0.245 OA
ENDBRANCH  24  25
ENDBRANCH  21  24
ENDBRANCH   7  21
BRANCH   1  41
ATOM     41  C   LIG d   1       9.282  -0.784  -5.535  0.00  0.00    -0.043 C 
ATOM     42  H   LIG d   1      10.053  -0.198  -5.035  0.00  0.00     0.027 H 
ATOM     43  H   LIG d   1       9.535  -1.843  -5.479  0.00  0.00     0.027 H 
ATOM     44  H   LIG d   1       9.214  -0.482  -6.579  0.00  0.00     0.027 H 
ENDBRANCH   1  41
BRANCH   6  45
ATOM     45  C   LIG d   1       6.532  -1.553  -2.340  0.00  0.00    -0.059 C 
ATOM     46  H   LIG d   1       6.856  -0.569  -1.999  0.00  0.00     0.024 H 
ATOM     47  H   LIG d   1       5.788  -1.951  -1.650  0.00  0.00     0.024 H 
ATOM     48  H   LIG d   1       7.390  -2.225  -2.379  0.00  0.00     0.024 H 
ENDBRANCH   6  45
BRANCH  13  49
ATOM     49  C   LIG d   1       3.544   1.580  -3.266  0.00  0.00    -0.053 C 
ATOM     50  H   LIG d   1       2.562   1.618  -2.794  0.00  0.00     0.024 H 
ATOM     51  H   LIG d   1       4.157   2.404  -2.899  0.00  0.00     0.024 H 
ATOM     52  H   LIG d   1       3.430   1.666  -4.347  0.00  0.00     0.024 H 
ENDBRANCH  13  49
BRANCH  13  53
ATOM     53  C   LIG d   1       4.805   0.320  -1.517  0.00  0.00    -0.053 C 
ATOM     54  H   LIG d   1       5.349   1.257  -1.395  0.00  0.00     0.024 H 
ATOM     55  H   LIG d   1       3.999   0.270  -0.786  0.00  0.00     0.024 H 
ATOM     56  H   LIG d   1       5.487  -0.517  -1.364  0.00  0.00     0.024 H 
ENDBRANCH  13  53
TORSDOF 7
ENDMDL
