MODEL 1
REMARK VINA RESULT:      -7.0      0.000      0.000
REMARK  15 active torsions:
REMARK  status: ('A' for Active; 'I' for Inactive)
REMARK    1  A    between atoms: C_1  and  N_2 
REMARK    2  A    between atoms: N_2  and  C_3 
REMARK       I    between atoms: N_2  and  C_18 
REMARK    3  A    between atoms: C_3  and  C_4 
REMARK    4  A    between atoms: C_4  and  C_6 
REMARK    5  A    between atoms: C_4  and  O_17 
REMARK    6  A    between atoms: C_6  and  C_8 
REMARK    7  A    between atoms: C_6  and  O_16 
REMARK    8  A    between atoms: C_8  and  C_10 
REMARK    9  A    between atoms: C_8  and  O_15 
REMARK   10  A    between atoms: C_10  and  C_12 
REMARK   11  A    between atoms: C_10  and  O_14 
REMARK   12  A    between atoms: C_12  and  O_13 
REMARK   13  A    between atoms: C_18  and  C_20 
REMARK   14  A    between atoms: C_20  and  O_21 
REMARK   15  A    between atoms: O_21  and  C_22 
ROOT
ATOM      1  N   LIG d   1       9.932   5.660  -3.211  0.00  0.00    -0.299 N 
ATOM      2  C   LIG d   1       9.786   5.047  -4.402  0.00  0.00     0.253 C 
ATOM      3  O   LIG d   1       9.370   5.668  -5.356  0.00  0.00    -0.272 OA
ENDROOT
BRANCH   1   4
ATOM      4  C   LIG d   1      10.433   4.910  -2.057  0.00  0.00     0.003 C 
ATOM      5  H   LIG d   1       9.938   3.940  -2.011  0.00  0.00     0.043 H 
ATOM      6  H   LIG d   1      11.509   4.764  -2.158  0.00  0.00     0.043 H 
ATOM      7  H   LIG d   1      10.227   5.468  -1.143  0.00  0.00     0.043 H 
ENDBRANCH   1   4
BRANCH   1   8
ATOM      8  C   LIG d   1       9.589   7.078  -3.070  0.00  0.00     0.043 C 
ATOM      9  H   LIG d   1      10.337   7.685  -3.580  0.00  0.00     0.049 H 
ATOM     10  H   LIG d   1       8.609   7.261  -3.512  0.00  0.00     0.049 H 
BRANCH   8  11
ATOM     11  C   LIG d   1       9.555   7.449  -1.586  0.00  0.00     0.099 C 
ATOM     12  H   LIG d   1      10.037   6.664  -1.004  0.00  0.00     0.064 H 
BRANCH  11  13
ATOM     13  C   LIG d   1      10.300   8.769  -1.375  0.00  0.00     0.111 C 
ATOM     14  H   LIG d   1       9.912   9.267  -0.486  0.00  0.00     0.065 H 
BRANCH  13  15
ATOM     15  C   LIG d   1      10.093   9.671  -2.594  0.00  0.00     0.111 C 
ATOM     16  H   LIG d   1       9.617   9.100  -3.391  0.00  0.00     0.065 H 
BRANCH  15  17
ATOM     17  C   LIG d   1       9.203  10.853  -2.210  0.00  0.00     0.106 C 
ATOM     18  H   LIG d   1       9.758  11.530  -1.560  0.00  0.00     0.064 H 
BRANCH  17  19
ATOM     19  C   LIG d   1       8.772  11.599  -3.474  0.00  0.00     0.073 C 
ATOM     20  H   LIG d   1       7.757  11.978  -3.346  0.00  0.00     0.058 H 
ATOM     21  H   LIG d   1       9.451  12.431  -3.655  0.00  0.00     0.058 H 
BRANCH  19  22
ATOM     22  O   LIG d   1       8.807  10.705  -4.590  0.00  0.00    -0.392 OA
ATOM     23  H   LIG d   1       9.388   9.942  -4.464  0.00  0.00     0.209 HD
ENDBRANCH  19  22
ENDBRANCH  17  19
BRANCH  17  24
ATOM     24  O   LIG d   1       8.046  10.374  -1.522  0.00  0.00    -0.387 OA
ATOM     25  H   LIG d   1       7.778  10.924  -0.773  0.00  0.00     0.210 HD
ENDBRANCH  17  24
ENDBRANCH  15  17
BRANCH  15  26
ATOM     26  O   LIG d   1      11.360  10.156  -3.047  0.00  0.00    -0.387 OA
ATOM     27  H   LIG d   1      12.095   9.947  -2.456  0.00  0.00     0.210 HD
ENDBRANCH  15  26
ENDBRANCH  13  15
BRANCH  13  28
ATOM     28  O   LIG d   1      11.695   8.509  -1.206  0.00  0.00    -0.387 OA
ATOM     29  H   LIG d   1      12.012   7.734  -1.689  0.00  0.00     0.210 HD
ENDBRANCH  13  28
ENDBRANCH  11  13
BRANCH  11  30
ATOM     30  O   LIG d   1       8.199   7.594  -1.161  0.00  0.00    -0.388 OA
ATOM     31  H   LIG d   1       7.720   8.303  -1.611  0.00  0.00     0.210 HD
ENDBRANCH  11  30
ENDBRANCH   8  11
ENDBRANCH   1   8
BRANCH   2  32
ATOM     32  C   LIG d   1      10.139   3.588  -4.546  0.00  0.00     0.165 C 
ATOM     33  H   LIG d   1      11.183   3.495  -4.845  0.00  0.00     0.080 H 
ATOM     34  H   LIG d   1       9.988   3.082  -3.593  0.00  0.00     0.080 H 
BRANCH  32  35
ATOM     35  O   LIG d   1       9.303   2.993  -5.541  0.00  0.00    -0.483 OA
BRANCH  35  36
ATOM     36  C   LIG d   1       8.435   2.035  -5.123  0.00  0.00     0.125 A 
ATOM     37  C   LIG d   1       7.681   2.243  -3.980  0.00  0.00     0.023 A 
ATOM     38  C   LIG d   1       6.789   1.272  -3.551  0.00  0.00     0.143 A 
ATOM     39  H   LIG d   1       7.784   3.164  -3.424  0.00  0.00     0.069 H 
ATOM     40  C   LIG d   1       6.663   0.080  -4.283  0.00  0.00     0.025 A 
ATOM     41  O   LIG d   1       6.052   1.470  -2.430  0.00  0.00    -0.422 OA
ATOM     42  C   LIG d   1       7.433  -0.123  -5.426  0.00  0.00    -0.047 A 
ATOM     43  C   LIG d   1       5.696  -0.934  -3.822  0.00  0.00    -0.000 A 
ATOM     44  C   LIG d   1       8.313   0.850  -5.842  0.00  0.00    -0.019 A 
ATOM     45  H   LIG d   1       7.339  -1.042  -5.986  0.00  0.00     0.063 H 
ATOM     46  H   LIG d   1       8.911   0.695  -6.728  0.00  0.00     0.065 H 
ATOM     47  C   LIG d   1       4.772  -0.544  -2.826  0.00  0.00     0.067 A 
ATOM     48  C   LIG d   1       5.667  -2.228  -4.322  0.00  0.00    -0.053 A 
ATOM     49  C   LIG d   1       3.835  -1.455  -2.356  0.00  0.00    -0.047 A 
ATOM     50  C   LIG d   1       4.857   0.841  -2.330  0.00  0.00     0.345 C 
ATOM     51  C   LIG d   1       3.820  -2.737  -2.866  0.00  0.00    -0.061 A 
ATOM     52  H   LIG d   1       3.123  -1.163  -1.597  0.00  0.00     0.063 H 
ATOM     53  C   LIG d   1       4.728  -3.121  -3.842  0.00  0.00    -0.061 A 
ATOM     54  H   LIG d   1       3.093  -3.449  -2.504  0.00  0.00     0.062 H 
ATOM     55  H   LIG d   1       4.702  -4.129  -4.228  0.00  0.00     0.062 H 
ATOM     56  O   LIG d   1       3.889   1.398  -1.847  0.00  0.00    -0.244 OA
ATOM     57  H   LIG d   1       6.370  -2.535  -5.082  0.00  0.00     0.062 H 
ENDBRANCH  35  36
ENDBRANCH  32  35
ENDBRANCH   2  32
TORSDOF 15
ENDMDL
MODEL 2
REMARK VINA RESULT:      -7.0      1.739      3.074
REMARK  15 active torsions:
REMARK  status: ('A' for Active; 'I' for Inactive)
REMARK    1  A    between atoms: C_1  and  N_2 
REMARK    2  A    between atoms: N_2  and  C_3 
REMARK       I    between atoms: N_2  and  C_18 
REMARK    3  A    between atoms: C_3  and  C_4 
REMARK    4  A    between atoms: C_4  and  C_6 
REMARK    5  A    between atoms: C_4  and  O_17 
REMARK    6  A    between atoms: C_6  and  C_8 
REMARK    7  A    between atoms: C_6  and  O_16 
REMARK    8  A    between atoms: C_8  and  C_10 
REMARK    9  A    between atoms: C_8  and  O_15 
REMARK   10  A    between atoms: C_10  and  C_12 
REMARK   11  A    between atoms: C_10  and  O_14 
REMARK   12  A    between atoms: C_12  and  O_13 
REMARK   13  A    between atoms: C_18  and  C_20 
REMARK   14  A    between atoms: C_20  and  O_21 
REMARK   15  A    between atoms: O_21  and  C_22 
ROOT
ATOM      1  N   LIG d   1      10.439   5.446  -5.894  0.00  0.00    -0.299 N 
ATOM      2  C   LIG d   1      10.585   4.228  -5.334  0.00  0.00     0.253 C 
ATOM      3  O   LIG d   1      11.056   4.126  -4.222  0.00  0.00    -0.272 OA
ENDROOT
BRANCH   1   4
ATOM      4  C   LIG d   1       9.870   5.571  -7.239  0.00  0.00     0.003 C 
ATOM      5  H   LIG d   1       9.271   6.479  -7.296  0.00  0.00     0.043 H 
ATOM      6  H   LIG d   1      10.676   5.620  -7.971  0.00  0.00     0.043 H 
ATOM      7  H   LIG d   1       9.241   4.706  -7.448  0.00  0.00     0.043 H 
ENDBRANCH   1   4
BRANCH   1   8
ATOM      8  C   LIG d   1      10.851   6.645  -5.159  0.00  0.00     0.043 C 
ATOM      9  H   LIG d   1      11.648   6.386  -4.461  0.00  0.00     0.049 H 
ATOM     10  H   LIG d   1      11.211   7.396  -5.861  0.00  0.00     0.049 H 
BRANCH   8  11
ATOM     11  C   LIG d   1       9.654   7.202  -4.385  0.00  0.00     0.099 C 
ATOM     12  H   LIG d   1       8.916   6.415  -4.240  0.00  0.00     0.064 H 
BRANCH  11  13
ATOM     13  C   LIG d   1      10.126   7.715  -3.022  0.00  0.00     0.111 C 
ATOM     14  H   LIG d   1      11.214   7.778  -3.013  0.00  0.00     0.065 H 
BRANCH  13  15
ATOM     15  C   LIG d   1       9.662   6.753  -1.926  0.00  0.00     0.111 C 
ATOM     16  H   LIG d   1       8.983   6.015  -2.354  0.00  0.00     0.065 H 
BRANCH  15  17
ATOM     17  C   LIG d   1      10.876   6.042  -1.325  0.00  0.00     0.106 C 
ATOM     18  H   LIG d   1      11.767   6.296  -1.899  0.00  0.00     0.064 H 
BRANCH  17  19
ATOM     19  C   LIG d   1      11.060   6.488   0.127  0.00  0.00     0.073 C 
ATOM     20  H   LIG d   1      12.124   6.585   0.346  0.00  0.00     0.058 H 
ATOM     21  H   LIG d   1      10.568   7.448   0.277  0.00  0.00     0.058 H 
BRANCH  19  22
ATOM     22  O   LIG d   1      10.482   5.515   1.001  0.00  0.00    -0.392 OA
ATOM     23  H   LIG d   1      11.048   5.268   1.745  0.00  0.00     0.209 HD
ENDBRANCH  19  22
ENDBRANCH  17  19
BRANCH  17  24
ATOM     24  O   LIG d   1      10.668   4.629  -1.367  0.00  0.00    -0.387 OA
ATOM     25  H   LIG d   1       9.780   4.354  -1.104  0.00  0.00     0.210 HD
ENDBRANCH  17  24
ENDBRANCH  15  17
BRANCH  15  26
ATOM     26  O   LIG d   1       8.984   7.486  -0.903  0.00  0.00    -0.387 OA
ATOM     27  H   LIG d   1       9.253   8.413  -0.840  0.00  0.00     0.210 HD
ENDBRANCH  15  26
ENDBRANCH  13  15
BRANCH  13  28
ATOM     28  O   LIG d   1       9.572   9.011  -2.783  0.00  0.00    -0.387 OA
ATOM     29  H   LIG d   1       8.658   8.996  -2.468  0.00  0.00     0.210 HD
ENDBRANCH  13  28
ENDBRANCH  11  13
BRANCH  11  30
ATOM     30  O   LIG d   1       9.069   8.277  -5.121  0.00  0.00    -0.388 OA
ATOM     31  H   LIG d   1       8.636   8.943  -4.570  0.00  0.00     0.210 HD
ENDBRANCH  11  30
ENDBRANCH   8  11
ENDBRANCH   1   8
BRANCH   2  32
ATOM     32  C   LIG d   1      10.161   2.995  -6.091  0.00  0.00     0.165 C 
ATOM     33  H   LIG d   1       9.108   3.075  -6.357  0.00  0.00     0.080 H 
ATOM     34  H   LIG d   1      10.758   2.904  -6.999  0.00  0.00     0.080 H 
BRANCH  32  35
ATOM     35  O   LIG d   1      10.361   1.842  -5.271  0.00  0.00    -0.483 OA
BRANCH  35  36
ATOM     36  C   LIG d   1       9.249   1.189  -4.845  0.00  0.00     0.125 A 
ATOM     37  C   LIG d   1       8.286   1.872  -4.120  0.00  0.00     0.023 A 
ATOM     38  C   LIG d   1       7.146   1.212  -3.688  0.00  0.00     0.143 A 
ATOM     39  H   LIG d   1       8.421   2.920  -3.896  0.00  0.00     0.069 H 
ATOM     40  C   LIG d   1       6.982  -0.150  -3.987  0.00  0.00     0.025 A 
ATOM     41  O   LIG d   1       6.203   1.876  -2.973  0.00  0.00    -0.422 OA
ATOM     42  C   LIG d   1       7.960  -0.830  -4.710  0.00  0.00    -0.047 A 
ATOM     43  C   LIG d   1       5.754  -0.831  -3.534  0.00  0.00    -0.000 A 
ATOM     44  C   LIG d   1       9.086  -0.162  -5.135  0.00  0.00    -0.019 A 
ATOM     45  H   LIG d   1       7.835  -1.879  -4.936  0.00  0.00     0.063 H 
ATOM     46  H   LIG d   1       9.846  -0.688  -5.695  0.00  0.00     0.065 H 
ATOM     47  C   LIG d   1       4.702  -0.019  -3.051  0.00  0.00     0.067 A 
ATOM     48  C   LIG d   1       5.604  -2.210  -3.564  0.00  0.00    -0.053 A 
ATOM     49  C   LIG d   1       3.520  -0.604  -2.615  0.00  0.00    -0.047 A 
ATOM     50  C   LIG d   1       4.923   1.437  -3.038  0.00  0.00     0.345 C 
ATOM     51  C   LIG d   1       3.389  -1.977  -2.653  0.00  0.00    -0.061 A 
ATOM     52  H   LIG d   1       2.710   0.011  -2.248  0.00  0.00     0.063 H 
ATOM     53  C   LIG d   1       4.422  -2.774  -3.125  0.00  0.00    -0.061 A 
ATOM     54  H   LIG d   1       2.471  -2.437  -2.315  0.00  0.00     0.062 H 
ATOM     55  H   LIG d   1       4.301  -3.847  -3.146  0.00  0.00     0.062 H 
ATOM     56  O   LIG d   1       3.991   2.217  -3.083  0.00  0.00    -0.244 OA
ATOM     57  H   LIG d   1       6.403  -2.838  -3.930  0.00  0.00     0.062 H 
ENDBRANCH  35  36
ENDBRANCH  32  35
ENDBRANCH   2  32
TORSDOF 15
ENDMDL
MODEL 3
REMARK VINA RESULT:      -6.9      1.275      1.666
REMARK  15 active torsions:
REMARK  status: ('A' for Active; 'I' for Inactive)
REMARK    1  A    between atoms: C_1  and  N_2 
REMARK    2  A    between atoms: N_2  and  C_3 
REMARK       I    between atoms: N_2  and  C_18 
REMARK    3  A    between atoms: C_3  and  C_4 
REMARK    4  A    between atoms: C_4  and  C_6 
REMARK    5  A    between atoms: C_4  and  O_17 
REMARK    6  A    between atoms: C_6  and  C_8 
REMARK    7  A    between atoms: C_6  and  O_16 
REMARK    8  A    between atoms: C_8  and  C_10 
REMARK    9  A    between atoms: C_8  and  O_15 
REMARK   10  A    between atoms: C_10  and  C_12 
REMARK   11  A    between atoms: C_10  and  O_14 
REMARK   12  A    between atoms: C_12  and  O_13 
REMARK   13  A    between atoms: C_18  and  C_20 
REMARK   14  A    between atoms: C_20  and  O_21 
REMARK   15  A    between atoms: O_21  and  C_22 
ROOT
ATOM      1  N   LIG d   1      11.516   5.367  -3.838  0.00  0.00    -0.299 N 
ATOM      2  C   LIG d   1      10.435   4.851  -4.455  0.00  0.00     0.253 C 
ATOM      3  O   LIG d   1       9.521   5.576  -4.784  0.00  0.00    -0.272 OA
ENDROOT
BRANCH   1   4
ATOM      4  C   LIG d   1      12.621   4.491  -3.440  0.00  0.00     0.003 C 
ATOM      5  H   LIG d   1      12.796   3.750  -4.221  0.00  0.00     0.043 H 
ATOM      6  H   LIG d   1      13.523   5.086  -3.295  0.00  0.00     0.043 H 
ATOM      7  H   LIG d   1      12.365   3.985  -2.509  0.00  0.00     0.043 H 
ENDBRANCH   1   4
BRANCH   1   8
ATOM      8  C   LIG d   1      11.588   6.805  -3.565  0.00  0.00     0.043 C 
ATOM      9  H   LIG d   1      12.626   7.134  -3.620  0.00  0.00     0.049 H 
ATOM     10  H   LIG d   1      10.997   7.345  -4.305  0.00  0.00     0.049 H 
BRANCH   8  11
ATOM     11  C   LIG d   1      11.035   7.086  -2.167  0.00  0.00     0.099 C 
ATOM     12  H   LIG d   1      11.861   7.193  -1.465  0.00  0.00     0.064 H 
BRANCH  11  13
ATOM     13  C   LIG d   1      10.218   8.380  -2.193  0.00  0.00     0.111 C 
ATOM     14  H   LIG d   1      10.892   9.237  -2.191  0.00  0.00     0.065 H 
BRANCH  13  15
ATOM     15  C   LIG d   1       9.316   8.438  -0.958  0.00  0.00     0.111 C 
ATOM     16  H   LIG d   1       9.837   7.999  -0.107  0.00  0.00     0.065 H 
BRANCH  15  17
ATOM     17  C   LIG d   1       8.968   9.895  -0.649  0.00  0.00     0.106 C 
ATOM     18  H   LIG d   1       8.593   9.969   0.372  0.00  0.00     0.064 H 
BRANCH  17  19
ATOM     19  C   LIG d   1      10.221  10.761  -0.796  0.00  0.00     0.073 C 
ATOM     20  H   LIG d   1      10.787  10.744   0.136  0.00  0.00     0.058 H 
ATOM     21  H   LIG d   1      10.840  10.370  -1.603  0.00  0.00     0.058 H 
BRANCH  19  22
ATOM     22  O   LIG d   1       9.839  12.105  -1.097  0.00  0.00    -0.392 OA
ATOM     23  H   LIG d   1      10.099  12.749  -0.423  0.00  0.00     0.209 HD
ENDBRANCH  19  22
ENDBRANCH  17  19
BRANCH  17  24
ATOM     24  O   LIG d   1       7.966  10.350  -1.559  0.00  0.00    -0.387 OA
ATOM     25  H   LIG d   1       7.364  11.008  -1.185  0.00  0.00     0.210 HD
ENDBRANCH  17  24
ENDBRANCH  15  17
BRANCH  15  26
ATOM     26  O   LIG d   1       8.115   7.705  -1.211  0.00  0.00    -0.387 OA
ATOM     27  H   LIG d   1       8.211   7.011  -1.876  0.00  0.00     0.210 HD
ENDBRANCH  15  26
ENDBRANCH  13  15
BRANCH  13  28
ATOM     28  O   LIG d   1       9.412   8.411  -3.373  0.00  0.00    -0.387 OA
ATOM     29  H   LIG d   1       8.474   8.570  -3.205  0.00  0.00     0.210 HD
ENDBRANCH  13  28
ENDBRANCH  11  13
BRANCH  11  30
ATOM     30  O   LIG d   1      10.199   6.003  -1.759  0.00  0.00    -0.388 OA
ATOM     31  H   LIG d   1       9.663   6.192  -0.976  0.00  0.00     0.210 HD
ENDBRANCH  11  30
ENDBRANCH   8  11
ENDBRANCH   1   8
BRANCH   2  32
ATOM     32  C   LIG d   1      10.362   3.372  -4.735  0.00  0.00     0.165 C 
ATOM     33  H   LIG d   1      11.272   3.052  -5.242  0.00  0.00     0.080 H 
ATOM     34  H   LIG d   1      10.261   2.829  -3.795  0.00  0.00     0.080 H 
BRANCH  32  35
ATOM     35  O   LIG d   1       9.232   3.100  -5.567  0.00  0.00    -0.483 OA
BRANCH  35  36
ATOM     36  C   LIG d   1       8.384   2.123  -5.153  0.00  0.00     0.125 A 
ATOM     37  C   LIG d   1       7.647   2.297  -3.993  0.00  0.00     0.023 A 
ATOM     38  C   LIG d   1       6.776   1.306  -3.569  0.00  0.00     0.143 A 
ATOM     39  H   LIG d   1       7.749   3.207  -3.421  0.00  0.00     0.069 H 
ATOM     40  C   LIG d   1       6.653   0.128  -4.323  0.00  0.00     0.025 A 
ATOM     41  O   LIG d   1       6.057   1.470  -2.431  0.00  0.00    -0.422 OA
ATOM     42  C   LIG d   1       7.404  -0.042  -5.484  0.00  0.00    -0.047 A 
ATOM     43  C   LIG d   1       5.707  -0.909  -3.866  0.00  0.00    -0.000 A 
ATOM     44  C   LIG d   1       8.264   0.951  -5.895  0.00  0.00    -0.019 A 
ATOM     45  H   LIG d   1       7.312  -0.951  -6.061  0.00  0.00     0.063 H 
ATOM     46  H   LIG d   1       8.848   0.822  -6.795  0.00  0.00     0.065 H 
ATOM     47  C   LIG d   1       4.796  -0.552  -2.846  0.00  0.00     0.067 A 
ATOM     48  C   LIG d   1       5.685  -2.193  -4.393  0.00  0.00    -0.053 A 
ATOM     49  C   LIG d   1       3.879  -1.485  -2.378  0.00  0.00    -0.047 A 
ATOM     50  C   LIG d   1       4.872   0.823  -2.323  0.00  0.00     0.345 C 
ATOM     51  C   LIG d   1       3.872  -2.756  -2.915  0.00  0.00    -0.061 A 
ATOM     52  H   LIG d   1       3.178  -1.218  -1.601  0.00  0.00     0.063 H 
ATOM     53  C   LIG d   1       4.768  -3.108  -3.915  0.00  0.00    -0.061 A 
ATOM     54  H   LIG d   1       3.161  -3.485  -2.555  0.00  0.00     0.062 H 
ATOM     55  H   LIG d   1       4.748  -4.108  -4.322  0.00  0.00     0.062 H 
ATOM     56  O   LIG d   1       3.907   1.357  -1.811  0.00  0.00    -0.244 OA
ATOM     57  H   LIG d   1       6.379  -2.474  -5.172  0.00  0.00     0.062 H 
ENDBRANCH  35  36
ENDBRANCH  32  35
ENDBRANCH   2  32
TORSDOF 15
ENDMDL
MODEL 4
REMARK VINA RESULT:      -6.9      8.158     13.914
REMARK  15 active torsions:
REMARK  status: ('A' for Active; 'I' for Inactive)
REMARK    1  A    between atoms: C_1  and  N_2 
REMARK    2  A    between atoms: N_2  and  C_3 
REMARK       I    between atoms: N_2  and  C_18 
REMARK    3  A    between atoms: C_3  and  C_4 
REMARK    4  A    between atoms: C_4  and  C_6 
REMARK    5  A    between atoms: C_4  and  O_17 
REMARK    6  A    between atoms: C_6  and  C_8 
REMARK    7  A    between atoms: C_6  and  O_16 
REMARK    8  A    between atoms: C_8  and  C_10 
REMARK    9  A    between atoms: C_8  and  O_15 
REMARK   10  A    between atoms: C_10  and  C_12 
REMARK   11  A    between atoms: C_10  and  O_14 
REMARK   12  A    between atoms: C_12  and  O_13 
REMARK   13  A    between atoms: C_18  and  C_20 
REMARK   14  A    between atoms: C_20  and  O_21 
REMARK   15  A    between atoms: O_21  and  C_22 
ROOT
ATOM      1  N   LIG d   1       1.132  -4.563 -10.403  0.00  0.00    -0.299 N 
ATOM      2  C   LIG d   1       1.648  -3.321 -10.310  0.00  0.00     0.253 C 
ATOM      3  O   LIG d   1       0.975  -2.361 -10.620  0.00  0.00    -0.272 OA
ENDROOT
BRANCH   1   4
ATOM      4  C   LIG d   1       1.945  -5.724 -10.029  0.00  0.00     0.003 C 
ATOM      5  H   LIG d   1       2.241  -5.638  -8.983  0.00  0.00     0.043 H 
ATOM      6  H   LIG d   1       1.363  -6.635 -10.168  0.00  0.00     0.043 H 
ATOM      7  H   LIG d   1       2.835  -5.761 -10.657  0.00  0.00     0.043 H 
ENDBRANCH   1   4
BRANCH   1   8
ATOM      8  C   LIG d   1      -0.241  -4.753 -10.877  0.00  0.00     0.043 C 
ATOM      9  H   LIG d   1      -0.939  -4.524 -10.071  0.00  0.00     0.049 H 
ATOM     10  H   LIG d   1      -0.429  -4.088 -11.721  0.00  0.00     0.049 H 
BRANCH   8  11
ATOM     11  C   LIG d   1      -0.431  -6.206 -11.320  0.00  0.00     0.099 C 
ATOM     12  H   LIG d   1       0.455  -6.783 -11.059  0.00  0.00     0.064 H 
BRANCH  11  13
ATOM     13  C   LIG d   1      -1.652  -6.797 -10.612  0.00  0.00     0.111 C 
ATOM     14  H   LIG d   1      -2.477  -6.881 -11.319  0.00  0.00     0.065 H 
BRANCH  13  15
ATOM     15  C   LIG d   1      -2.064  -5.883  -9.456  0.00  0.00     0.111 C 
ATOM     16  H   LIG d   1      -1.694  -4.874  -9.641  0.00  0.00     0.065 H 
BRANCH  15  17
ATOM     17  C   LIG d   1      -3.589  -5.854  -9.345  0.00  0.00     0.106 C 
ATOM     18  H   LIG d   1      -3.881  -6.019  -8.308  0.00  0.00     0.064 H 
BRANCH  17  19
ATOM     19  C   LIG d   1      -4.109  -4.493  -9.812  0.00  0.00     0.073 C 
ATOM     20  H   LIG d   1      -3.270  -3.811  -9.950  0.00  0.00     0.058 H 
ATOM     21  H   LIG d   1      -4.640  -4.611 -10.756  0.00  0.00     0.058 H 
BRANCH  19  22
ATOM     22  O   LIG d   1      -4.999  -3.961  -8.829  0.00  0.00    -0.392 OA
ATOM     23  H   LIG d   1      -4.913  -4.370  -7.956  0.00  0.00     0.209 HD
ENDBRANCH  19  22
ENDBRANCH  17  19
BRANCH  17  24
ATOM     24  O   LIG d   1      -4.145  -6.883 -10.165  0.00  0.00    -0.387 OA
ATOM     25  H   LIG d   1      -3.670  -7.025 -10.995  0.00  0.00     0.210 HD
ENDBRANCH  17  24
ENDBRANCH  15  17
BRANCH  15  26
ATOM     26  O   LIG d   1      -1.507  -6.377  -8.236  0.00  0.00    -0.387 OA
ATOM     27  H   LIG d   1      -2.053  -7.042  -7.795  0.00  0.00     0.210 HD
ENDBRANCH  15  26
ENDBRANCH  13  15
BRANCH  13  28
ATOM     28  O   LIG d   1      -1.327  -8.092 -10.102  0.00  0.00    -0.387 OA
ATOM     29  H   LIG d   1      -0.407  -8.351 -10.245  0.00  0.00     0.210 HD
ENDBRANCH  13  28
ENDBRANCH  11  13
BRANCH  11  30
ATOM     30  O   LIG d   1      -0.632  -6.250 -12.733  0.00  0.00    -0.388 OA
ATOM     31  H   LIG d   1       0.088  -5.860 -13.246  0.00  0.00     0.210 HD
ENDBRANCH  11  30
ENDBRANCH   8  11
ENDBRANCH   1   8
BRANCH   2  32
ATOM     32  C   LIG d   1       3.060  -3.127  -9.821  0.00  0.00     0.165 C 
ATOM     33  H   LIG d   1       3.195  -3.655  -8.878  0.00  0.00     0.080 H 
ATOM     34  H   LIG d   1       3.757  -3.521 -10.561  0.00  0.00     0.080 H 
BRANCH  32  35
ATOM     35  O   LIG d   1       3.309  -1.733  -9.628  0.00  0.00    -0.483 OA
BRANCH  35  36
ATOM     36  C   LIG d   1       3.471  -1.308  -8.348  0.00  0.00     0.125 A 
ATOM     37  C   LIG d   1       4.346  -1.974  -7.507  0.00  0.00     0.023 A 
ATOM     38  C   LIG d   1       4.520  -1.542  -6.202  0.00  0.00     0.143 A 
ATOM     39  H   LIG d   1       4.898  -2.829  -7.870  0.00  0.00     0.069 H 
ATOM     40  C   LIG d   1       3.798  -0.428  -5.743  0.00  0.00     0.025 A 
ATOM     41  O   LIG d   1       5.373  -2.195  -5.373  0.00  0.00    -0.422 OA
ATOM     42  C   LIG d   1       2.913   0.231  -6.593  0.00  0.00    -0.047 A 
ATOM     43  C   LIG d   1       4.008   0.029  -4.356  0.00  0.00    -0.000 A 
ATOM     44  C   LIG d   1       2.752  -0.209  -7.888  0.00  0.00    -0.019 A 
ATOM     45  H   LIG d   1       2.354   1.084  -6.238  0.00  0.00     0.063 H 
ATOM     46  H   LIG d   1       2.066   0.301  -8.550  0.00  0.00     0.065 H 
ATOM     47  C   LIG d   1       5.107  -0.516  -3.652  0.00  0.00     0.067 A 
ATOM     48  C   LIG d   1       3.181   0.954  -3.735  0.00  0.00    -0.053 A 
ATOM     49  C   LIG d   1       5.357  -0.120  -2.345  0.00  0.00    -0.047 A 
ATOM     50  C   LIG d   1       5.945  -1.498  -4.364  0.00  0.00     0.345 C 
ATOM     51  C   LIG d   1       4.525   0.801  -1.744  0.00  0.00    -0.061 A 
ATOM     52  H   LIG d   1       6.198  -0.530  -1.803  0.00  0.00     0.063 H 
ATOM     53  C   LIG d   1       3.445   1.334  -2.433  0.00  0.00    -0.061 A 
ATOM     54  H   LIG d   1       4.715   1.112  -0.728  0.00  0.00     0.062 H 
ATOM     55  H   LIG d   1       2.803   2.054  -1.946  0.00  0.00     0.062 H 
ATOM     56  O   LIG d   1       7.107  -1.676  -4.054  0.00  0.00    -0.244 OA
ATOM     57  H   LIG d   1       2.338   1.374  -4.264  0.00  0.00     0.062 H 
ENDBRANCH  35  36
ENDBRANCH  32  35
ENDBRANCH   2  32
TORSDOF 15
ENDMDL
MODEL 5
REMARK VINA RESULT:      -6.9      1.436      2.081
REMARK  15 active torsions:
REMARK  status: ('A' for Active; 'I' for Inactive)
REMARK    1  A    between atoms: C_1  and  N_2 
REMARK    2  A    between atoms: N_2  and  C_3 
REMARK       I    between atoms: N_2  and  C_18 
REMARK    3  A    between atoms: C_3  and  C_4 
REMARK    4  A    between atoms: C_4  and  C_6 
REMARK    5  A    between atoms: C_4  and  O_17 
REMARK    6  A    between atoms: C_6  and  C_8 
REMARK    7  A    between atoms: C_6  and  O_16 
REMARK    8  A    between atoms: C_8  and  C_10 
REMARK    9  A    between atoms: C_8  and  O_15 
REMARK   10  A    between atoms: C_10  and  C_12 
REMARK   11  A    between atoms: C_10  and  O_14 
REMARK   12  A    between atoms: C_12  and  O_13 
REMARK   13  A    between atoms: C_18  and  C_20 
REMARK   14  A    between atoms: C_20  and  O_21 
REMARK   15  A    between atoms: O_21  and  C_22 
ROOT
ATOM      1  N   LIG d   1      10.034   5.566  -3.599  0.00  0.00    -0.299 N 
ATOM      2  C   LIG d   1       9.976   5.041  -4.839  0.00  0.00     0.253 C 
ATOM      3  O   LIG d   1       9.603   5.723  -5.769  0.00  0.00    -0.272 OA
ENDROOT
BRANCH   1   4
ATOM      4  C   LIG d   1      10.484   4.741  -2.475  0.00  0.00     0.003 C 
ATOM      5  H   LIG d   1       9.964   3.783  -2.496  0.00  0.00     0.043 H 
ATOM      6  H   LIG d   1      11.558   4.574  -2.553  0.00  0.00     0.043 H 
ATOM      7  H   LIG d   1      10.263   5.253  -1.538  0.00  0.00     0.043 H 
ENDBRANCH   1   4
BRANCH   1   8
ATOM      8  C   LIG d   1       9.647   6.961  -3.375  0.00  0.00     0.043 C 
ATOM      9  H   LIG d   1      10.336   7.618  -3.907  0.00  0.00     0.049 H 
ATOM     10  H   LIG d   1       8.634   7.121  -3.744  0.00  0.00     0.049 H 
BRANCH   8  11
ATOM     11  C   LIG d   1       9.701   7.271  -1.878  0.00  0.00     0.099 C 
ATOM     12  H   LIG d   1      10.189   6.450  -1.354  0.00  0.00     0.064 H 
BRANCH  11  13
ATOM     13  C   LIG d   1      10.492   8.561  -1.653  0.00  0.00     0.111 C 
ATOM     14  H   LIG d   1      10.287   8.945  -0.654  0.00  0.00     0.065 H 
BRANCH  13  15
ATOM     15  C   LIG d   1      10.076   9.602  -2.694  0.00  0.00     0.111 C 
ATOM     16  H   LIG d   1       9.446   9.130  -3.448  0.00  0.00     0.065 H 
BRANCH  15  17
ATOM     17  C   LIG d   1       9.298  10.726  -2.009  0.00  0.00     0.106 C 
ATOM     18  H   LIG d   1       9.942  11.224  -1.284  0.00  0.00     0.064 H 
BRANCH  17  19
ATOM     19  C   LIG d   1       8.833  11.738  -3.058  0.00  0.00     0.073 C 
ATOM     20  H   LIG d   1       9.181  12.734  -2.783  0.00  0.00     0.058 H 
ATOM     21  H   LIG d   1       9.242  11.467  -4.031  0.00  0.00     0.058 H 
BRANCH  19  22
ATOM     22  O   LIG d   1       7.405  11.734  -3.125  0.00  0.00    -0.392 OA
ATOM     23  H   LIG d   1       6.996  12.566  -2.849  0.00  0.00     0.209 HD
ENDBRANCH  19  22
ENDBRANCH  17  19
BRANCH  17  24
ATOM     24  O   LIG d   1       8.161  10.179  -1.339  0.00  0.00    -0.387 OA
ATOM     25  H   LIG d   1       8.029   9.234  -1.497  0.00  0.00     0.210 HD
ENDBRANCH  17  24
ENDBRANCH  15  17
BRANCH  15  26
ATOM     26  O   LIG d   1      11.243  10.143  -3.320  0.00  0.00    -0.387 OA
ATOM     27  H   LIG d   1      11.594  10.930  -2.882  0.00  0.00     0.210 HD
ENDBRANCH  15  26
ENDBRANCH  13  15
BRANCH  13  28
ATOM     28  O   LIG d   1      11.890   8.291  -1.782  0.00  0.00    -0.387 OA
ATOM     29  H   LIG d   1      12.106   7.655  -2.477  0.00  0.00     0.210 HD
ENDBRANCH  13  28
ENDBRANCH  11  13
BRANCH  11  30
ATOM     30  O   LIG d   1       8.373   7.434  -1.378  0.00  0.00    -0.388 OA
ATOM     31  H   LIG d   1       7.853   6.619  -1.367  0.00  0.00     0.210 HD
ENDBRANCH  11  30
ENDBRANCH   8  11
ENDBRANCH   1   8
BRANCH   2  32
ATOM     32  C   LIG d   1      10.374   3.605  -5.069  0.00  0.00     0.165 C 
ATOM     33  H   LIG d   1      11.366   3.570  -5.519  0.00  0.00     0.080 H 
ATOM     34  H   LIG d   1      10.390   3.076  -4.116  0.00  0.00     0.080 H 
BRANCH  32  35
ATOM     35  O   LIG d   1       9.431   2.984  -5.944  0.00  0.00    -0.483 OA
BRANCH  35  36
ATOM     36  C   LIG d   1       8.528   2.141  -5.378  0.00  0.00     0.125 A 
ATOM     37  C   LIG d   1       8.011   1.090  -6.117  0.00  0.00     0.023 A 
ATOM     38  C   LIG d   1       7.095   0.223  -5.543  0.00  0.00     0.143 A 
ATOM     39  H   LIG d   1       8.326   0.943  -7.140  0.00  0.00     0.069 H 
ATOM     40  C   LIG d   1       6.695   0.424  -4.212  0.00  0.00     0.025 A 
ATOM     41  O   LIG d   1       6.582  -0.805  -6.265  0.00  0.00    -0.422 OA
ATOM     42  C   LIG d   1       7.214   1.489  -3.479  0.00  0.00    -0.047 A 
ATOM     43  C   LIG d   1       5.731  -0.519  -3.612  0.00  0.00    -0.000 A 
ATOM     44  C   LIG d   1       8.125   2.342  -4.061  0.00  0.00    -0.019 A 
ATOM     45  H   LIG d   1       6.902   1.646  -2.457  0.00  0.00     0.063 H 
ATOM     46  H   LIG d   1       8.529   3.168  -3.494  0.00  0.00     0.065 H 
ATOM     47  C   LIG d   1       5.464  -1.712  -4.321  0.00  0.00     0.067 A 
ATOM     48  C   LIG d   1       5.094  -0.277  -2.404  0.00  0.00    -0.053 A 
ATOM     49  C   LIG d   1       4.569  -2.640  -3.804  0.00  0.00    -0.047 A 
ATOM     50  C   LIG d   1       6.167  -1.910  -5.601  0.00  0.00     0.345 C 
ATOM     51  C   LIG d   1       3.946  -2.382  -2.600  0.00  0.00    -0.061 A 
ATOM     52  H   LIG d   1       4.363  -3.556  -4.339  0.00  0.00     0.063 H 
ATOM     53  C   LIG d   1       4.206  -1.210  -1.905  0.00  0.00    -0.061 A 
ATOM     54  H   LIG d   1       3.250  -3.101  -2.194  0.00  0.00     0.062 H 
ATOM     55  H   LIG d   1       3.708  -1.025  -0.965  0.00  0.00     0.062 H 
ATOM     56  O   LIG d   1       6.366  -3.024  -6.046  0.00  0.00    -0.244 OA
ATOM     57  H   LIG d   1       5.291   0.633  -1.856  0.00  0.00     0.062 H 
ENDBRANCH  35  36
ENDBRANCH  32  35
ENDBRANCH   2  32
TORSDOF 15
ENDMDL
MODEL 6
REMARK VINA RESULT:      -6.8      8.242     14.002
REMARK  15 active torsions:
REMARK  status: ('A' for Active; 'I' for Inactive)
REMARK    1  A    between atoms: C_1  and  N_2 
REMARK    2  A    between atoms: N_2  and  C_3 
REMARK       I    between atoms: N_2  and  C_18 
REMARK    3  A    between atoms: C_3  and  C_4 
REMARK    4  A    between atoms: C_4  and  C_6 
REMARK    5  A    between atoms: C_4  and  O_17 
REMARK    6  A    between atoms: C_6  and  C_8 
REMARK    7  A    between atoms: C_6  and  O_16 
REMARK    8  A    between atoms: C_8  and  C_10 
REMARK    9  A    between atoms: C_8  and  O_15 
REMARK   10  A    between atoms: C_10  and  C_12 
REMARK   11  A    between atoms: C_10  and  O_14 
REMARK   12  A    between atoms: C_12  and  O_13 
REMARK   13  A    between atoms: C_18  and  C_20 
REMARK   14  A    between atoms: C_20  and  O_21 
REMARK   15  A    between atoms: O_21  and  C_22 
ROOT
ATOM      1  N   LIG d   1       1.273  -5.313 -10.219  0.00  0.00    -0.299 N 
ATOM      2  C   LIG d   1       2.433  -5.663  -9.628  0.00  0.00     0.253 C 
ATOM      3  O   LIG d   1       2.551  -6.761  -9.129  0.00  0.00    -0.272 OA
ENDROOT
BRANCH   1   4
ATOM      4  C   LIG d   1       1.129  -3.986 -10.823  0.00  0.00     0.003 C 
ATOM      5  H   LIG d   1       0.925  -4.092 -11.889  0.00  0.00     0.043 H 
ATOM      6  H   LIG d   1       0.304  -3.457 -10.346  0.00  0.00     0.043 H 
ATOM      7  H   LIG d   1       2.051  -3.422 -10.684  0.00  0.00     0.043 H 
ENDBRANCH   1   4
BRANCH   1   8
ATOM      8  C   LIG d   1       0.156  -6.260 -10.258  0.00  0.00     0.043 C 
ATOM      9  H   LIG d   1      -0.108  -6.468 -11.295  0.00  0.00     0.049 H 
ATOM     10  H   LIG d   1       0.448  -7.187  -9.764  0.00  0.00     0.049 H 
BRANCH   8  11
ATOM     11  C   LIG d   1      -1.050  -5.655  -9.536  0.00  0.00     0.099 C 
ATOM     12  H   LIG d   1      -0.824  -4.629  -9.247  0.00  0.00     0.064 H 
BRANCH  11  13
ATOM     13  C   LIG d   1      -2.261  -5.665 -10.472  0.00  0.00     0.111 C 
ATOM     14  H   LIG d   1      -2.001  -5.171 -11.409  0.00  0.00     0.065 H 
BRANCH  13  15
ATOM     15  C   LIG d   1      -3.424  -4.922  -9.810  0.00  0.00     0.111 C 
ATOM     16  H   LIG d   1      -3.079  -3.949  -9.458  0.00  0.00     0.065 H 
BRANCH  15  17
ATOM     17  C   LIG d   1      -4.550  -4.728 -10.826  0.00  0.00     0.106 C 
ATOM     18  H   LIG d   1      -5.196  -5.606 -10.824  0.00  0.00     0.064 H 
BRANCH  17  19
ATOM     19  C   LIG d   1      -5.368  -3.491 -10.450  0.00  0.00     0.073 C 
ATOM     20  H   LIG d   1      -4.935  -2.609 -10.922  0.00  0.00     0.058 H 
ATOM     21  H   LIG d   1      -6.396  -3.618 -10.790  0.00  0.00     0.058 H 
BRANCH  19  22
ATOM     22  O   LIG d   1      -5.355  -3.325  -9.030  0.00  0.00    -0.392 OA
ATOM     23  H   LIG d   1      -4.479  -3.417  -8.631  0.00  0.00     0.209 HD
ENDBRANCH  19  22
ENDBRANCH  17  19
BRANCH  17  24
ATOM     24  O   LIG d   1      -3.991  -4.551 -12.129  0.00  0.00    -0.387 OA
ATOM     25  H   LIG d   1      -3.459  -3.749 -12.223  0.00  0.00     0.210 HD
ENDBRANCH  17  24
ENDBRANCH  15  17
BRANCH  15  26
ATOM     26  O   LIG d   1      -3.908  -5.685  -8.702  0.00  0.00    -0.387 OA
ATOM     27  H   LIG d   1      -4.406  -5.167  -8.056  0.00  0.00     0.210 HD
ENDBRANCH  15  26
ENDBRANCH  13  15
BRANCH  13  28
ATOM     28  O   LIG d   1      -2.648  -7.015 -10.736  0.00  0.00    -0.387 OA
ATOM     29  H   LIG d   1      -2.772  -7.552  -9.942  0.00  0.00     0.210 HD
ENDBRANCH  13  28
ENDBRANCH  11  13
BRANCH  11  30
ATOM     30  O   LIG d   1      -1.344  -6.426  -8.370  0.00  0.00    -0.388 OA
ATOM     31  H   LIG d   1      -0.560  -6.755  -7.908  0.00  0.00     0.210 HD
ENDBRANCH  11  30
ENDBRANCH   8  11
ENDBRANCH   1   8
BRANCH   2  32
ATOM     32  C   LIG d   1       3.582  -4.688  -9.589  0.00  0.00     0.165 C 
ATOM     33  H   LIG d   1       4.133  -4.737 -10.528  0.00  0.00     0.080 H 
ATOM     34  H   LIG d   1       3.197  -3.678  -9.447  0.00  0.00     0.080 H 
BRANCH  32  35
ATOM     35  O   LIG d   1       4.454  -5.023  -8.507  0.00  0.00    -0.483 OA
BRANCH  35  36
ATOM     36  C   LIG d   1       4.431  -4.206  -7.423  0.00  0.00     0.125 A 
ATOM     37  C   LIG d   1       4.304  -2.837  -7.595  0.00  0.00     0.023 A 
ATOM     38  C   LIG d   1       4.275  -1.999  -6.492  0.00  0.00     0.143 A 
ATOM     39  H   LIG d   1       4.223  -2.423  -8.590  0.00  0.00     0.069 H 
ATOM     40  C   LIG d   1       4.379  -2.549  -5.204  0.00  0.00     0.025 A 
ATOM     41  O   LIG d   1       4.156  -0.657  -6.657  0.00  0.00    -0.422 OA
ATOM     42  C   LIG d   1       4.516  -3.926  -5.041  0.00  0.00    -0.047 A 
ATOM     43  C   LIG d   1       4.329  -1.643  -4.041  0.00  0.00    -0.000 A 
ATOM     44  C   LIG d   1       4.541  -4.748  -6.146  0.00  0.00    -0.019 A 
ATOM     45  H   LIG d   1       4.601  -4.349  -4.051  0.00  0.00     0.063 H 
ATOM     46  H   LIG d   1       4.647  -5.816  -6.022  0.00  0.00     0.065 H 
ATOM     47  C   LIG d   1       3.922  -0.310  -4.274  0.00  0.00     0.067 A 
ATOM     48  C   LIG d   1       4.661  -2.049  -2.756  0.00  0.00    -0.053 A 
ATOM     49  C   LIG d   1       3.851   0.588  -3.217  0.00  0.00    -0.047 A 
ATOM     50  C   LIG d   1       3.587   0.062  -5.660  0.00  0.00     0.345 C 
ATOM     51  C   LIG d   1       4.184   0.167  -1.946  0.00  0.00    -0.061 A 
ATOM     52  H   LIG d   1       3.536   1.608  -3.387  0.00  0.00     0.063 H 
ATOM     53  C   LIG d   1       4.586  -1.141  -1.717  0.00  0.00    -0.061 A 
ATOM     54  H   LIG d   1       4.130   0.861  -1.120  0.00  0.00     0.062 H 
ATOM     55  H   LIG d   1       4.844  -1.453  -0.716  0.00  0.00     0.062 H 
ATOM     56  O   LIG d   1       2.830   0.983  -5.901  0.00  0.00    -0.244 OA
ATOM     57  H   LIG d   1       4.975  -3.065  -2.570  0.00  0.00     0.062 H 
ENDBRANCH  35  36
ENDBRANCH  32  35
ENDBRANCH   2  32
TORSDOF 15
ENDMDL
MODEL 7
REMARK VINA RESULT:      -6.6      2.547      3.554
REMARK  15 active torsions:
REMARK  status: ('A' for Active; 'I' for Inactive)
REMARK    1  A    between atoms: C_1  and  N_2 
REMARK    2  A    between atoms: N_2  and  C_3 
REMARK       I    between atoms: N_2  and  C_18 
REMARK    3  A    between atoms: C_3  and  C_4 
REMARK    4  A    between atoms: C_4  and  C_6 
REMARK    5  A    between atoms: C_4  and  O_17 
REMARK    6  A    between atoms: C_6  and  C_8 
REMARK    7  A    between atoms: C_6  and  O_16 
REMARK    8  A    between atoms: C_8  and  C_10 
REMARK    9  A    between atoms: C_8  and  O_15 
REMARK   10  A    between atoms: C_10  and  C_12 
REMARK   11  A    between atoms: C_10  and  O_14 
REMARK   12  A    between atoms: C_12  and  O_13 
REMARK   13  A    between atoms: C_18  and  C_20 
REMARK   14  A    between atoms: C_20  and  O_21 
REMARK   15  A    between atoms: O_21  and  C_22 
ROOT
ATOM      1  N   LIG d   1       9.862   6.181  -7.943  0.00  0.00    -0.299 N 
ATOM      2  C   LIG d   1      10.080   5.161  -7.090  0.00  0.00     0.253 C 
ATOM      3  O   LIG d   1      10.682   5.354  -6.056  0.00  0.00    -0.272 OA
ENDROOT
BRANCH   1   4
ATOM      4  C   LIG d   1       9.135   5.948  -9.194  0.00  0.00     0.003 C 
ATOM      5  H   LIG d   1       8.846   6.904  -9.630  0.00  0.00     0.043 H 
ATOM      6  H   LIG d   1       9.776   5.409  -9.891  0.00  0.00     0.043 H 
ATOM      7  H   LIG d   1       8.242   5.357  -8.989  0.00  0.00     0.043 H 
ENDBRANCH   1   4
BRANCH   1   8
ATOM      8  C   LIG d   1      10.351   7.524  -7.620  0.00  0.00     0.043 C 
ATOM      9  H   LIG d   1      11.134   7.453  -6.864  0.00  0.00     0.049 H 
ATOM     10  H   LIG d   1      10.756   7.989  -8.519  0.00  0.00     0.049 H 
BRANCH   8  11
ATOM     11  C   LIG d   1       9.197   8.371  -7.082  0.00  0.00     0.099 C 
ATOM     12  H   LIG d   1       8.277   7.789  -7.106  0.00  0.00     0.064 H 
BRANCH  11  13
ATOM     13  C   LIG d   1       9.500   8.788  -5.642  0.00  0.00     0.111 C 
ATOM     14  H   LIG d   1       8.697   8.449  -4.987  0.00  0.00     0.065 H 
BRANCH  13  15
ATOM     15  C   LIG d   1       9.610  10.312  -5.564  0.00  0.00     0.111 C 
ATOM     16  H   LIG d   1       8.748  10.764  -6.056  0.00  0.00     0.065 H 
BRANCH  15  17
ATOM     17  C   LIG d   1       9.648  10.748  -4.098  0.00  0.00     0.106 C 
ATOM     18  H   LIG d   1      10.663  11.045  -3.834  0.00  0.00     0.064 H 
BRANCH  17  19
ATOM     19  C   LIG d   1       8.700  11.931  -3.894  0.00  0.00     0.073 C 
ATOM     20  H   LIG d   1       9.235  12.746  -3.405  0.00  0.00     0.058 H 
ATOM     21  H   LIG d   1       8.326  12.269  -4.860  0.00  0.00     0.058 H 
BRANCH  19  22
ATOM     22  O   LIG d   1       7.601  11.525  -3.074  0.00  0.00    -0.392 OA
ATOM     23  H   LIG d   1       7.827  10.851  -2.418  0.00  0.00     0.209 HD
ENDBRANCH  19  22
ENDBRANCH  17  19
BRANCH  17  24
ATOM     24  O   LIG d   1       9.238   9.660  -3.268  0.00  0.00    -0.387 OA
ATOM     25  H   LIG d   1       9.229   8.804  -3.717  0.00  0.00     0.210 HD
ENDBRANCH  17  24
ENDBRANCH  15  17
BRANCH  15  26
ATOM     26  O   LIG d   1      10.808  10.737  -6.218  0.00  0.00    -0.387 OA
ATOM     27  H   LIG d   1      11.550  10.126  -6.116  0.00  0.00     0.210 HD
ENDBRANCH  15  26
ENDBRANCH  13  15
BRANCH  13  28
ATOM     28  O   LIG d   1      10.734   8.200  -5.225  0.00  0.00    -0.387 OA
ATOM     29  H   LIG d   1      10.699   7.789  -4.351  0.00  0.00     0.210 HD
ENDBRANCH  13  28
ENDBRANCH  11  13
BRANCH  11  30
ATOM     30  O   LIG d   1       9.044   9.537  -7.893  0.00  0.00    -0.388 OA
ATOM     31  H   LIG d   1       8.639  10.286  -7.434  0.00  0.00     0.210 HD
ENDBRANCH  11  30
ENDBRANCH   8  11
ENDBRANCH   1   8
BRANCH   2  32
ATOM     32  C   LIG d   1       9.576   3.780  -7.422  0.00  0.00     0.165 C 
ATOM     33  H   LIG d   1       8.487   3.785  -7.442  0.00  0.00     0.080 H 
ATOM     34  H   LIG d   1       9.955   3.481  -8.400  0.00  0.00     0.080 H 
BRANCH  32  35
ATOM     35  O   LIG d   1      10.032   2.856  -6.432  0.00  0.00    -0.483 OA
BRANCH  35  36
ATOM     36  C   LIG d   1       9.081   2.215  -5.703  0.00  0.00     0.125 A 
ATOM     37  C   LIG d   1       8.666   0.948  -6.077  0.00  0.00     0.023 A 
ATOM     38  C   LIG d   1       7.700   0.287  -5.334  0.00  0.00     0.143 A 
ATOM     39  H   LIG d   1       9.098   0.472  -6.945  0.00  0.00     0.069 H 
ATOM     40  C   LIG d   1       7.147   0.916  -4.206  0.00  0.00     0.025 A 
ATOM     41  O   LIG d   1       7.287  -0.952  -5.699  0.00  0.00    -0.422 OA
ATOM     42  C   LIG d   1       7.565   2.195  -3.844  0.00  0.00    -0.047 A 
ATOM     43  C   LIG d   1       6.133   0.191  -3.417  0.00  0.00    -0.000 A 
ATOM     44  C   LIG d   1       8.526   2.839  -4.590  0.00  0.00    -0.019 A 
ATOM     45  H   LIG d   1       7.136   2.680  -2.979  0.00  0.00     0.063 H 
ATOM     46  H   LIG d   1       8.852   3.831  -4.310  0.00  0.00     0.065 H 
ATOM     47  C   LIG d   1       5.964  -1.186  -3.687  0.00  0.00     0.067 A 
ATOM     48  C   LIG d   1       5.358   0.804  -2.443  0.00  0.00    -0.053 A 
ATOM     49  C   LIG d   1       5.027  -1.922  -2.973  0.00  0.00    -0.047 A 
ATOM     50  C   LIG d   1       6.812  -1.779  -4.737  0.00  0.00     0.345 C 
ATOM     51  C   LIG d   1       4.267  -1.296  -2.007  0.00  0.00    -0.061 A 
ATOM     52  H   LIG d   1       4.896  -2.977  -3.171  0.00  0.00     0.063 H 
ATOM     53  C   LIG d   1       4.430   0.056  -1.744  0.00  0.00    -0.061 A 
ATOM     54  H   LIG d   1       3.537  -1.864  -1.449  0.00  0.00     0.062 H 
ATOM     55  H   LIG d   1       3.825   0.529  -0.985  0.00  0.00     0.062 H 
ATOM     56  O   LIG d   1       7.075  -2.966  -4.740  0.00  0.00    -0.244 OA
ATOM     57  H   LIG d   1       5.479   1.856  -2.232  0.00  0.00     0.062 H 
ENDBRANCH  35  36
ENDBRANCH  32  35
ENDBRANCH   2  32
TORSDOF 15
ENDMDL
MODEL 8
REMARK VINA RESULT:      -6.6      1.961      3.245
REMARK  15 active torsions:
REMARK  status: ('A' for Active; 'I' for Inactive)
REMARK    1  A    between atoms: C_1  and  N_2 
REMARK    2  A    between atoms: N_2  and  C_3 
REMARK       I    between atoms: N_2  and  C_18 
REMARK    3  A    between atoms: C_3  and  C_4 
REMARK    4  A    between atoms: C_4  and  C_6 
REMARK    5  A    between atoms: C_4  and  O_17 
REMARK    6  A    between atoms: C_6  and  C_8 
REMARK    7  A    between atoms: C_6  and  O_16 
REMARK    8  A    between atoms: C_8  and  C_10 
REMARK    9  A    between atoms: C_8  and  O_15 
REMARK   10  A    between atoms: C_10  and  C_12 
REMARK   11  A    between atoms: C_10  and  O_14 
REMARK   12  A    between atoms: C_12  and  O_13 
REMARK   13  A    between atoms: C_18  and  C_20 
REMARK   14  A    between atoms: C_20  and  O_21 
REMARK   15  A    between atoms: O_21  and  C_22 
ROOT
ATOM      1  N   LIG d   1      11.228   4.676  -4.013  0.00  0.00    -0.299 N 
ATOM      2  C   LIG d   1      11.091   4.227  -5.277  0.00  0.00     0.253 C 
ATOM      3  O   LIG d   1      11.116   5.008  -6.203  0.00  0.00    -0.272 OA
ENDROOT
BRANCH   1   4
ATOM      4  C   LIG d   1      11.198   3.733  -2.893  0.00  0.00     0.003 C 
ATOM      5  H   LIG d   1      10.946   2.738  -3.262  0.00  0.00     0.043 H 
ATOM      6  H   LIG d   1      12.177   3.705  -2.414  0.00  0.00     0.043 H 
ATOM      7  H   LIG d   1      10.448   4.052  -2.169  0.00  0.00     0.043 H 
ENDBRANCH   1   4
BRANCH   1   8
ATOM      8  C   LIG d   1      11.407   6.108  -3.760  0.00  0.00     0.043 C 
ATOM      9  H   LIG d   1      12.027   6.245  -2.873  0.00  0.00     0.049 H 
ATOM     10  H   LIG d   1      11.894   6.571  -4.618  0.00  0.00     0.049 H 
BRANCH   8  11
ATOM     11  C   LIG d   1      10.042   6.760  -3.534  0.00  0.00     0.099 C 
ATOM     12  H   LIG d   1       9.342   6.016  -3.156  0.00  0.00     0.064 H 
BRANCH  11  13
ATOM     13  C   LIG d   1      10.181   7.893  -2.514  0.00  0.00     0.111 C 
ATOM     14  H   LIG d   1      11.236   8.138  -2.384  0.00  0.00     0.065 H 
BRANCH  13  15
ATOM     15  C   LIG d   1       9.594   7.446  -1.173  0.00  0.00     0.111 C 
ATOM     16  H   LIG d   1       9.613   6.358  -1.112  0.00  0.00     0.065 H 
BRANCH  15  17
ATOM     17  C   LIG d   1      10.423   8.036  -0.031  0.00  0.00     0.106 C 
ATOM     18  H   LIG d   1       9.774   8.612   0.629  0.00  0.00     0.064 H 
BRANCH  17  19
ATOM     19  C   LIG d   1      11.079   6.903   0.760  0.00  0.00     0.073 C 
ATOM     20  H   LIG d   1      12.137   6.842   0.502  0.00  0.00     0.058 H 
ATOM     21  H   LIG d   1      10.977   7.098   1.828  0.00  0.00     0.058 H 
BRANCH  19  22
ATOM     22  O   LIG d   1      10.439   5.665   0.440  0.00  0.00    -0.392 OA
ATOM     23  H   LIG d   1      11.038   4.905   0.423  0.00  0.00     0.209 HD
ENDBRANCH  19  22
ENDBRANCH  17  19
BRANCH  17  24
ATOM     24  O   LIG d   1      11.435   8.889  -0.568  0.00  0.00    -0.387 OA
ATOM     25  H   LIG d   1      11.134   9.791  -0.747  0.00  0.00     0.210 HD
ENDBRANCH  17  24
ENDBRANCH  15  17
BRANCH  15  26
ATOM     26  O   LIG d   1       8.244   7.905  -1.068  0.00  0.00    -0.387 OA
ATOM     27  H   LIG d   1       7.730   7.461  -0.380  0.00  0.00     0.210 HD
ENDBRANCH  15  26
ENDBRANCH  13  15
BRANCH  13  28
ATOM     28  O   LIG d   1       9.478   9.045  -2.981  0.00  0.00    -0.387 OA
ATOM     29  H   LIG d   1       8.847   8.860  -3.690  0.00  0.00     0.210 HD
ENDBRANCH  13  28
ENDBRANCH  11  13
BRANCH  11  30
ATOM     30  O   LIG d   1       9.557   7.290  -4.769  0.00  0.00    -0.388 OA
ATOM     31  H   LIG d   1       9.982   6.914  -5.552  0.00  0.00     0.210 HD
ENDBRANCH  11  30
ENDBRANCH   8  11
ENDBRANCH   1   8
BRANCH   2  32
ATOM     32  C   LIG d   1      10.907   2.754  -5.536  0.00  0.00     0.165 C 
ATOM     33  H   LIG d   1      11.734   2.385  -6.142  0.00  0.00     0.080 H 
ATOM     34  H   LIG d   1      10.885   2.218  -4.587  0.00  0.00     0.080 H 
BRANCH  32  35
ATOM     35  O   LIG d   1       9.676   2.543  -6.231  0.00  0.00    -0.483 OA
BRANCH  35  36
ATOM     36  C   LIG d   1       8.723   1.819  -5.589  0.00  0.00     0.125 A 
ATOM     37  C   LIG d   1       8.185   0.698  -6.198  0.00  0.00     0.023 A 
ATOM     38  C   LIG d   1       7.216  -0.049  -5.546  0.00  0.00     0.143 A 
ATOM     39  H   LIG d   1       8.524   0.402  -7.180  0.00  0.00     0.069 H 
ATOM     40  C   LIG d   1       6.785   0.346  -4.269  0.00  0.00     0.025 A 
ATOM     41  O   LIG d   1       6.683  -1.145  -6.141  0.00  0.00    -0.422 OA
ATOM     42  C   LIG d   1       7.325   1.481  -3.668  0.00  0.00    -0.047 A 
ATOM     43  C   LIG d   1       5.765  -0.470  -3.583  0.00  0.00    -0.000 A 
ATOM     44  C   LIG d   1       8.289   2.212  -4.327  0.00  0.00    -0.019 A 
ATOM     45  H   LIG d   1       6.990   1.787  -2.688  0.00  0.00     0.063 H 
ATOM     46  H   LIG d   1       8.710   3.092  -3.862  0.00  0.00     0.065 H 
ATOM     47  C   LIG d   1       5.470  -1.738  -4.134  0.00  0.00     0.067 A 
ATOM     48  C   LIG d   1       5.103  -0.043  -2.441  0.00  0.00    -0.053 A 
ATOM     49  C   LIG d   1       4.522  -2.553  -3.528  0.00  0.00    -0.047 A 
ATOM     50  C   LIG d   1       6.202  -2.133  -5.350  0.00  0.00     0.345 C 
ATOM     51  C   LIG d   1       3.874  -2.111  -2.393  0.00  0.00    -0.061 A 
ATOM     52  H   LIG d   1       4.294  -3.525  -3.943  0.00  0.00     0.063 H 
ATOM     53  C   LIG d   1       4.162  -0.866  -1.853  0.00  0.00    -0.061 A 
ATOM     54  H   LIG d   1       3.136  -2.741  -1.919  0.00  0.00     0.062 H 
ATOM     55  H   LIG d   1       3.644  -0.537  -0.965  0.00  0.00     0.062 H 
ATOM     56  O   LIG d   1       6.368  -3.304  -5.634  0.00  0.00    -0.244 OA
ATOM     57  H   LIG d   1       5.321   0.925  -2.014  0.00  0.00     0.062 H 
ENDBRANCH  35  36
ENDBRANCH  32  35
ENDBRANCH   2  32
TORSDOF 15
ENDMDL
MODEL 9
REMARK VINA RESULT:      -6.4      3.162      4.616
REMARK  15 active torsions:
REMARK  status: ('A' for Active; 'I' for Inactive)
REMARK    1  A    between atoms: C_1  and  N_2 
REMARK    2  A    between atoms: N_2  and  C_3 
REMARK       I    between atoms: N_2  and  C_18 
REMARK    3  A    between atoms: C_3  and  C_4 
REMARK    4  A    between atoms: C_4  and  C_6 
REMARK    5  A    between atoms: C_4  and  O_17 
REMARK    6  A    between atoms: C_6  and  C_8 
REMARK    7  A    between atoms: C_6  and  O_16 
REMARK    8  A    between atoms: C_8  and  C_10 
REMARK    9  A    between atoms: C_8  and  O_15 
REMARK   10  A    between atoms: C_10  and  C_12 
REMARK   11  A    between atoms: C_10  and  O_14 
REMARK   12  A    between atoms: C_12  and  O_13 
REMARK   13  A    between atoms: C_18  and  C_20 
REMARK   14  A    between atoms: C_20  and  O_21 
REMARK   15  A    between atoms: O_21  and  C_22 
ROOT
ATOM      1  N   LIG d   1      10.365   4.579  -8.996  0.00  0.00    -0.299 N 
ATOM      2  C   LIG d   1      10.679   4.103  -7.774  0.00  0.00     0.253 C 
ATOM      3  O   LIG d   1      11.034   4.864  -6.901  0.00  0.00    -0.272 OA
ENDROOT
BRANCH   1   4
ATOM      4  C   LIG d   1       9.936   3.659 -10.053  0.00  0.00     0.003 C 
ATOM      5  H   LIG d   1       9.406   2.816  -9.607  0.00  0.00     0.043 H 
ATOM      6  H   LIG d   1       9.273   4.181 -10.742  0.00  0.00     0.043 H 
ATOM      7  H   LIG d   1      10.810   3.295 -10.593  0.00  0.00     0.043 H 
ENDBRANCH   1   4
BRANCH   1   8
ATOM      8  C   LIG d   1      10.453   6.016  -9.267  0.00  0.00     0.043 C 
ATOM      9  H   LIG d   1      11.282   6.442  -8.701  0.00  0.00     0.049 H 
ATOM     10  H   LIG d   1      10.621   6.175 -10.332  0.00  0.00     0.049 H 
BRANCH   8  11
ATOM     11  C   LIG d   1       9.146   6.694  -8.849  0.00  0.00     0.099 C 
ATOM     12  H   LIG d   1       8.763   6.219  -7.948  0.00  0.00     0.064 H 
BRANCH  11  13
ATOM     13  C   LIG d   1       9.408   8.176  -8.573  0.00  0.00     0.111 C 
ATOM     14  H   LIG d   1      10.140   8.556  -9.287  0.00  0.00     0.065 H 
BRANCH  13  15
ATOM     15  C   LIG d   1       9.951   8.342  -7.152  0.00  0.00     0.111 C 
ATOM     16  H   LIG d   1      11.040   8.312  -7.174  0.00  0.00     0.065 H 
BRANCH  15  17
ATOM     17  C   LIG d   1       9.488   9.684  -6.583  0.00  0.00     0.106 C 
ATOM     18  H   LIG d   1       8.412   9.653  -6.411  0.00  0.00     0.064 H 
BRANCH  17  19
ATOM     19  C   LIG d   1      10.209   9.952  -5.260  0.00  0.00     0.073 C 
ATOM     20  H   LIG d   1      11.223   9.554  -5.310  0.00  0.00     0.058 H 
ATOM     21  H   LIG d   1      10.249  11.025  -5.078  0.00  0.00     0.058 H 
BRANCH  19  22
ATOM     22  O   LIG d   1       9.500   9.315  -4.194  0.00  0.00    -0.392 OA
ATOM     23  H   LIG d   1       9.648   9.718  -3.327  0.00  0.00     0.209 HD
ENDBRANCH  19  22
ENDBRANCH  17  19
BRANCH  17  24
ATOM     24  O   LIG d   1       9.793  10.726  -7.511  0.00  0.00    -0.387 OA
ATOM     25  H   LIG d   1       9.290  11.539  -7.369  0.00  0.00     0.210 HD
ENDBRANCH  17  24
ENDBRANCH  15  17
BRANCH  15  26
ATOM     26  O   LIG d   1       9.461   7.281  -6.329  0.00  0.00    -0.387 OA
ATOM     27  H   LIG d   1       9.277   6.463  -6.810  0.00  0.00     0.210 HD
ENDBRANCH  15  26
ENDBRANCH  13  15
BRANCH  13  28
ATOM     28  O   LIG d   1       8.188   8.908  -8.706  0.00  0.00    -0.387 OA
ATOM     29  H   LIG d   1       8.312   9.841  -8.928  0.00  0.00     0.210 HD
ENDBRANCH  13  28
ENDBRANCH  11  13
BRANCH  11  30
ATOM     30  O   LIG d   1       8.187   6.568  -9.901  0.00  0.00    -0.388 OA
ATOM     31  H   LIG d   1       7.478   5.938  -9.714  0.00  0.00     0.210 HD
ENDBRANCH  11  30
ENDBRANCH   8  11
ENDBRANCH   1   8
BRANCH   2  32
ATOM     32  C   LIG d   1      10.588   2.624  -7.496  0.00  0.00     0.165 C 
ATOM     33  H   LIG d   1       9.614   2.254  -7.812  0.00  0.00     0.080 H 
ATOM     34  H   LIG d   1      11.371   2.103  -8.047  0.00  0.00     0.080 H 
BRANCH  32  35
ATOM     35  O   LIG d   1      10.756   2.393  -6.095  0.00  0.00    -0.483 OA
BRANCH  35  36
ATOM     36  C   LIG d   1       9.683   1.907  -5.419  0.00  0.00     0.125 A 
ATOM     37  C   LIG d   1       9.303   0.586  -5.590  0.00  0.00     0.023 A 
ATOM     38  C   LIG d   1       8.213   0.082  -4.897  0.00  0.00     0.143 A 
ATOM     39  H   LIG d   1       9.859  -0.054  -6.260  0.00  0.00     0.069 H 
ATOM     40  C   LIG d   1       7.499   0.924  -4.029  0.00  0.00     0.025 A 
ATOM     41  O   LIG d   1       7.834  -1.209  -5.066  0.00  0.00    -0.422 OA
ATOM     42  C   LIG d   1       7.884   2.254  -3.870  0.00  0.00    -0.047 A 
ATOM     43  C   LIG d   1       6.352   0.366  -3.287  0.00  0.00    -0.000 A 
ATOM     44  C   LIG d   1       8.970   2.740  -4.562  0.00  0.00    -0.019 A 
ATOM     45  H   LIG d   1       7.332   2.901  -3.205  0.00  0.00     0.063 H 
ATOM     46  H   LIG d   1       9.270   3.771  -4.440  0.00  0.00     0.065 H 
ATOM     47  C   LIG d   1       6.195  -1.039  -3.295  0.00  0.00     0.067 A 
ATOM     48  C   LIG d   1       5.444   1.158  -2.599  0.00  0.00    -0.053 A 
ATOM     49  C   LIG d   1       5.136  -1.621  -2.610  0.00  0.00    -0.047 A 
ATOM     50  C   LIG d   1       7.188  -1.826  -4.048  0.00  0.00     0.345 C 
ATOM     51  C   LIG d   1       4.244  -0.818  -1.931  0.00  0.00    -0.061 A 
ATOM     52  H   LIG d   1       5.013  -2.695  -2.609  0.00  0.00     0.063 H 
ATOM     53  C   LIG d   1       4.396   0.561  -1.925  0.00  0.00    -0.061 A 
ATOM     54  H   LIG d   1       3.419  -1.266  -1.397  0.00  0.00     0.062 H 
ATOM     55  H   LIG d   1       3.687   1.174  -1.389  0.00  0.00     0.062 H 
ATOM     56  O   LIG d   1       7.418  -2.986  -3.766  0.00  0.00    -0.244 OA
ATOM     57  H   LIG d   1       5.555   2.233  -2.589  0.00  0.00     0.062 H 
ENDBRANCH  35  36
ENDBRANCH  32  35
ENDBRANCH   2  32
TORSDOF 15
ENDMDL
MODEL 10
REMARK VINA RESULT:      -6.4      7.854     13.075
REMARK  15 active torsions:
REMARK  status: ('A' for Active; 'I' for Inactive)
REMARK    1  A    between atoms: C_1  and  N_2 
REMARK    2  A    between atoms: N_2  and  C_3 
REMARK       I    between atoms: N_2  and  C_18 
REMARK    3  A    between atoms: C_3  and  C_4 
REMARK    4  A    between atoms: C_4  and  C_6 
REMARK    5  A    between atoms: C_4  and  O_17 
REMARK    6  A    between atoms: C_6  and  C_8 
REMARK    7  A    between atoms: C_6  and  O_16 
REMARK    8  A    between atoms: C_8  and  C_10 
REMARK    9  A    between atoms: C_8  and  O_15 
REMARK   10  A    between atoms: C_10  and  C_12 
REMARK   11  A    between atoms: C_10  and  O_14 
REMARK   12  A    between atoms: C_12  and  O_13 
REMARK   13  A    between atoms: C_18  and  C_20 
REMARK   14  A    between atoms: C_20  and  O_21 
REMARK   15  A    between atoms: O_21  and  C_22 
ROOT
ATOM      1  N   LIG d   1       2.433  -2.475 -10.433  0.00  0.00    -0.299 N 
ATOM      2  C   LIG d   1       2.406  -1.183 -10.819  0.00  0.00     0.253 C 
ATOM      3  O   LIG d   1       1.345  -0.609 -10.939  0.00  0.00    -0.272 OA
ENDROOT
BRANCH   1   4
ATOM      4  C   LIG d   1       3.714  -3.170 -10.288  0.00  0.00     0.003 C 
ATOM      5  H   LIG d   1       4.527  -2.444 -10.328  0.00  0.00     0.043 H 
ATOM      6  H   LIG d   1       3.739  -3.691  -9.331  0.00  0.00     0.043 H 
ATOM      7  H   LIG d   1       3.830  -3.890 -11.098  0.00  0.00     0.043 H 
ENDBRANCH   1   4
BRANCH   1   8
ATOM      8  C   LIG d   1       1.180  -3.183 -10.157  0.00  0.00     0.043 C 
ATOM      9  H   LIG d   1       1.328  -3.871  -9.323  0.00  0.00     0.049 H 
ATOM     10  H   LIG d   1       0.404  -2.463  -9.900  0.00  0.00     0.049 H 
BRANCH   8  11
ATOM     11  C   LIG d   1       0.756  -3.970 -11.399  0.00  0.00     0.099 C 
ATOM     12  H   LIG d   1       1.603  -4.061 -12.078  0.00  0.00     0.064 H 
BRANCH  11  13
ATOM     13  C   LIG d   1       0.287  -5.365 -10.981  0.00  0.00     0.111 C 
ATOM     14  H   LIG d   1       0.688  -6.107 -11.671  0.00  0.00     0.065 H 
BRANCH  13  15
ATOM     15  C   LIG d   1      -1.243  -5.419 -11.010  0.00  0.00     0.111 C 
ATOM     16  H   LIG d   1      -1.594  -5.199 -12.018  0.00  0.00     0.065 H 
BRANCH  15  17
ATOM     17  C   LIG d   1      -1.713  -6.814 -10.598  0.00  0.00     0.106 C 
ATOM     18  H   LIG d   1      -0.847  -7.458 -10.442  0.00  0.00     0.064 H 
BRANCH  17  19
ATOM     19  C   LIG d   1      -2.518  -6.718  -9.300  0.00  0.00     0.073 C 
ATOM     20  H   LIG d   1      -3.230  -5.896  -9.373  0.00  0.00     0.058 H 
ATOM     21  H   LIG d   1      -3.056  -7.651  -9.136  0.00  0.00     0.058 H 
BRANCH  19  22
ATOM     22  O   LIG d   1      -1.630  -6.483  -8.205  0.00  0.00    -0.392 OA
ATOM     23  H   LIG d   1      -1.002  -7.201  -8.045  0.00  0.00     0.209 HD
ENDBRANCH  19  22
ENDBRANCH  17  19
BRANCH  17  24
ATOM     24  O   LIG d   1      -2.535  -7.364 -11.629  0.00  0.00    -0.387 OA
ATOM     25  H   LIG d   1      -2.302  -7.066 -12.518  0.00  0.00     0.210 HD
ENDBRANCH  17  24
ENDBRANCH  15  17
BRANCH  15  26
ATOM     26  O   LIG d   1      -1.770  -4.450 -10.101  0.00  0.00    -0.387 OA
ATOM     27  H   LIG d   1      -2.151  -3.673 -10.532  0.00  0.00     0.210 HD
ENDBRANCH  15  26
ENDBRANCH  13  15
BRANCH  13  28
ATOM     28  O   LIG d   1       0.747  -5.647  -9.658  0.00  0.00    -0.387 OA
ATOM     29  H   LIG d   1       1.429  -6.331  -9.616  0.00  0.00     0.210 HD
ENDBRANCH  13  28
ENDBRANCH  11  13
BRANCH  11  30
ATOM     30  O   LIG d   1      -0.312  -3.285 -12.055  0.00  0.00    -0.388 OA
ATOM     31  H   LIG d   1      -0.095  -2.977 -12.945  0.00  0.00     0.210 HD
ENDBRANCH  11  30
ENDBRANCH   8  11
ENDBRANCH   1   8
BRANCH   2  32
ATOM     32  C   LIG d   1       3.695  -0.455 -11.103  0.00  0.00     0.165 C 
ATOM     33  H   LIG d   1       4.531  -1.147 -11.012  0.00  0.00     0.080 H 
ATOM     34  H   LIG d   1       3.667  -0.049 -12.114  0.00  0.00     0.080 H 
BRANCH  32  35
ATOM     35  O   LIG d   1       3.854   0.612 -10.165  0.00  0.00    -0.483 OA
BRANCH  35  36
ATOM     36  C   LIG d   1       3.898   0.275  -8.850  0.00  0.00     0.125 A 
ATOM     37  C   LIG d   1       4.981  -0.434  -8.358  0.00  0.00     0.023 A 
ATOM     38  C   LIG d   1       5.035  -0.776  -7.016  0.00  0.00     0.143 A 
ATOM     39  H   LIG d   1       5.787  -0.717  -9.019  0.00  0.00     0.069 H 
ATOM     40  C   LIG d   1       3.982  -0.400  -6.166  0.00  0.00     0.025 A 
ATOM     41  O   LIG d   1       6.091  -1.474  -6.530  0.00  0.00    -0.422 OA
ATOM     42  C   LIG d   1       2.892   0.306  -6.672  0.00  0.00    -0.047 A 
ATOM     43  C   LIG d   1       4.064  -0.757  -4.737  0.00  0.00    -0.000 A 
ATOM     44  C   LIG d   1       2.853   0.640  -8.007  0.00  0.00    -0.019 A 
ATOM     45  H   LIG d   1       2.080   0.590  -6.019  0.00  0.00     0.063 H 
ATOM     46  H   LIG d   1       2.009   1.187  -8.402  0.00  0.00     0.065 H 
ATOM     47  C   LIG d   1       5.307  -1.226  -4.255  0.00  0.00     0.067 A 
ATOM     48  C   LIG d   1       2.985  -0.650  -3.871  0.00  0.00    -0.053 A 
ATOM     49  C   LIG d   1       5.446  -1.573  -2.918  0.00  0.00    -0.047 A 
ATOM     50  C   LIG d   1       6.414  -1.323  -5.224  0.00  0.00     0.345 C 
ATOM     51  C   LIG d   1       4.362  -1.459  -2.072  0.00  0.00    -0.061 A 
ATOM     52  H   LIG d   1       6.395  -1.929  -2.542  0.00  0.00     0.063 H 
ATOM     53  C   LIG d   1       3.141  -1.001  -2.544  0.00  0.00    -0.061 A 
ATOM     54  H   LIG d   1       4.466  -1.728  -1.031  0.00  0.00     0.062 H 
ATOM     55  H   LIG d   1       2.303  -0.920  -1.867  0.00  0.00     0.062 H 
ATOM     56  O   LIG d   1       7.574  -1.271  -4.863  0.00  0.00    -0.244 OA
ATOM     57  H   LIG d   1       2.030  -0.294  -4.231  0.00  0.00     0.062 H 
ENDBRANCH  35  36
ENDBRANCH  32  35
ENDBRANCH   2  32
TORSDOF 15
ENDMDL
