MODEL 1
REMARK VINA RESULT:      -5.8      0.000      0.000
REMARK  7 active torsions:
REMARK  status: ('A' for Active; 'I' for Inactive)
REMARK    1  A    between atoms: C_1  and  C_2 
REMARK    2  A    between atoms: C_2  and  C_3 
REMARK    3  A    between atoms: C_3  and  C_5 
REMARK    4  A    between atoms: C_3  and  N_6 
REMARK       I    between atoms: N_6  and  C_7 
REMARK    5  A    between atoms: C_7  and  C_9 
REMARK    6  A    between atoms: C_9  and  C_10 
REMARK    7  A    between atoms: C_9  and  C_14 
ROOT
ATOM      1  N   LIG d   1       3.746   0.063  -6.072  0.00  0.00    -0.312 N 
ATOM      2  C   LIG d   1       3.245   0.083  -4.822  0.00  0.00     0.234 C 
ATOM      3  O   LIG d   1       2.051   0.210  -4.650  0.00  0.00    -0.275 OA
ATOM      4  H   LIG d   1       4.701  -0.039  -6.210  0.00  0.00     0.149 HD
ENDROOT
BRANCH   1   5
ATOM      5  C   LIG d   1       2.850   0.200  -7.224  0.00  0.00     0.020 C 
ATOM      6  H   LIG d   1       1.816   0.136  -6.888  0.00  0.00     0.050 H 
BRANCH   5   7
ATOM      7  C   LIG d   1       3.086   1.555  -7.895  0.00  0.00    -0.038 C 
ATOM      8  H   LIG d   1       2.347   2.271  -7.537  0.00  0.00     0.028 H 
ATOM      9  H   LIG d   1       4.087   1.912  -7.650  0.00  0.00     0.028 H 
BRANCH   7  10
ATOM     10  C   LIG d   1       2.956   1.401  -9.412  0.00  0.00    -0.064 C 
ATOM     11  H   LIG d   1       2.060   1.919  -9.754  0.00  0.00     0.023 H 
ATOM     12  H   LIG d   1       3.832   1.829  -9.897  0.00  0.00     0.023 H 
ATOM     13  H   LIG d   1       2.882   0.343  -9.664  0.00  0.00     0.023 H 
ENDBRANCH   7  10
ENDBRANCH   5   7
BRANCH   5  14
ATOM     14  C   LIG d   1       3.132  -0.921  -8.226  0.00  0.00    -0.047 C 
ATOM     15  H   LIG d   1       3.757  -0.539  -9.033  0.00  0.00     0.025 H 
ATOM     16  H   LIG d   1       3.650  -1.737  -7.721  0.00  0.00     0.025 H 
ATOM     17  H   LIG d   1       2.192  -1.287  -8.637  0.00  0.00     0.025 H 
ENDBRANCH   5  14
ENDBRANCH   1   5
BRANCH   2  18
ATOM     18  C   LIG d   1       4.166  -0.051  -3.637  0.00  0.00     0.224 C 
ATOM     19  H   LIG d   1       5.198  -0.106  -3.984  0.00  0.00     0.057 H 
BRANCH  18  20
ATOM     20  C   LIG d   1       4.001   1.163  -2.722  0.00  0.00     0.409 C 
ATOM     21  F   LIG d   1       2.912   0.958  -1.868  0.00  0.00    -0.170 F 
ATOM     22  F   LIG d   1       5.163   1.337  -1.962  0.00  0.00    -0.170 F 
ATOM     23  F   LIG d   1       3.776   2.305  -3.498  0.00  0.00    -0.170 F 
ENDBRANCH  18  20
BRANCH  18  24
ATOM     24  C   LIG d   1       3.820  -1.325  -2.864  0.00  0.00     0.409 C 
ATOM     25  F   LIG d   1       4.158  -2.444  -3.632  0.00  0.00    -0.170 F 
ATOM     26  F   LIG d   1       4.538  -1.350  -1.663  0.00  0.00    -0.170 F 
ATOM     27  F   LIG d   1       2.449  -1.344  -2.588  0.00  0.00    -0.170 F 
ENDBRANCH  18  24
ENDBRANCH   2  18
TORSDOF 7
ENDMDL
MODEL 2
REMARK VINA RESULT:      -5.7      1.315      2.846
REMARK  7 active torsions:
REMARK  status: ('A' for Active; 'I' for Inactive)
REMARK    1  A    between atoms: C_1  and  C_2 
REMARK    2  A    between atoms: C_2  and  C_3 
REMARK    3  A    between atoms: C_3  and  C_5 
REMARK    4  A    between atoms: C_3  and  N_6 
REMARK       I    between atoms: N_6  and  C_7 
REMARK    5  A    between atoms: C_7  and  C_9 
REMARK    6  A    between atoms: C_9  and  C_10 
REMARK    7  A    between atoms: C_9  and  C_14 
ROOT
ATOM      1  N   LIG d   1       3.194  -0.321  -5.833  0.00  0.00    -0.312 N 
ATOM      2  C   LIG d   1       4.114  -0.322  -4.848  0.00  0.00     0.234 C 
ATOM      3  O   LIG d   1       5.263  -0.019  -5.092  0.00  0.00    -0.275 OA
ATOM      4  H   LIG d   1       2.275  -0.562  -5.638  0.00  0.00     0.149 HD
ENDROOT
BRANCH   1   5
ATOM      5  C   LIG d   1       3.582   0.038  -7.199  0.00  0.00     0.020 C 
ATOM      6  H   LIG d   1       4.660   0.199  -7.239  0.00  0.00     0.050 H 
BRANCH   5   7
ATOM      7  C   LIG d   1       3.198  -1.094  -8.153  0.00  0.00    -0.038 C 
ATOM      8  H   LIG d   1       4.070  -1.387  -8.739  0.00  0.00     0.028 H 
ATOM      9  H   LIG d   1       2.843  -1.949  -7.577  0.00  0.00     0.028 H 
BRANCH   7  10
ATOM     10  C   LIG d   1       2.089  -0.615  -9.092  0.00  0.00    -0.064 C 
ATOM     11  H   LIG d   1       1.204  -1.236  -8.956  0.00  0.00     0.023 H 
ATOM     12  H   LIG d   1       1.845   0.423  -8.866  0.00  0.00     0.023 H 
ATOM     13  H   LIG d   1       2.431  -0.690 -10.125  0.00  0.00     0.023 H 
ENDBRANCH   7  10
ENDBRANCH   5   7
BRANCH   5  14
ATOM     14  C   LIG d   1       2.860   1.322  -7.614  0.00  0.00    -0.047 C 
ATOM     15  H   LIG d   1       1.784   1.147  -7.621  0.00  0.00     0.025 H 
ATOM     16  H   LIG d   1       3.094   2.116  -6.905  0.00  0.00     0.025 H 
ATOM     17  H   LIG d   1       3.186   1.616  -8.611  0.00  0.00     0.025 H 
ENDBRANCH   5  14
ENDBRANCH   1   5
BRANCH   2  18
ATOM     18  C   LIG d   1       3.716  -0.698  -3.444  0.00  0.00     0.224 C 
ATOM     19  H   LIG d   1       2.630  -0.772  -3.382  0.00  0.00     0.057 H 
BRANCH  18  20
ATOM     20  C   LIG d   1       4.339  -2.046  -3.081  0.00  0.00     0.409 C 
ATOM     21  F   LIG d   1       3.596  -2.642  -2.056  0.00  0.00    -0.170 F 
ATOM     22  F   LIG d   1       4.336  -2.880  -4.205  0.00  0.00    -0.170 F 
ATOM     23  F   LIG d   1       5.655  -1.850  -2.649  0.00  0.00    -0.170 F 
ENDBRANCH  18  20
BRANCH  18  24
ATOM     24  C   LIG d   1       4.210   0.373  -2.470  0.00  0.00     0.409 C 
ATOM     25  F   LIG d   1       4.393  -0.196  -1.205  0.00  0.00    -0.170 F 
ATOM     26  F   LIG d   1       5.425   0.894  -2.927  0.00  0.00    -0.170 F 
ATOM     27  F   LIG d   1       3.264   1.400  -2.386  0.00  0.00    -0.170 F 
ENDBRANCH  18  24
ENDBRANCH   2  18
TORSDOF 7
ENDMDL
MODEL 3
REMARK VINA RESULT:      -5.7      1.535      2.143
REMARK  7 active torsions:
REMARK  status: ('A' for Active; 'I' for Inactive)
REMARK    1  A    between atoms: C_1  and  C_2 
REMARK    2  A    between atoms: C_2  and  C_3 
REMARK    3  A    between atoms: C_3  and  C_5 
REMARK    4  A    between atoms: C_3  and  N_6 
REMARK       I    between atoms: N_6  and  C_7 
REMARK    5  A    between atoms: C_7  and  C_9 
REMARK    6  A    between atoms: C_9  and  C_10 
REMARK    7  A    between atoms: C_9  and  C_14 
ROOT
ATOM      1  N   LIG d   1       4.043  -0.448  -5.160  0.00  0.00    -0.312 N 
ATOM      2  C   LIG d   1       5.105  -0.102  -4.407  0.00  0.00     0.234 C 
ATOM      3  O   LIG d   1       6.105   0.336  -4.936  0.00  0.00    -0.275 OA
ATOM      4  H   LIG d   1       3.242  -0.798  -4.738  0.00  0.00     0.149 HD
ENDROOT
BRANCH   1   5
ATOM      5  C   LIG d   1       4.097  -0.301  -6.617  0.00  0.00     0.020 C 
ATOM      6  H   LIG d   1       4.939   0.337  -6.885  0.00  0.00     0.050 H 
BRANCH   5   7
ATOM      7  C   LIG d   1       4.272  -1.677  -7.262  0.00  0.00    -0.038 C 
ATOM      8  H   LIG d   1       5.319  -1.823  -7.529  0.00  0.00     0.028 H 
ATOM      9  H   LIG d   1       3.965  -2.450  -6.558  0.00  0.00     0.028 H 
BRANCH   7  10
ATOM     10  C   LIG d   1       3.408  -1.762  -8.522  0.00  0.00    -0.064 C 
ATOM     11  H   LIG d   1       2.782  -2.653  -8.474  0.00  0.00     0.023 H 
ATOM     12  H   LIG d   1       2.776  -0.877  -8.590  0.00  0.00     0.023 H 
ATOM     13  H   LIG d   1       4.052  -1.817  -9.400  0.00  0.00     0.023 H 
ENDBRANCH   7  10
ENDBRANCH   5   7
BRANCH   5  14
ATOM     14  C   LIG d   1       2.796   0.334  -7.115  0.00  0.00    -0.047 C 
ATOM     15  H   LIG d   1       2.680   0.136  -8.180  0.00  0.00     0.025 H 
ATOM     16  H   LIG d   1       1.953  -0.093  -6.572  0.00  0.00     0.025 H 
ATOM     17  H   LIG d   1       2.830   1.410  -6.947  0.00  0.00     0.025 H 
ENDBRANCH   5  14
ENDBRANCH   1   5
BRANCH   2  18
ATOM     18  C   LIG d   1       5.052  -0.259  -2.910  0.00  0.00     0.224 C 
ATOM     19  H   LIG d   1       6.062  -0.212  -2.503  0.00  0.00     0.057 H 
BRANCH  18  20
ATOM     20  C   LIG d   1       4.208   0.866  -2.308  0.00  0.00     0.409 C 
ATOM     21  F   LIG d   1       4.356   2.023  -3.081  0.00  0.00    -0.170 F 
ATOM     22  F   LIG d   1       2.862   0.484  -2.294  0.00  0.00    -0.170 F 
ATOM     23  F   LIG d   1       4.634   1.121  -1.000  0.00  0.00    -0.170 F 
ENDBRANCH  18  20
BRANCH  18  24
ATOM     24  C   LIG d   1       4.425  -1.610  -2.561  0.00  0.00     0.409 C 
ATOM     25  F   LIG d   1       5.145  -2.634  -3.185  0.00  0.00    -0.170 F 
ATOM     26  F   LIG d   1       4.458  -1.795  -1.174  0.00  0.00    -0.170 F 
ATOM     27  F   LIG d   1       3.098  -1.636  -3.003  0.00  0.00    -0.170 F 
ENDBRANCH  18  24
ENDBRANCH   2  18
TORSDOF 7
ENDMDL
MODEL 4
REMARK VINA RESULT:      -5.6      3.461      5.378
REMARK  7 active torsions:
REMARK  status: ('A' for Active; 'I' for Inactive)
REMARK    1  A    between atoms: C_1  and  C_2 
REMARK    2  A    between atoms: C_2  and  C_3 
REMARK    3  A    between atoms: C_3  and  C_5 
REMARK    4  A    between atoms: C_3  and  N_6 
REMARK       I    between atoms: N_6  and  C_7 
REMARK    5  A    between atoms: C_7  and  C_9 
REMARK    6  A    between atoms: C_9  and  C_10 
REMARK    7  A    between atoms: C_9  and  C_14 
ROOT
ATOM      1  N   LIG d   1       2.858  -0.093  -5.141  0.00  0.00    -0.312 N 
ATOM      2  C   LIG d   1       3.484   0.030  -6.328  0.00  0.00     0.234 C 
ATOM      3  O   LIG d   1       4.696   0.054  -6.373  0.00  0.00    -0.275 OA
ATOM      4  H   LIG d   1       1.889  -0.113  -5.105  0.00  0.00     0.149 HD
ENDROOT
BRANCH   1   5
ATOM      5  C   LIG d   1       3.639  -0.191  -3.906  0.00  0.00     0.020 C 
ATOM      6  H   LIG d   1       4.682  -0.389  -4.152  0.00  0.00     0.050 H 
BRANCH   5   7
ATOM      7  C   LIG d   1       3.538   1.125  -3.132  0.00  0.00    -0.038 C 
ATOM      8  H   LIG d   1       3.939   1.936  -3.740  0.00  0.00     0.028 H 
ATOM      9  H   LIG d   1       2.493   1.328  -2.897  0.00  0.00     0.028 H 
BRANCH   7  10
ATOM     10  C   LIG d   1       4.340   1.015  -1.833  0.00  0.00    -0.064 C 
ATOM     11  H   LIG d   1       5.101   0.242  -1.941  0.00  0.00     0.023 H 
ATOM     12  H   LIG d   1       4.819   1.970  -1.620  0.00  0.00     0.023 H 
ATOM     13  H   LIG d   1       3.670   0.754  -1.014  0.00  0.00     0.023 H 
ENDBRANCH   7  10
ENDBRANCH   5   7
BRANCH   5  14
ATOM     14  C   LIG d   1       3.092  -1.332  -3.045  0.00  0.00    -0.047 C 
ATOM     15  H   LIG d   1       3.905  -2.007  -2.778  0.00  0.00     0.025 H 
ATOM     16  H   LIG d   1       2.646  -0.922  -2.139  0.00  0.00     0.025 H 
ATOM     17  H   LIG d   1       2.335  -1.880  -3.607  0.00  0.00     0.025 H 
ENDBRANCH   5  14
ENDBRANCH   1   5
BRANCH   2  18
ATOM     18  C   LIG d   1       2.681   0.138  -7.598  0.00  0.00     0.224 C 
ATOM     19  H   LIG d   1       1.618   0.081  -7.361  0.00  0.00     0.057 H 
BRANCH  18  20
ATOM     20  C   LIG d   1       2.980   1.475  -8.278  0.00  0.00     0.409 C 
ATOM     21  F   LIG d   1       2.329   1.522  -9.516  0.00  0.00    -0.170 F 
ATOM     22  F   LIG d   1       2.523   2.522  -7.471  0.00  0.00    -0.170 F 
ATOM     23  F   LIG d   1       4.359   1.602  -8.472  0.00  0.00    -0.170 F 
ENDBRANCH  18  20
BRANCH  18  24
ATOM     24  C   LIG d   1       3.056  -1.009  -8.538  0.00  0.00     0.409 C 
ATOM     25  F   LIG d   1       4.134  -0.621  -9.341  0.00  0.00    -0.170 F 
ATOM     26  F   LIG d   1       3.416  -2.131  -7.784  0.00  0.00    -0.170 F 
ATOM     27  F   LIG d   1       1.960  -1.324  -9.348  0.00  0.00    -0.170 F 
ENDBRANCH  18  24
ENDBRANCH   2  18
TORSDOF 7
ENDMDL
MODEL 5
REMARK VINA RESULT:      -5.6      1.128      2.727
REMARK  7 active torsions:
REMARK  status: ('A' for Active; 'I' for Inactive)
REMARK    1  A    between atoms: C_1  and  C_2 
REMARK    2  A    between atoms: C_2  and  C_3 
REMARK    3  A    between atoms: C_3  and  C_5 
REMARK    4  A    between atoms: C_3  and  N_6 
REMARK       I    between atoms: N_6  and  C_7 
REMARK    5  A    between atoms: C_7  and  C_9 
REMARK    6  A    between atoms: C_9  and  C_10 
REMARK    7  A    between atoms: C_9  and  C_14 
ROOT
ATOM      1  N   LIG d   1       4.085  -0.682  -5.116  0.00  0.00    -0.312 N 
ATOM      2  C   LIG d   1       3.161  -0.252  -4.235  0.00  0.00     0.234 C 
ATOM      3  O   LIG d   1       2.049   0.044  -4.620  0.00  0.00    -0.275 OA
ATOM      4  H   LIG d   1       4.974  -0.920  -4.809  0.00  0.00     0.149 HD
ENDROOT
BRANCH   1   5
ATOM      5  C   LIG d   1       3.750  -0.785  -6.539  0.00  0.00     0.020 C 
ATOM      6  H   LIG d   1       2.669  -0.866  -6.652  0.00  0.00     0.050 H 
BRANCH   5   7
ATOM      7  C   LIG d   1       4.249   0.461  -7.273  0.00  0.00    -0.038 C 
ATOM      8  H   LIG d   1       4.638   1.177  -6.549  0.00  0.00     0.028 H 
ATOM      9  H   LIG d   1       5.040   0.180  -7.969  0.00  0.00     0.028 H 
BRANCH   7  10
ATOM     10  C   LIG d   1       3.091   1.095  -8.046  0.00  0.00    -0.064 C 
ATOM     11  H   LIG d   1       2.574   0.327  -8.622  0.00  0.00     0.023 H 
ATOM     12  H   LIG d   1       2.394   1.554  -7.345  0.00  0.00     0.023 H 
ATOM     13  H   LIG d   1       3.479   1.856  -8.722  0.00  0.00     0.023 H 
ENDBRANCH   7  10
ENDBRANCH   5   7
BRANCH   5  14
ATOM     14  C   LIG d   1       4.418  -2.028  -7.132  0.00  0.00    -0.047 C 
ATOM     15  H   LIG d   1       4.434  -1.949  -8.219  0.00  0.00     0.025 H 
ATOM     16  H   LIG d   1       5.439  -2.104  -6.758  0.00  0.00     0.025 H 
ATOM     17  H   LIG d   1       3.858  -2.916  -6.840  0.00  0.00     0.025 H 
ENDBRANCH   5  14
ENDBRANCH   1   5
BRANCH   2  18
ATOM     18  C   LIG d   1       3.508  -0.139  -2.773  0.00  0.00     0.224 C 
ATOM     19  H   LIG d   1       2.591  -0.100  -2.184  0.00  0.00     0.057 H 
BRANCH  18  20
ATOM     20  C   LIG d   1       4.333  -1.355  -2.349  0.00  0.00     0.409 C 
ATOM     21  F   LIG d   1       5.529  -1.382  -3.076  0.00  0.00    -0.170 F 
ATOM     22  F   LIG d   1       4.620  -1.272  -0.982  0.00  0.00    -0.170 F 
ATOM     23  F   LIG d   1       3.607  -2.524  -2.603  0.00  0.00    -0.170 F 
ENDBRANCH  18  20
BRANCH  18  24
ATOM     24  C   LIG d   1       4.319   1.136  -2.538  0.00  0.00     0.409 C 
ATOM     25  F   LIG d   1       3.619   2.235  -3.047  0.00  0.00    -0.170 F 
ATOM     26  F   LIG d   1       4.527   1.310  -1.166  0.00  0.00    -0.170 F 
ATOM     27  F   LIG d   1       5.553   1.029  -3.187  0.00  0.00    -0.170 F 
ENDBRANCH  18  24
ENDBRANCH   2  18
TORSDOF 7
ENDMDL
MODEL 6
REMARK VINA RESULT:      -5.5      1.458      2.148
REMARK  7 active torsions:
REMARK  status: ('A' for Active; 'I' for Inactive)
REMARK    1  A    between atoms: C_1  and  C_2 
REMARK    2  A    between atoms: C_2  and  C_3 
REMARK    3  A    between atoms: C_3  and  C_5 
REMARK    4  A    between atoms: C_3  and  N_6 
REMARK       I    between atoms: N_6  and  C_7 
REMARK    5  A    between atoms: C_7  and  C_9 
REMARK    6  A    between atoms: C_9  and  C_10 
REMARK    7  A    between atoms: C_9  and  C_14 
ROOT
ATOM      1  N   LIG d   1       3.620  -0.710  -6.387  0.00  0.00    -0.312 N 
ATOM      2  C   LIG d   1       3.741  -0.323  -5.102  0.00  0.00     0.234 C 
ATOM      3  O   LIG d   1       3.438   0.806  -4.778  0.00  0.00    -0.275 OA
ATOM      4  H   LIG d   1       3.862  -1.613  -6.646  0.00  0.00     0.149 HD
ENDROOT
BRANCH   1   5
ATOM      5  C   LIG d   1       3.130   0.235  -7.394  0.00  0.00     0.020 C 
ATOM      6  H   LIG d   1       2.539   1.010  -6.907  0.00  0.00     0.050 H 
BRANCH   5   7
ATOM      7  C   LIG d   1       4.318   0.875  -8.115  0.00  0.00    -0.038 C 
ATOM      8  H   LIG d   1       5.045   1.220  -7.380  0.00  0.00     0.028 H 
ATOM      9  H   LIG d   1       4.784   0.140  -8.771  0.00  0.00     0.028 H 
BRANCH   7  10
ATOM     10  C   LIG d   1       3.829   2.064  -8.946  0.00  0.00    -0.064 C 
ATOM     11  H   LIG d   1       2.923   2.472  -8.498  0.00  0.00     0.023 H 
ATOM     12  H   LIG d   1       4.601   2.832  -8.971  0.00  0.00     0.023 H 
ATOM     13  H   LIG d   1       3.614   1.732  -9.961  0.00  0.00     0.023 H 
ENDBRANCH   7  10
ENDBRANCH   5   7
BRANCH   5  14
ATOM     14  C   LIG d   1       2.258  -0.509  -8.409  0.00  0.00    -0.047 C 
ATOM     15  H   LIG d   1       1.274  -0.691  -7.978  0.00  0.00     0.025 H 
ATOM     16  H   LIG d   1       2.154   0.096  -9.310  0.00  0.00     0.025 H 
ATOM     17  H   LIG d   1       2.726  -1.460  -8.662  0.00  0.00     0.025 H 
ENDBRANCH   5  14
ENDBRANCH   1   5
BRANCH   2  18
ATOM     18  C   LIG d   1       4.251  -1.292  -4.067  0.00  0.00     0.224 C 
ATOM     19  H   LIG d   1       4.218  -2.305  -4.470  0.00  0.00     0.057 H 
BRANCH  18  20
ATOM     20  C   LIG d   1       5.694  -0.937  -3.704  0.00  0.00     0.409 C 
ATOM     21  F   LIG d   1       6.157  -1.818  -2.721  0.00  0.00    -0.170 F 
ATOM     22  F   LIG d   1       6.502  -1.041  -4.841  0.00  0.00    -0.170 F 
ATOM     23  F   LIG d   1       5.743   0.373  -3.215  0.00  0.00    -0.170 F 
ENDBRANCH  18  20
BRANCH  18  24
ATOM     24  C   LIG d   1       3.375  -1.212  -2.816  0.00  0.00     0.409 C 
ATOM     25  F   LIG d   1       2.056  -0.929  -3.188  0.00  0.00    -0.170 F 
ATOM     26  F   LIG d   1       3.416  -2.436  -2.139  0.00  0.00    -0.170 F 
ATOM     27  F   LIG d   1       3.850  -0.198  -1.978  0.00  0.00    -0.170 F 
ENDBRANCH  18  24
ENDBRANCH   2  18
TORSDOF 7
ENDMDL
MODEL 7
REMARK VINA RESULT:      -5.4      1.513      2.118
REMARK  7 active torsions:
REMARK  status: ('A' for Active; 'I' for Inactive)
REMARK    1  A    between atoms: C_1  and  C_2 
REMARK    2  A    between atoms: C_2  and  C_3 
REMARK    3  A    between atoms: C_3  and  C_5 
REMARK    4  A    between atoms: C_3  and  N_6 
REMARK       I    between atoms: N_6  and  C_7 
REMARK    5  A    between atoms: C_7  and  C_9 
REMARK    6  A    between atoms: C_9  and  C_10 
REMARK    7  A    between atoms: C_9  and  C_14 
ROOT
ATOM      1  N   LIG d   1       4.466  -0.237  -5.945  0.00  0.00    -0.312 N 
ATOM      2  C   LIG d   1       4.360  -1.024  -4.856  0.00  0.00     0.234 C 
ATOM      3  O   LIG d   1       4.258  -2.226  -4.985  0.00  0.00    -0.275 OA
ATOM      4  H   LIG d   1       4.548   0.724  -5.843  0.00  0.00     0.149 HD
ENDROOT
BRANCH   1   5
ATOM      5  C   LIG d   1       4.454  -0.833  -7.284  0.00  0.00     0.020 C 
ATOM      6  H   LIG d   1       4.534  -1.916  -7.199  0.00  0.00     0.050 H 
BRANCH   5   7
ATOM      7  C   LIG d   1       3.146  -0.470  -7.991  0.00  0.00    -0.038 C 
ATOM      8  H   LIG d   1       3.213  -0.748  -9.043  0.00  0.00     0.028 H 
ATOM      9  H   LIG d   1       2.320  -1.008  -7.524  0.00  0.00     0.028 H 
BRANCH   7  10
ATOM     10  C   LIG d   1       2.906   1.036  -7.875  0.00  0.00    -0.064 C 
ATOM     11  H   LIG d   1       1.861   1.256  -8.097  0.00  0.00     0.023 H 
ATOM     12  H   LIG d   1       3.139   1.365  -6.863  0.00  0.00     0.023 H 
ATOM     13  H   LIG d   1       3.546   1.561  -8.584  0.00  0.00     0.023 H 
ENDBRANCH   7  10
ENDBRANCH   5   7
BRANCH   5  14
ATOM     14  C   LIG d   1       5.637  -0.295  -8.092  0.00  0.00    -0.047 C 
ATOM     15  H   LIG d   1       6.567  -0.539  -7.580  0.00  0.00     0.025 H 
ATOM     16  H   LIG d   1       5.636  -0.750  -9.083  0.00  0.00     0.025 H 
ATOM     17  H   LIG d   1       5.549   0.787  -8.189  0.00  0.00     0.025 H 
ENDBRANCH   5  14
ENDBRANCH   1   5
BRANCH   2  18
ATOM     18  C   LIG d   1       4.366  -0.411  -3.480  0.00  0.00     0.224 C 
ATOM     19  H   LIG d   1       5.131   0.364  -3.430  0.00  0.00     0.057 H 
BRANCH  18  20
ATOM     20  C   LIG d   1       2.997   0.207  -3.190  0.00  0.00     0.409 C 
ATOM     21  F   LIG d   1       2.104  -0.800  -2.807  0.00  0.00    -0.170 F 
ATOM     22  F   LIG d   1       3.116   1.142  -2.156  0.00  0.00    -0.170 F 
ATOM     23  F   LIG d   1       2.519   0.842  -4.341  0.00  0.00    -0.170 F 
ENDBRANCH  18  20
BRANCH  18  24
ATOM     24  C   LIG d   1       4.668  -1.493  -2.441  0.00  0.00     0.409 C 
ATOM     25  F   LIG d   1       4.516  -0.962  -1.156  0.00  0.00    -0.170 F 
ATOM     26  F   LIG d   1       3.783  -2.563  -2.611  0.00  0.00    -0.170 F 
ATOM     27  F   LIG d   1       5.982  -1.944  -2.607  0.00  0.00    -0.170 F 
ENDBRANCH  18  24
ENDBRANCH   2  18
TORSDOF 7
ENDMDL
MODEL 8
REMARK VINA RESULT:      -5.4      2.243      2.508
REMARK  7 active torsions:
REMARK  status: ('A' for Active; 'I' for Inactive)
REMARK    1  A    between atoms: C_1  and  C_2 
REMARK    2  A    between atoms: C_2  and  C_3 
REMARK    3  A    between atoms: C_3  and  C_5 
REMARK    4  A    between atoms: C_3  and  N_6 
REMARK       I    between atoms: N_6  and  C_7 
REMARK    5  A    between atoms: C_7  and  C_9 
REMARK    6  A    between atoms: C_9  and  C_10 
REMARK    7  A    between atoms: C_9  and  C_14 
ROOT
ATOM      1  N   LIG d   1       6.080  -0.458  -5.083  0.00  0.00    -0.312 N 
ATOM      2  C   LIG d   1       4.948  -0.232  -4.387  0.00  0.00     0.234 C 
ATOM      3  O   LIG d   1       3.928   0.067  -4.971  0.00  0.00    -0.275 OA
ATOM      4  H   LIG d   1       6.896  -0.698  -4.616  0.00  0.00     0.149 HD
ENDROOT
BRANCH   1   5
ATOM      5  C   LIG d   1       6.080  -0.337  -6.543  0.00  0.00     0.020 C 
ATOM      6  H   LIG d   1       5.087  -0.042  -6.882  0.00  0.00     0.050 H 
BRANCH   5   7
ATOM      7  C   LIG d   1       7.101   0.721  -6.967  0.00  0.00    -0.038 C 
ATOM      8  H   LIG d   1       7.605   0.395  -7.876  0.00  0.00     0.028 H 
ATOM      9  H   LIG d   1       6.588   1.665  -7.153  0.00  0.00     0.028 H 
BRANCH   7  10
ATOM     10  C   LIG d   1       8.131   0.911  -5.851  0.00  0.00    -0.064 C 
ATOM     11  H   LIG d   1       8.786   1.746  -6.100  0.00  0.00     0.023 H 
ATOM     12  H   LIG d   1       7.617   1.118  -4.913  0.00  0.00     0.023 H 
ATOM     13  H   LIG d   1       8.724   0.002  -5.748  0.00  0.00     0.023 H 
ENDBRANCH   7  10
ENDBRANCH   5   7
BRANCH   5  14
ATOM     14  C   LIG d   1       6.453  -1.684  -7.166  0.00  0.00    -0.047 C 
ATOM     15  H   LIG d   1       7.474  -1.638  -7.546  0.00  0.00     0.025 H 
ATOM     16  H   LIG d   1       6.382  -2.466  -6.411  0.00  0.00     0.025 H 
ATOM     17  H   LIG d   1       5.770  -1.907  -7.986  0.00  0.00     0.025 H 
ENDBRANCH   5  14
ENDBRANCH   1   5
BRANCH   2  18
ATOM     18  C   LIG d   1       4.950  -0.350  -2.885  0.00  0.00     0.224 C 
ATOM     19  H   LIG d   1       5.973  -0.482  -2.532  0.00  0.00     0.057 H 
BRANCH  18  20
ATOM     20  C   LIG d   1       4.360   0.922  -2.273  0.00  0.00     0.409 C 
ATOM     21  F   LIG d   1       2.963   0.860  -2.327  0.00  0.00    -0.170 F 
ATOM     22  F   LIG d   1       4.770   1.032  -0.940  0.00  0.00    -0.170 F 
ATOM     23  F   LIG d   1       4.806   2.036  -2.992  0.00  0.00    -0.170 F 
ENDBRANCH  18  20
BRANCH  18  24
ATOM     24  C   LIG d   1       4.107  -1.556  -2.467  0.00  0.00     0.409 C 
ATOM     25  F   LIG d   1       4.452  -2.661  -3.252  0.00  0.00    -0.170 F 
ATOM     26  F   LIG d   1       4.346  -1.848  -1.120  0.00  0.00    -0.170 F 
ATOM     27  F   LIG d   1       2.751  -1.262  -2.647  0.00  0.00    -0.170 F 
ENDBRANCH  18  24
ENDBRANCH   2  18
TORSDOF 7
ENDMDL
MODEL 9
REMARK VINA RESULT:      -5.4      2.728      3.947
REMARK  7 active torsions:
REMARK  status: ('A' for Active; 'I' for Inactive)
REMARK    1  A    between atoms: C_1  and  C_2 
REMARK    2  A    between atoms: C_2  and  C_3 
REMARK    3  A    between atoms: C_3  and  C_5 
REMARK    4  A    between atoms: C_3  and  N_6 
REMARK       I    between atoms: N_6  and  C_7 
REMARK    5  A    between atoms: C_7  and  C_9 
REMARK    6  A    between atoms: C_9  and  C_10 
REMARK    7  A    between atoms: C_9  and  C_14 
ROOT
ATOM      1  N   LIG d   1       6.084  -0.339  -5.068  0.00  0.00    -0.312 N 
ATOM      2  C   LIG d   1       5.327   0.044  -4.021  0.00  0.00     0.234 C 
ATOM      3  O   LIG d   1       5.585   1.072  -3.431  0.00  0.00    -0.275 OA
ATOM      4  H   LIG d   1       5.877  -1.160  -5.541  0.00  0.00     0.149 HD
ENDROOT
BRANCH   1   5
ATOM      5  C   LIG d   1       7.221   0.483  -5.491  0.00  0.00     0.020 C 
ATOM      6  H   LIG d   1       7.135   1.476  -5.048  0.00  0.00     0.050 H 
BRANCH   5   7
ATOM      7  C   LIG d   1       8.523  -0.172  -5.027  0.00  0.00    -0.038 C 
ATOM      8  H   LIG d   1       9.340   0.144  -5.676  0.00  0.00     0.028 H 
ATOM      9  H   LIG d   1       8.736   0.129  -4.001  0.00  0.00     0.028 H 
BRANCH   7  10
ATOM     10  C   LIG d   1       8.379  -1.694  -5.092  0.00  0.00    -0.064 C 
ATOM     11  H   LIG d   1       7.448  -1.949  -5.599  0.00  0.00     0.023 H 
ATOM     12  H   LIG d   1       9.220  -2.116  -5.642  0.00  0.00     0.023 H 
ATOM     13  H   LIG d   1       8.366  -2.101  -4.081  0.00  0.00     0.023 H 
ENDBRANCH   7  10
ENDBRANCH   5   7
BRANCH   5  14
ATOM     14  C   LIG d   1       7.225   0.603  -7.016  0.00  0.00    -0.047 C 
ATOM     15  H   LIG d   1       8.246   0.507  -7.385  0.00  0.00     0.025 H 
ATOM     16  H   LIG d   1       6.608  -0.187  -7.444  0.00  0.00     0.025 H 
ATOM     17  H   LIG d   1       6.824   1.574  -7.306  0.00  0.00     0.025 H 
ENDBRANCH   5  14
ENDBRANCH   1   5
BRANCH   2  18
ATOM     18  C   LIG d   1       4.162  -0.804  -3.582  0.00  0.00     0.224 C 
ATOM     19  H   LIG d   1       3.898  -1.500  -4.379  0.00  0.00     0.057 H 
BRANCH  18  20
ATOM     20  C   LIG d   1       4.546  -1.589  -2.327  0.00  0.00     0.409 C 
ATOM     21  F   LIG d   1       3.676  -2.675  -2.173  0.00  0.00    -0.170 F 
ATOM     22  F   LIG d   1       5.858  -2.058  -2.453  0.00  0.00    -0.170 F 
ATOM     23  F   LIG d   1       4.453  -0.755  -1.208  0.00  0.00    -0.170 F 
ENDBRANCH  18  20
BRANCH  18  24
ATOM     24  C   LIG d   1       2.963   0.096  -3.275  0.00  0.00     0.409 C 
ATOM     25  F   LIG d   1       2.655   0.865  -4.402  0.00  0.00    -0.170 F 
ATOM     26  F   LIG d   1       1.860  -0.696  -2.936  0.00  0.00    -0.170 F 
ATOM     27  F   LIG d   1       3.277   0.941  -2.205  0.00  0.00    -0.170 F 
ENDBRANCH  18  24
ENDBRANCH   2  18
TORSDOF 7
ENDMDL
MODEL 10
REMARK VINA RESULT:      -5.2      3.059      4.487
REMARK  7 active torsions:
REMARK  status: ('A' for Active; 'I' for Inactive)
REMARK    1  A    between atoms: C_1  and  C_2 
REMARK    2  A    between atoms: C_2  and  C_3 
REMARK    3  A    between atoms: C_3  and  C_5 
REMARK    4  A    between atoms: C_3  and  N_6 
REMARK       I    between atoms: N_6  and  C_7 
REMARK    5  A    between atoms: C_7  and  C_9 
REMARK    6  A    between atoms: C_9  and  C_10 
REMARK    7  A    between atoms: C_9  and  C_14 
ROOT
ATOM      1  N   LIG d   1       6.178  -1.036  -5.039  0.00  0.00    -0.312 N 
ATOM      2  C   LIG d   1       5.864  -0.726  -3.765  0.00  0.00     0.234 C 
ATOM      3  O   LIG d   1       6.673  -0.909  -2.880  0.00  0.00    -0.275 OA
ATOM      4  H   LIG d   1       5.531  -0.888  -5.747  0.00  0.00     0.149 HD
ENDROOT
BRANCH   1   5
ATOM      5  C   LIG d   1       7.493  -1.600  -5.353  0.00  0.00     0.020 C 
ATOM      6  H   LIG d   1       8.173  -1.420  -4.520  0.00  0.00     0.050 H 
BRANCH   5   7
ATOM      7  C   LIG d   1       7.359  -3.106  -5.588  0.00  0.00    -0.038 C 
ATOM      8  H   LIG d   1       6.305  -3.366  -5.686  0.00  0.00     0.028 H 
ATOM      9  H   LIG d   1       7.888  -3.380  -6.501  0.00  0.00     0.028 H 
BRANCH   7  10
ATOM     10  C   LIG d   1       7.962  -3.861  -4.402  0.00  0.00    -0.064 C 
ATOM     11  H   LIG d   1       8.673  -3.218  -3.884  0.00  0.00     0.023 H 
ATOM     12  H   LIG d   1       7.168  -4.153  -3.715  0.00  0.00     0.023 H 
ATOM     13  H   LIG d   1       8.475  -4.753  -4.762  0.00  0.00     0.023 H 
ENDBRANCH   7  10
ENDBRANCH   5   7
BRANCH   5  14
ATOM     14  C   LIG d   1       8.045  -0.934  -6.616  0.00  0.00    -0.047 C 
ATOM     15  H   LIG d   1       7.358  -0.155  -6.946  0.00  0.00     0.025 H 
ATOM     16  H   LIG d   1       9.017  -0.493  -6.398  0.00  0.00     0.025 H 
ATOM     17  H   LIG d   1       8.152  -1.681  -7.403  0.00  0.00     0.025 H 
ENDBRANCH   5  14
ENDBRANCH   1   5
BRANCH   2  18
ATOM     18  C   LIG d   1       4.509  -0.152  -3.441  0.00  0.00     0.224 C 
ATOM     19  H   LIG d   1       3.967   0.046  -4.366  0.00  0.00     0.057 H 
BRANCH  18  20
ATOM     20  C   LIG d   1       3.721  -1.152  -2.593  0.00  0.00     0.409 C 
ATOM     21  F   LIG d   1       4.307  -1.251  -1.326  0.00  0.00    -0.170 F 
ATOM     22  F   LIG d   1       2.399  -0.713  -2.463  0.00  0.00    -0.170 F 
ATOM     23  F   LIG d   1       3.738  -2.405  -3.215  0.00  0.00    -0.170 F 
ENDBRANCH  18  20
BRANCH  18  24
ATOM     24  C   LIG d   1       4.681   1.154  -2.662  0.00  0.00     0.409 C 
ATOM     25  F   LIG d   1       3.607   2.007  -2.937  0.00  0.00    -0.170 F 
ATOM     26  F   LIG d   1       4.718   0.877  -1.291  0.00  0.00    -0.170 F 
ATOM     27  F   LIG d   1       5.877   1.771  -3.046  0.00  0.00    -0.170 F 
ENDBRANCH  18  24
ENDBRANCH   2  18
TORSDOF 7
ENDMDL
