MODEL 1
REMARK VINA RESULT:      -6.1      0.000      0.000
REMARK  10 active torsions:
REMARK  status: ('A' for Active; 'I' for Inactive)
REMARK    1  A    between atoms: C_3  and  O_36 
REMARK    2  A    between atoms: C_6  and  C_7 
REMARK    3  A    between atoms: C_15  and  O_35 
REMARK    4  A    between atoms: C_16  and  C_19 
REMARK    5  A    between atoms: C_17  and  O_18 
REMARK    6  A    between atoms: C_21  and  O_34 
REMARK    7  A    between atoms: C_23  and  O_33 
REMARK    8  A    between atoms: C_25  and  O_32 
REMARK    9  A    between atoms: C_27  and  C_30 
REMARK   10  A    between atoms: C_30  and  O_31 
ROOT
ATOM      1  C   LIG d   1      11.472   8.802   1.492  0.00  0.00     0.139 A 
ATOM      2  C   LIG d   1      10.797   9.613   0.635  0.00  0.00     0.029 A 
ATOM      3  C   LIG d   1      10.283   9.081  -0.571  0.00  0.00     0.197 A 
ATOM      4  O   LIG d   1       9.673   9.781  -1.364  0.00  0.00    -0.287 OA
ATOM      5  C   LIG d   1      10.512   7.650  -0.833  0.00  0.00     0.106 A 
ATOM      6  C   LIG d   1      11.223   6.900   0.121  0.00  0.00     0.146 A 
ATOM      7  O   LIG d   1      11.680   7.499   1.241  0.00  0.00    -0.454 OA
ATOM      8  C   LIG d   1      11.451   5.551  -0.105  0.00  0.00     0.024 A 
ATOM      9  C   LIG d   1      10.979   4.953  -1.263  0.00  0.00     0.130 A 
ATOM     10  C   LIG d   1      10.276   5.692  -2.208  0.00  0.00     0.067 A 
ATOM     11  C   LIG d   1      10.039   7.038  -2.000  0.00  0.00     0.140 A 
ATOM     12  H   LIG d   1      10.655  10.657   0.872  0.00  0.00     0.069 H 
ATOM     13  H   LIG d   1      11.995   4.967   0.622  0.00  0.00     0.069 H 
ENDROOT
BRANCH  10  14
ATOM     14  C   LIG d   1       9.771   5.025  -3.461  0.00  0.00     0.119 C 
ATOM     15  H   LIG d   1       8.980   5.630  -3.901  0.00  0.00     0.068 H 
ATOM     16  O   LIG d   1       9.259   3.730  -3.138  0.00  0.00    -0.361 OA
ATOM     17  C   LIG d   1       8.729   3.017  -4.257  0.00  0.00     0.111 C 
ATOM     18  C   LIG d   1       9.837   2.793  -5.290  0.00  0.00     0.112 C 
ATOM     19  H   LIG d   1       7.922   3.595  -4.708  0.00  0.00     0.065 H 
ATOM     20  C   LIG d   1      10.415   4.149  -5.708  0.00  0.00     0.112 C 
ATOM     21  H   LIG d   1      10.624   2.181  -4.852  0.00  0.00     0.065 H 
ATOM     22  C   LIG d   1      10.922   4.882  -4.462  0.00  0.00     0.114 C 
ATOM     23  H   LIG d   1       9.639   4.744  -6.191  0.00  0.00     0.065 H 
ATOM     24  H   LIG d   1      11.731   4.311  -4.007  0.00  0.00     0.065 H 
BRANCH  17  25
ATOM     25  C   LIG d   1       8.186   1.665  -3.791  0.00  0.00     0.073 C 
ATOM     26  H   LIG d   1       8.951   0.899  -3.925  0.00  0.00     0.058 H 
ATOM     27  H   LIG d   1       7.916   1.727  -2.737  0.00  0.00     0.058 H 
BRANCH  25  28
ATOM     28  O   LIG d   1       7.031   1.324  -4.560  0.00  0.00    -0.392 OA
ATOM     29  H   LIG d   1       7.166   0.582  -5.164  0.00  0.00     0.209 HD
ENDBRANCH  25  28
ENDBRANCH  17  25
BRANCH  18  30
ATOM     30  O   LIG d   1       9.297   2.131  -6.435  0.00  0.00    -0.387 OA
ATOM     31  H   LIG d   1       9.384   2.632  -7.257  0.00  0.00     0.210 HD
ENDBRANCH  18  30
BRANCH  20  32
ATOM     32  O   LIG d   1      11.498   3.949  -6.617  0.00  0.00    -0.387 OA
ATOM     33  H   LIG d   1      11.437   3.130  -7.128  0.00  0.00     0.210 HD
ENDBRANCH  20  32
BRANCH  22  34
ATOM     34  O   LIG d   1      11.398   6.178  -4.829  0.00  0.00    -0.386 OA
ATOM     35  H   LIG d   1      12.361   6.236  -4.903  0.00  0.00     0.210 HD
ENDBRANCH  22  34
ENDBRANCH  10  14
BRANCH   9  36
ATOM     36  O   LIG d   1      11.207   3.632  -1.477  0.00  0.00    -0.506 OA
ATOM     37  H   LIG d   1      11.215   3.098  -0.671  0.00  0.00     0.292 HD
ENDBRANCH   9  36
BRANCH  11  38
ATOM     38  O   LIG d   1       9.353   7.762  -2.920  0.00  0.00    -0.505 OA
ATOM     39  H   LIG d   1       9.489   7.468  -3.832  0.00  0.00     0.292 HD
ENDBRANCH  11  38
BRANCH   1  40
ATOM     40  C   LIG d   1      12.001   9.376   2.744  0.00  0.00     0.018 A 
ATOM     41  C   LIG d   1      12.571  10.651   2.744  0.00  0.00    -0.048 A 
ATOM     42  C   LIG d   1      13.063  11.184   3.915  0.00  0.00    -0.019 A 
ATOM     43  H   LIG d   1      12.622  11.221   1.828  0.00  0.00     0.063 H 
ATOM     44  C   LIG d   1      12.993  10.454   5.096  0.00  0.00     0.117 A 
ATOM     45  H   LIG d   1      13.504  12.170   3.916  0.00  0.00     0.065 H 
ATOM     46  C   LIG d   1      12.427   9.184   5.101  0.00  0.00    -0.019 A 
ATOM     47  C   LIG d   1      11.934   8.645   3.933  0.00  0.00    -0.048 A 
ATOM     48  H   LIG d   1      12.375   8.621   6.020  0.00  0.00     0.065 H 
ATOM     49  H   LIG d   1      11.494   7.658   3.938  0.00  0.00     0.063 H 
BRANCH  44  50
ATOM     50  O   LIG d   1      13.480  10.983   6.249  0.00  0.00    -0.507 OA
ATOM     51  H   LIG d   1      13.322  10.435   7.029  0.00  0.00     0.292 HD
ENDBRANCH  44  50
ENDBRANCH   1  40
TORSDOF 10
ENDMDL
MODEL 2
REMARK VINA RESULT:      -6.1      2.114      9.287
REMARK  10 active torsions:
REMARK  status: ('A' for Active; 'I' for Inactive)
REMARK    1  A    between atoms: C_3  and  O_36 
REMARK    2  A    between atoms: C_6  and  C_7 
REMARK    3  A    between atoms: C_15  and  O_35 
REMARK    4  A    between atoms: C_16  and  C_19 
REMARK    5  A    between atoms: C_17  and  O_18 
REMARK    6  A    between atoms: C_21  and  O_34 
REMARK    7  A    between atoms: C_23  and  O_33 
REMARK    8  A    between atoms: C_25  and  O_32 
REMARK    9  A    between atoms: C_27  and  C_30 
REMARK   10  A    between atoms: C_30  and  O_31 
ROOT
ATOM      1  C   LIG d   1       9.324   4.353  -4.185  0.00  0.00     0.139 A 
ATOM      2  C   LIG d   1       9.322   5.387  -5.067  0.00  0.00     0.029 A 
ATOM      3  C   LIG d   1       9.688   6.681  -4.626  0.00  0.00     0.197 A 
ATOM      4  O   LIG d   1       9.696   7.633  -5.390  0.00  0.00    -0.287 OA
ATOM      5  C   LIG d   1      10.061   6.834  -3.209  0.00  0.00     0.106 A 
ATOM      6  C   LIG d   1      10.031   5.698  -2.382  0.00  0.00     0.146 A 
ATOM      7  O   LIG d   1       9.661   4.505  -2.894  0.00  0.00    -0.454 OA
ATOM      8  C   LIG d   1      10.377   5.819  -1.045  0.00  0.00     0.024 A 
ATOM      9  C   LIG d   1      10.748   7.053  -0.534  0.00  0.00     0.130 A 
ATOM     10  C   LIG d   1      10.779   8.178  -1.350  0.00  0.00     0.067 A 
ATOM     11  C   LIG d   1      10.437   8.077  -2.686  0.00  0.00     0.140 A 
ATOM     12  H   LIG d   1       9.041   5.224  -6.097  0.00  0.00     0.069 H 
ATOM     13  H   LIG d   1      10.357   4.952  -0.402  0.00  0.00     0.069 H 
ENDROOT
BRANCH  10  14
ATOM     14  C   LIG d   1      11.185   9.512  -0.777  0.00  0.00     0.119 C 
ATOM     15  H   LIG d   1      11.530  10.163  -1.580  0.00  0.00     0.068 H 
ATOM     16  O   LIG d   1      12.240   9.323   0.169  0.00  0.00    -0.361 OA
ATOM     17  C   LIG d   1      12.719  10.533   0.757  0.00  0.00     0.111 C 
ATOM     18  C   LIG d   1      11.581  11.217   1.517  0.00  0.00     0.112 C 
ATOM     19  H   LIG d   1      13.086  11.197  -0.026  0.00  0.00     0.065 H 
ATOM     20  C   LIG d   1      10.420  11.481   0.553  0.00  0.00     0.112 C 
ATOM     21  H   LIG d   1      11.242  10.570   2.326  0.00  0.00     0.065 H 
ATOM     22  C   LIG d   1       9.984  10.155  -0.079  0.00  0.00     0.114 C 
ATOM     23  H   LIG d   1      10.745  12.168  -0.230  0.00  0.00     0.065 H 
ATOM     24  H   LIG d   1       9.613   9.486   0.698  0.00  0.00     0.065 H 
BRANCH  17  25
ATOM     25  C   LIG d   1      13.859  10.213   1.726  0.00  0.00     0.073 C 
ATOM     26  H   LIG d   1      14.537   9.493   1.267  0.00  0.00     0.058 H 
ATOM     27  H   LIG d   1      14.405  11.127   1.959  0.00  0.00     0.058 H 
BRANCH  25  28
ATOM     28  O   LIG d   1      13.322   9.660   2.929  0.00  0.00    -0.392 OA
ATOM     29  H   LIG d   1      12.871   8.814   2.807  0.00  0.00     0.209 HD
ENDBRANCH  25  28
ENDBRANCH  17  25
BRANCH  18  30
ATOM     30  O   LIG d   1      12.042  12.456   2.059  0.00  0.00    -0.387 OA
ATOM     31  H   LIG d   1      12.889  12.392   2.522  0.00  0.00     0.210 HD
ENDBRANCH  18  30
BRANCH  20  32
ATOM     32  O   LIG d   1       9.323  12.053   1.266  0.00  0.00    -0.387 OA
ATOM     33  H   LIG d   1       8.709  11.402   1.632  0.00  0.00     0.210 HD
ENDBRANCH  20  32
BRANCH  22  34
ATOM     34  O   LIG d   1       8.950  10.396  -1.034  0.00  0.00    -0.386 OA
ATOM     35  H   LIG d   1       8.500   9.595  -1.338  0.00  0.00     0.210 HD
ENDBRANCH  22  34
ENDBRANCH  10  14
BRANCH   9  36
ATOM     36  O   LIG d   1      11.085   7.164   0.776  0.00  0.00    -0.506 OA
ATOM     37  H   LIG d   1      11.888   7.679   0.934  0.00  0.00     0.292 HD
ENDBRANCH   9  36
BRANCH  11  38
ATOM     38  O   LIG d   1      10.466   9.174  -3.484  0.00  0.00    -0.505 OA
ATOM     39  H   LIG d   1      11.311   9.312  -3.933  0.00  0.00     0.292 HD
ENDBRANCH  11  38
BRANCH   1  40
ATOM     40  C   LIG d   1       8.939   3.012  -4.664  0.00  0.00     0.018 A 
ATOM     41  C   LIG d   1       8.319   2.109  -3.796  0.00  0.00    -0.048 A 
ATOM     42  C   LIG d   1       7.959   0.859  -4.246  0.00  0.00    -0.019 A 
ATOM     43  H   LIG d   1       8.118   2.394  -2.773  0.00  0.00     0.063 H 
ATOM     44  C   LIG d   1       8.212   0.494  -5.563  0.00  0.00     0.117 A 
ATOM     45  H   LIG d   1       7.480   0.160  -3.577  0.00  0.00     0.065 H 
ATOM     46  C   LIG d   1       8.829   1.388  -6.431  0.00  0.00    -0.019 A 
ATOM     47  C   LIG d   1       9.191   2.640  -5.987  0.00  0.00    -0.048 A 
ATOM     48  H   LIG d   1       9.023   1.100  -7.454  0.00  0.00     0.065 H 
ATOM     49  H   LIG d   1       9.670   3.335  -6.661  0.00  0.00     0.063 H 
BRANCH  44  50
ATOM     50  O   LIG d   1       7.856  -0.741  -6.004  0.00  0.00    -0.507 OA
ATOM     51  H   LIG d   1       7.175  -0.732  -6.690  0.00  0.00     0.292 HD
ENDBRANCH  44  50
ENDBRANCH   1  40
TORSDOF 10
ENDMDL
MODEL 3
REMARK VINA RESULT:      -6.1      4.220      6.112
REMARK  10 active torsions:
REMARK  status: ('A' for Active; 'I' for Inactive)
REMARK    1  A    between atoms: C_3  and  O_36 
REMARK    2  A    between atoms: C_6  and  C_7 
REMARK    3  A    between atoms: C_15  and  O_35 
REMARK    4  A    between atoms: C_16  and  C_19 
REMARK    5  A    between atoms: C_17  and  O_18 
REMARK    6  A    between atoms: C_21  and  O_34 
REMARK    7  A    between atoms: C_23  and  O_33 
REMARK    8  A    between atoms: C_25  and  O_32 
REMARK    9  A    between atoms: C_27  and  C_30 
REMARK   10  A    between atoms: C_30  and  O_31 
ROOT
ATOM      1  C   LIG d   1      12.460   9.285   4.179  0.00  0.00     0.139 A 
ATOM      2  C   LIG d   1      12.623  10.601   3.877  0.00  0.00     0.029 A 
ATOM      3  C   LIG d   1      12.261  11.073   2.593  0.00  0.00     0.197 A 
ATOM      4  O   LIG d   1      12.395  12.247   2.287  0.00  0.00    -0.287 OA
ATOM      5  C   LIG d   1      11.717  10.092   1.639  0.00  0.00     0.106 A 
ATOM      6  C   LIG d   1      11.589   8.754   2.053  0.00  0.00     0.146 A 
ATOM      7  O   LIG d   1      11.967   8.399   3.299  0.00  0.00    -0.454 OA
ATOM      8  C   LIG d   1      11.079   7.814   1.171  0.00  0.00     0.024 A 
ATOM      9  C   LIG d   1      10.701   8.195  -0.107  0.00  0.00     0.130 A 
ATOM     10  C   LIG d   1      10.827   9.517  -0.519  0.00  0.00     0.067 A 
ATOM     11  C   LIG d   1      11.332  10.469   0.346  0.00  0.00     0.140 A 
ATOM     12  H   LIG d   1      13.027  11.282   4.611  0.00  0.00     0.069 H 
ATOM     13  H   LIG d   1      10.977   6.784   1.480  0.00  0.00     0.069 H 
ENDROOT
BRANCH  10  14
ATOM     14  C   LIG d   1      10.411   9.913  -1.912  0.00  0.00     0.119 C 
ATOM     15  H   LIG d   1      10.215   9.018  -2.502  0.00  0.00     0.068 H 
ATOM     16  O   LIG d   1      11.457  10.670  -2.526  0.00  0.00    -0.361 OA
ATOM     17  C   LIG d   1      11.174  11.077  -3.865  0.00  0.00     0.111 C 
ATOM     18  C   LIG d   1       9.936  11.976  -3.874  0.00  0.00     0.112 C 
ATOM     19  H   LIG d   1      10.990  10.196  -4.482  0.00  0.00     0.065 H 
ATOM     20  C   LIG d   1       8.758  11.216  -3.256  0.00  0.00     0.112 C 
ATOM     21  H   LIG d   1      10.135  12.875  -3.292  0.00  0.00     0.065 H 
ATOM     22  C   LIG d   1       9.140  10.766  -1.842  0.00  0.00     0.114 C 
ATOM     23  H   LIG d   1       8.527  10.341  -3.866  0.00  0.00     0.065 H 
ATOM     24  H   LIG d   1       9.324  11.641  -1.219  0.00  0.00     0.065 H 
BRANCH  17  25
ATOM     25  C   LIG d   1      12.369  11.849  -4.427  0.00  0.00     0.073 C 
ATOM     26  H   LIG d   1      13.282  11.519  -3.932  0.00  0.00     0.058 H 
ATOM     27  H   LIG d   1      12.450  11.664  -5.498  0.00  0.00     0.058 H 
BRANCH  25  28
ATOM     28  O   LIG d   1      12.183  13.248  -4.199  0.00  0.00    -0.392 OA
ATOM     29  H   LIG d   1      12.878  13.804  -4.576  0.00  0.00     0.209 HD
ENDBRANCH  25  28
ENDBRANCH  17  25
BRANCH  18  30
ATOM     30  O   LIG d   1       9.616  12.338  -5.219  0.00  0.00    -0.387 OA
ATOM     31  H   LIG d   1       9.024  11.717  -5.664  0.00  0.00     0.210 HD
ENDBRANCH  18  30
BRANCH  20  32
ATOM     32  O   LIG d   1       7.615  12.069  -3.193  0.00  0.00    -0.387 OA
ATOM     33  H   LIG d   1       7.811  13.002  -3.358  0.00  0.00     0.210 HD
ENDBRANCH  20  32
BRANCH  22  34
ATOM     34  O   LIG d   1       8.078   9.993  -1.281  0.00  0.00    -0.386 OA
ATOM     35  H   LIG d   1       7.225  10.122  -1.719  0.00  0.00     0.210 HD
ENDBRANCH  22  34
ENDBRANCH  10  14
BRANCH   9  36
ATOM     36  O   LIG d   1      10.204   7.268  -0.965  0.00  0.00    -0.506 OA
ATOM     37  H   LIG d   1       9.370   6.871  -0.676  0.00  0.00     0.292 HD
ENDBRANCH   9  36
BRANCH  11  38
ATOM     38  O   LIG d   1      11.456  11.760  -0.054  0.00  0.00    -0.505 OA
ATOM     39  H   LIG d   1      11.704  11.862  -0.983  0.00  0.00     0.292 HD
ENDBRANCH  11  38
BRANCH   1  40
ATOM     40  C   LIG d   1      12.843   8.813   5.522  0.00  0.00     0.018 A 
ATOM     41  C   LIG d   1      14.192   8.724   5.876  0.00  0.00    -0.048 A 
ATOM     42  C   LIG d   1      14.546   8.283   7.131  0.00  0.00    -0.019 A 
ATOM     43  H   LIG d   1      14.956   9.005   5.166  0.00  0.00     0.063 H 
ATOM     44  C   LIG d   1      13.563   7.928   8.047  0.00  0.00     0.117 A 
ATOM     45  H   LIG d   1      15.588   8.214   7.406  0.00  0.00     0.065 H 
ATOM     46  C   LIG d   1      12.220   8.014   7.701  0.00  0.00    -0.019 A 
ATOM     47  C   LIG d   1      11.858   8.453   6.446  0.00  0.00    -0.048 A 
ATOM     48  H   LIG d   1      11.459   7.736   8.416  0.00  0.00     0.065 H 
ATOM     49  H   LIG d   1      10.814   8.521   6.177  0.00  0.00     0.063 H 
BRANCH  44  50
ATOM     50  O   LIG d   1      13.916   7.493   9.285  0.00  0.00    -0.507 OA
ATOM     51  H   LIG d   1      14.220   8.195   9.876  0.00  0.00     0.292 HD
ENDBRANCH  44  50
ENDBRANCH   1  40
TORSDOF 10
ENDMDL
MODEL 4
REMARK VINA RESULT:      -5.9      9.806     16.315
REMARK  10 active torsions:
REMARK  status: ('A' for Active; 'I' for Inactive)
REMARK    1  A    between atoms: C_3  and  O_36 
REMARK    2  A    between atoms: C_6  and  C_7 
REMARK    3  A    between atoms: C_15  and  O_35 
REMARK    4  A    between atoms: C_16  and  C_19 
REMARK    5  A    between atoms: C_17  and  O_18 
REMARK    6  A    between atoms: C_21  and  O_34 
REMARK    7  A    between atoms: C_23  and  O_33 
REMARK    8  A    between atoms: C_25  and  O_32 
REMARK    9  A    between atoms: C_27  and  C_30 
REMARK   10  A    between atoms: C_30  and  O_31 
ROOT
ATOM      1  C   LIG d   1       1.750  -1.961 -11.780  0.00  0.00     0.139 A 
ATOM      2  C   LIG d   1       2.219  -3.061 -11.132  0.00  0.00     0.029 A 
ATOM      3  C   LIG d   1       2.784  -2.922  -9.842  0.00  0.00     0.197 A 
ATOM      4  O   LIG d   1       3.216  -3.888  -9.232  0.00  0.00    -0.287 OA
ATOM      5  C   LIG d   1       2.832  -1.569  -9.264  0.00  0.00     0.106 A 
ATOM      6  C   LIG d   1       2.318  -0.499 -10.019  0.00  0.00     0.146 A 
ATOM      7  O   LIG d   1       1.803  -0.730 -11.245  0.00  0.00    -0.454 OA
ATOM      8  C   LIG d   1       2.353   0.783  -9.495  0.00  0.00     0.024 A 
ATOM      9  C   LIG d   1       2.891   1.004  -8.236  0.00  0.00     0.130 A 
ATOM     10  C   LIG d   1       3.399  -0.052  -7.487  0.00  0.00     0.067 A 
ATOM     11  C   LIG d   1       3.373  -1.338  -7.993  0.00  0.00     0.140 A 
ATOM     12  H   LIG d   1       2.161  -4.033 -11.598  0.00  0.00     0.069 H 
ATOM     13  H   LIG d   1       1.961   1.611 -10.067  0.00  0.00     0.069 H 
ENDROOT
BRANCH  10  14
ATOM     14  C   LIG d   1       3.980   0.207  -6.121  0.00  0.00     0.119 C 
ATOM     15  H   LIG d   1       3.994   1.279  -5.928  0.00  0.00     0.068 H 
ATOM     16  O   LIG d   1       5.314  -0.305  -6.065  0.00  0.00    -0.361 OA
ATOM     17  C   LIG d   1       5.969  -0.090  -4.815  0.00  0.00     0.111 C 
ATOM     18  C   LIG d   1       5.193  -0.800  -3.703  0.00  0.00     0.112 C 
ATOM     19  H   LIG d   1       6.011   0.979  -4.605  0.00  0.00     0.065 H 
ATOM     20  C   LIG d   1       3.753  -0.276  -3.682  0.00  0.00     0.112 C 
ATOM     21  H   LIG d   1       5.187  -1.873  -3.891  0.00  0.00     0.065 H 
ATOM     22  C   LIG d   1       3.123  -0.492  -5.062  0.00  0.00     0.114 C 
ATOM     23  H   LIG d   1       3.756   0.789  -3.446  0.00  0.00     0.065 H 
ATOM     24  H   LIG d   1       3.076  -1.559  -5.277  0.00  0.00     0.065 H 
BRANCH  17  25
ATOM     25  C   LIG d   1       7.392  -0.650  -4.881  0.00  0.00     0.073 C 
ATOM     26  H   LIG d   1       7.379  -1.709  -4.623  0.00  0.00     0.058 H 
ATOM     27  H   LIG d   1       7.784  -0.527  -5.890  0.00  0.00     0.058 H 
BRANCH  25  28
ATOM     28  O   LIG d   1       8.225   0.054  -3.957  0.00  0.00    -0.392 OA
ATOM     29  H   LIG d   1       9.066  -0.384  -3.774  0.00  0.00     0.209 HD
ENDBRANCH  25  28
ENDBRANCH  17  25
BRANCH  18  30
ATOM     30  O   LIG d   1       5.814  -0.539  -2.443  0.00  0.00    -0.387 OA
ATOM     31  H   LIG d   1       6.053  -1.336  -1.950  0.00  0.00     0.210 HD
ENDBRANCH  18  30
BRANCH  20  32
ATOM     32  O   LIG d   1       2.999  -0.982  -2.697  0.00  0.00    -0.387 OA
ATOM     33  H   LIG d   1       3.218  -1.922  -2.633  0.00  0.00     0.210 HD
ENDBRANCH  20  32
BRANCH  22  34
ATOM     34  O   LIG d   1       1.805   0.058  -5.078  0.00  0.00    -0.386 OA
ATOM     35  H   LIG d   1       1.565   0.529  -4.266  0.00  0.00     0.210 HD
ENDBRANCH  22  34
ENDBRANCH  10  14
BRANCH   9  36
ATOM     36  O   LIG d   1       2.922   2.263  -7.730  0.00  0.00    -0.506 OA
ATOM     37  H   LIG d   1       3.009   2.299  -6.767  0.00  0.00     0.292 HD
ENDBRANCH   9  36
BRANCH  11  38
ATOM     38  O   LIG d   1       3.869  -2.370  -7.265  0.00  0.00    -0.505 OA
ATOM     39  H   LIG d   1       3.548  -2.398  -6.353  0.00  0.00     0.292 HD
ENDBRANCH  11  38
BRANCH   1  40
ATOM     40  C   LIG d   1       1.164  -2.125 -13.124  0.00  0.00     0.018 A 
ATOM     41  C   LIG d   1       1.996  -2.248 -14.240  0.00  0.00    -0.048 A 
ATOM     42  C   LIG d   1       1.446  -2.402 -15.492  0.00  0.00    -0.019 A 
ATOM     43  H   LIG d   1       3.069  -2.226 -14.120  0.00  0.00     0.063 H 
ATOM     44  C   LIG d   1       0.065  -2.436 -15.648  0.00  0.00     0.117 A 
ATOM     45  H   LIG d   1       2.087  -2.497 -16.356  0.00  0.00     0.065 H 
ATOM     46  C   LIG d   1      -0.767  -2.314 -14.540  0.00  0.00    -0.019 A 
ATOM     47  C   LIG d   1      -0.224  -2.159 -13.284  0.00  0.00    -0.048 A 
ATOM     48  H   LIG d   1      -1.839  -2.341 -14.666  0.00  0.00     0.065 H 
ATOM     49  H   LIG d   1      -0.870  -2.065 -12.424  0.00  0.00     0.063 H 
BRANCH  44  50
ATOM     50  O   LIG d   1      -0.474  -2.588 -16.885  0.00  0.00    -0.507 OA
ATOM     51  H   LIG d   1       0.051  -3.143 -17.478  0.00  0.00     0.292 HD
ENDBRANCH  44  50
ENDBRANCH   1  40
TORSDOF 10
ENDMDL
MODEL 5
REMARK VINA RESULT:      -5.8      4.743      9.460
REMARK  10 active torsions:
REMARK  status: ('A' for Active; 'I' for Inactive)
REMARK    1  A    between atoms: C_3  and  O_36 
REMARK    2  A    between atoms: C_6  and  C_7 
REMARK    3  A    between atoms: C_15  and  O_35 
REMARK    4  A    between atoms: C_16  and  C_19 
REMARK    5  A    between atoms: C_17  and  O_18 
REMARK    6  A    between atoms: C_21  and  O_34 
REMARK    7  A    between atoms: C_23  and  O_33 
REMARK    8  A    between atoms: C_25  and  O_32 
REMARK    9  A    between atoms: C_27  and  C_30 
REMARK   10  A    between atoms: C_30  and  O_31 
ROOT
ATOM      1  C   LIG d   1       8.881   2.550  -4.335  0.00  0.00     0.139 A 
ATOM      2  C   LIG d   1       9.434   1.937  -5.415  0.00  0.00     0.029 A 
ATOM      3  C   LIG d   1       9.022   0.628  -5.760  0.00  0.00     0.197 A 
ATOM      4  O   LIG d   1       9.498   0.046  -6.722  0.00  0.00    -0.287 OA
ATOM      5  C   LIG d   1       7.997  -0.007  -4.913  0.00  0.00     0.106 A 
ATOM      6  C   LIG d   1       7.490   0.718  -3.819  0.00  0.00     0.146 A 
ATOM      7  O   LIG d   1       7.951   1.961  -3.567  0.00  0.00    -0.454 OA
ATOM      8  C   LIG d   1       6.526   0.140  -3.008  0.00  0.00     0.024 A 
ATOM      9  C   LIG d   1       6.068  -1.140  -3.278  0.00  0.00     0.130 A 
ATOM     10  C   LIG d   1       6.568  -1.858  -4.359  0.00  0.00     0.067 A 
ATOM     11  C   LIG d   1       7.530  -1.299  -5.179  0.00  0.00     0.140 A 
ATOM     12  H   LIG d   1      10.182   2.443  -6.005  0.00  0.00     0.069 H 
ATOM     13  H   LIG d   1       6.131   0.688  -2.166  0.00  0.00     0.069 H 
ENDROOT
BRANCH  10  14
ATOM     14  C   LIG d   1       6.059  -3.249  -4.638  0.00  0.00     0.119 C 
ATOM     15  H   LIG d   1       5.689  -3.693  -3.714  0.00  0.00     0.068 H 
ATOM     16  O   LIG d   1       7.122  -4.050  -5.161  0.00  0.00    -0.361 OA
ATOM     17  C   LIG d   1       6.751  -5.401  -5.438  0.00  0.00     0.111 C 
ATOM     18  C   LIG d   1       5.643  -5.420  -6.493  0.00  0.00     0.112 C 
ATOM     19  H   LIG d   1       6.392  -5.875  -4.524  0.00  0.00     0.065 H 
ATOM     20  C   LIG d   1       4.451  -4.602  -5.986  0.00  0.00     0.112 C 
ATOM     21  H   LIG d   1       6.016  -4.984  -7.420  0.00  0.00     0.065 H 
ATOM     22  C   LIG d   1       4.922  -3.181  -5.662  0.00  0.00     0.114 C 
ATOM     23  H   LIG d   1       4.048  -5.067  -5.085  0.00  0.00     0.065 H 
ATOM     24  H   LIG d   1       5.281  -2.700  -6.572  0.00  0.00     0.065 H 
BRANCH  17  25
ATOM     25  C   LIG d   1       7.968  -6.167  -5.962  0.00  0.00     0.073 C 
ATOM     26  H   LIG d   1       8.008  -6.088  -7.048  0.00  0.00     0.058 H 
ATOM     27  H   LIG d   1       8.876  -5.742  -5.534  0.00  0.00     0.058 H 
BRANCH  25  28
ATOM     28  O   LIG d   1       7.863  -7.542  -5.588  0.00  0.00    -0.392 OA
ATOM     29  H   LIG d   1       7.341  -7.695  -4.790  0.00  0.00     0.209 HD
ENDBRANCH  25  28
ENDBRANCH  17  25
BRANCH  18  30
ATOM     30  O   LIG d   1       5.231  -6.768  -6.731  0.00  0.00    -0.387 OA
ATOM     31  H   LIG d   1       4.336  -6.965  -6.424  0.00  0.00     0.210 HD
ENDBRANCH  18  30
BRANCH  20  32
ATOM     32  O   LIG d   1       3.439  -4.553  -6.992  0.00  0.00    -0.387 OA
ATOM     33  H   LIG d   1       3.544  -3.824  -7.619  0.00  0.00     0.210 HD
ENDBRANCH  20  32
BRANCH  22  34
ATOM     34  O   LIG d   1       3.836  -2.428  -5.119  0.00  0.00    -0.386 OA
ATOM     35  H   LIG d   1       4.059  -1.508  -4.916  0.00  0.00     0.210 HD
ENDBRANCH  22  34
ENDBRANCH  10  14
BRANCH   9  36
ATOM     36  O   LIG d   1       5.124  -1.699  -2.479  0.00  0.00    -0.506 OA
ATOM     37  H   LIG d   1       5.468  -2.366  -1.870  0.00  0.00     0.292 HD
ENDBRANCH   9  36
BRANCH  11  38
ATOM     38  O   LIG d   1       8.019  -1.998  -6.235  0.00  0.00    -0.505 OA
ATOM     39  H   LIG d   1       8.985  -2.012  -6.283  0.00  0.00     0.292 HD
ENDBRANCH  11  38
BRANCH   1  40
ATOM     40  C   LIG d   1       9.324   3.915  -3.991  0.00  0.00     0.018 A 
ATOM     41  C   LIG d   1       9.902   4.171  -2.745  0.00  0.00    -0.048 A 
ATOM     42  C   LIG d   1      10.314   5.446  -2.429  0.00  0.00    -0.019 A 
ATOM     43  H   LIG d   1      10.029   3.369  -2.033  0.00  0.00     0.063 H 
ATOM     44  C   LIG d   1      10.157   6.478  -3.346  0.00  0.00     0.117 A 
ATOM     45  H   LIG d   1      10.761   5.646  -1.466  0.00  0.00     0.065 H 
ATOM     46  C   LIG d   1       9.582   6.228  -4.587  0.00  0.00    -0.019 A 
ATOM     47  C   LIG d   1       9.166   4.955  -4.911  0.00  0.00    -0.048 A 
ATOM     48  H   LIG d   1       9.461   7.033  -5.297  0.00  0.00     0.065 H 
ATOM     49  H   LIG d   1       8.720   4.762  -5.875  0.00  0.00     0.063 H 
BRANCH  44  50
ATOM     50  O   LIG d   1      10.565   7.734  -3.030  0.00  0.00    -0.507 OA
ATOM     51  H   LIG d   1      11.493   7.909  -3.234  0.00  0.00     0.292 HD
ENDBRANCH  44  50
ENDBRANCH   1  40
TORSDOF 10
ENDMDL
MODEL 6
REMARK VINA RESULT:      -5.7      2.420      9.505
REMARK  10 active torsions:
REMARK  status: ('A' for Active; 'I' for Inactive)
REMARK    1  A    between atoms: C_3  and  O_36 
REMARK    2  A    between atoms: C_6  and  C_7 
REMARK    3  A    between atoms: C_15  and  O_35 
REMARK    4  A    between atoms: C_16  and  C_19 
REMARK    5  A    between atoms: C_17  and  O_18 
REMARK    6  A    between atoms: C_21  and  O_34 
REMARK    7  A    between atoms: C_23  and  O_33 
REMARK    8  A    between atoms: C_25  and  O_32 
REMARK    9  A    between atoms: C_27  and  C_30 
REMARK   10  A    between atoms: C_30  and  O_31 
ROOT
ATOM      1  C   LIG d   1       9.917   5.827  -5.980  0.00  0.00     0.139 A 
ATOM      2  C   LIG d   1      10.096   7.158  -6.200  0.00  0.00     0.029 A 
ATOM      3  C   LIG d   1      10.296   8.026  -5.100  0.00  0.00     0.197 A 
ATOM      4  O   LIG d   1      10.458   9.225  -5.261  0.00  0.00    -0.287 OA
ATOM      5  C   LIG d   1      10.300   7.427  -3.755  0.00  0.00     0.106 A 
ATOM      6  C   LIG d   1      10.107   6.039  -3.639  0.00  0.00     0.146 A 
ATOM      7  O   LIG d   1       9.918   5.293  -4.748  0.00  0.00    -0.454 OA
ATOM      8  C   LIG d   1      10.106   5.453  -2.382  0.00  0.00     0.024 A 
ATOM      9  C   LIG d   1      10.295   6.235  -1.253  0.00  0.00     0.130 A 
ATOM     10  C   LIG d   1      10.486   7.608  -1.365  0.00  0.00     0.067 A 
ATOM     11  C   LIG d   1      10.490   8.209  -2.609  0.00  0.00     0.140 A 
ATOM     12  H   LIG d   1      10.085   7.549  -7.206  0.00  0.00     0.069 H 
ATOM     13  H   LIG d   1       9.958   4.389  -2.284  0.00  0.00     0.069 H 
ENDROOT
BRANCH  10  14
ATOM     14  C   LIG d   1      10.691   8.442  -0.127  0.00  0.00     0.119 C 
ATOM     15  H   LIG d   1      10.084   8.042   0.685  0.00  0.00     0.068 H 
ATOM     16  O   LIG d   1      10.303   9.792  -0.392  0.00  0.00    -0.361 OA
ATOM     17  C   LIG d   1      10.434  10.667   0.729  0.00  0.00     0.111 C 
ATOM     18  C   LIG d   1      11.900  10.722   1.165  0.00  0.00     0.112 C 
ATOM     19  H   LIG d   1       9.823  10.298   1.553  0.00  0.00     0.065 H 
ATOM     20  C   LIG d   1      12.379   9.305   1.497  0.00  0.00     0.112 C 
ATOM     21  H   LIG d   1      12.506  11.130   0.356  0.00  0.00     0.065 H 
ATOM     22  C   LIG d   1      12.168   8.406   0.275  0.00  0.00     0.114 C 
ATOM     23  H   LIG d   1      11.806   8.915   2.339  0.00  0.00     0.065 H 
ATOM     24  H   LIG d   1      12.779   8.769  -0.553  0.00  0.00     0.065 H 
BRANCH  17  25
ATOM     25  C   LIG d   1       9.966  12.071   0.339  0.00  0.00     0.073 C 
ATOM     26  H   LIG d   1      10.829  12.684   0.080  0.00  0.00     0.058 H 
ATOM     27  H   LIG d   1       9.297  12.005  -0.519  0.00  0.00     0.058 H 
BRANCH  25  28
ATOM     28  O   LIG d   1       9.272  12.665   1.438  0.00  0.00    -0.392 OA
ATOM     29  H   LIG d   1       8.575  13.280   1.177  0.00  0.00     0.209 HD
ENDBRANCH  25  28
ENDBRANCH  17  25
BRANCH  18  30
ATOM     30  O   LIG d   1      12.026  11.552   2.321  0.00  0.00    -0.387 OA
ATOM     31  H   LIG d   1      12.933  11.829   2.510  0.00  0.00     0.210 HD
ENDBRANCH  18  30
BRANCH  20  32
ATOM     32  O   LIG d   1      13.766   9.333   1.836  0.00  0.00    -0.387 OA
ATOM     33  H   LIG d   1      14.130  10.224   1.930  0.00  0.00     0.210 HD
ENDBRANCH  20  32
BRANCH  22  34
ATOM     34  O   LIG d   1      12.543   7.066   0.595  0.00  0.00    -0.386 OA
ATOM     35  H   LIG d   1      13.159   6.997   1.338  0.00  0.00     0.210 HD
ENDBRANCH  22  34
ENDBRANCH  10  14
BRANCH   9  36
ATOM     36  O   LIG d   1      10.293   5.655  -0.026  0.00  0.00    -0.506 OA
ATOM     37  H   LIG d   1      10.618   6.228   0.681  0.00  0.00     0.292 HD
ENDBRANCH   9  36
BRANCH  11  38
ATOM     38  O   LIG d   1      10.677   9.549  -2.721  0.00  0.00    -0.505 OA
ATOM     39  H   LIG d   1      10.892   9.843  -3.617  0.00  0.00     0.292 HD
ENDBRANCH  11  38
BRANCH   1  40
ATOM     40  C   LIG d   1       9.710   4.939  -7.139  0.00  0.00     0.018 A 
ATOM     41  C   LIG d   1       9.680   3.553  -6.962  0.00  0.00    -0.048 A 
ATOM     42  C   LIG d   1       9.486   2.727  -8.047  0.00  0.00    -0.019 A 
ATOM     43  H   LIG d   1       9.805   3.131  -5.976  0.00  0.00     0.063 H 
ATOM     44  C   LIG d   1       9.319   3.269  -9.315  0.00  0.00     0.117 A 
ATOM     45  H   LIG d   1       9.462   1.655  -7.912  0.00  0.00     0.065 H 
ATOM     46  C   LIG d   1       9.349   4.647  -9.496  0.00  0.00    -0.019 A 
ATOM     47  C   LIG d   1       9.543   5.480  -8.416  0.00  0.00    -0.048 A 
ATOM     48  H   LIG d   1       9.219   5.065 -10.483  0.00  0.00     0.065 H 
ATOM     49  H   LIG d   1       9.566   6.551  -8.557  0.00  0.00     0.063 H 
BRANCH  44  50
ATOM     50  O   LIG d   1       9.128   2.451 -10.382  0.00  0.00    -0.507 OA
ATOM     51  H   LIG d   1       9.936   2.028 -10.703  0.00  0.00     0.292 HD
ENDBRANCH  44  50
ENDBRANCH   1  40
TORSDOF 10
ENDMDL
MODEL 7
REMARK VINA RESULT:      -5.7      5.641     11.372
REMARK  10 active torsions:
REMARK  status: ('A' for Active; 'I' for Inactive)
REMARK    1  A    between atoms: C_3  and  O_36 
REMARK    2  A    between atoms: C_6  and  C_7 
REMARK    3  A    between atoms: C_15  and  O_35 
REMARK    4  A    between atoms: C_16  and  C_19 
REMARK    5  A    between atoms: C_17  and  O_18 
REMARK    6  A    between atoms: C_21  and  O_34 
REMARK    7  A    between atoms: C_23  and  O_33 
REMARK    8  A    between atoms: C_25  and  O_32 
REMARK    9  A    between atoms: C_27  and  C_30 
REMARK   10  A    between atoms: C_30  and  O_31 
ROOT
ATOM      1  C   LIG d   1      10.488   8.180 -10.794  0.00  0.00     0.139 A 
ATOM      2  C   LIG d   1      11.356   9.221 -10.685  0.00  0.00     0.029 A 
ATOM      3  C   LIG d   1      11.539   9.848  -9.429  0.00  0.00     0.197 A 
ATOM      4  O   LIG d   1      12.309  10.785  -9.295  0.00  0.00    -0.287 OA
ATOM      5  C   LIG d   1      10.764   9.325  -8.291  0.00  0.00     0.106 A 
ATOM      6  C   LIG d   1       9.894   8.243  -8.513  0.00  0.00     0.146 A 
ATOM      7  O   LIG d   1       9.783   7.715  -9.751  0.00  0.00    -0.454 OA
ATOM      8  C   LIG d   1       9.154   7.735  -7.456  0.00  0.00     0.024 A 
ATOM      9  C   LIG d   1       9.276   8.293  -6.193  0.00  0.00     0.130 A 
ATOM     10  C   LIG d   1      10.136   9.363  -5.971  0.00  0.00     0.067 A 
ATOM     11  C   LIG d   1      10.882   9.883  -7.012  0.00  0.00     0.140 A 
ATOM     12  H   LIG d   1      11.901   9.568 -11.549  0.00  0.00     0.069 H 
ATOM     13  H   LIG d   1       8.484   6.904  -7.617  0.00  0.00     0.069 H 
ENDROOT
BRANCH  10  14
ATOM     14  C   LIG d   1      10.256   9.957  -4.591  0.00  0.00     0.119 C 
ATOM     15  H   LIG d   1      11.242  10.404  -4.472  0.00  0.00     0.068 H 
ATOM     16  O   LIG d   1      10.075   8.931  -3.613  0.00  0.00    -0.361 OA
ATOM     17  C   LIG d   1      10.194   9.384  -2.263  0.00  0.00     0.111 C 
ATOM     18  C   LIG d   1       9.119  10.437  -1.982  0.00  0.00     0.112 C 
ATOM     19  H   LIG d   1      11.181   9.823  -2.112  0.00  0.00     0.065 H 
ATOM     20  C   LIG d   1       9.271  11.590  -2.979  0.00  0.00     0.112 C 
ATOM     21  H   LIG d   1       8.132   9.988  -2.093  0.00  0.00     0.065 H 
ATOM     22  C   LIG d   1       9.182  11.033  -4.404  0.00  0.00     0.114 C 
ATOM     23  H   LIG d   1      10.239  12.071  -2.836  0.00  0.00     0.065 H 
ATOM     24  H   LIG d   1       8.196  10.596  -4.563  0.00  0.00     0.065 H 
BRANCH  17  25
ATOM     25  C   LIG d   1      10.012   8.202  -1.309  0.00  0.00     0.073 C 
ATOM     26  H   LIG d   1      10.445   7.306  -1.752  0.00  0.00     0.058 H 
ATOM     27  H   LIG d   1      10.511   8.418  -0.365  0.00  0.00     0.058 H 
BRANCH  25  28
ATOM     28  O   LIG d   1       8.618   7.990  -1.073  0.00  0.00    -0.392 OA
ATOM     29  H   LIG d   1       8.408   7.724  -0.168  0.00  0.00     0.209 HD
ENDBRANCH  25  28
ENDBRANCH  17  25
BRANCH  18  30
ATOM     30  O   LIG d   1       9.271  10.934  -0.651  0.00  0.00    -0.387 OA
ATOM     31  H   LIG d   1       9.049  11.869  -0.553  0.00  0.00     0.210 HD
ENDBRANCH  18  30
BRANCH  20  32
ATOM     32  O   LIG d   1       8.228  12.544  -2.773  0.00  0.00    -0.387 OA
ATOM     33  H   LIG d   1       7.477  12.441  -3.373  0.00  0.00     0.210 HD
ENDBRANCH  20  32
BRANCH  22  34
ATOM     34  O   LIG d   1       9.395  12.087  -5.344  0.00  0.00    -0.386 OA
ATOM     35  H   LIG d   1       8.752  12.808  -5.279  0.00  0.00     0.210 HD
ENDBRANCH  22  34
ENDBRANCH  10  14
BRANCH   9  36
ATOM     36  O   LIG d   1       8.549   7.790  -5.164  0.00  0.00    -0.506 OA
ATOM     37  H   LIG d   1       9.065   7.269  -4.534  0.00  0.00     0.292 HD
ENDBRANCH   9  36
BRANCH  11  38
ATOM     38  O   LIG d   1      11.721  10.927  -6.797  0.00  0.00    -0.505 OA
ATOM     39  H   LIG d   1      11.763  11.556  -7.531  0.00  0.00     0.292 HD
ENDBRANCH  11  38
BRANCH   1  40
ATOM     40  C   LIG d   1      10.310   7.540 -12.111  0.00  0.00     0.018 A 
ATOM     41  C   LIG d   1       9.230   6.682 -12.334  0.00  0.00    -0.048 A 
ATOM     42  C   LIG d   1       9.068   6.087 -13.565  0.00  0.00    -0.019 A 
ATOM     43  H   LIG d   1       8.522   6.488 -11.542  0.00  0.00     0.063 H 
ATOM     44  C   LIG d   1       9.976   6.340 -14.586  0.00  0.00     0.117 A 
ATOM     45  H   LIG d   1       8.234   5.424 -13.738  0.00  0.00     0.065 H 
ATOM     46  C   LIG d   1      11.052   7.193 -14.370  0.00  0.00    -0.019 A 
ATOM     47  C   LIG d   1      11.222   7.791 -13.141  0.00  0.00    -0.048 A 
ATOM     48  H   LIG d   1      11.756   7.386 -15.166  0.00  0.00     0.065 H 
ATOM     49  H   LIG d   1      12.058   8.454 -12.973  0.00  0.00     0.063 H 
BRANCH  44  50
ATOM     50  O   LIG d   1       9.813   5.751 -15.800  0.00  0.00    -0.507 OA
ATOM     51  H   LIG d   1       8.983   5.264 -15.891  0.00  0.00     0.292 HD
ENDBRANCH  44  50
ENDBRANCH   1  40
TORSDOF 10
ENDMDL
MODEL 8
REMARK VINA RESULT:      -5.6      2.192      9.106
REMARK  10 active torsions:
REMARK  status: ('A' for Active; 'I' for Inactive)
REMARK    1  A    between atoms: C_3  and  O_36 
REMARK    2  A    between atoms: C_6  and  C_7 
REMARK    3  A    between atoms: C_15  and  O_35 
REMARK    4  A    between atoms: C_16  and  C_19 
REMARK    5  A    between atoms: C_17  and  O_18 
REMARK    6  A    between atoms: C_21  and  O_34 
REMARK    7  A    between atoms: C_23  and  O_33 
REMARK    8  A    between atoms: C_25  and  O_32 
REMARK    9  A    between atoms: C_27  and  C_30 
REMARK   10  A    between atoms: C_30  and  O_31 
ROOT
ATOM      1  C   LIG d   1       9.772   4.940  -3.602  0.00  0.00     0.139 A 
ATOM      2  C   LIG d   1       9.842   6.111  -4.290  0.00  0.00     0.029 A 
ATOM      3  C   LIG d   1      10.221   7.295  -3.614  0.00  0.00     0.197 A 
ATOM      4  O   LIG d   1      10.293   8.364  -4.200  0.00  0.00    -0.287 OA
ATOM      5  C   LIG d   1      10.526   7.188  -2.177  0.00  0.00     0.106 A 
ATOM      6  C   LIG d   1      10.424   5.928  -1.562  0.00  0.00     0.146 A 
ATOM      7  O   LIG d   1      10.048   4.855  -2.290  0.00  0.00    -0.454 OA
ATOM      8  C   LIG d   1      10.706   5.804  -0.211  0.00  0.00     0.024 A 
ATOM      9  C   LIG d   1      11.085   6.917   0.523  0.00  0.00     0.130 A 
ATOM     10  C   LIG d   1      11.187   8.165  -0.082  0.00  0.00     0.067 A 
ATOM     11  C   LIG d   1      10.910   8.308  -1.429  0.00  0.00     0.140 A 
ATOM     12  H   LIG d   1       9.608   6.138  -5.343  0.00  0.00     0.069 H 
ATOM     13  H   LIG d   1      10.630   4.840   0.270  0.00  0.00     0.069 H 
ENDROOT
BRANCH  10  14
ATOM     14  C   LIG d   1      11.600   9.364   0.731  0.00  0.00     0.119 C 
ATOM     15  H   LIG d   1      11.427   9.164   1.788  0.00  0.00     0.068 H 
ATOM     16  O   LIG d   1      10.833  10.501   0.329  0.00  0.00    -0.361 OA
ATOM     17  C   LIG d   1      11.130  11.693   1.058  0.00  0.00     0.111 C 
ATOM     18  C   LIG d   1      12.597  12.070   0.843  0.00  0.00     0.112 C 
ATOM     19  H   LIG d   1      10.949  11.524   2.120  0.00  0.00     0.065 H 
ATOM     20  C   LIG d   1      13.486  10.903   1.284  0.00  0.00     0.112 C 
ATOM     21  H   LIG d   1      12.768  12.279  -0.213  0.00  0.00     0.065 H 
ATOM     22  C   LIG d   1      13.088   9.648   0.502  0.00  0.00     0.114 C 
ATOM     23  H   LIG d   1      13.351  10.726   2.352  0.00  0.00     0.065 H 
ATOM     24  H   LIG d   1      13.268   9.808  -0.561  0.00  0.00     0.065 H 
BRANCH  17  25
ATOM     25  C   LIG d   1      10.233  12.830   0.565  0.00  0.00     0.073 C 
ATOM     26  H   LIG d   1      10.808  13.755   0.520  0.00  0.00     0.058 H 
ATOM     27  H   LIG d   1       9.856  12.590  -0.429  0.00  0.00     0.058 H 
BRANCH  25  28
ATOM     28  O   LIG d   1       9.135  12.996   1.464  0.00  0.00    -0.392 OA
ATOM     29  H   LIG d   1       9.191  13.789   2.012  0.00  0.00     0.209 HD
ENDBRANCH  25  28
ENDBRANCH  17  25
BRANCH  18  30
ATOM     30  O   LIG d   1      12.912  13.230   1.616  0.00  0.00    -0.387 OA
ATOM     31  H   LIG d   1      12.957  13.067   2.568  0.00  0.00     0.210 HD
ENDBRANCH  18  30
BRANCH  20  32
ATOM     32  O   LIG d   1      14.855  11.216   1.021  0.00  0.00    -0.387 OA
ATOM     33  H   LIG d   1      15.016  12.151   0.837  0.00  0.00     0.210 HD
ENDBRANCH  20  32
BRANCH  22  34
ATOM     34  O   LIG d   1      13.860   8.535   0.956  0.00  0.00    -0.386 OA
ATOM     35  H   LIG d   1      14.677   8.784   1.413  0.00  0.00     0.210 HD
ENDBRANCH  22  34
ENDBRANCH  10  14
BRANCH   9  36
ATOM     36  O   LIG d   1      11.359   6.788   1.846  0.00  0.00    -0.506 OA
ATOM     37  H   LIG d   1      11.829   7.543   2.227  0.00  0.00     0.292 HD
ENDBRANCH   9  36
BRANCH  11  38
ATOM     38  O   LIG d   1      11.008   9.525  -2.022  0.00  0.00    -0.505 OA
ATOM     39  H   LIG d   1      10.930   9.500  -2.985  0.00  0.00     0.292 HD
ENDBRANCH  11  38
BRANCH   1  40
ATOM     40  C   LIG d   1       9.375   3.716  -4.323  0.00  0.00     0.018 A 
ATOM     41  C   LIG d   1       9.431   3.676  -5.719  0.00  0.00    -0.048 A 
ATOM     42  C   LIG d   1       9.059   2.532  -6.388  0.00  0.00    -0.019 A 
ATOM     43  H   LIG d   1       9.769   4.540  -6.271  0.00  0.00     0.063 H 
ATOM     44  C   LIG d   1       8.629   1.417  -5.678  0.00  0.00     0.117 A 
ATOM     45  H   LIG d   1       9.102   2.499  -7.467  0.00  0.00     0.065 H 
ATOM     46  C   LIG d   1       8.572   1.452  -4.290  0.00  0.00    -0.019 A 
ATOM     47  C   LIG d   1       8.941   2.593  -3.613  0.00  0.00    -0.048 A 
ATOM     48  H   LIG d   1       8.236   0.584  -3.742  0.00  0.00     0.065 H 
ATOM     49  H   LIG d   1       8.896   2.620  -2.534  0.00  0.00     0.063 H 
BRANCH  44  50
ATOM     50  O   LIG d   1       8.263   0.290  -6.343  0.00  0.00    -0.507 OA
ATOM     51  H   LIG d   1       8.654   0.209  -7.223  0.00  0.00     0.292 HD
ENDBRANCH  44  50
ENDBRANCH   1  40
TORSDOF 10
ENDMDL
MODEL 9
REMARK VINA RESULT:      -5.6      1.356      2.299
REMARK  10 active torsions:
REMARK  status: ('A' for Active; 'I' for Inactive)
REMARK    1  A    between atoms: C_3  and  O_36 
REMARK    2  A    between atoms: C_6  and  C_7 
REMARK    3  A    between atoms: C_15  and  O_35 
REMARK    4  A    between atoms: C_16  and  C_19 
REMARK    5  A    between atoms: C_17  and  O_18 
REMARK    6  A    between atoms: C_21  and  O_34 
REMARK    7  A    between atoms: C_23  and  O_33 
REMARK    8  A    between atoms: C_25  and  O_32 
REMARK    9  A    between atoms: C_27  and  C_30 
REMARK   10  A    between atoms: C_30  and  O_31 
ROOT
ATOM      1  C   LIG d   1      11.836   8.836   1.183  0.00  0.00     0.139 A 
ATOM      2  C   LIG d   1      10.577   8.974   0.688  0.00  0.00     0.029 A 
ATOM      3  C   LIG d   1      10.144   8.131  -0.363  0.00  0.00     0.197 A 
ATOM      4  O   LIG d   1       9.022   8.227  -0.832  0.00  0.00    -0.287 OA
ATOM      5  C   LIG d   1      11.101   7.132  -0.869  0.00  0.00     0.106 A 
ATOM      6  C   LIG d   1      12.379   7.073  -0.285  0.00  0.00     0.146 A 
ATOM      7  O   LIG d   1      12.702   7.925   0.711  0.00  0.00    -0.454 OA
ATOM      8  C   LIG d   1      13.296   6.142  -0.746  0.00  0.00     0.024 A 
ATOM      9  C   LIG d   1      12.951   5.278  -1.774  0.00  0.00     0.130 A 
ATOM     10  C   LIG d   1      11.688   5.334  -2.353  0.00  0.00     0.067 A 
ATOM     11  C   LIG d   1      10.760   6.256  -1.907  0.00  0.00     0.140 A 
ATOM     12  H   LIG d   1       9.911   9.721   1.093  0.00  0.00     0.069 H 
ATOM     13  H   LIG d   1      14.280   6.089  -0.304  0.00  0.00     0.069 H 
ENDROOT
BRANCH  10  14
ATOM     14  C   LIG d   1      11.329   4.388  -3.469  0.00  0.00     0.119 C 
ATOM     15  H   LIG d   1      12.227   3.876  -3.815  0.00  0.00     0.068 H 
ATOM     16  O   LIG d   1      10.752   5.123  -4.551  0.00  0.00    -0.361 OA
ATOM     17  C   LIG d   1      10.397   4.320  -5.678  0.00  0.00     0.111 C 
ATOM     18  C   LIG d   1       9.349   3.287  -5.257  0.00  0.00     0.112 C 
ATOM     19  H   LIG d   1      11.283   3.808  -6.054  0.00  0.00     0.065 H 
ATOM     20  C   LIG d   1       9.913   2.436  -4.115  0.00  0.00     0.112 C 
ATOM     21  H   LIG d   1       8.448   3.798  -4.920  0.00  0.00     0.065 H 
ATOM     22  C   LIG d   1      10.319   3.356  -2.959  0.00  0.00     0.114 C 
ATOM     23  H   LIG d   1      10.787   1.886  -4.466  0.00  0.00     0.065 H 
ATOM     24  H   LIG d   1       9.437   3.870  -2.576  0.00  0.00     0.065 H 
BRANCH  17  25
ATOM     25  C   LIG d   1       9.819   5.212  -6.779  0.00  0.00     0.073 C 
ATOM     26  H   LIG d   1       8.759   5.380  -6.593  0.00  0.00     0.058 H 
ATOM     27  H   LIG d   1      10.343   6.168  -6.783  0.00  0.00     0.058 H 
BRANCH  25  28
ATOM     28  O   LIG d   1       9.985   4.573  -8.046  0.00  0.00    -0.392 OA
ATOM     29  H   LIG d   1      10.448   3.726  -8.002  0.00  0.00     0.209 HD
ENDBRANCH  25  28
ENDBRANCH  17  25
BRANCH  18  30
ATOM     30  O   LIG d   1       9.033   2.445  -6.368  0.00  0.00    -0.387 OA
ATOM     31  H   LIG d   1       8.371   1.768  -6.173  0.00  0.00     0.210 HD
ENDBRANCH  18  30
BRANCH  20  32
ATOM     32  O   LIG d   1       8.918   1.515  -3.665  0.00  0.00    -0.387 OA
ATOM     33  H   LIG d   1       8.641   1.652  -2.749  0.00  0.00     0.210 HD
ENDBRANCH  20  32
BRANCH  22  34
ATOM     34  O   LIG d   1      10.913   2.583  -1.916  0.00  0.00    -0.386 OA
ATOM     35  H   LIG d   1      11.424   3.105  -1.281  0.00  0.00     0.210 HD
ENDBRANCH  22  34
ENDBRANCH  10  14
BRANCH   9  36
ATOM     36  O   LIG d   1      13.855   4.369  -2.220  0.00  0.00    -0.506 OA
ATOM     37  H   LIG d   1      14.281   4.613  -3.053  0.00  0.00     0.292 HD
ENDBRANCH   9  36
BRANCH  11  38
ATOM     38  O   LIG d   1       9.527   6.313  -2.470  0.00  0.00    -0.505 OA
ATOM     39  H   LIG d   1       9.354   7.131  -2.958  0.00  0.00     0.292 HD
ENDBRANCH  11  38
BRANCH   1  40
ATOM     40  C   LIG d   1      12.268   9.724   2.279  0.00  0.00     0.018 A 
ATOM     41  C   LIG d   1      12.731  11.011   1.995  0.00  0.00    -0.048 A 
ATOM     42  C   LIG d   1      13.134  11.838   3.021  0.00  0.00    -0.019 A 
ATOM     43  H   LIG d   1      12.771  11.359   0.974  0.00  0.00     0.063 H 
ATOM     44  C   LIG d   1      13.079  11.393   4.336  0.00  0.00     0.117 A 
ATOM     45  H   LIG d   1      13.492  12.833   2.803  0.00  0.00     0.065 H 
ATOM     46  C   LIG d   1      12.618  10.113   4.623  0.00  0.00    -0.019 A 
ATOM     47  C   LIG d   1      12.215   9.281   3.603  0.00  0.00    -0.048 A 
ATOM     48  H   LIG d   1      12.577   9.772   5.647  0.00  0.00     0.065 H 
ATOM     49  H   LIG d   1      11.857   8.286   3.827  0.00  0.00     0.063 H 
BRANCH  44  50
ATOM     50  O   LIG d   1      13.476  12.212   5.345  0.00  0.00    -0.507 OA
ATOM     51  H   LIG d   1      14.361  12.583   5.224  0.00  0.00     0.292 HD
ENDBRANCH  44  50
ENDBRANCH   1  40
TORSDOF 10
ENDMDL
MODEL 10
REMARK VINA RESULT:      -5.6      2.263      9.489
REMARK  10 active torsions:
REMARK  status: ('A' for Active; 'I' for Inactive)
REMARK    1  A    between atoms: C_3  and  O_36 
REMARK    2  A    between atoms: C_6  and  C_7 
REMARK    3  A    between atoms: C_15  and  O_35 
REMARK    4  A    between atoms: C_16  and  C_19 
REMARK    5  A    between atoms: C_17  and  O_18 
REMARK    6  A    between atoms: C_21  and  O_34 
REMARK    7  A    between atoms: C_23  and  O_33 
REMARK    8  A    between atoms: C_25  and  O_32 
REMARK    9  A    between atoms: C_27  and  C_30 
REMARK   10  A    between atoms: C_30  and  O_31 
ROOT
ATOM      1  C   LIG d   1       9.663   4.748  -4.080  0.00  0.00     0.139 A 
ATOM      2  C   LIG d   1       9.965   4.420  -2.795  0.00  0.00     0.029 A 
ATOM      3  C   LIG d   1      10.375   5.432  -1.895  0.00  0.00     0.197 A 
ATOM      4  O   LIG d   1      10.656   5.174  -0.735  0.00  0.00    -0.287 OA
ATOM      5  C   LIG d   1      10.451   6.809  -2.412  0.00  0.00     0.106 A 
ATOM      6  C   LIG d   1      10.115   7.039  -3.758  0.00  0.00     0.146 A 
ATOM      7  O   LIG d   1       9.740   6.006  -4.541  0.00  0.00    -0.454 OA
ATOM      8  C   LIG d   1      10.180   8.327  -4.265  0.00  0.00     0.024 A 
ATOM      9  C   LIG d   1      10.572   9.376  -3.448  0.00  0.00     0.130 A 
ATOM     10  C   LIG d   1      10.905   9.152  -2.117  0.00  0.00     0.067 A 
ATOM     11  C   LIG d   1      10.846   7.874  -1.593  0.00  0.00     0.140 A 
ATOM     12  H   LIG d   1       9.895   3.395  -2.463  0.00  0.00     0.069 H 
ATOM     13  H   LIG d   1       9.924   8.513  -5.298  0.00  0.00     0.069 H 
ENDROOT
BRANCH  10  14
ATOM     14  C   LIG d   1      11.329  10.304  -1.243  0.00  0.00     0.119 C 
ATOM     15  H   LIG d   1      11.719  11.108  -1.866  0.00  0.00     0.068 H 
ATOM     16  O   LIG d   1      12.346   9.866  -0.338  0.00  0.00    -0.361 OA
ATOM     17  C   LIG d   1      12.839  10.892   0.524  0.00  0.00     0.111 C 
ATOM     18  C   LIG d   1      11.696  11.424   1.391  0.00  0.00     0.112 C 
ATOM     19  H   LIG d   1      13.250  11.705  -0.075  0.00  0.00     0.065 H 
ATOM     20  C   LIG d   1      10.576  11.942   0.483  0.00  0.00     0.112 C 
ATOM     21  H   LIG d   1      11.312  10.622   2.020  0.00  0.00     0.065 H 
ATOM     22  C   LIG d   1      10.124  10.812  -0.448  0.00  0.00     0.114 C 
ATOM     23  H   LIG d   1      10.946  12.778  -0.113  0.00  0.00     0.065 H 
ATOM     24  H   LIG d   1       9.709   9.997   0.145  0.00  0.00     0.065 H 
BRANCH  17  25
ATOM     25  C   LIG d   1      13.937  10.320   1.424  0.00  0.00     0.073 C 
ATOM     26  H   LIG d   1      14.528   9.597   0.862  0.00  0.00     0.058 H 
ATOM     27  H   LIG d   1      14.582  11.128   1.768  0.00  0.00     0.058 H 
BRANCH  25  28
ATOM     28  O   LIG d   1      13.341   9.674   2.551  0.00  0.00    -0.392 OA
ATOM     29  H   LIG d   1      13.129   8.743   2.404  0.00  0.00     0.209 HD
ENDBRANCH  25  28
ENDBRANCH  17  25
BRANCH  18  30
ATOM     30  O   LIG d   1      12.174  12.490   2.214  0.00  0.00    -0.387 OA
ATOM     31  H   LIG d   1      13.095  12.391   2.491  0.00  0.00     0.210 HD
ENDBRANCH  18  30
BRANCH  20  32
ATOM     32  O   LIG d   1       9.472  12.375   1.279  0.00  0.00    -0.387 OA
ATOM     33  H   LIG d   1       9.058  11.669   1.794  0.00  0.00     0.210 HD
ENDBRANCH  20  32
BRANCH  22  34
ATOM     34  O   LIG d   1       9.130  11.302  -1.349  0.00  0.00    -0.386 OA
ATOM     35  H   LIG d   1       9.428  11.359  -2.268  0.00  0.00     0.210 HD
ENDBRANCH  22  34
ENDBRANCH  10  14
BRANCH   9  36
ATOM     36  O   LIG d   1      10.633  10.635  -3.953  0.00  0.00    -0.506 OA
ATOM     37  H   LIG d   1      10.178  10.742  -4.800  0.00  0.00     0.292 HD
ENDBRANCH   9  36
BRANCH  11  38
ATOM     38  O   LIG d   1      11.171   7.652  -0.294  0.00  0.00    -0.505 OA
ATOM     39  H   LIG d   1      11.796   8.294   0.071  0.00  0.00     0.292 HD
ENDBRANCH  11  38
BRANCH   1  40
ATOM     40  C   LIG d   1       9.238   3.678  -5.003  0.00  0.00     0.018 A 
ATOM     41  C   LIG d   1       8.466   2.613  -4.533  0.00  0.00    -0.048 A 
ATOM     42  C   LIG d   1       8.071   1.617  -5.398  0.00  0.00    -0.019 A 
ATOM     43  H   LIG d   1       8.175   2.573  -3.493  0.00  0.00     0.063 H 
ATOM     44  C   LIG d   1       8.439   1.671  -6.737  0.00  0.00     0.117 A 
ATOM     45  H   LIG d   1       7.473   0.793  -5.036  0.00  0.00     0.065 H 
ATOM     46  C   LIG d   1       9.208   2.728  -7.209  0.00  0.00    -0.019 A 
ATOM     47  C   LIG d   1       9.607   3.728  -6.350  0.00  0.00    -0.048 A 
ATOM     48  H   LIG d   1       9.492   2.766  -8.250  0.00  0.00     0.065 H 
ATOM     49  H   LIG d   1      10.205   4.549  -6.717  0.00  0.00     0.063 H 
BRANCH  44  50
ATOM     50  O   LIG d   1       8.048   0.686  -7.587  0.00  0.00    -0.507 OA
ATOM     51  H   LIG d   1       8.420  -0.182  -7.381  0.00  0.00     0.292 HD
ENDBRANCH  44  50
ENDBRANCH   1  40
TORSDOF 10
ENDMDL
