MODEL 1
REMARK VINA RESULT:      -6.2      0.000      0.000
REMARK  11 active torsions:
REMARK  status: ('A' for Active; 'I' for Inactive)
REMARK    1  A    between atoms: C_1  and  N_57 
REMARK    2  A    between atoms: C_2  and  C_3 
REMARK    3  A    between atoms: C_2  and  N_57 
REMARK    4  A    between atoms: C_3  and  C_4 
REMARK    5  A    between atoms: C_10  and  C_11 
REMARK    6  A    between atoms: C_10  and  N_57 
REMARK    7  A    between atoms: C_19  and  C_21 
REMARK    8  A    between atoms: C_21  and  N_22 
REMARK       I    between atoms: N_22  and  C_23 
REMARK    9  A    between atoms: C_23  and  C_25 
REMARK   10  A    between atoms: C_25  and  O_26 
REMARK   11  A    between atoms: O_26  and  C_27 
ROOT
ATOM      1  C   LIG d   1       5.394  -0.119  -4.312  0.00  0.00     0.042 C 
ATOM      2  H   LIG d   1       5.270   0.941  -4.091  0.00  0.00     0.041 H 
ATOM      3  C   LIG d   1       4.117  -0.658  -4.963  0.00  0.00    -0.024 C 
ATOM      4  C   LIG d   1       3.191  -1.234  -2.800  0.00  0.00    -0.031 C 
ATOM      5  C   LIG d   1       4.441  -0.711  -2.088  0.00  0.00    -0.009 C 
ATOM      6  C   LIG d   1       5.651  -0.892  -3.013  0.00  0.00    -0.019 C 
ATOM      7  H   LIG d   1       6.554  -0.519  -2.527  0.00  0.00     0.031 H 
ATOM      8  C   LIG d   1       5.791  -2.382  -3.349  0.00  0.00    -0.005 C 
ATOM      9  C   LIG d   1       4.503  -2.859  -4.026  0.00  0.00    -0.005 C 
ATOM     10  H   LIG d   1       4.053  -3.655  -3.432  0.00  0.00     0.087 H 
ATOM     11  H   LIG d   1       3.386   0.146  -5.052  0.00  0.00     0.082 H 
ATOM     12  H   LIG d   1       4.351  -1.049  -5.954  0.00  0.00     0.082 H 
ATOM     13  H   LIG d   1       2.467  -0.427  -2.904  0.00  0.00     0.081 H 
ATOM     14  H   LIG d   1       2.751  -2.043  -2.217  0.00  0.00     0.081 H 
ATOM     15  H   LIG d   1       4.314   0.347  -1.856  0.00  0.00     0.032 H 
ATOM     16  H   LIG d   1       4.597  -1.269  -1.165  0.00  0.00     0.032 H 
ATOM     17  H   LIG d   1       6.633  -2.526  -4.025  0.00  0.00     0.032 H 
ATOM     18  H   LIG d   1       5.956  -2.949  -2.433  0.00  0.00     0.032 H 
ATOM     19  N   LIG d   1       3.538  -1.745  -4.144  0.00  0.00     0.239 N 
ATOM     20  H   LIG d   1       2.686  -2.088  -4.600  0.00  0.00     0.204 HD
ENDROOT
BRANCH   1  21
ATOM     21  C   LIG d   1       6.576  -0.311  -5.265  0.00  0.00    -0.024 C 
ATOM     22  H   LIG d   1       6.312  -1.042  -6.029  0.00  0.00     0.082 H 
ATOM     23  H   LIG d   1       7.440  -0.665  -4.704  0.00  0.00     0.082 H 
BRANCH  21  24
ATOM     24  N   LIG d   1       6.877   0.983  -5.917  0.00  0.00     0.234 N 
ATOM     25  H   LIG d   1       6.038   1.573  -5.887  0.00  0.00     0.203 HD
BRANCH  24  26
ATOM     26  C   LIG d   1       7.973   1.667  -5.199  0.00  0.00    -0.043 C 
ATOM     27  H   LIG d   1       8.801   0.969  -5.072  0.00  0.00     0.078 H 
ATOM     28  H   LIG d   1       8.304   2.521  -5.790  0.00  0.00     0.078 H 
ATOM     29  H   LIG d   1       7.634   2.010  -4.222  0.00  0.00     0.078 H 
ENDBRANCH  24  26
BRANCH  24  30
ATOM     30  C   LIG d   1       7.258   0.760  -7.327  0.00  0.00    -0.027 C 
ATOM     31  H   LIG d   1       7.292   1.706  -7.868  0.00  0.00     0.082 H 
ATOM     32  H   LIG d   1       8.240   0.288  -7.360  0.00  0.00     0.082 H 
BRANCH  30  33
ATOM     33  C   LIG d   1       6.226  -0.163  -7.977  0.00  0.00     0.030 C 
ATOM     34  H   LIG d   1       6.679  -0.671  -8.829  0.00  0.00     0.038 H 
ATOM     35  H   LIG d   1       5.890  -0.902  -7.251  0.00  0.00     0.038 H 
BRANCH  33  36
ATOM     36  C   LIG d   1       5.048   0.651  -8.446  0.00  0.00     0.046 A 
ATOM     37  N   LIG d   1       5.218   1.920  -8.762  0.00  0.00    -0.260 NA
ATOM     38  C   LIG d   1       4.216   2.671  -9.177  0.00  0.00     0.028 A 
ATOM     39  C   LIG d   1       2.943   2.148  -9.296  0.00  0.00    -0.044 A 
ATOM     40  H   LIG d   1       4.394   3.706  -9.428  0.00  0.00     0.083 H 
ATOM     41  C   LIG d   1       2.725   0.818  -8.973  0.00  0.00    -0.059 A 
ATOM     42  H   LIG d   1       2.126   2.769  -9.636  0.00  0.00     0.063 H 
ATOM     43  C   LIG d   1       3.803   0.058  -8.545  0.00  0.00    -0.040 A 
ATOM     44  H   LIG d   1       1.740   0.382  -9.054  0.00  0.00     0.062 H 
ATOM     45  H   LIG d   1       3.672  -0.982  -8.289  0.00  0.00     0.064 H 
ENDBRANCH  33  36
ENDBRANCH  30  33
ENDBRANCH  24  30
ENDBRANCH  21  24
ENDBRANCH   1  21
BRANCH   9  46
ATOM     46  C   LIG d   1       4.827  -3.385  -5.425  0.00  0.00     0.055 C 
ATOM     47  H   LIG d   1       3.910  -3.446  -6.012  0.00  0.00     0.052 H 
ATOM     48  H   LIG d   1       5.527  -2.708  -5.915  0.00  0.00     0.052 H 
BRANCH  46  49
ATOM     49  N   LIG d   1       5.428  -4.717  -5.320  0.00  0.00    -0.308 N 
ATOM     50  C   LIG d   1       4.713  -5.809  -5.656  0.00  0.00     0.239 C 
ATOM     51  O   LIG d   1       3.571  -5.689  -6.046  0.00  0.00    -0.273 OA
ATOM     52  H   LIG d   1       6.342  -4.812  -5.008  0.00  0.00     0.149 HD
BRANCH  50  53
ATOM     53  C   LIG d   1       5.332  -7.178  -5.548  0.00  0.00     0.123 C 
ATOM     54  H   LIG d   1       5.932  -7.377  -6.436  0.00  0.00     0.066 H 
ATOM     55  H   LIG d   1       5.968  -7.219  -4.663  0.00  0.00     0.066 H 
BRANCH  53  56
ATOM     56  O   LIG d   1       4.301  -8.160  -5.440  0.00  0.00    -0.374 OA
BRANCH  56  57
ATOM     57  C   LIG d   1       4.642  -9.273  -4.611  0.00  0.00     0.037 C 
ATOM     58  H   LIG d   1       4.528 -10.197  -5.178  0.00  0.00     0.052 H 
ATOM     59  H   LIG d   1       5.675  -9.175  -4.278  0.00  0.00     0.052 H 
ATOM     60  H   LIG d   1       3.982  -9.297  -3.744  0.00  0.00     0.052 H 
ENDBRANCH  56  57
ENDBRANCH  53  56
ENDBRANCH  50  53
ENDBRANCH  46  49
ENDBRANCH   9  46
TORSDOF 11
ENDMDL
MODEL 2
REMARK VINA RESULT:      -6.2      2.610      6.627
REMARK  11 active torsions:
REMARK  status: ('A' for Active; 'I' for Inactive)
REMARK    1  A    between atoms: C_1  and  N_57 
REMARK    2  A    between atoms: C_2  and  C_3 
REMARK    3  A    between atoms: C_2  and  N_57 
REMARK    4  A    between atoms: C_3  and  C_4 
REMARK    5  A    between atoms: C_10  and  C_11 
REMARK    6  A    between atoms: C_10  and  N_57 
REMARK    7  A    between atoms: C_19  and  C_21 
REMARK    8  A    between atoms: C_21  and  N_22 
REMARK       I    between atoms: N_22  and  C_23 
REMARK    9  A    between atoms: C_23  and  C_25 
REMARK   10  A    between atoms: C_25  and  O_26 
REMARK   11  A    between atoms: O_26  and  C_27 
ROOT
ATOM      1  C   LIG d   1       5.429  -1.459  -3.175  0.00  0.00     0.042 C 
ATOM      2  H   LIG d   1       6.308  -1.583  -2.543  0.00  0.00     0.041 H 
ATOM      3  C   LIG d   1       5.676  -0.333  -4.183  0.00  0.00    -0.024 C 
ATOM      4  C   LIG d   1       4.782   1.313  -2.646  0.00  0.00    -0.031 C 
ATOM      5  C   LIG d   1       4.510   0.233  -1.595  0.00  0.00    -0.009 C 
ATOM      6  C   LIG d   1       4.217  -1.092  -2.311  0.00  0.00    -0.019 C 
ATOM      7  H   LIG d   1       4.027  -1.879  -1.579  0.00  0.00     0.031 H 
ATOM      8  C   LIG d   1       3.003  -0.895  -3.226  0.00  0.00    -0.005 C 
ATOM      9  C   LIG d   1       3.317   0.216  -4.232  0.00  0.00    -0.005 C 
ATOM     10  H   LIG d   1       2.598   1.028  -4.113  0.00  0.00     0.087 H 
ATOM     11  H   LIG d   1       6.674   0.080  -4.030  0.00  0.00     0.082 H 
ATOM     12  H   LIG d   1       5.596  -0.727  -5.196  0.00  0.00     0.082 H 
ATOM     13  H   LIG d   1       5.786   1.713  -2.504  0.00  0.00     0.081 H 
ATOM     14  H   LIG d   1       4.052   2.115  -2.541  0.00  0.00     0.081 H 
ATOM     15  H   LIG d   1       5.385   0.116  -0.955  0.00  0.00     0.032 H 
ATOM     16  H   LIG d   1       3.652   0.521  -0.989  0.00  0.00     0.032 H 
ATOM     17  H   LIG d   1       2.795  -1.822  -3.761  0.00  0.00     0.032 H 
ATOM     18  H   LIG d   1       2.136  -0.615  -2.629  0.00  0.00     0.032 H 
ATOM     19  N   LIG d   1       4.679   0.745  -4.007  0.00  0.00     0.239 N 
ATOM     20  H   LIG d   1       4.866   1.487  -4.692  0.00  0.00     0.204 HD
ENDROOT
BRANCH   1  21
ATOM     21  C   LIG d   1       5.148  -2.764  -3.924  0.00  0.00    -0.024 C 
ATOM     22  H   LIG d   1       4.135  -2.741  -4.326  0.00  0.00     0.082 H 
ATOM     23  H   LIG d   1       5.249  -3.605  -3.239  0.00  0.00     0.082 H 
BRANCH  21  24
ATOM     24  N   LIG d   1       6.108  -2.888  -5.042  0.00  0.00     0.234 N 
ATOM     25  H   LIG d   1       6.373  -1.948  -5.359  0.00  0.00     0.203 HD
BRANCH  24  26
ATOM     26  C   LIG d   1       7.320  -3.603  -4.590  0.00  0.00    -0.043 C 
ATOM     27  H   LIG d   1       7.030  -4.363  -3.863  0.00  0.00     0.078 H 
ATOM     28  H   LIG d   1       7.790  -4.082  -5.449  0.00  0.00     0.078 H 
ATOM     29  H   LIG d   1       8.023  -2.910  -4.130  0.00  0.00     0.078 H 
ENDBRANCH  24  26
BRANCH  24  30
ATOM     30  C   LIG d   1       5.483  -3.615  -6.166  0.00  0.00    -0.027 C 
ATOM     31  H   LIG d   1       5.091  -2.915  -6.904  0.00  0.00     0.082 H 
ATOM     32  H   LIG d   1       6.229  -4.257  -6.635  0.00  0.00     0.082 H 
BRANCH  30  33
ATOM     33  C   LIG d   1       4.340  -4.475  -5.623  0.00  0.00     0.030 C 
ATOM     34  H   LIG d   1       4.424  -4.548  -4.538  0.00  0.00     0.038 H 
ATOM     35  H   LIG d   1       3.386  -4.017  -5.882  0.00  0.00     0.038 H 
BRANCH  33  36
ATOM     36  C   LIG d   1       4.416  -5.853  -6.227  0.00  0.00     0.046 A 
ATOM     37  N   LIG d   1       3.994  -6.048  -7.461  0.00  0.00    -0.260 NA
ATOM     38  C   LIG d   1       4.042  -7.237  -8.031  0.00  0.00     0.028 A 
ATOM     39  C   LIG d   1       4.541  -8.328  -7.346  0.00  0.00    -0.044 A 
ATOM     40  H   LIG d   1       3.688  -7.357  -9.043  0.00  0.00     0.083 H 
ATOM     41  C   LIG d   1       4.994  -8.162  -6.046  0.00  0.00    -0.059 A 
ATOM     42  H   LIG d   1       4.577  -9.300  -7.818  0.00  0.00     0.063 H 
ATOM     43  C   LIG d   1       4.933  -6.898  -5.483  0.00  0.00    -0.040 A 
ATOM     44  H   LIG d   1       5.388  -8.998  -5.487  0.00  0.00     0.062 H 
ATOM     45  H   LIG d   1       5.281  -6.731  -4.475  0.00  0.00     0.064 H 
ENDBRANCH  33  36
ENDBRANCH  30  33
ENDBRANCH  24  30
ENDBRANCH  21  24
ENDBRANCH   1  21
BRANCH   9  46
ATOM     46  C   LIG d   1       3.229  -0.341  -5.653  0.00  0.00     0.055 C 
ATOM     47  H   LIG d   1       4.118  -0.934  -5.867  0.00  0.00     0.052 H 
ATOM     48  H   LIG d   1       2.343  -0.970  -5.742  0.00  0.00     0.052 H 
BRANCH  46  49
ATOM     49  N   LIG d   1       3.140   0.766  -6.608  0.00  0.00    -0.308 N 
ATOM     50  C   LIG d   1       2.818   0.524  -7.894  0.00  0.00     0.239 C 
ATOM     51  O   LIG d   1       2.602  -0.613  -8.261  0.00  0.00    -0.273 OA
ATOM     52  H   LIG d   1       3.311   1.674  -6.314  0.00  0.00     0.149 HD
BRANCH  50  53
ATOM     53  C   LIG d   1       2.725   1.663  -8.876  0.00  0.00     0.123 C 
ATOM     54  H   LIG d   1       2.807   1.275  -9.891  0.00  0.00     0.066 H 
ATOM     55  H   LIG d   1       1.767   2.168  -8.756  0.00  0.00     0.066 H 
BRANCH  53  56
ATOM     56  O   LIG d   1       3.786   2.588  -8.633  0.00  0.00    -0.374 OA
BRANCH  56  57
ATOM     57  C   LIG d   1       5.026   2.223  -9.242  0.00  0.00     0.037 C 
ATOM     58  H   LIG d   1       5.502   1.437  -8.656  0.00  0.00     0.052 H 
ATOM     59  H   LIG d   1       4.843   1.862 -10.254  0.00  0.00     0.052 H 
ATOM     60  H   LIG d   1       5.682   3.093  -9.281  0.00  0.00     0.052 H 
ENDBRANCH  56  57
ENDBRANCH  53  56
ENDBRANCH  50  53
ENDBRANCH  46  49
ENDBRANCH   9  46
TORSDOF 11
ENDMDL
MODEL 3
REMARK VINA RESULT:      -6.2      3.347      7.297
REMARK  11 active torsions:
REMARK  status: ('A' for Active; 'I' for Inactive)
REMARK    1  A    between atoms: C_1  and  N_57 
REMARK    2  A    between atoms: C_2  and  C_3 
REMARK    3  A    between atoms: C_2  and  N_57 
REMARK    4  A    between atoms: C_3  and  C_4 
REMARK    5  A    between atoms: C_10  and  C_11 
REMARK    6  A    between atoms: C_10  and  N_57 
REMARK    7  A    between atoms: C_19  and  C_21 
REMARK    8  A    between atoms: C_21  and  N_22 
REMARK       I    between atoms: N_22  and  C_23 
REMARK    9  A    between atoms: C_23  and  C_25 
REMARK   10  A    between atoms: C_25  and  O_26 
REMARK   11  A    between atoms: O_26  and  C_27 
ROOT
ATOM      1  C   LIG d   1       5.452  -1.327  -3.316  0.00  0.00     0.042 C 
ATOM      2  H   LIG d   1       6.384  -1.427  -2.760  0.00  0.00     0.041 H 
ATOM      3  C   LIG d   1       5.554  -0.142  -4.280  0.00  0.00    -0.024 C 
ATOM      4  C   LIG d   1       4.693   1.373  -2.596  0.00  0.00    -0.031 C 
ATOM      5  C   LIG d   1       4.566   0.230  -1.585  0.00  0.00    -0.009 C 
ATOM      6  C   LIG d   1       4.293  -1.075  -2.343  0.00  0.00    -0.019 C 
ATOM      7  H   LIG d   1       4.206  -1.905  -1.641  0.00  0.00     0.031 H 
ATOM      8  C   LIG d   1       3.001  -0.910  -3.152  0.00  0.00    -0.005 C 
ATOM      9  C   LIG d   1       3.171   0.265  -4.120  0.00  0.00    -0.005 C 
ATOM     10  H   LIG d   1       2.419   1.025  -3.906  0.00  0.00     0.087 H 
ATOM     11  H   LIG d   1       6.536   0.322  -4.183  0.00  0.00     0.082 H 
ATOM     12  H   LIG d   1       5.417  -0.492  -5.303  0.00  0.00     0.082 H 
ATOM     13  H   LIG d   1       5.680   1.826  -2.511  0.00  0.00     0.081 H 
ATOM     14  H   LIG d   1       3.929   2.124  -2.395  0.00  0.00     0.081 H 
ATOM     15  H   LIG d   1       5.495   0.137  -1.021  0.00  0.00     0.032 H 
ATOM     16  H   LIG d   1       3.743   0.437  -0.901  0.00  0.00     0.032 H 
ATOM     17  H   LIG d   1       2.804  -1.821  -3.716  0.00  0.00     0.032 H 
ATOM     18  H   LIG d   1       2.170  -0.711  -2.477  0.00  0.00     0.032 H 
ATOM     19  N   LIG d   1       4.514   0.864  -3.974  0.00  0.00     0.239 N 
ATOM     20  H   LIG d   1       4.604   1.647  -4.631  0.00  0.00     0.204 HD
ENDROOT
BRANCH   1  21
ATOM     21  C   LIG d   1       5.186  -2.610  -4.107  0.00  0.00    -0.024 C 
ATOM     22  H   LIG d   1       4.670  -2.364  -5.035  0.00  0.00     0.082 H 
ATOM     23  H   LIG d   1       4.567  -3.282  -3.513  0.00  0.00     0.082 H 
BRANCH  21  24
ATOM     24  N   LIG d   1       6.481  -3.248  -4.428  0.00  0.00     0.234 N 
ATOM     25  H   LIG d   1       6.436  -4.241  -4.171  0.00  0.00     0.203 HD
BRANCH  24  26
ATOM     26  C   LIG d   1       6.753  -3.138  -5.877  0.00  0.00    -0.043 C 
ATOM     27  H   LIG d   1       6.887  -4.139  -6.288  0.00  0.00     0.078 H 
ATOM     28  H   LIG d   1       5.902  -2.657  -6.361  0.00  0.00     0.078 H 
ATOM     29  H   LIG d   1       7.652  -2.549  -6.054  0.00  0.00     0.078 H 
ENDBRANCH  24  26
BRANCH  24  30
ATOM     30  C   LIG d   1       7.566  -2.602  -3.661  0.00  0.00    -0.027 C 
ATOM     31  H   LIG d   1       7.556  -1.523  -3.818  0.00  0.00     0.082 H 
ATOM     32  H   LIG d   1       7.429  -2.815  -2.600  0.00  0.00     0.082 H 
BRANCH  30  33
ATOM     33  C   LIG d   1       8.908  -3.173  -4.126  0.00  0.00     0.030 C 
ATOM     34  H   LIG d   1       8.900  -3.280  -5.211  0.00  0.00     0.038 H 
ATOM     35  H   LIG d   1       9.711  -2.497  -3.834  0.00  0.00     0.038 H 
BRANCH  33  36
ATOM     36  C   LIG d   1       9.128  -4.521  -3.489  0.00  0.00     0.046 A 
ATOM     37  N   LIG d   1       8.845  -5.615  -4.168  0.00  0.00    -0.260 NA
ATOM     38  C   LIG d   1       9.023  -6.817  -3.651  0.00  0.00     0.028 A 
ATOM     39  C   LIG d   1       9.516  -6.969  -2.370  0.00  0.00    -0.044 A 
ATOM     40  H   LIG d   1       8.780  -7.690  -4.238  0.00  0.00     0.083 H 
ATOM     41  C   LIG d   1       9.825  -5.840  -1.626  0.00  0.00    -0.059 A 
ATOM     42  H   LIG d   1       9.658  -7.955  -1.953  0.00  0.00     0.063 H 
ATOM     43  C   LIG d   1       9.630  -4.596  -2.203  0.00  0.00    -0.040 A 
ATOM     44  H   LIG d   1      10.211  -5.929  -0.621  0.00  0.00     0.062 H 
ATOM     45  H   LIG d   1       9.865  -3.695  -1.655  0.00  0.00     0.064 H 
ENDBRANCH  33  36
ENDBRANCH  30  33
ENDBRANCH  24  30
ENDBRANCH  21  24
ENDBRANCH   1  21
BRANCH   9  46
ATOM     46  C   LIG d   1       3.002  -0.230  -5.558  0.00  0.00     0.055 C 
ATOM     47  H   LIG d   1       3.818  -0.909  -5.807  0.00  0.00     0.052 H 
ATOM     48  H   LIG d   1       2.051  -0.754  -5.652  0.00  0.00     0.052 H 
BRANCH  46  49
ATOM     49  N   LIG d   1       3.023   0.913  -6.474  0.00  0.00    -0.308 N 
ATOM     50  C   LIG d   1       2.832   0.723  -7.795  0.00  0.00     0.239 C 
ATOM     51  O   LIG d   1       2.643  -0.396  -8.225  0.00  0.00    -0.273 OA
ATOM     52  H   LIG d   1       3.173   1.807  -6.130  0.00  0.00     0.149 HD
BRANCH  50  53
ATOM     53  C   LIG d   1       2.852   1.899  -8.736  0.00  0.00     0.123 C 
ATOM     54  H   LIG d   1       2.672   1.552  -9.754  0.00  0.00     0.066 H 
ATOM     55  H   LIG d   1       2.073   2.606  -8.450  0.00  0.00     0.066 H 
BRANCH  53  56
ATOM     56  O   LIG d   1       4.127   2.540  -8.670  0.00  0.00    -0.374 OA
BRANCH  56  57
ATOM     57  C   LIG d   1       5.171   1.830  -9.339  0.00  0.00     0.037 C 
ATOM     58  H   LIG d   1       6.137   2.160  -8.957  0.00  0.00     0.052 H 
ATOM     59  H   LIG d   1       5.055   0.761  -9.161  0.00  0.00     0.052 H 
ATOM     60  H   LIG d   1       5.117   2.027 -10.409  0.00  0.00     0.052 H 
ENDBRANCH  56  57
ENDBRANCH  53  56
ENDBRANCH  50  53
ENDBRANCH  46  49
ENDBRANCH   9  46
TORSDOF 11
ENDMDL
MODEL 4
REMARK VINA RESULT:      -6.2      3.868      6.768
REMARK  11 active torsions:
REMARK  status: ('A' for Active; 'I' for Inactive)
REMARK    1  A    between atoms: C_1  and  N_57 
REMARK    2  A    between atoms: C_2  and  C_3 
REMARK    3  A    between atoms: C_2  and  N_57 
REMARK    4  A    between atoms: C_3  and  C_4 
REMARK    5  A    between atoms: C_10  and  C_11 
REMARK    6  A    between atoms: C_10  and  N_57 
REMARK    7  A    between atoms: C_19  and  C_21 
REMARK    8  A    between atoms: C_21  and  N_22 
REMARK       I    between atoms: N_22  and  C_23 
REMARK    9  A    between atoms: C_23  and  C_25 
REMARK   10  A    between atoms: C_25  and  O_26 
REMARK   11  A    between atoms: O_26  and  C_27 
ROOT
ATOM      1  C   LIG d   1       3.885  -0.730  -8.833  0.00  0.00     0.042 C 
ATOM      2  H   LIG d   1       4.756  -0.134  -8.560  0.00  0.00     0.041 H 
ATOM      3  C   LIG d   1       4.290  -1.785  -9.867  0.00  0.00    -0.024 C 
ATOM      4  C   LIG d   1       3.804  -0.266 -11.691  0.00  0.00    -0.031 C 
ATOM      5  C   LIG d   1       3.386   0.832 -10.709  0.00  0.00    -0.009 C 
ATOM      6  C   LIG d   1       2.810   0.176  -9.447  0.00  0.00    -0.019 C 
ATOM      7  H   LIG d   1       2.512   0.941  -8.730  0.00  0.00     0.031 H 
ATOM      8  C   LIG d   1       1.611  -0.690  -9.850  0.00  0.00    -0.005 C 
ATOM      9  C   LIG d   1       2.079  -1.746 -10.856  0.00  0.00    -0.005 C 
ATOM     10  H   LIG d   1       1.534  -1.623 -11.792  0.00  0.00     0.087 H 
ATOM     11  H   LIG d   1       5.355  -1.692 -10.084  0.00  0.00     0.082 H 
ATOM     12  H   LIG d   1       4.086  -2.780  -9.470  0.00  0.00     0.082 H 
ATOM     13  H   LIG d   1       4.872  -0.184 -11.895  0.00  0.00     0.081 H 
ATOM     14  H   LIG d   1       3.247  -0.156 -12.620  0.00  0.00     0.081 H 
ATOM     15  H   LIG d   1       4.254   1.435 -10.443  0.00  0.00     0.032 H 
ATOM     16  H   LIG d   1       2.629   1.466 -11.171  0.00  0.00     0.032 H 
ATOM     17  H   LIG d   1       1.203  -1.183  -8.967  0.00  0.00     0.032 H 
ATOM     18  H   LIG d   1       0.845  -0.064 -10.306  0.00  0.00     0.032 H 
ATOM     19  N   LIG d   1       3.527  -1.602 -11.120  0.00  0.00     0.239 N 
ATOM     20  H   LIG d   1       3.816  -2.319 -11.795  0.00  0.00     0.204 HD
ENDROOT
BRANCH   1  21
ATOM     21  C   LIG d   1       3.323  -1.420  -7.589  0.00  0.00    -0.024 C 
ATOM     22  H   LIG d   1       3.643  -2.462  -7.576  0.00  0.00     0.082 H 
ATOM     23  H   LIG d   1       2.235  -1.373  -7.608  0.00  0.00     0.082 H 
BRANCH  21  24
ATOM     24  N   LIG d   1       3.850  -0.738  -6.387  0.00  0.00     0.234 N 
ATOM     25  H   LIG d   1       3.787  -1.378  -5.587  0.00  0.00     0.203 HD
BRANCH  24  26
ATOM     26  C   LIG d   1       5.265  -0.366  -6.596  0.00  0.00    -0.043 C 
ATOM     27  H   LIG d   1       5.801  -1.228  -6.994  0.00  0.00     0.078 H 
ATOM     28  H   LIG d   1       5.313   0.454  -7.313  0.00  0.00     0.078 H 
ATOM     29  H   LIG d   1       5.721  -0.056  -5.657  0.00  0.00     0.078 H 
ENDBRANCH  24  26
BRANCH  24  30
ATOM     30  C   LIG d   1       3.047   0.470  -6.100  0.00  0.00    -0.027 C 
ATOM     31  H   LIG d   1       3.697   1.319  -5.887  0.00  0.00     0.082 H 
ATOM     32  H   LIG d   1       2.424   0.697  -6.966  0.00  0.00     0.082 H 
BRANCH  30  33
ATOM     33  C   LIG d   1       2.156   0.193  -4.888  0.00  0.00     0.030 C 
ATOM     34  H   LIG d   1       1.625   1.105  -4.612  0.00  0.00     0.038 H 
ATOM     35  H   LIG d   1       1.435  -0.585  -5.137  0.00  0.00     0.038 H 
BRANCH  33  36
ATOM     36  C   LIG d   1       3.007  -0.262  -3.731  0.00  0.00     0.046 A 
ATOM     37  N   LIG d   1       3.185  -1.551  -3.521  0.00  0.00    -0.260 NA
ATOM     38  C   LIG d   1       3.922  -1.996  -2.521  0.00  0.00     0.028 A 
ATOM     39  C   LIG d   1       4.538  -1.116  -1.652  0.00  0.00    -0.044 A 
ATOM     40  H   LIG d   1       4.045  -3.059  -2.381  0.00  0.00     0.083 H 
ATOM     41  C   LIG d   1       4.375   0.248  -1.842  0.00  0.00    -0.059 A 
ATOM     42  H   LIG d   1       5.140  -1.486  -0.835  0.00  0.00     0.063 H 
ATOM     43  C   LIG d   1       3.597   0.677  -2.905  0.00  0.00    -0.040 A 
ATOM     44  H   LIG d   1       4.843   0.959  -1.178  0.00  0.00     0.062 H 
ATOM     45  H   LIG d   1       3.452   1.732  -3.086  0.00  0.00     0.064 H 
ENDBRANCH  33  36
ENDBRANCH  30  33
ENDBRANCH  24  30
ENDBRANCH  21  24
ENDBRANCH   1  21
BRANCH   9  46
ATOM     46  C   LIG d   1       1.814  -3.143 -10.290  0.00  0.00     0.055 C 
ATOM     47  H   LIG d   1       2.330  -3.886 -10.899  0.00  0.00     0.052 H 
ATOM     48  H   LIG d   1       2.182  -3.195  -9.265  0.00  0.00     0.052 H 
BRANCH  46  49
ATOM     49  N   LIG d   1       0.374  -3.412 -10.307  0.00  0.00    -0.308 N 
ATOM     50  C   LIG d   1      -0.074  -4.681 -10.372  0.00  0.00     0.239 C 
ATOM     51  O   LIG d   1       0.716  -5.601 -10.417  0.00  0.00    -0.273 OA
ATOM     52  H   LIG d   1      -0.257  -2.676 -10.271  0.00  0.00     0.149 HD
BRANCH  50  53
ATOM     53  C   LIG d   1      -1.555  -4.958 -10.389  0.00  0.00     0.123 C 
ATOM     54  H   LIG d   1      -2.099  -4.018 -10.481  0.00  0.00     0.066 H 
ATOM     55  H   LIG d   1      -1.794  -5.600 -11.237  0.00  0.00     0.066 H 
BRANCH  53  56
ATOM     56  O   LIG d   1      -1.931  -5.610  -9.175  0.00  0.00    -0.374 OA
BRANCH  56  57
ATOM     57  C   LIG d   1      -3.185  -6.292  -9.247  0.00  0.00     0.037 C 
ATOM     58  H   LIG d   1      -3.354  -6.840  -8.320  0.00  0.00     0.052 H 
ATOM     59  H   LIG d   1      -3.986  -5.568  -9.393  0.00  0.00     0.052 H 
ATOM     60  H   LIG d   1      -3.171  -6.992 -10.083  0.00  0.00     0.052 H 
ENDBRANCH  56  57
ENDBRANCH  53  56
ENDBRANCH  50  53
ENDBRANCH  46  49
ENDBRANCH   9  46
TORSDOF 11
ENDMDL
MODEL 5
REMARK VINA RESULT:      -6.0      2.989      5.424
REMARK  11 active torsions:
REMARK  status: ('A' for Active; 'I' for Inactive)
REMARK    1  A    between atoms: C_1  and  N_57 
REMARK    2  A    between atoms: C_2  and  C_3 
REMARK    3  A    between atoms: C_2  and  N_57 
REMARK    4  A    between atoms: C_3  and  C_4 
REMARK    5  A    between atoms: C_10  and  C_11 
REMARK    6  A    between atoms: C_10  and  N_57 
REMARK    7  A    between atoms: C_19  and  C_21 
REMARK    8  A    between atoms: C_21  and  N_22 
REMARK       I    between atoms: N_22  and  C_23 
REMARK    9  A    between atoms: C_23  and  C_25 
REMARK   10  A    between atoms: C_25  and  O_26 
REMARK   11  A    between atoms: O_26  and  C_27 
ROOT
ATOM      1  C   LIG d   1       5.214  -1.458  -3.121  0.00  0.00     0.042 C 
ATOM      2  H   LIG d   1       6.099  -1.669  -2.522  0.00  0.00     0.041 H 
ATOM      3  C   LIG d   1       5.537  -0.373  -4.152  0.00  0.00    -0.024 C 
ATOM      4  C   LIG d   1       4.884   1.371  -2.602  0.00  0.00    -0.031 C 
ATOM      5  C   LIG d   1       4.542   0.335  -1.528  0.00  0.00    -0.009 C 
ATOM      6  C   LIG d   1       4.082  -0.958  -2.215  0.00  0.00    -0.019 C 
ATOM      7  H   LIG d   1       3.840  -1.714  -1.466  0.00  0.00     0.031 H 
ATOM      8  C   LIG d   1       2.860  -0.642  -3.085  0.00  0.00    -0.005 C 
ATOM      9  C   LIG d   1       3.249   0.422  -4.116  0.00  0.00    -0.005 C 
ATOM     10  H   LIG d   1       2.625   1.306  -3.980  0.00  0.00     0.087 H 
ATOM     11  H   LIG d   1       6.578  -0.067  -4.043  0.00  0.00     0.082 H 
ATOM     12  H   LIG d   1       5.376  -0.765  -5.156  0.00  0.00     0.082 H 
ATOM     13  H   LIG d   1       5.929   1.664  -2.505  0.00  0.00     0.081 H 
ATOM     14  H   LIG d   1       4.247   2.247  -2.479  0.00  0.00     0.081 H 
ATOM     15  H   LIG d   1       5.425   0.132  -0.922  0.00  0.00     0.032 H 
ATOM     16  H   LIG d   1       3.743   0.717  -0.892  0.00  0.00     0.032 H 
ATOM     17  H   LIG d   1       2.534  -1.546  -3.599  0.00  0.00     0.032 H 
ATOM     18  H   LIG d   1       2.052  -0.266  -2.457  0.00  0.00     0.032 H 
ATOM     19  N   LIG d   1       4.667   0.806  -3.951  0.00  0.00     0.239 N 
ATOM     20  H   LIG d   1       4.903   1.518  -4.652  0.00  0.00     0.204 HD
ENDROOT
BRANCH   1  21
ATOM     21  C   LIG d   1       4.766  -2.732  -3.842  0.00  0.00    -0.024 C 
ATOM     22  H   LIG d   1       3.707  -2.658  -4.087  0.00  0.00     0.082 H 
ATOM     23  H   LIG d   1       4.931  -3.593  -3.194  0.00  0.00     0.082 H 
BRANCH  21  24
ATOM     24  N   LIG d   1       5.544  -2.870  -5.092  0.00  0.00     0.234 N 
ATOM     25  H   LIG d   1       5.866  -1.941  -5.388  0.00  0.00     0.203 HD
BRANCH  24  26
ATOM     26  C   LIG d   1       6.720  -3.735  -4.863  0.00  0.00    -0.043 C 
ATOM     27  H   LIG d   1       7.431  -3.586  -5.676  0.00  0.00     0.078 H 
ATOM     28  H   LIG d   1       7.185  -3.457  -3.917  0.00  0.00     0.078 H 
ATOM     29  H   LIG d   1       6.422  -4.783  -4.828  0.00  0.00     0.078 H 
ENDBRANCH  24  26
BRANCH  24  30
ATOM     30  C   LIG d   1       4.693  -3.444  -6.155  0.00  0.00    -0.027 C 
ATOM     31  H   LIG d   1       4.328  -4.429  -5.862  0.00  0.00     0.082 H 
ATOM     32  H   LIG d   1       3.846  -2.781  -6.331  0.00  0.00     0.082 H 
BRANCH  30  33
ATOM     33  C   LIG d   1       5.520  -3.568  -7.437  0.00  0.00     0.030 C 
ATOM     34  H   LIG d   1       6.379  -2.899  -7.381  0.00  0.00     0.038 H 
ATOM     35  H   LIG d   1       5.866  -4.595  -7.549  0.00  0.00     0.038 H 
BRANCH  33  36
ATOM     36  C   LIG d   1       4.668  -3.193  -8.622  0.00  0.00     0.046 A 
ATOM     37  N   LIG d   1       5.109  -2.297  -9.483  0.00  0.00    -0.260 NA
ATOM     38  C   LIG d   1       4.398  -1.938 -10.535  0.00  0.00     0.028 A 
ATOM     39  C   LIG d   1       3.156  -2.494 -10.772  0.00  0.00    -0.044 A 
ATOM     40  H   LIG d   1       4.793  -1.201 -11.219  0.00  0.00     0.083 H 
ATOM     41  C   LIG d   1       2.660  -3.440  -9.888  0.00  0.00    -0.059 A 
ATOM     42  H   LIG d   1       2.579  -2.196 -11.635  0.00  0.00     0.063 H 
ATOM     43  C   LIG d   1       3.436  -3.796  -8.797  0.00  0.00    -0.040 A 
ATOM     44  H   LIG d   1       1.691  -3.891 -10.048  0.00  0.00     0.062 H 
ATOM     45  H   LIG d   1       3.084  -4.532  -8.091  0.00  0.00     0.064 H 
ENDBRANCH  33  36
ENDBRANCH  30  33
ENDBRANCH  24  30
ENDBRANCH  21  24
ENDBRANCH   1  21
BRANCH   9  46
ATOM     46  C   LIG d   1       3.046  -0.135  -5.525  0.00  0.00     0.055 C 
ATOM     47  H   LIG d   1       3.805  -0.890  -5.732  0.00  0.00     0.052 H 
ATOM     48  H   LIG d   1       2.056  -0.587  -5.599  0.00  0.00     0.052 H 
BRANCH  46  49
ATOM     49  N   LIG d   1       3.160   0.951  -6.502  0.00  0.00    -0.308 N 
ATOM     50  C   LIG d   1       2.792   0.749  -7.783  0.00  0.00     0.239 C 
ATOM     51  O   LIG d   1       2.365  -0.334  -8.127  0.00  0.00    -0.273 OA
ATOM     52  H   LIG d   1       3.500   1.816  -6.226  0.00  0.00     0.149 HD
BRANCH  50  53
ATOM     53  C   LIG d   1       2.908   1.866  -8.786  0.00  0.00     0.123 C 
ATOM     54  H   LIG d   1       2.721   1.477  -9.787  0.00  0.00     0.066 H 
ATOM     55  H   LIG d   1       2.176   2.640  -8.554  0.00  0.00     0.066 H 
BRANCH  53  56
ATOM     56  O   LIG d   1       4.223   2.422  -8.729  0.00  0.00    -0.374 OA
BRANCH  56  57
ATOM     57  C   LIG d   1       5.213   1.642  -9.403  0.00  0.00     0.037 C 
ATOM     58  H   LIG d   1       5.497   0.796  -8.777  0.00  0.00     0.052 H 
ATOM     59  H   LIG d   1       4.809   1.277 -10.347  0.00  0.00     0.052 H 
ATOM     60  H   LIG d   1       6.091   2.258  -9.599  0.00  0.00     0.052 H 
ENDBRANCH  56  57
ENDBRANCH  53  56
ENDBRANCH  50  53
ENDBRANCH  46  49
ENDBRANCH   9  46
TORSDOF 11
ENDMDL
MODEL 6
REMARK VINA RESULT:      -6.0      1.761      2.325
REMARK  11 active torsions:
REMARK  status: ('A' for Active; 'I' for Inactive)
REMARK    1  A    between atoms: C_1  and  N_57 
REMARK    2  A    between atoms: C_2  and  C_3 
REMARK    3  A    between atoms: C_2  and  N_57 
REMARK    4  A    between atoms: C_3  and  C_4 
REMARK    5  A    between atoms: C_10  and  C_11 
REMARK    6  A    between atoms: C_10  and  N_57 
REMARK    7  A    between atoms: C_19  and  C_21 
REMARK    8  A    between atoms: C_21  and  N_22 
REMARK       I    between atoms: N_22  and  C_23 
REMARK    9  A    between atoms: C_23  and  C_25 
REMARK   10  A    between atoms: C_25  and  O_26 
REMARK   11  A    between atoms: O_26  and  C_27 
ROOT
ATOM      1  C   LIG d   1       5.140   0.125  -4.284  0.00  0.00     0.042 C 
ATOM      2  H   LIG d   1       4.904   1.178  -4.435  0.00  0.00     0.041 H 
ATOM      3  C   LIG d   1       4.140  -0.740  -5.057  0.00  0.00    -0.024 C 
ATOM      4  C   LIG d   1       2.649  -0.819  -3.149  0.00  0.00    -0.031 C 
ATOM      5  C   LIG d   1       3.607   0.044  -2.323  0.00  0.00    -0.009 C 
ATOM      6  C   LIG d   1       5.043  -0.219  -2.793  0.00  0.00    -0.019 C 
ATOM      7  H   LIG d   1       5.743   0.392  -2.221  0.00  0.00     0.031 H 
ATOM      8  C   LIG d   1       5.351  -1.710  -2.614  0.00  0.00    -0.005 C 
ATOM      9  C   LIG d   1       4.344  -2.525  -3.432  0.00  0.00    -0.005 C 
ATOM     10  H   LIG d   1       3.781  -3.181  -2.767  0.00  0.00     0.087 H 
ATOM     11  H   LIG d   1       3.428  -0.098  -5.576  0.00  0.00     0.082 H 
ATOM     12  H   LIG d   1       4.675  -1.353  -5.784  0.00  0.00     0.082 H 
ATOM     13  H   LIG d   1       1.948  -0.176  -3.681  0.00  0.00     0.081 H 
ATOM     14  H   LIG d   1       2.100  -1.488  -2.487  0.00  0.00     0.081 H 
ATOM     15  H   LIG d   1       3.364   1.098  -2.464  0.00  0.00     0.032 H 
ATOM     16  H   LIG d   1       3.513  -0.212  -1.268  0.00  0.00     0.032 H 
ATOM     17  H   LIG d   1       6.361  -1.920  -2.965  0.00  0.00     0.032 H 
ATOM     18  H   LIG d   1       5.268  -1.977  -1.560  0.00  0.00     0.032 H 
ATOM     19  N   LIG d   1       3.402  -1.627  -4.132  0.00  0.00     0.239 N 
ATOM     20  H   LIG d   1       2.739  -2.195  -4.673  0.00  0.00     0.204 HD
ENDROOT
BRANCH   1  21
ATOM     21  C   LIG d   1       6.558  -0.160  -4.784  0.00  0.00    -0.024 C 
ATOM     22  H   LIG d   1       6.642  -1.211  -5.059  0.00  0.00     0.082 H 
ATOM     23  H   LIG d   1       7.274   0.070  -3.996  0.00  0.00     0.082 H 
BRANCH  21  24
ATOM     24  N   LIG d   1       6.818   0.674  -5.978  0.00  0.00     0.234 N 
ATOM     25  H   LIG d   1       6.013   1.291  -6.136  0.00  0.00     0.203 HD
BRANCH  24  26
ATOM     26  C   LIG d   1       8.024   1.502  -5.763  0.00  0.00    -0.043 C 
ATOM     27  H   LIG d   1       8.733   0.940  -5.155  0.00  0.00     0.078 H 
ATOM     28  H   LIG d   1       8.474   1.730  -6.729  0.00  0.00     0.078 H 
ATOM     29  H   LIG d   1       7.765   2.429  -5.254  0.00  0.00     0.078 H 
ENDBRANCH  24  26
BRANCH  24  30
ATOM     30  C   LIG d   1       7.002  -0.187  -7.165  0.00  0.00    -0.027 C 
ATOM     31  H   LIG d   1       7.979  -0.671  -7.138  0.00  0.00     0.082 H 
ATOM     32  H   LIG d   1       6.221  -0.948  -7.178  0.00  0.00     0.082 H 
BRANCH  30  33
ATOM     33  C   LIG d   1       6.895   0.676  -8.423  0.00  0.00     0.030 C 
ATOM     34  H   LIG d   1       7.534   1.553  -8.318  0.00  0.00     0.038 H 
ATOM     35  H   LIG d   1       7.213   0.097  -9.289  0.00  0.00     0.038 H 
BRANCH  33  36
ATOM     36  C   LIG d   1       5.466   1.116  -8.610  0.00  0.00     0.046 A 
ATOM     37  N   LIG d   1       4.485   0.325  -8.223  0.00  0.00    -0.260 NA
ATOM     38  C   LIG d   1       3.219   0.668  -8.367  0.00  0.00     0.028 A 
ATOM     39  C   LIG d   1       2.876   1.881  -8.933  0.00  0.00    -0.044 A 
ATOM     40  H   LIG d   1       2.443  -0.006  -8.036  0.00  0.00     0.083 H 
ATOM     41  C   LIG d   1       3.881   2.739  -9.353  0.00  0.00    -0.059 A 
ATOM     42  H   LIG d   1       1.838   2.156  -9.049  0.00  0.00     0.063 H 
ATOM     43  C   LIG d   1       5.198   2.347  -9.181  0.00  0.00    -0.040 A 
ATOM     44  H   LIG d   1       3.642   3.693  -9.800  0.00  0.00     0.062 H 
ATOM     45  H   LIG d   1       6.007   2.992  -9.492  0.00  0.00     0.064 H 
ENDBRANCH  33  36
ENDBRANCH  30  33
ENDBRANCH  24  30
ENDBRANCH  21  24
ENDBRANCH   1  21
BRANCH   9  46
ATOM     46  C   LIG d   1       5.091  -3.367  -4.468  0.00  0.00     0.055 C 
ATOM     47  H   LIG d   1       5.813  -2.741  -4.993  0.00  0.00     0.052 H 
ATOM     48  H   LIG d   1       5.614  -4.181  -3.966  0.00  0.00     0.052 H 
BRANCH  46  49
ATOM     49  N   LIG d   1       4.134  -3.921  -5.429  0.00  0.00    -0.308 N 
ATOM     50  C   LIG d   1       4.571  -4.432  -6.597  0.00  0.00     0.239 C 
ATOM     51  O   LIG d   1       5.758  -4.434  -6.852  0.00  0.00    -0.273 OA
ATOM     52  H   LIG d   1       3.186  -3.919  -5.225  0.00  0.00     0.149 HD
BRANCH  50  53
ATOM     53  C   LIG d   1       3.588  -5.002  -7.585  0.00  0.00     0.123 C 
ATOM     54  H   LIG d   1       3.726  -6.081  -7.655  0.00  0.00     0.066 H 
ATOM     55  H   LIG d   1       2.572  -4.787  -7.252  0.00  0.00     0.066 H 
BRANCH  53  56
ATOM     56  O   LIG d   1       3.804  -4.411  -8.868  0.00  0.00    -0.374 OA
BRANCH  56  57
ATOM     57  C   LIG d   1       3.256  -3.098  -9.002  0.00  0.00     0.037 C 
ATOM     58  H   LIG d   1       4.052  -2.396  -9.253  0.00  0.00     0.052 H 
ATOM     59  H   LIG d   1       2.506  -3.095  -9.792  0.00  0.00     0.052 H 
ATOM     60  H   LIG d   1       2.793  -2.799  -8.061  0.00  0.00     0.052 H 
ENDBRANCH  56  57
ENDBRANCH  53  56
ENDBRANCH  50  53
ENDBRANCH  46  49
ENDBRANCH   9  46
TORSDOF 11
ENDMDL
MODEL 7
REMARK VINA RESULT:      -6.0      2.933      4.717
REMARK  11 active torsions:
REMARK  status: ('A' for Active; 'I' for Inactive)
REMARK    1  A    between atoms: C_1  and  N_57 
REMARK    2  A    between atoms: C_2  and  C_3 
REMARK    3  A    between atoms: C_2  and  N_57 
REMARK    4  A    between atoms: C_3  and  C_4 
REMARK    5  A    between atoms: C_10  and  C_11 
REMARK    6  A    between atoms: C_10  and  N_57 
REMARK    7  A    between atoms: C_19  and  C_21 
REMARK    8  A    between atoms: C_21  and  N_22 
REMARK       I    between atoms: N_22  and  C_23 
REMARK    9  A    between atoms: C_23  and  C_25 
REMARK   10  A    between atoms: C_25  and  O_26 
REMARK   11  A    between atoms: O_26  and  C_27 
ROOT
ATOM      1  C   LIG d   1       5.727   0.220  -3.579  0.00  0.00     0.042 C 
ATOM      2  H   LIG d   1       5.915   1.284  -3.717  0.00  0.00     0.041 H 
ATOM      3  C   LIG d   1       4.992  -0.334  -4.803  0.00  0.00    -0.024 C 
ATOM      4  C   LIG d   1       2.841   0.159  -3.804  0.00  0.00    -0.031 C 
ATOM      5  C   LIG d   1       3.515   0.727  -2.552  0.00  0.00    -0.009 C 
ATOM      6  C   LIG d   1       4.851   0.006  -2.338  0.00  0.00    -0.019 C 
ATOM      7  H   LIG d   1       5.353   0.400  -1.453  0.00  0.00     0.031 H 
ATOM      8  C   LIG d   1       4.578  -1.495  -2.184  0.00  0.00    -0.005 C 
ATOM      9  C   LIG d   1       3.874  -2.002  -3.447  0.00  0.00    -0.005 C 
ATOM     10  H   LIG d   1       2.900  -2.412  -3.180  0.00  0.00     0.087 H 
ATOM     11  H   LIG d   1       4.831   0.467  -5.524  0.00  0.00     0.082 H 
ATOM     12  H   LIG d   1       5.591  -1.122  -5.261  0.00  0.00     0.082 H 
ATOM     13  H   LIG d   1       2.695   0.957  -4.532  0.00  0.00     0.081 H 
ATOM     14  H   LIG d   1       1.875  -0.269  -3.536  0.00  0.00     0.081 H 
ATOM     15  H   LIG d   1       3.693   1.794  -2.685  0.00  0.00     0.032 H 
ATOM     16  H   LIG d   1       2.870   0.571  -1.687  0.00  0.00     0.032 H 
ATOM     17  H   LIG d   1       5.520  -2.027  -2.054  0.00  0.00     0.032 H 
ATOM     18  H   LIG d   1       3.940  -1.663  -1.316  0.00  0.00     0.032 H 
ATOM     19  N   LIG d   1       3.682  -0.896  -4.409  0.00  0.00     0.239 N 
ATOM     20  H   LIG d   1       3.210  -1.259  -5.245  0.00  0.00     0.204 HD
ENDROOT
BRANCH   1  21
ATOM     21  C   LIG d   1       7.055  -0.518  -3.401  0.00  0.00    -0.024 C 
ATOM     22  H   LIG d   1       7.061  -1.411  -4.025  0.00  0.00     0.082 H 
ATOM     23  H   LIG d   1       7.176  -0.803  -2.356  0.00  0.00     0.082 H 
BRANCH  21  24
ATOM     24  N   LIG d   1       8.156   0.375  -3.824  0.00  0.00     0.234 N 
ATOM     25  H   LIG d   1       8.920   0.308  -3.142  0.00  0.00     0.203 HD
BRANCH  24  26
ATOM     26  C   LIG d   1       8.658  -0.037  -5.152  0.00  0.00    -0.043 C 
ATOM     27  H   LIG d   1       8.658  -1.126  -5.206  0.00  0.00     0.078 H 
ATOM     28  H   LIG d   1       7.998   0.366  -5.921  0.00  0.00     0.078 H 
ATOM     29  H   LIG d   1       9.670   0.334  -5.310  0.00  0.00     0.078 H 
ENDBRANCH  24  26
BRANCH  24  30
ATOM     30  C   LIG d   1       7.680   1.773  -3.876  0.00  0.00    -0.027 C 
ATOM     31  H   LIG d   1       6.628   1.809  -4.160  0.00  0.00     0.082 H 
ATOM     32  H   LIG d   1       7.806   2.229  -2.894  0.00  0.00     0.082 H 
BRANCH  30  33
ATOM     33  C   LIG d   1       8.512   2.540  -4.906  0.00  0.00     0.030 C 
ATOM     34  H   LIG d   1       9.261   1.875  -5.336  0.00  0.00     0.038 H 
ATOM     35  H   LIG d   1       7.861   2.912  -5.696  0.00  0.00     0.038 H 
BRANCH  33  36
ATOM     36  C   LIG d   1       9.199   3.701  -4.233  0.00  0.00     0.046 A 
ATOM     37  N   LIG d   1       9.183   4.888  -4.807  0.00  0.00    -0.260 NA
ATOM     38  C   LIG d   1       9.770   5.933  -4.255  0.00  0.00     0.028 A 
ATOM     39  C   LIG d   1      10.428   5.816  -3.046  0.00  0.00    -0.044 A 
ATOM     40  H   LIG d   1       9.735   6.889  -4.754  0.00  0.00     0.083 H 
ATOM     41  C   LIG d   1      10.466   4.583  -2.413  0.00  0.00    -0.059 A 
ATOM     42  H   LIG d   1      10.907   6.675  -2.599  0.00  0.00     0.063 H 
ATOM     43  C   LIG d   1       9.833   3.510  -3.020  0.00  0.00    -0.040 A 
ATOM     44  H   LIG d   1      10.974   4.462  -1.467  0.00  0.00     0.062 H 
ATOM     45  H   LIG d   1       9.839   2.536  -2.553  0.00  0.00     0.064 H 
ENDBRANCH  33  36
ENDBRANCH  30  33
ENDBRANCH  24  30
ENDBRANCH  21  24
ENDBRANCH   1  21
BRANCH   9  46
ATOM     46  C   LIG d   1       4.725  -3.090  -4.103  0.00  0.00     0.055 C 
ATOM     47  H   LIG d   1       5.672  -2.661  -4.434  0.00  0.00     0.052 H 
ATOM     48  H   LIG d   1       4.918  -3.885  -3.383  0.00  0.00     0.052 H 
BRANCH  46  49
ATOM     49  N   LIG d   1       4.009  -3.640  -5.258  0.00  0.00    -0.308 N 
ATOM     50  C   LIG d   1       4.666  -3.869  -6.412  0.00  0.00     0.239 C 
ATOM     51  O   LIG d   1       5.851  -3.619  -6.495  0.00  0.00    -0.273 OA
ATOM     52  H   LIG d   1       3.063  -3.839  -5.191  0.00  0.00     0.149 HD
BRANCH  50  53
ATOM     53  C   LIG d   1       3.931  -4.435  -7.598  0.00  0.00     0.123 C 
ATOM     54  H   LIG d   1       3.067  -3.808  -7.823  0.00  0.00     0.066 H 
ATOM     55  H   LIG d   1       4.597  -4.459  -8.461  0.00  0.00     0.066 H 
BRANCH  53  56
ATOM     56  O   LIG d   1       3.491  -5.761  -7.298  0.00  0.00    -0.374 OA
BRANCH  56  57
ATOM     57  C   LIG d   1       4.287  -6.786  -7.896  0.00  0.00     0.037 C 
ATOM     58  H   LIG d   1       4.277  -7.671  -7.260  0.00  0.00     0.052 H 
ATOM     59  H   LIG d   1       3.882  -7.037  -8.876  0.00  0.00     0.052 H 
ATOM     60  H   LIG d   1       5.312  -6.432  -8.007  0.00  0.00     0.052 H 
ENDBRANCH  56  57
ENDBRANCH  53  56
ENDBRANCH  50  53
ENDBRANCH  46  49
ENDBRANCH   9  46
TORSDOF 11
ENDMDL
MODEL 8
REMARK VINA RESULT:      -5.7      3.083      6.339
REMARK  11 active torsions:
REMARK  status: ('A' for Active; 'I' for Inactive)
REMARK    1  A    between atoms: C_1  and  N_57 
REMARK    2  A    between atoms: C_2  and  C_3 
REMARK    3  A    between atoms: C_2  and  N_57 
REMARK    4  A    between atoms: C_3  and  C_4 
REMARK    5  A    between atoms: C_10  and  C_11 
REMARK    6  A    between atoms: C_10  and  N_57 
REMARK    7  A    between atoms: C_19  and  C_21 
REMARK    8  A    between atoms: C_21  and  N_22 
REMARK       I    between atoms: N_22  and  C_23 
REMARK    9  A    between atoms: C_23  and  C_25 
REMARK   10  A    between atoms: C_25  and  O_26 
REMARK   11  A    between atoms: O_26  and  C_27 
ROOT
ATOM      1  C   LIG d   1       4.134  -0.729  -8.015  0.00  0.00     0.042 C 
ATOM      2  H   LIG d   1       4.618  -0.507  -7.065  0.00  0.00     0.041 H 
ATOM      3  C   LIG d   1       4.968  -0.151  -9.163  0.00  0.00    -0.024 C 
ATOM      4  C   LIG d   1       3.762   1.947  -9.057  0.00  0.00    -0.031 C 
ATOM      5  C   LIG d   1       2.894   1.429  -7.907  0.00  0.00    -0.009 C 
ATOM      6  C   LIG d   1       2.739  -0.091  -8.048  0.00  0.00    -0.019 C 
ATOM      7  H   LIG d   1       2.129  -0.482  -7.233  0.00  0.00     0.031 H 
ATOM      8  C   LIG d   1       2.094  -0.392  -9.405  0.00  0.00    -0.005 C 
ATOM      9  C   LIG d   1       2.984   0.176 -10.514  0.00  0.00    -0.005 C 
ATOM     10  H   LIG d   1       2.422   0.911 -11.091  0.00  0.00     0.087 H 
ATOM     11  H   LIG d   1       5.850   0.345  -8.757  0.00  0.00     0.082 H 
ATOM     12  H   LIG d   1       5.278  -0.957  -9.829  0.00  0.00     0.082 H 
ATOM     13  H   LIG d   1       4.652   2.428  -8.653  0.00  0.00     0.081 H 
ATOM     14  H   LIG d   1       3.195   2.668  -9.646  0.00  0.00     0.081 H 
ATOM     15  H   LIG d   1       3.372   1.661  -6.955  0.00  0.00     0.032 H 
ATOM     16  H   LIG d   1       1.913   1.903  -7.947  0.00  0.00     0.032 H 
ATOM     17  H   LIG d   1       1.997  -1.471  -9.533  0.00  0.00     0.032 H 
ATOM     18  H   LIG d   1       1.108   0.070  -9.453  0.00  0.00     0.032 H 
ATOM     19  N   LIG d   1       4.176   0.831  -9.934  0.00  0.00     0.239 N 
ATOM     20  H   LIG d   1       4.756   1.203 -10.695  0.00  0.00     0.204 HD
ENDROOT
BRANCH   1  21
ATOM     21  C   LIG d   1       4.007  -2.244  -8.186  0.00  0.00    -0.024 C 
ATOM     22  H   LIG d   1       4.875  -2.623  -8.726  0.00  0.00     0.082 H 
ATOM     23  H   LIG d   1       3.101  -2.472  -8.747  0.00  0.00     0.082 H 
BRANCH  21  24
ATOM     24  N   LIG d   1       3.958  -2.872  -6.847  0.00  0.00     0.234 N 
ATOM     25  H   LIG d   1       3.060  -2.645  -6.406  0.00  0.00     0.203 HD
BRANCH  24  26
ATOM     26  C   LIG d   1       4.076  -4.340  -6.974  0.00  0.00    -0.043 C 
ATOM     27  H   LIG d   1       4.411  -4.750  -6.021  0.00  0.00     0.078 H 
ATOM     28  H   LIG d   1       3.098  -4.753  -7.223  0.00  0.00     0.078 H 
ATOM     29  H   LIG d   1       4.791  -4.600  -7.753  0.00  0.00     0.078 H 
ENDBRANCH  24  26
BRANCH  24  30
ATOM     30  C   LIG d   1       5.054  -2.348  -6.005  0.00  0.00    -0.027 C 
ATOM     31  H   LIG d   1       6.008  -2.783  -6.304  0.00  0.00     0.082 H 
ATOM     32  H   LIG d   1       5.099  -1.264  -6.112  0.00  0.00     0.082 H 
BRANCH  30  33
ATOM     33  C   LIG d   1       4.767  -2.705  -4.545  0.00  0.00     0.030 C 
ATOM     34  H   LIG d   1       3.967  -3.444  -4.502  0.00  0.00     0.038 H 
ATOM     35  H   LIG d   1       5.666  -3.117  -4.088  0.00  0.00     0.038 H 
BRANCH  33  36
ATOM     36  C   LIG d   1       4.347  -1.466  -3.797  0.00  0.00     0.046 A 
ATOM     37  N   LIG d   1       3.612  -0.556  -4.407  0.00  0.00    -0.260 NA
ATOM     38  C   LIG d   1       3.221   0.545  -3.792  0.00  0.00     0.028 A 
ATOM     39  C   LIG d   1       3.571   0.782  -2.477  0.00  0.00    -0.044 A 
ATOM     40  H   LIG d   1       2.619   1.267  -4.324  0.00  0.00     0.083 H 
ATOM     41  C   LIG d   1       4.343  -0.153  -1.804  0.00  0.00    -0.059 A 
ATOM     42  H   LIG d   1       3.248   1.685  -1.980  0.00  0.00     0.063 H 
ATOM     43  C   LIG d   1       4.731  -1.298  -2.480  0.00  0.00    -0.040 A 
ATOM     44  H   LIG d   1       4.633   0.007  -0.776  0.00  0.00     0.062 H 
ATOM     45  H   LIG d   1       5.328  -2.050  -1.986  0.00  0.00     0.064 H 
ENDBRANCH  33  36
ENDBRANCH  30  33
ENDBRANCH  24  30
ENDBRANCH  21  24
ENDBRANCH   1  21
BRANCH   9  46
ATOM     46  C   LIG d   1       3.439  -0.957 -11.435  0.00  0.00     0.055 C 
ATOM     47  H   LIG d   1       3.540  -0.580 -12.453  0.00  0.00     0.052 H 
ATOM     48  H   LIG d   1       4.400  -1.340 -11.093  0.00  0.00     0.052 H 
BRANCH  46  49
ATOM     49  N   LIG d   1       2.447  -2.035 -11.410  0.00  0.00    -0.308 N 
ATOM     50  C   LIG d   1       2.836  -3.314 -11.584  0.00  0.00     0.239 C 
ATOM     51  O   LIG d   1       4.008  -3.572 -11.761  0.00  0.00    -0.273 OA
ATOM     52  H   LIG d   1       1.510  -1.828 -11.268  0.00  0.00     0.149 HD
BRANCH  50  53
ATOM     53  C   LIG d   1       1.816  -4.422 -11.557  0.00  0.00     0.123 C 
ATOM     54  H   LIG d   1       1.229  -4.398 -12.476  0.00  0.00     0.066 H 
ATOM     55  H   LIG d   1       2.325  -5.382 -11.477  0.00  0.00     0.066 H 
BRANCH  53  56
ATOM     56  O   LIG d   1       0.950  -4.246 -10.435  0.00  0.00    -0.374 OA
BRANCH  56  57
ATOM     57  C   LIG d   1      -0.405  -4.626 -10.681  0.00  0.00     0.037 C 
ATOM     58  H   LIG d   1      -0.718  -5.359  -9.937  0.00  0.00     0.052 H 
ATOM     59  H   LIG d   1      -1.047  -3.748 -10.618  0.00  0.00     0.052 H 
ATOM     60  H   LIG d   1      -0.485  -5.064 -11.676  0.00  0.00     0.052 H 
ENDBRANCH  56  57
ENDBRANCH  53  56
ENDBRANCH  50  53
ENDBRANCH  46  49
ENDBRANCH   9  46
TORSDOF 11
ENDMDL
MODEL 9
REMARK VINA RESULT:      -5.7      2.765      5.031
REMARK  11 active torsions:
REMARK  status: ('A' for Active; 'I' for Inactive)
REMARK    1  A    between atoms: C_1  and  N_57 
REMARK    2  A    between atoms: C_2  and  C_3 
REMARK    3  A    between atoms: C_2  and  N_57 
REMARK    4  A    between atoms: C_3  and  C_4 
REMARK    5  A    between atoms: C_10  and  C_11 
REMARK    6  A    between atoms: C_10  and  N_57 
REMARK    7  A    between atoms: C_19  and  C_21 
REMARK    8  A    between atoms: C_21  and  N_22 
REMARK       I    between atoms: N_22  and  C_23 
REMARK    9  A    between atoms: C_23  and  C_25 
REMARK   10  A    between atoms: C_25  and  O_26 
REMARK   11  A    between atoms: O_26  and  C_27 
ROOT
ATOM      1  C   LIG d   1       5.433   0.336  -3.609  0.00  0.00     0.042 C 
ATOM      2  H   LIG d   1       5.429   1.419  -3.726  0.00  0.00     0.041 H 
ATOM      3  C   LIG d   1       4.715  -0.310  -4.799  0.00  0.00    -0.024 C 
ATOM      4  C   LIG d   1       2.589  -0.208  -3.642  0.00  0.00    -0.031 C 
ATOM      5  C   LIG d   1       3.246   0.440  -2.421  0.00  0.00    -0.009 C 
ATOM      6  C   LIG d   1       4.697  -0.049  -2.320  0.00  0.00    -0.019 C 
ATOM      7  H   LIG d   1       5.187   0.407  -1.459  0.00  0.00     0.031 H 
ATOM      8  C   LIG d   1       4.690  -1.577  -2.196  0.00  0.00    -0.005 C 
ATOM      9  C   LIG d   1       3.992  -2.169  -3.424  0.00  0.00    -0.005 C 
ATOM     10  H   LIG d   1       3.122  -2.744  -3.106  0.00  0.00     0.087 H 
ATOM     11  H   LIG d   1       4.371   0.468  -5.481  0.00  0.00     0.082 H 
ATOM     12  H   LIG d   1       5.403  -0.975  -5.321  0.00  0.00     0.082 H 
ATOM     13  H   LIG d   1       2.260   0.568  -4.333  0.00  0.00     0.081 H 
ATOM     14  H   LIG d   1       1.730  -0.798  -3.323  0.00  0.00     0.081 H 
ATOM     15  H   LIG d   1       3.233   1.525  -2.531  0.00  0.00     0.032 H 
ATOM     16  H   LIG d   1       2.700   0.160  -1.520  0.00  0.00     0.032 H 
ATOM     17  H   LIG d   1       5.715  -1.944  -2.147  0.00  0.00     0.032 H 
ATOM     18  H   LIG d   1       4.153  -1.868  -1.294  0.00  0.00     0.032 H 
ATOM     19  N   LIG d   1       3.549  -1.093  -4.336  0.00  0.00     0.239 N 
ATOM     20  H   LIG d   1       3.086  -1.514  -5.149  0.00  0.00     0.204 HD
ENDROOT
BRANCH   1  21
ATOM     21  C   LIG d   1       6.875  -0.170  -3.545  0.00  0.00    -0.024 C 
ATOM     22  H   LIG d   1       6.889  -1.250  -3.690  0.00  0.00     0.082 H 
ATOM     23  H   LIG d   1       7.302   0.073  -2.573  0.00  0.00     0.082 H 
BRANCH  21  24
ATOM     24  N   LIG d   1       7.653   0.472  -4.627  0.00  0.00     0.234 N 
ATOM     25  H   LIG d   1       7.044   0.605  -5.442  0.00  0.00     0.203 HD
BRANCH  24  26
ATOM     26  C   LIG d   1       8.151   1.789  -4.177  0.00  0.00    -0.043 C 
ATOM     27  H   LIG d   1       7.315   2.363  -3.776  0.00  0.00     0.078 H 
ATOM     28  H   LIG d   1       8.897   1.639  -3.397  0.00  0.00     0.078 H 
ATOM     29  H   LIG d   1       8.599   2.333  -5.008  0.00  0.00     0.078 H 
ENDBRANCH  24  26
BRANCH  24  30
ATOM     30  C   LIG d   1       8.789  -0.392  -5.013  0.00  0.00    -0.027 C 
ATOM     31  H   LIG d   1       9.209  -0.068  -5.965  0.00  0.00     0.082 H 
ATOM     32  H   LIG d   1       9.556  -0.337  -4.240  0.00  0.00     0.082 H 
BRANCH  30  33
ATOM     33  C   LIG d   1       8.292  -1.833  -5.139  0.00  0.00     0.030 C 
ATOM     34  H   LIG d   1       7.294  -1.912  -4.706  0.00  0.00     0.038 H 
ATOM     35  H   LIG d   1       8.255  -2.114  -6.191  0.00  0.00     0.038 H 
BRANCH  33  36
ATOM     36  C   LIG d   1       9.232  -2.755  -4.406  0.00  0.00     0.046 A 
ATOM     37  N   LIG d   1       8.759  -3.566  -3.480  0.00  0.00    -0.260 NA
ATOM     38  C   LIG d   1       9.544  -4.390  -2.813  0.00  0.00     0.028 A 
ATOM     39  C   LIG d   1      10.902  -4.431  -3.065  0.00  0.00    -0.044 A 
ATOM     40  H   LIG d   1       9.120  -5.040  -2.062  0.00  0.00     0.083 H 
ATOM     41  C   LIG d   1      11.436  -3.593  -4.032  0.00  0.00    -0.059 A 
ATOM     42  H   LIG d   1      11.539  -5.108  -2.515  0.00  0.00     0.063 H 
ATOM     43  C   LIG d   1      10.579  -2.745  -4.716  0.00  0.00    -0.040 A 
ATOM     44  H   LIG d   1      12.494  -3.603  -4.250  0.00  0.00     0.062 H 
ATOM     45  H   LIG d   1      10.959  -2.082  -5.478  0.00  0.00     0.064 H 
ENDBRANCH  33  36
ENDBRANCH  30  33
ENDBRANCH  24  30
ENDBRANCH  21  24
ENDBRANCH   1  21
BRANCH   9  46
ATOM     46  C   LIG d   1       4.964  -3.084  -4.172  0.00  0.00     0.055 C 
ATOM     47  H   LIG d   1       5.668  -2.478  -4.743  0.00  0.00     0.052 H 
ATOM     48  H   LIG d   1       5.510  -3.697  -3.455  0.00  0.00     0.052 H 
BRANCH  46  49
ATOM     49  N   LIG d   1       4.215  -3.952  -5.084  0.00  0.00    -0.308 N 
ATOM     50  C   LIG d   1       4.521  -3.975  -6.397  0.00  0.00     0.239 C 
ATOM     51  O   LIG d   1       5.418  -3.277  -6.822  0.00  0.00    -0.273 OA
ATOM     52  H   LIG d   1       3.498  -4.510  -4.743  0.00  0.00     0.149 HD
BRANCH  50  53
ATOM     53  C   LIG d   1       3.751  -4.868  -7.334  0.00  0.00     0.123 C 
ATOM     54  H   LIG d   1       2.752  -4.459  -7.488  0.00  0.00     0.066 H 
ATOM     55  H   LIG d   1       4.272  -4.924  -8.291  0.00  0.00     0.066 H 
BRANCH  53  56
ATOM     56  O   LIG d   1       3.648  -6.176  -6.770  0.00  0.00    -0.374 OA
BRANCH  56  57
ATOM     57  C   LIG d   1       4.757  -7.027  -7.070  0.00  0.00     0.037 C 
ATOM     58  H   LIG d   1       5.077  -6.859  -8.098  0.00  0.00     0.052 H 
ATOM     59  H   LIG d   1       5.580  -6.805  -6.392  0.00  0.00     0.052 H 
ATOM     60  H   LIG d   1       4.459  -8.069  -6.949  0.00  0.00     0.052 H 
ENDBRANCH  56  57
ENDBRANCH  53  56
ENDBRANCH  50  53
ENDBRANCH  46  49
ENDBRANCH   9  46
TORSDOF 11
ENDMDL
MODEL 10
REMARK VINA RESULT:      -5.6      3.310      7.280
REMARK  11 active torsions:
REMARK  status: ('A' for Active; 'I' for Inactive)
REMARK    1  A    between atoms: C_1  and  N_57 
REMARK    2  A    between atoms: C_2  and  C_3 
REMARK    3  A    between atoms: C_2  and  N_57 
REMARK    4  A    between atoms: C_3  and  C_4 
REMARK    5  A    between atoms: C_10  and  C_11 
REMARK    6  A    between atoms: C_10  and  N_57 
REMARK    7  A    between atoms: C_19  and  C_21 
REMARK    8  A    between atoms: C_21  and  N_22 
REMARK       I    between atoms: N_22  and  C_23 
REMARK    9  A    between atoms: C_23  and  C_25 
REMARK   10  A    between atoms: C_25  and  O_26 
REMARK   11  A    between atoms: O_26  and  C_27 
ROOT
ATOM      1  C   LIG d   1       3.680  -1.281  -7.280  0.00  0.00     0.042 C 
ATOM      2  H   LIG d   1       2.844  -1.360  -6.585  0.00  0.00     0.041 H 
ATOM      3  C   LIG d   1       4.405   0.050  -7.059  0.00  0.00    -0.024 C 
ATOM      4  C   LIG d   1       2.979   1.159  -8.673  0.00  0.00    -0.031 C 
ATOM      5  C   LIG d   1       2.214  -0.140  -8.940  0.00  0.00    -0.009 C 
ATOM      6  C   LIG d   1       3.161  -1.327  -8.722  0.00  0.00    -0.019 C 
ATOM      7  H   LIG d   1       2.633  -2.265  -8.900  0.00  0.00     0.031 H 
ATOM      8  C   LIG d   1       4.352  -1.183  -9.677  0.00  0.00    -0.005 C 
ATOM      9  C   LIG d   1       5.058   0.146  -9.390  0.00  0.00    -0.005 C 
ATOM     10  H   LIG d   1       5.041   0.767 -10.286  0.00  0.00     0.087 H 
ATOM     11  H   LIG d   1       3.914   0.604  -6.258  0.00  0.00     0.082 H 
ATOM     12  H   LIG d   1       5.443  -0.142  -6.785  0.00  0.00     0.082 H 
ATOM     13  H   LIG d   1       2.498   1.704  -7.861  0.00  0.00     0.081 H 
ATOM     14  H   LIG d   1       2.978   1.773  -9.574  0.00  0.00     0.081 H 
ATOM     15  H   LIG d   1       1.371  -0.215  -8.252  0.00  0.00     0.032 H 
ATOM     16  H   LIG d   1       1.848  -0.145  -9.966  0.00  0.00     0.032 H 
ATOM     17  H   LIG d   1       5.048  -2.007  -9.520  0.00  0.00     0.032 H 
ATOM     18  H   LIG d   1       3.998  -1.195 -10.707  0.00  0.00     0.032 H 
ATOM     19  N   LIG d   1       4.377   0.865  -8.293  0.00  0.00     0.239 N 
ATOM     20  H   LIG d   1       4.867   1.750  -8.119  0.00  0.00     0.204 HD
ENDROOT
BRANCH   1  21
ATOM     21  C   LIG d   1       4.653  -2.439  -7.049  0.00  0.00    -0.024 C 
ATOM     22  H   LIG d   1       5.651  -2.043  -6.859  0.00  0.00     0.082 H 
ATOM     23  H   LIG d   1       4.675  -3.076  -7.932  0.00  0.00     0.082 H 
BRANCH  21  24
ATOM     24  N   LIG d   1       4.205  -3.208  -5.867  0.00  0.00     0.234 N 
ATOM     25  H   LIG d   1       3.258  -2.906  -5.613  0.00  0.00     0.203 HD
BRANCH  24  26
ATOM     26  C   LIG d   1       4.182  -4.651  -6.183  0.00  0.00    -0.043 C 
ATOM     27  H   LIG d   1       4.381  -4.782  -7.247  0.00  0.00     0.078 H 
ATOM     28  H   LIG d   1       4.957  -5.153  -5.604  0.00  0.00     0.078 H 
ATOM     29  H   LIG d   1       3.211  -5.080  -5.940  0.00  0.00     0.078 H 
ENDBRANCH  24  26
BRANCH  24  30
ATOM     30  C   LIG d   1       5.112  -2.955  -4.727  0.00  0.00    -0.027 C 
ATOM     31  H   LIG d   1       5.837  -3.763  -4.629  0.00  0.00     0.082 H 
ATOM     32  H   LIG d   1       5.638  -2.014  -4.892  0.00  0.00     0.082 H 
BRANCH  30  33
ATOM     33  C   LIG d   1       4.280  -2.857  -3.447  0.00  0.00     0.030 C 
ATOM     34  H   LIG d   1       3.314  -3.338  -3.604  0.00  0.00     0.038 H 
ATOM     35  H   LIG d   1       4.806  -3.356  -2.633  0.00  0.00     0.038 H 
BRANCH  33  36
ATOM     36  C   LIG d   1       4.068  -1.408  -3.094  0.00  0.00     0.046 A 
ATOM     37  N   LIG d   1       3.283  -0.662  -3.847  0.00  0.00    -0.260 NA
ATOM     38  C   LIG d   1       3.068   0.611  -3.577  0.00  0.00     0.028 A 
ATOM     39  C   LIG d   1       3.664   1.212  -2.485  0.00  0.00    -0.044 A 
ATOM     40  H   LIG d   1       2.418   1.189  -4.216  0.00  0.00     0.083 H 
ATOM     41  C   LIG d   1       4.497   0.460  -1.670  0.00  0.00    -0.059 A 
ATOM     42  H   LIG d   1       3.485   2.255  -2.269  0.00  0.00     0.063 H 
ATOM     43  C   LIG d   1       4.695  -0.876  -1.983  0.00  0.00    -0.040 A 
ATOM     44  H   LIG d   1       4.977   0.903  -0.811  0.00  0.00     0.062 H 
ATOM     45  H   LIG d   1       5.333  -1.493  -1.368  0.00  0.00     0.064 H 
ENDBRANCH  33  36
ENDBRANCH  30  33
ENDBRANCH  24  30
ENDBRANCH  21  24
ENDBRANCH   1  21
BRANCH   9  46
ATOM     46  C   LIG d   1       6.507  -0.124  -8.983  0.00  0.00     0.055 C 
ATOM     47  H   LIG d   1       6.563  -0.259  -7.903  0.00  0.00     0.052 H 
ATOM     48  H   LIG d   1       6.863  -1.027  -9.480  0.00  0.00     0.052 H 
BRANCH  46  49
ATOM     49  N   LIG d   1       7.345   1.012  -9.377  0.00  0.00    -0.308 N 
ATOM     50  C   LIG d   1       7.716   1.927  -8.459  0.00  0.00     0.239 C 
ATOM     51  O   LIG d   1       7.355   1.809  -7.306  0.00  0.00    -0.273 OA
ATOM     52  H   LIG d   1       7.633   1.105 -10.298  0.00  0.00     0.149 HD
BRANCH  50  53
ATOM     53  C   LIG d   1       8.578   3.094  -8.864  0.00  0.00     0.123 C 
ATOM     54  H   LIG d   1       9.254   2.787  -9.662  0.00  0.00     0.066 H 
ATOM     55  H   LIG d   1       7.944   3.907  -9.217  0.00  0.00     0.066 H 
BRANCH  53  56
ATOM     56  O   LIG d   1       9.339   3.536  -7.739  0.00  0.00    -0.374 OA
BRANCH  56  57
ATOM     57  C   LIG d   1      10.671   3.019  -7.699  0.00  0.00     0.037 C 
ATOM     58  H   LIG d   1      10.796   2.405  -6.807  0.00  0.00     0.052 H 
ATOM     59  H   LIG d   1      10.853   2.413  -8.586  0.00  0.00     0.052 H 
ATOM     60  H   LIG d   1      11.381   3.846  -7.672  0.00  0.00     0.052 H 
ENDBRANCH  56  57
ENDBRANCH  53  56
ENDBRANCH  50  53
ENDBRANCH  46  49
ENDBRANCH   9  46
TORSDOF 11
ENDMDL
