MODEL 1
REMARK VINA RESULT:      -8.3      0.000      0.000
REMARK  6 active torsions:
REMARK  status: ('A' for Active; 'I' for Inactive)
REMARK    1  A    between atoms: C_1  and  O_2 
REMARK    2  A    between atoms: O_2  and  C_3 
REMARK    3  A    between atoms: C_3  and  C_4 
REMARK    4  A    between atoms: C_4  and  C_5 
REMARK       I    between atoms: C_5  and  N_7 
REMARK    5  A    between atoms: C_18  and  C_23 
REMARK    6  A    between atoms: C_27  and  C_29 
ROOT
ATOM      1  C   LIG d   1       6.545   0.772  -3.430  0.00  0.00     0.218 C 
ATOM      2  O   LIG d   1       6.245   1.946  -3.375  0.00  0.00    -0.276 OA
ATOM      3  N   LIG d   1       5.791  -0.147  -2.796  0.00  0.00    -0.300 N 
ATOM      4  C   LIG d   1       4.602   0.254  -2.033  0.00  0.00     0.019 C 
ATOM      5  C   LIG d   1       3.403  -0.588  -2.446  0.00  0.00    -0.006 C 
ATOM      6  H   LIG d   1       2.600  -0.408  -1.732  0.00  0.00     0.033 H 
ATOM      7  C   LIG d   1       3.743  -2.078  -2.413  0.00  0.00    -0.037 C 
ATOM      8  C   LIG d   1       4.907  -2.331  -3.375  0.00  0.00     0.016 C 
ATOM      9  H   LIG d   1       5.109  -3.399  -3.446  0.00  0.00     0.038 H 
ATOM     10  C   LIG d   1       6.140  -1.575  -2.851  0.00  0.00     0.023 C 
ATOM     11  C   LIG d   1       4.572  -1.773  -4.739  0.00  0.00     0.027 C 
ATOM     12  C   LIG d   1       5.175  -2.352  -5.813  0.00  0.00    -0.041 C 
ATOM     13  C   LIG d   1       5.001  -1.830  -7.097  0.00  0.00    -0.047 C 
ATOM     14  C   LIG d   1       4.210  -0.701  -7.254  0.00  0.00     0.047 C 
ATOM     15  C   LIG d   1       3.604  -0.134  -6.113  0.00  0.00     0.259 C 
ATOM     16  O   LIG d   1       2.953   0.893  -6.221  0.00  0.00    -0.267 OA
ATOM     17  N   LIG d   1       3.732  -0.723  -4.899  0.00  0.00    -0.311 N 
ATOM     18  C   LIG d   1       2.887  -0.207  -3.821  0.00  0.00     0.031 C 
ATOM     19  H   LIG d   1       4.388   1.307  -2.226  0.00  0.00     0.047 H 
ATOM     20  H   LIG d   1       4.793   0.115  -0.969  0.00  0.00     0.047 H 
ATOM     21  H   LIG d   1       2.876  -2.660  -2.726  0.00  0.00     0.028 H 
ATOM     22  H   LIG d   1       4.033  -2.367  -1.403  0.00  0.00     0.028 H 
ATOM     23  H   LIG d   1       6.398  -1.932  -1.854  0.00  0.00     0.047 H 
ATOM     24  H   LIG d   1       6.982  -1.724  -3.528  0.00  0.00     0.047 H 
ATOM     25  H   LIG d   1       5.793  -3.226  -5.672  0.00  0.00     0.064 H 
ATOM     26  H   LIG d   1       5.469  -2.299  -7.950  0.00  0.00     0.063 H 
ATOM     27  H   LIG d   1       2.846   0.880  -3.894  0.00  0.00     0.050 H 
ATOM     28  H   LIG d   1       1.879  -0.605  -3.942  0.00  0.00     0.050 H 
ENDROOT
BRANCH  14  29
ATOM     29  C   LIG d   1       4.013  -0.100  -8.594  0.00  0.00    -0.012 A 
ATOM     30  C   LIG d   1       3.412  -0.839  -9.611  0.00  0.00    -0.042 A 
ATOM     31  C   LIG d   1       3.230  -0.273 -10.857  0.00  0.00     0.055 A 
ATOM     32  H   LIG d   1       3.089  -1.854  -9.426  0.00  0.00     0.063 H 
ATOM     33  C   LIG d   1       3.642   1.025 -11.097  0.00  0.00    -0.050 A 
ATOM     34  C   LIG d   1       4.239   1.764 -10.090  0.00  0.00    -0.061 A 
ATOM     35  H   LIG d   1       3.496   1.464 -12.073  0.00  0.00     0.062 H 
ATOM     36  C   LIG d   1       4.421   1.211  -8.840  0.00  0.00    -0.054 A 
ATOM     37  H   LIG d   1       4.558   2.777 -10.284  0.00  0.00     0.062 H 
ATOM     38  H   LIG d   1       4.883   1.790  -8.054  0.00  0.00     0.062 H 
BRANCH  31  39
ATOM     39  C   LIG d   1       2.579  -1.072 -11.957  0.00  0.00     0.417 C 
ATOM     40  F   LIG d   1       3.155  -0.731 -13.185  0.00  0.00    -0.166 F 
ATOM     41  F   LIG d   1       2.770  -2.437 -11.717  0.00  0.00    -0.166 F 
ATOM     42  F   LIG d   1       1.209  -0.791 -11.990  0.00  0.00    -0.166 F 
ENDBRANCH  31  39
ENDBRANCH  14  29
BRANCH   1  43
ATOM     43  C   LIG d   1       7.762   0.342  -4.207  0.00  0.00     0.048 C 
ATOM     44  H   LIG d   1       8.621   0.289  -3.538  0.00  0.00     0.038 H 
ATOM     45  H   LIG d   1       7.583  -0.640  -4.646  0.00  0.00     0.038 H 
BRANCH  43  46
ATOM     46  C   LIG d   1       8.042   1.355  -5.319  0.00  0.00     0.056 C 
ATOM     47  H   LIG d   1       7.875   2.364  -4.942  0.00  0.00     0.056 H 
ATOM     48  H   LIG d   1       9.076   1.257  -5.648  0.00  0.00     0.056 H 
BRANCH  46  49
ATOM     49  O   LIG d   1       7.166   1.107  -6.421  0.00  0.00    -0.383 OA
BRANCH  49  50
ATOM     50  C   LIG d   1       7.821   0.582  -7.577  0.00  0.00     0.036 C 
ATOM     51  H   LIG d   1       8.882   0.451  -7.365  0.00  0.00     0.052 H 
ATOM     52  H   LIG d   1       7.380  -0.379  -7.840  0.00  0.00     0.052 H 
ATOM     53  H   LIG d   1       7.702   1.277  -8.410  0.00  0.00     0.052 H 
ENDBRANCH  49  50
ENDBRANCH  46  49
ENDBRANCH  43  46
ENDBRANCH   1  43
TORSDOF 6
ENDMDL
MODEL 2
REMARK VINA RESULT:      -7.4      4.301      7.611
REMARK  6 active torsions:
REMARK  status: ('A' for Active; 'I' for Inactive)
REMARK    1  A    between atoms: C_1  and  O_2 
REMARK    2  A    between atoms: O_2  and  C_3 
REMARK    3  A    between atoms: C_3  and  C_4 
REMARK    4  A    between atoms: C_4  and  C_5 
REMARK       I    between atoms: C_5  and  N_7 
REMARK    5  A    between atoms: C_18  and  C_23 
REMARK    6  A    between atoms: C_27  and  C_29 
ROOT
ATOM      1  C   LIG d   1       2.567  -3.176 -10.253  0.00  0.00     0.218 C 
ATOM      2  O   LIG d   1       1.401  -3.079  -9.933  0.00  0.00    -0.276 OA
ATOM      3  N   LIG d   1       3.156  -2.193 -10.964  0.00  0.00    -0.300 N 
ATOM      4  C   LIG d   1       2.400  -0.998 -11.359  0.00  0.00     0.019 C 
ATOM      5  C   LIG d   1       3.167   0.260 -10.978  0.00  0.00    -0.006 C 
ATOM      6  H   LIG d   1       2.685   1.111 -11.459  0.00  0.00     0.033 H 
ATOM      7  C   LIG d   1       4.612   0.192 -11.474  0.00  0.00    -0.037 C 
ATOM      8  C   LIG d   1       5.283  -1.033 -10.845  0.00  0.00     0.016 C 
ATOM      9  H   LIG d   1       6.341  -1.055 -11.103  0.00  0.00     0.038 H 
ATOM     10  C   LIG d   1       4.568  -2.294 -11.361  0.00  0.00     0.023 C 
ATOM     11  C   LIG d   1       5.114  -0.991  -9.343  0.00  0.00     0.027 C 
ATOM     12  C   LIG d   1       6.056  -1.628  -8.594  0.00  0.00    -0.041 C 
ATOM     13  C   LIG d   1       5.918  -1.726  -7.208  0.00  0.00    -0.047 C 
ATOM     14  C   LIG d   1       4.795  -1.173  -6.610  0.00  0.00     0.047 C 
ATOM     15  C   LIG d   1       3.845  -0.522  -7.425  0.00  0.00     0.259 C 
ATOM     16  O   LIG d   1       2.822  -0.081  -6.928  0.00  0.00    -0.267 OA
ATOM     17  N   LIG d   1       4.061  -0.377  -8.755  0.00  0.00    -0.311 N 
ATOM     18  C   LIG d   1       3.147   0.507  -9.481  0.00  0.00     0.031 C 
ATOM     19  H   LIG d   1       1.433  -0.998 -10.854  0.00  0.00     0.047 H 
ATOM     20  H   LIG d   1       2.243  -1.013 -12.438  0.00  0.00     0.047 H 
ATOM     21  H   LIG d   1       5.146   1.094 -11.177  0.00  0.00     0.028 H 
ATOM     22  H   LIG d   1       4.625   0.099 -12.559  0.00  0.00     0.028 H 
ATOM     23  H   LIG d   1       4.646  -2.345 -12.446  0.00  0.00     0.047 H 
ATOM     24  H   LIG d   1       5.016  -3.182 -10.914  0.00  0.00     0.047 H 
ATOM     25  H   LIG d   1       6.920  -2.059  -9.076  0.00  0.00     0.064 H 
ATOM     26  H   LIG d   1       6.673  -2.219  -6.613  0.00  0.00     0.063 H 
ATOM     27  H   LIG d   1       2.134   0.348  -9.111  0.00  0.00     0.050 H 
ATOM     28  H   LIG d   1       3.432   1.542  -9.290  0.00  0.00     0.050 H 
ENDROOT
BRANCH  14  29
ATOM     29  C   LIG d   1       4.596  -1.270  -5.145  0.00  0.00    -0.012 A 
ATOM     30  C   LIG d   1       4.632  -0.121  -4.356  0.00  0.00    -0.042 A 
ATOM     31  C   LIG d   1       4.445  -0.218  -2.992  0.00  0.00     0.055 A 
ATOM     32  H   LIG d   1       4.808   0.843  -4.811  0.00  0.00     0.063 H 
ATOM     33  C   LIG d   1       4.221  -1.451  -2.408  0.00  0.00    -0.050 A 
ATOM     34  C   LIG d   1       4.183  -2.595  -3.186  0.00  0.00    -0.061 A 
ATOM     35  H   LIG d   1       4.074  -1.522  -1.340  0.00  0.00     0.062 H 
ATOM     36  C   LIG d   1       4.364  -2.511  -4.551  0.00  0.00    -0.054 A 
ATOM     37  H   LIG d   1       4.008  -3.555  -2.724  0.00  0.00     0.062 H 
ATOM     38  H   LIG d   1       4.330  -3.403  -5.158  0.00  0.00     0.062 H 
BRANCH  31  39
ATOM     39  C   LIG d   1       4.483   1.023  -2.138  0.00  0.00     0.417 C 
ATOM     40  F   LIG d   1       3.234   1.651  -2.171  0.00  0.00    -0.166 F 
ATOM     41  F   LIG d   1       4.792   0.672  -0.819  0.00  0.00    -0.166 F 
ATOM     42  F   LIG d   1       5.459   1.897  -2.629  0.00  0.00    -0.166 F 
ENDBRANCH  31  39
ENDBRANCH  14  29
BRANCH   1  43
ATOM     43  C   LIG d   1       3.359  -4.395  -9.856  0.00  0.00     0.048 C 
ATOM     44  H   LIG d   1       2.793  -5.293 -10.107  0.00  0.00     0.038 H 
ATOM     45  H   LIG d   1       4.308  -4.402 -10.392  0.00  0.00     0.038 H 
BRANCH  43  46
ATOM     46  C   LIG d   1       3.624  -4.362  -8.349  0.00  0.00     0.056 C 
ATOM     47  H   LIG d   1       4.658  -4.071  -8.169  0.00  0.00     0.056 H 
ATOM     48  H   LIG d   1       2.956  -3.642  -7.879  0.00  0.00     0.056 H 
BRANCH  46  49
ATOM     49  O   LIG d   1       3.390  -5.660  -7.797  0.00  0.00    -0.383 OA
BRANCH  49  50
ATOM     50  C   LIG d   1       4.303  -6.022  -6.759  0.00  0.00     0.036 C 
ATOM     51  H   LIG d   1       4.663  -7.037  -6.931  0.00  0.00     0.052 H 
ATOM     52  H   LIG d   1       5.146  -5.332  -6.759  0.00  0.00     0.052 H 
ATOM     53  H   LIG d   1       3.795  -5.977  -5.795  0.00  0.00     0.052 H 
ENDBRANCH  49  50
ENDBRANCH  46  49
ENDBRANCH  43  46
ENDBRANCH   1  43
TORSDOF 6
ENDMDL
MODEL 3
REMARK VINA RESULT:      -7.4      1.492      1.823
REMARK  6 active torsions:
REMARK  status: ('A' for Active; 'I' for Inactive)
REMARK    1  A    between atoms: C_1  and  O_2 
REMARK    2  A    between atoms: O_2  and  C_3 
REMARK    3  A    between atoms: C_3  and  C_4 
REMARK    4  A    between atoms: C_4  and  C_5 
REMARK       I    between atoms: C_5  and  N_7 
REMARK    5  A    between atoms: C_18  and  C_23 
REMARK    6  A    between atoms: C_27  and  C_29 
ROOT
ATOM      1  C   LIG d   1       7.078   0.636  -4.199  0.00  0.00     0.218 C 
ATOM      2  O   LIG d   1       6.983   1.825  -4.418  0.00  0.00    -0.276 OA
ATOM      3  N   LIG d   1       6.331   0.065  -3.232  0.00  0.00    -0.300 N 
ATOM      4  C   LIG d   1       5.397   0.868  -2.435  0.00  0.00     0.019 C 
ATOM      5  C   LIG d   1       4.023   0.213  -2.417  0.00  0.00    -0.006 C 
ATOM      6  H   LIG d   1       3.416   0.716  -1.664  0.00  0.00     0.033 H 
ATOM      7  C   LIG d   1       4.125  -1.264  -2.035  0.00  0.00    -0.037 C 
ATOM      8  C   LIG d   1       5.019  -1.968  -3.059  0.00  0.00     0.016 C 
ATOM      9  H   LIG d   1       5.034  -3.041  -2.869  0.00  0.00     0.038 H 
ATOM     10  C   LIG d   1       6.435  -1.375  -2.953  0.00  0.00     0.023 C 
ATOM     11  C   LIG d   1       4.510  -1.693  -4.455  0.00  0.00     0.027 C 
ATOM     12  C   LIG d   1       4.788  -2.621  -5.413  0.00  0.00    -0.041 C 
ATOM     13  C   LIG d   1       4.446  -2.394  -6.747  0.00  0.00    -0.047 C 
ATOM     14  C   LIG d   1       3.826  -1.199  -7.081  0.00  0.00     0.047 C 
ATOM     15  C   LIG d   1       3.556  -0.266  -6.056  0.00  0.00     0.259 C 
ATOM     16  O   LIG d   1       3.066   0.816  -6.336  0.00  0.00    -0.267 OA
ATOM     17  N   LIG d   1       3.830  -0.564  -4.763  0.00  0.00    -0.311 N 
ATOM     18  C   LIG d   1       3.308   0.354  -3.748  0.00  0.00     0.031 C 
ATOM     19  H   LIG d   1       5.316   1.866  -2.869  0.00  0.00     0.047 H 
ATOM     20  H   LIG d   1       5.772   0.949  -1.415  0.00  0.00     0.047 H 
ATOM     21  H   LIG d   1       3.134  -1.715  -2.043  0.00  0.00     0.028 H 
ATOM     22  H   LIG d   1       4.562  -1.357  -1.041  0.00  0.00     0.028 H 
ATOM     23  H   LIG d   1       6.827  -1.531  -1.948  0.00  0.00     0.047 H 
ATOM     24  H   LIG d   1       7.091  -1.848  -3.685  0.00  0.00     0.047 H 
ATOM     25  H   LIG d   1       5.278  -3.542  -5.137  0.00  0.00     0.064 H 
ATOM     26  H   LIG d   1       4.655  -3.137  -7.503  0.00  0.00     0.063 H 
ATOM     27  H   LIG d   1       3.424   1.377  -4.105  0.00  0.00     0.050 H 
ATOM     28  H   LIG d   1       2.247   0.151  -3.602  0.00  0.00     0.050 H 
ENDROOT
BRANCH  14  29
ATOM     29  C   LIG d   1       3.461  -0.905  -8.486  0.00  0.00    -0.012 A 
ATOM     30  C   LIG d   1       4.437  -0.924  -9.481  0.00  0.00    -0.042 A 
ATOM     31  C   LIG d   1       4.091  -0.650 -10.789  0.00  0.00     0.055 A 
ATOM     32  H   LIG d   1       5.463  -1.151  -9.230  0.00  0.00     0.063 H 
ATOM     33  C   LIG d   1       2.778  -0.359 -11.114  0.00  0.00    -0.050 A 
ATOM     34  C   LIG d   1       1.804  -0.339 -10.130  0.00  0.00    -0.061 A 
ATOM     35  H   LIG d   1       2.512  -0.146 -12.139  0.00  0.00     0.062 H 
ATOM     36  C   LIG d   1       2.138  -0.616  -8.820  0.00  0.00    -0.054 A 
ATOM     37  H   LIG d   1       0.782  -0.111 -10.390  0.00  0.00     0.062 H 
ATOM     38  H   LIG d   1       1.376  -0.604  -8.054  0.00  0.00     0.062 H 
BRANCH  31  39
ATOM     39  C   LIG d   1       5.145  -0.672 -11.866  0.00  0.00     0.417 C 
ATOM     40  F   LIG d   1       6.290  -0.010 -11.412  0.00  0.00    -0.166 F 
ATOM     41  F   LIG d   1       5.466  -1.998 -12.177  0.00  0.00    -0.166 F 
ATOM     42  F   LIG d   1       4.657  -0.029 -13.009  0.00  0.00    -0.166 F 
ENDBRANCH  31  39
ENDBRANCH  14  29
BRANCH   1  43
ATOM     43  C   LIG d   1       8.033  -0.205  -5.007  0.00  0.00     0.048 C 
ATOM     44  H   LIG d   1       9.028   0.238  -4.970  0.00  0.00     0.038 H 
ATOM     45  H   LIG d   1       8.068  -1.213  -4.594  0.00  0.00     0.038 H 
BRANCH  43  46
ATOM     46  C   LIG d   1       7.554  -0.264  -6.460  0.00  0.00     0.056 C 
ATOM     47  H   LIG d   1       6.482  -0.075  -6.497  0.00  0.00     0.056 H 
ATOM     48  H   LIG d   1       8.077   0.491  -7.045  0.00  0.00     0.056 H 
BRANCH  46  49
ATOM     49  O   LIG d   1       7.830  -1.559  -6.999  0.00  0.00    -0.383 OA
BRANCH  49  50
ATOM     50  C   LIG d   1       8.482  -2.442  -6.084  0.00  0.00     0.036 C 
ATOM     51  H   LIG d   1       9.281  -2.973  -6.600  0.00  0.00     0.052 H 
ATOM     52  H   LIG d   1       8.900  -1.867  -5.259  0.00  0.00     0.052 H 
ATOM     53  H   LIG d   1       7.760  -3.162  -5.696  0.00  0.00     0.052 H 
ENDBRANCH  49  50
ENDBRANCH  46  49
ENDBRANCH  43  46
ENDBRANCH   1  43
TORSDOF 6
ENDMDL
MODEL 4
REMARK VINA RESULT:      -7.2      4.240      7.329
REMARK  6 active torsions:
REMARK  status: ('A' for Active; 'I' for Inactive)
REMARK    1  A    between atoms: C_1  and  O_2 
REMARK    2  A    between atoms: O_2  and  C_3 
REMARK    3  A    between atoms: C_3  and  C_4 
REMARK    4  A    between atoms: C_4  and  C_5 
REMARK       I    between atoms: C_5  and  N_7 
REMARK    5  A    between atoms: C_18  and  C_23 
REMARK    6  A    between atoms: C_27  and  C_29 
ROOT
ATOM      1  C   LIG d   1       4.820  -1.674 -11.790  0.00  0.00     0.218 C 
ATOM      2  O   LIG d   1       5.807  -2.373 -11.701  0.00  0.00    -0.276 OA
ATOM      3  N   LIG d   1       3.597  -2.239 -11.854  0.00  0.00    -0.300 N 
ATOM      4  C   LIG d   1       3.442  -3.698 -11.818  0.00  0.00     0.019 C 
ATOM      5  C   LIG d   1       2.410  -4.092 -10.772  0.00  0.00    -0.006 C 
ATOM      6  H   LIG d   1       2.173  -5.147 -10.908  0.00  0.00     0.033 H 
ATOM      7  C   LIG d   1       1.120  -3.290 -10.946  0.00  0.00    -0.037 C 
ATOM      8  C   LIG d   1       1.453  -1.802 -10.807  0.00  0.00     0.016 C 
ATOM      9  H   LIG d   1       0.539  -1.209 -10.831  0.00  0.00     0.038 H 
ATOM     10  C   LIG d   1       2.389  -1.407 -11.962  0.00  0.00     0.023 C 
ATOM     11  C   LIG d   1       2.195  -1.563  -9.513  0.00  0.00     0.027 C 
ATOM     12  C   LIG d   1       2.088  -0.326  -8.953  0.00  0.00    -0.041 C 
ATOM     13  C   LIG d   1       2.825   0.009  -7.816  0.00  0.00    -0.047 C 
ATOM     14  C   LIG d   1       3.678  -0.941  -7.272  0.00  0.00     0.047 C 
ATOM     15  C   LIG d   1       3.757  -2.210  -7.884  0.00  0.00     0.259 C 
ATOM     16  O   LIG d   1       4.545  -3.040  -7.458  0.00  0.00    -0.267 OA
ATOM     17  N   LIG d   1       2.961  -2.519  -8.937  0.00  0.00    -0.311 N 
ATOM     18  C   LIG d   1       2.938  -3.921  -9.359  0.00  0.00     0.031 C 
ATOM     19  H   LIG d   1       4.401  -4.157 -11.571  0.00  0.00     0.047 H 
ATOM     20  H   LIG d   1       3.117  -4.049 -12.798  0.00  0.00     0.047 H 
ATOM     21  H   LIG d   1       0.403  -3.577 -10.177  0.00  0.00     0.028 H 
ATOM     22  H   LIG d   1       0.698  -3.481 -11.931  0.00  0.00     0.028 H 
ATOM     23  H   LIG d   1       1.897  -1.590 -12.917  0.00  0.00     0.047 H 
ATOM     24  H   LIG d   1       2.657  -0.353 -11.879  0.00  0.00     0.047 H 
ATOM     25  H   LIG d   1       1.426   0.403  -9.394  0.00  0.00     0.064 H 
ATOM     26  H   LIG d   1       2.729   0.986  -7.365  0.00  0.00     0.063 H 
ATOM     27  H   LIG d   1       3.951  -4.321  -9.310  0.00  0.00     0.050 H 
ATOM     28  H   LIG d   1       2.304  -4.485  -8.675  0.00  0.00     0.050 H 
ENDROOT
BRANCH  14  29
ATOM     29  C   LIG d   1       4.495  -0.625  -6.077  0.00  0.00    -0.012 A 
ATOM     30  C   LIG d   1       3.915  -0.640  -4.809  0.00  0.00    -0.042 A 
ATOM     31  C   LIG d   1       4.682  -0.345  -3.699  0.00  0.00     0.055 A 
ATOM     32  H   LIG d   1       2.868  -0.881  -4.695  0.00  0.00     0.063 H 
ATOM     33  C   LIG d   1       6.022  -0.037  -3.843  0.00  0.00    -0.050 A 
ATOM     34  C   LIG d   1       6.603  -0.021  -5.099  0.00  0.00    -0.061 A 
ATOM     35  H   LIG d   1       6.618   0.192  -2.972  0.00  0.00     0.062 H 
ATOM     36  C   LIG d   1       5.849  -0.318  -6.215  0.00  0.00    -0.054 A 
ATOM     37  H   LIG d   1       7.650   0.221  -5.205  0.00  0.00     0.062 H 
ATOM     38  H   LIG d   1       6.304  -0.310  -7.194  0.00  0.00     0.062 H 
BRANCH  31  39
ATOM     39  C   LIG d   1       4.056  -0.363  -2.328  0.00  0.00     0.417 C 
ATOM     40  F   LIG d   1       4.386   0.815  -1.649  0.00  0.00    -0.166 F 
ATOM     41  F   LIG d   1       2.665  -0.454  -2.452  0.00  0.00    -0.166 F 
ATOM     42  F   LIG d   1       4.534  -1.465  -1.611  0.00  0.00    -0.166 F 
ENDBRANCH  31  39
ENDBRANCH  14  29
BRANCH   1  43
ATOM     43  C   LIG d   1       4.959  -0.174 -11.828  0.00  0.00     0.048 C 
ATOM     44  H   LIG d   1       5.652   0.106 -12.622  0.00  0.00     0.038 H 
ATOM     45  H   LIG d   1       3.985   0.276 -12.020  0.00  0.00     0.038 H 
BRANCH  43  46
ATOM     46  C   LIG d   1       5.495   0.323 -10.483  0.00  0.00     0.056 C 
ATOM     47  H   LIG d   1       5.233  -0.390  -9.702  0.00  0.00     0.056 H 
ATOM     48  H   LIG d   1       6.579   0.419 -10.538  0.00  0.00     0.056 H 
BRANCH  46  49
ATOM     49  O   LIG d   1       4.919   1.595 -10.182  0.00  0.00    -0.383 OA
BRANCH  49  50
ATOM     50  C   LIG d   1       5.502   2.244  -9.050  0.00  0.00     0.036 C 
ATOM     51  H   LIG d   1       5.170   1.748  -8.137  0.00  0.00     0.052 H 
ATOM     52  H   LIG d   1       6.588   2.189  -9.119  0.00  0.00     0.052 H 
ATOM     53  H   LIG d   1       5.191   3.288  -9.028  0.00  0.00     0.052 H 
ENDBRANCH  49  50
ENDBRANCH  46  49
ENDBRANCH  43  46
ENDBRANCH   1  43
TORSDOF 6
ENDMDL
MODEL 5
REMARK VINA RESULT:      -7.1      4.050      7.184
REMARK  6 active torsions:
REMARK  status: ('A' for Active; 'I' for Inactive)
REMARK    1  A    between atoms: C_1  and  O_2 
REMARK    2  A    between atoms: O_2  and  C_3 
REMARK    3  A    between atoms: C_3  and  C_4 
REMARK    4  A    between atoms: C_4  and  C_5 
REMARK       I    between atoms: C_5  and  N_7 
REMARK    5  A    between atoms: C_18  and  C_23 
REMARK    6  A    between atoms: C_27  and  C_29 
ROOT
ATOM      1  C   LIG d   1       5.367   1.065  -9.886  0.00  0.00     0.218 C 
ATOM      2  O   LIG d   1       5.909   2.044  -9.416  0.00  0.00    -0.276 OA
ATOM      3  N   LIG d   1       6.108   0.081 -10.433  0.00  0.00    -0.300 N 
ATOM      4  C   LIG d   1       7.572   0.176 -10.470  0.00  0.00     0.019 C 
ATOM      5  C   LIG d   1       8.197  -1.098  -9.920  0.00  0.00    -0.006 C 
ATOM      6  H   LIG d   1       9.263  -1.079 -10.146  0.00  0.00     0.033 H 
ATOM      7  C   LIG d   1       7.593  -2.335 -10.587  0.00  0.00    -0.037 C 
ATOM      8  C   LIG d   1       6.086  -2.342 -10.320  0.00  0.00     0.016 C 
ATOM      9  H   LIG d   1       5.642  -3.262 -10.701  0.00  0.00     0.038 H 
ATOM     10  C   LIG d   1       5.467  -1.113 -11.007  0.00  0.00     0.023 C 
ATOM     11  C   LIG d   1       5.830  -2.217  -8.836  0.00  0.00     0.027 C 
ATOM     12  C   LIG d   1       4.669  -2.743  -8.358  0.00  0.00    -0.041 C 
ATOM     13  C   LIG d   1       4.308  -2.577  -7.019  0.00  0.00    -0.047 C 
ATOM     14  C   LIG d   1       5.151  -1.855  -6.187  0.00  0.00     0.047 C 
ATOM     15  C   LIG d   1       6.345  -1.328  -6.725  0.00  0.00     0.259 C 
ATOM     16  O   LIG d   1       7.071  -0.640  -6.026  0.00  0.00    -0.267 OA
ATOM     17  N   LIG d   1       6.695  -1.585  -8.009  0.00  0.00    -0.311 N 
ATOM     18  C   LIG d   1       8.049  -1.201  -8.414  0.00  0.00     0.031 C 
ATOM     19  H   LIG d   1       7.894   1.026  -9.865  0.00  0.00     0.047 H 
ATOM     20  H   LIG d   1       7.897   0.324 -11.500  0.00  0.00     0.047 H 
ATOM     21  H   LIG d   1       8.043  -3.235 -10.168  0.00  0.00     0.028 H 
ATOM     22  H   LIG d   1       7.775  -2.300 -11.661  0.00  0.00     0.028 H 
ATOM     23  H   LIG d   1       5.655  -1.154 -12.079  0.00  0.00     0.047 H 
ATOM     24  H   LIG d   1       4.394  -1.083 -10.818  0.00  0.00     0.047 H 
ATOM     25  H   LIG d   1       4.021  -3.296  -9.021  0.00  0.00     0.064 H 
ATOM     26  H   LIG d   1       3.393  -3.007  -6.638  0.00  0.00     0.063 H 
ATOM     27  H   LIG d   1       8.290  -0.235  -7.969  0.00  0.00     0.050 H 
ATOM     28  H   LIG d   1       8.753  -1.945  -8.040  0.00  0.00     0.050 H 
ENDROOT
BRANCH  14  29
ATOM     29  C   LIG d   1       4.800  -1.636  -4.765  0.00  0.00    -0.012 A 
ATOM     30  C   LIG d   1       4.830  -0.351  -4.225  0.00  0.00    -0.042 A 
ATOM     31  C   LIG d   1       4.502  -0.154  -2.899  0.00  0.00     0.055 A 
ATOM     32  H   LIG d   1       5.111   0.489  -4.844  0.00  0.00     0.063 H 
ATOM     33  C   LIG d   1       4.143  -1.228  -2.106  0.00  0.00    -0.050 A 
ATOM     34  C   LIG d   1       4.111  -2.507  -2.635  0.00  0.00    -0.061 A 
ATOM     35  H   LIG d   1       3.886  -1.069  -1.069  0.00  0.00     0.062 H 
ATOM     36  C   LIG d   1       4.432  -2.716  -3.961  0.00  0.00    -0.054 A 
ATOM     37  H   LIG d   1       3.830  -3.341  -2.011  0.00  0.00     0.062 H 
ATOM     38  H   LIG d   1       4.403  -3.713  -4.374  0.00  0.00     0.062 H 
BRANCH  31  39
ATOM     39  C   LIG d   1       4.533   1.235  -2.316  0.00  0.00     0.417 C 
ATOM     40  F   LIG d   1       3.329   1.888  -2.600  0.00  0.00    -0.166 F 
ATOM     41  F   LIG d   1       4.703   1.155  -0.929  0.00  0.00    -0.166 F 
ATOM     42  F   LIG d   1       5.596   1.952  -2.875  0.00  0.00    -0.166 F 
ENDBRANCH  31  39
ENDBRANCH  14  29
BRANCH   1  43
ATOM     43  C   LIG d   1       3.865   0.949  -9.857  0.00  0.00     0.048 C 
ATOM     44  H   LIG d   1       3.423   1.845 -10.295  0.00  0.00     0.038 H 
ATOM     45  H   LIG d   1       3.557   0.075 -10.430  0.00  0.00     0.038 H 
BRANCH  43  46
ATOM     46  C   LIG d   1       3.392   0.803  -8.408  0.00  0.00     0.056 C 
ATOM     47  H   LIG d   1       4.192   0.374  -7.807  0.00  0.00     0.056 H 
ATOM     48  H   LIG d   1       3.126   1.783  -8.013  0.00  0.00     0.056 H 
BRANCH  46  49
ATOM     49  O   LIG d   1       2.249  -0.054  -8.365  0.00  0.00    -0.383 OA
BRANCH  49  50
ATOM     50  C   LIG d   1       1.899  -0.619  -9.630  0.00  0.00     0.036 C 
ATOM     51  H   LIG d   1       2.077   0.114 -10.417  0.00  0.00     0.052 H 
ATOM     52  H   LIG d   1       2.507  -1.505  -9.814  0.00  0.00     0.052 H 
ATOM     53  H   LIG d   1       0.844  -0.896  -9.625  0.00  0.00     0.052 H 
ENDBRANCH  49  50
ENDBRANCH  46  49
ENDBRANCH  43  46
ENDBRANCH   1  43
TORSDOF 6
ENDMDL
MODEL 6
REMARK VINA RESULT:      -6.8      3.254      6.240
REMARK  6 active torsions:
REMARK  status: ('A' for Active; 'I' for Inactive)
REMARK    1  A    between atoms: C_1  and  O_2 
REMARK    2  A    between atoms: O_2  and  C_3 
REMARK    3  A    between atoms: C_3  and  C_4 
REMARK    4  A    between atoms: C_4  and  C_5 
REMARK       I    between atoms: C_5  and  N_7 
REMARK    5  A    between atoms: C_18  and  C_23 
REMARK    6  A    between atoms: C_27  and  C_29 
ROOT
ATOM      1  C   LIG d   1       9.075   2.349  -7.490  0.00  0.00     0.218 C 
ATOM      2  O   LIG d   1       8.482   3.396  -7.336  0.00  0.00    -0.276 OA
ATOM      3  N   LIG d   1      10.201   2.103  -6.792  0.00  0.00    -0.300 N 
ATOM      4  C   LIG d   1      10.725   3.090  -5.841  0.00  0.00     0.019 C 
ATOM      5  C   LIG d   1      11.006   2.430  -4.499  0.00  0.00    -0.006 C 
ATOM      6  H   LIG d   1      11.575   3.131  -3.887  0.00  0.00     0.033 H 
ATOM      7  C   LIG d   1      11.847   1.165  -4.676  0.00  0.00    -0.037 C 
ATOM      8  C   LIG d   1      11.078   0.195  -5.577  0.00  0.00     0.016 C 
ATOM      9  H   LIG d   1      11.609  -0.754  -5.644  0.00  0.00     0.038 H 
ATOM     10  C   LIG d   1      10.933   0.839  -6.967  0.00  0.00     0.023 C 
ATOM     11  C   LIG d   1       9.689  -0.023  -5.024  0.00  0.00     0.027 C 
ATOM     12  C   LIG d   1       9.079  -1.203  -5.322  0.00  0.00    -0.041 C 
ATOM     13  C   LIG d   1       7.757  -1.440  -4.939  0.00  0.00    -0.047 C 
ATOM     14  C   LIG d   1       7.073  -0.443  -4.258  0.00  0.00     0.047 C 
ATOM     15  C   LIG d   1       7.744   0.765  -3.970  0.00  0.00     0.259 C 
ATOM     16  O   LIG d   1       7.143   1.676  -3.426  0.00  0.00    -0.267 OA
ATOM     17  N   LIG d   1       9.053   0.918  -4.287  0.00  0.00    -0.311 N 
ATOM     18  C   LIG d   1       9.730   2.100  -3.748  0.00  0.00     0.031 C 
ATOM     19  H   LIG d   1       9.991   3.886  -5.705  0.00  0.00     0.047 H 
ATOM     20  H   LIG d   1      11.648   3.515  -6.236  0.00  0.00     0.047 H 
ATOM     21  H   LIG d   1      12.023   0.702  -3.705  0.00  0.00     0.028 H 
ATOM     22  H   LIG d   1      12.800   1.419  -5.139  0.00  0.00     0.028 H 
ATOM     23  H   LIG d   1      11.918   1.036  -7.388  0.00  0.00     0.047 H 
ATOM     24  H   LIG d   1      10.373   0.175  -7.626  0.00  0.00     0.047 H 
ATOM     25  H   LIG d   1       9.624  -1.965  -5.859  0.00  0.00     0.064 H 
ATOM     26  H   LIG d   1       7.279  -2.382  -5.164  0.00  0.00     0.063 H 
ATOM     27  H   LIG d   1       9.053   2.952  -3.810  0.00  0.00     0.050 H 
ATOM     28  H   LIG d   1       9.972   1.919  -2.700  0.00  0.00     0.050 H 
ENDROOT
BRANCH  14  29
ATOM     29  C   LIG d   1       5.663  -0.641  -3.849  0.00  0.00    -0.012 A 
ATOM     30  C   LIG d   1       4.631  -0.069  -4.591  0.00  0.00    -0.042 A 
ATOM     31  C   LIG d   1       3.320  -0.258  -4.205  0.00  0.00     0.055 A 
ATOM     32  H   LIG d   1       4.858   0.522  -5.467  0.00  0.00     0.063 H 
ATOM     33  C   LIG d   1       3.028  -1.014  -3.084  0.00  0.00    -0.050 A 
ATOM     34  C   LIG d   1       4.048  -1.585  -2.343  0.00  0.00    -0.061 A 
ATOM     35  H   LIG d   1       2.000  -1.160  -2.786  0.00  0.00     0.062 H 
ATOM     36  C   LIG d   1       5.363  -1.407  -2.722  0.00  0.00    -0.054 A 
ATOM     37  H   LIG d   1       3.814  -2.174  -1.470  0.00  0.00     0.062 H 
ATOM     38  H   LIG d   1       6.157  -1.857  -2.146  0.00  0.00     0.062 H 
BRANCH  31  39
ATOM     39  C   LIG d   1       2.204   0.360  -5.008  0.00  0.00     0.417 C 
ATOM     40  F   LIG d   1       0.977  -0.150  -4.571  0.00  0.00    -0.166 F 
ATOM     41  F   LIG d   1       2.219   1.749  -4.835  0.00  0.00    -0.166 F 
ATOM     42  F   LIG d   1       2.380   0.056  -6.362  0.00  0.00    -0.166 F 
ENDBRANCH  31  39
ENDBRANCH  14  29
BRANCH   1  43
ATOM     43  C   LIG d   1       8.552   1.324  -8.463  0.00  0.00     0.048 C 
ATOM     44  H   LIG d   1       8.808   1.623  -9.479  0.00  0.00     0.038 H 
ATOM     45  H   LIG d   1       9.001   0.355  -8.245  0.00  0.00     0.038 H 
BRANCH  43  46
ATOM     46  C   LIG d   1       7.030   1.223  -8.329  0.00  0.00     0.056 C 
ATOM     47  H   LIG d   1       6.734   0.175  -8.344  0.00  0.00     0.056 H 
ATOM     48  H   LIG d   1       6.718   1.676  -7.388  0.00  0.00     0.056 H 
BRANCH  46  49
ATOM     49  O   LIG d   1       6.410   1.910  -9.417  0.00  0.00    -0.383 OA
BRANCH  49  50
ATOM     50  C   LIG d   1       5.016   2.160  -9.228  0.00  0.00     0.036 C 
ATOM     51  H   LIG d   1       4.789   2.159  -8.162  0.00  0.00     0.052 H 
ATOM     52  H   LIG d   1       4.759   3.129  -9.654  0.00  0.00     0.052 H 
ATOM     53  H   LIG d   1       4.436   1.380  -9.723  0.00  0.00     0.052 H 
ENDBRANCH  49  50
ENDBRANCH  46  49
ENDBRANCH  43  46
ENDBRANCH   1  43
TORSDOF 6
ENDMDL
MODEL 7
REMARK VINA RESULT:      -6.6      4.336      7.621
REMARK  6 active torsions:
REMARK  status: ('A' for Active; 'I' for Inactive)
REMARK    1  A    between atoms: C_1  and  O_2 
REMARK    2  A    between atoms: O_2  and  C_3 
REMARK    3  A    between atoms: C_3  and  C_4 
REMARK    4  A    between atoms: C_4  and  C_5 
REMARK       I    between atoms: C_5  and  N_7 
REMARK    5  A    between atoms: C_18  and  C_23 
REMARK    6  A    between atoms: C_27  and  C_29 
ROOT
ATOM      1  C   LIG d   1       3.201  -4.102 -10.352  0.00  0.00     0.218 C 
ATOM      2  O   LIG d   1       2.009  -4.261 -10.194  0.00  0.00    -0.276 OA
ATOM      3  N   LIG d   1       3.648  -3.221 -11.269  0.00  0.00    -0.300 N 
ATOM      4  C   LIG d   1       2.707  -2.445 -12.086  0.00  0.00     0.019 C 
ATOM      5  C   LIG d   1       3.062  -0.966 -12.037  0.00  0.00    -0.006 C 
ATOM      6  H   LIG d   1       2.480  -0.451 -12.801  0.00  0.00     0.033 H 
ATOM      7  C   LIG d   1       4.544  -0.748 -12.343  0.00  0.00    -0.037 C 
ATOM      8  C   LIG d   1       5.370  -1.512 -11.305  0.00  0.00     0.016 C 
ATOM      9  H   LIG d   1       6.431  -1.299 -11.439  0.00  0.00     0.038 H 
ATOM     10  C   LIG d   1       5.090  -3.015 -11.475  0.00  0.00     0.023 C 
ATOM     11  C   LIG d   1       4.932  -1.118  -9.913  0.00  0.00     0.027 C 
ATOM     12  C   LIG d   1       5.852  -1.232  -8.916  0.00  0.00    -0.041 C 
ATOM     13  C   LIG d   1       5.497  -0.989  -7.587  0.00  0.00    -0.047 C 
ATOM     14  C   LIG d   1       4.185  -0.641  -7.302  0.00  0.00     0.047 C 
ATOM     15  C   LIG d   1       3.265  -0.534  -8.367  0.00  0.00     0.259 C 
ATOM     16  O   LIG d   1       2.093  -0.287  -8.132  0.00  0.00    -0.267 OA
ATOM     17  N   LIG d   1       3.673  -0.697  -9.649  0.00  0.00    -0.311 N 
ATOM     18  C   LIG d   1       2.715  -0.341 -10.698  0.00  0.00     0.031 C 
ATOM     19  H   LIG d   1       1.695  -2.586 -11.702  0.00  0.00     0.047 H 
ATOM     20  H   LIG d   1       2.753  -2.794 -13.117  0.00  0.00     0.047 H 
ATOM     21  H   LIG d   1       4.779   0.314 -12.287  0.00  0.00     0.028 H 
ATOM     22  H   LIG d   1       4.772  -1.122 -13.340  0.00  0.00     0.028 H 
ATOM     23  H   LIG d   1       5.370  -3.333 -12.480  0.00  0.00     0.047 H 
ATOM     24  H   LIG d   1       5.654  -3.584 -10.735  0.00  0.00     0.047 H 
ATOM     25  H   LIG d   1       6.866  -1.511  -9.155  0.00  0.00     0.064 H 
ATOM     26  H   LIG d   1       6.231  -1.066  -6.799  0.00  0.00     0.063 H 
ATOM     27  H   LIG d   1       1.722  -0.678 -10.398  0.00  0.00     0.050 H 
ATOM     28  H   LIG d   1       2.699   0.744 -10.808  0.00  0.00     0.050 H 
ENDROOT
BRANCH  14  29
ATOM     29  C   LIG d   1       3.757  -0.392  -5.905  0.00  0.00    -0.012 A 
ATOM     30  C   LIG d   1       4.283  -1.157  -4.865  0.00  0.00    -0.042 A 
ATOM     31  C   LIG d   1       3.881  -0.920  -3.566  0.00  0.00     0.055 A 
ATOM     32  H   LIG d   1       5.004  -1.934  -5.076  0.00  0.00     0.063 H 
ATOM     33  C   LIG d   1       2.959   0.074  -3.295  0.00  0.00    -0.050 A 
ATOM     34  C   LIG d   1       2.434   0.837  -4.323  0.00  0.00    -0.061 A 
ATOM     35  H   LIG d   1       2.649   0.256  -2.277  0.00  0.00     0.062 H 
ATOM     36  C   LIG d   1       2.831   0.613  -5.625  0.00  0.00    -0.054 A 
ATOM     37  H   LIG d   1       1.714   1.611  -4.105  0.00  0.00     0.062 H 
ATOM     38  H   LIG d   1       2.423   1.212  -6.426  0.00  0.00     0.062 H 
BRANCH  31  39
ATOM     39  C   LIG d   1       4.451  -1.746  -2.441  0.00  0.00     0.417 C 
ATOM     40  F   LIG d   1       3.675  -2.896  -2.267  0.00  0.00    -0.166 F 
ATOM     41  F   LIG d   1       5.765  -2.114  -2.753  0.00  0.00    -0.166 F 
ATOM     42  F   LIG d   1       4.444  -0.994  -1.261  0.00  0.00    -0.166 F 
ENDBRANCH  31  39
ENDBRANCH  14  29
BRANCH   1  43
ATOM     43  C   LIG d   1       4.183  -4.889  -9.524  0.00  0.00     0.048 C 
ATOM     44  H   LIG d   1       5.037  -5.168 -10.141  0.00  0.00     0.038 H 
ATOM     45  H   LIG d   1       4.523  -4.279  -8.687  0.00  0.00     0.038 H 
BRANCH  43  46
ATOM     46  C   LIG d   1       3.503  -6.153  -8.992  0.00  0.00     0.056 C 
ATOM     47  H   LIG d   1       2.453  -6.151  -9.284  0.00  0.00     0.056 H 
ATOM     48  H   LIG d   1       3.994  -7.032  -9.408  0.00  0.00     0.056 H 
BRANCH  46  49
ATOM     49  O   LIG d   1       3.601  -6.182  -7.566  0.00  0.00    -0.383 OA
BRANCH  49  50
ATOM     50  C   LIG d   1       3.876  -4.910  -6.977  0.00  0.00     0.036 C 
ATOM     51  H   LIG d   1       4.668  -5.017  -6.236  0.00  0.00     0.052 H 
ATOM     52  H   LIG d   1       4.192  -4.211  -7.751  0.00  0.00     0.052 H 
ATOM     53  H   LIG d   1       2.975  -4.532  -6.492  0.00  0.00     0.052 H 
ENDBRANCH  49  50
ENDBRANCH  46  49
ENDBRANCH  43  46
ENDBRANCH   1  43
TORSDOF 6
ENDMDL
MODEL 8
REMARK VINA RESULT:      -6.4      2.190      3.673
REMARK  6 active torsions:
REMARK  status: ('A' for Active; 'I' for Inactive)
REMARK    1  A    between atoms: C_1  and  O_2 
REMARK    2  A    between atoms: O_2  and  C_3 
REMARK    3  A    between atoms: C_3  and  C_4 
REMARK    4  A    between atoms: C_4  and  C_5 
REMARK       I    between atoms: C_5  and  N_7 
REMARK    5  A    between atoms: C_18  and  C_23 
REMARK    6  A    between atoms: C_27  and  C_29 
ROOT
ATOM      1  C   LIG d   1       6.020  -3.399  -4.710  0.00  0.00     0.218 C 
ATOM      2  O   LIG d   1       6.878  -3.877  -5.422  0.00  0.00    -0.276 OA
ATOM      3  N   LIG d   1       6.302  -2.331  -3.938  0.00  0.00    -0.300 N 
ATOM      4  C   LIG d   1       7.644  -1.734  -3.945  0.00  0.00     0.019 C 
ATOM      5  C   LIG d   1       7.549  -0.230  -4.155  0.00  0.00    -0.006 C 
ATOM      6  H   LIG d   1       8.529   0.204  -3.956  0.00  0.00     0.033 H 
ATOM      7  C   LIG d   1       6.547   0.397  -3.186  0.00  0.00    -0.037 C 
ATOM      8  C   LIG d   1       5.177  -0.244  -3.424  0.00  0.00     0.016 C 
ATOM      9  H   LIG d   1       4.421   0.250  -2.814  0.00  0.00     0.038 H 
ATOM     10  C   LIG d   1       5.275  -1.738  -3.068  0.00  0.00     0.023 C 
ATOM     11  C   LIG d   1       4.813  -0.143  -4.887  0.00  0.00     0.027 C 
ATOM     12  C   LIG d   1       3.488  -0.131  -5.199  0.00  0.00    -0.041 C 
ATOM     13  C   LIG d   1       3.069  -0.146  -6.531  0.00  0.00    -0.047 C 
ATOM     14  C   LIG d   1       4.030  -0.184  -7.531  0.00  0.00     0.047 C 
ATOM     15  C   LIG d   1       5.392  -0.194  -7.162  0.00  0.00     0.259 C 
ATOM     16  O   LIG d   1       6.251  -0.287  -8.023  0.00  0.00    -0.267 OA
ATOM     17  N   LIG d   1       5.754  -0.094  -5.859  0.00  0.00    -0.311 N 
ATOM     18  C   LIG d   1       7.176   0.123  -5.583  0.00  0.00     0.031 C 
ATOM     19  H   LIG d   1       8.231  -2.176  -4.751  0.00  0.00     0.047 H 
ATOM     20  H   LIG d   1       8.132  -1.936  -2.991  0.00  0.00     0.047 H 
ATOM     21  H   LIG d   1       6.485   1.470  -3.365  0.00  0.00     0.028 H 
ATOM     22  H   LIG d   1       6.864   0.214  -2.160  0.00  0.00     0.028 H 
ATOM     23  H   LIG d   1       5.562  -1.852  -2.024  0.00  0.00     0.047 H 
ATOM     24  H   LIG d   1       4.315  -2.224  -3.245  0.00  0.00     0.047 H 
ATOM     25  H   LIG d   1       2.754  -0.109  -4.408  0.00  0.00     0.064 H 
ATOM     26  H   LIG d   1       2.017  -0.123  -6.777  0.00  0.00     0.063 H 
ATOM     27  H   LIG d   1       7.765  -0.492  -6.265  0.00  0.00     0.050 H 
ATOM     28  H   LIG d   1       7.413   1.172  -5.762  0.00  0.00     0.050 H 
ENDROOT
BRANCH  14  29
ATOM     29  C   LIG d   1       3.632  -0.220  -8.958  0.00  0.00    -0.012 A 
ATOM     30  C   LIG d   1       2.745  -1.194  -9.413  0.00  0.00    -0.042 A 
ATOM     31  C   LIG d   1       2.378  -1.222 -10.743  0.00  0.00     0.055 A 
ATOM     32  H   LIG d   1       2.346  -1.926  -8.726  0.00  0.00     0.063 H 
ATOM     33  C   LIG d   1       2.888  -0.285 -11.624  0.00  0.00    -0.050 A 
ATOM     34  C   LIG d   1       3.769   0.685 -11.178  0.00  0.00    -0.061 A 
ATOM     35  H   LIG d   1       2.597  -0.310 -12.664  0.00  0.00     0.062 H 
ATOM     36  C   LIG d   1       4.139   0.726  -9.849  0.00  0.00    -0.054 A 
ATOM     37  H   LIG d   1       4.163   1.413 -11.870  0.00  0.00     0.062 H 
ATOM     38  H   LIG d   1       4.823   1.486  -9.502  0.00  0.00     0.062 H 
BRANCH  31  39
ATOM     39  C   LIG d   1       1.418  -2.274 -11.236  0.00  0.00     0.417 C 
ATOM     40  F   LIG d   1       2.110  -3.214 -12.006  0.00  0.00    -0.166 F 
ATOM     41  F   LIG d   1       0.826  -2.914 -10.141  0.00  0.00    -0.166 F 
ATOM     42  F   LIG d   1       0.425  -1.671 -12.016  0.00  0.00    -0.166 F 
ENDBRANCH  31  39
ENDBRANCH  14  29
BRANCH   1  43
ATOM     43  C   LIG d   1       4.637  -3.998  -4.690  0.00  0.00     0.048 C 
ATOM     44  H   LIG d   1       4.339  -4.188  -3.659  0.00  0.00     0.038 H 
ATOM     45  H   LIG d   1       3.934  -3.303  -5.149  0.00  0.00     0.038 H 
BRANCH  43  46
ATOM     46  C   LIG d   1       4.640  -5.314  -5.472  0.00  0.00     0.056 C 
ATOM     47  H   LIG d   1       5.519  -5.352  -6.114  0.00  0.00     0.056 H 
ATOM     48  H   LIG d   1       4.663  -6.150  -4.775  0.00  0.00     0.056 H 
BRANCH  46  49
ATOM     49  O   LIG d   1       3.460  -5.393  -6.273  0.00  0.00    -0.383 OA
BRANCH  49  50
ATOM     50  C   LIG d   1       3.664  -5.048  -7.645  0.00  0.00     0.036 C 
ATOM     51  H   LIG d   1       3.510  -3.977  -7.776  0.00  0.00     0.052 H 
ATOM     52  H   LIG d   1       4.681  -5.308  -7.938  0.00  0.00     0.052 H 
ATOM     53  H   LIG d   1       2.955  -5.595  -8.267  0.00  0.00     0.052 H 
ENDBRANCH  49  50
ENDBRANCH  46  49
ENDBRANCH  43  46
ENDBRANCH   1  43
TORSDOF 6
ENDMDL
MODEL 9
REMARK VINA RESULT:      -6.4      5.349      8.123
REMARK  6 active torsions:
REMARK  status: ('A' for Active; 'I' for Inactive)
REMARK    1  A    between atoms: C_1  and  O_2 
REMARK    2  A    between atoms: O_2  and  C_3 
REMARK    3  A    between atoms: C_3  and  C_4 
REMARK    4  A    between atoms: C_4  and  C_5 
REMARK       I    between atoms: C_5  and  N_7 
REMARK    5  A    between atoms: C_18  and  C_23 
REMARK    6  A    between atoms: C_27  and  C_29 
ROOT
ATOM      1  C   LIG d   1      12.257   1.421  -7.381  0.00  0.00     0.218 C 
ATOM      2  O   LIG d   1      11.797   0.760  -8.288  0.00  0.00    -0.276 OA
ATOM      3  N   LIG d   1      12.181   2.766  -7.421  0.00  0.00    -0.300 N 
ATOM      4  C   LIG d   1      11.545   3.448  -8.554  0.00  0.00     0.019 C 
ATOM      5  C   LIG d   1      10.523   4.458  -8.054  0.00  0.00    -0.006 C 
ATOM      6  H   LIG d   1      10.220   5.081  -8.896  0.00  0.00     0.033 H 
ATOM      7  C   LIG d   1      11.129   5.368  -6.985  0.00  0.00    -0.037 C 
ATOM      8  C   LIG d   1      11.605   4.496  -5.820  0.00  0.00     0.016 C 
ATOM      9  H   LIG d   1      11.955   5.123  -5.001  0.00  0.00     0.038 H 
ATOM     10  C   LIG d   1      12.734   3.583  -6.330  0.00  0.00     0.023 C 
ATOM     11  C   LIG d   1      10.474   3.609  -5.351  0.00  0.00     0.027 C 
ATOM     12  C   LIG d   1      10.502   3.200  -4.053  0.00  0.00    -0.041 C 
ATOM     13  C   LIG d   1       9.554   2.296  -3.569  0.00  0.00    -0.047 C 
ATOM     14  C   LIG d   1       8.589   1.814  -4.441  0.00  0.00     0.047 C 
ATOM     15  C   LIG d   1       8.598   2.265  -5.779  0.00  0.00     0.259 C 
ATOM     16  O   LIG d   1       7.796   1.808  -6.577  0.00  0.00    -0.267 OA
ATOM     17  N   LIG d   1       9.485   3.206  -6.183  0.00  0.00    -0.311 N 
ATOM     18  C   LIG d   1       9.276   3.785  -7.512  0.00  0.00     0.031 C 
ATOM     19  H   LIG d   1      11.046   2.711  -9.186  0.00  0.00     0.047 H 
ATOM     20  H   LIG d   1      12.308   3.964  -9.137  0.00  0.00     0.047 H 
ATOM     21  H   LIG d   1      10.376   6.072  -6.631  0.00  0.00     0.028 H 
ATOM     22  H   LIG d   1      11.973   5.914  -7.403  0.00  0.00     0.028 H 
ATOM     23  H   LIG d   1      13.560   4.189  -6.702  0.00  0.00     0.047 H 
ATOM     24  H   LIG d   1      13.081   2.938  -5.523  0.00  0.00     0.047 H 
ATOM     25  H   LIG d   1      11.264   3.580  -3.390  0.00  0.00     0.064 H 
ATOM     26  H   LIG d   1       9.569   1.984  -2.536  0.00  0.00     0.063 H 
ATOM     27  H   LIG d   1       8.975   2.993  -8.198  0.00  0.00     0.050 H 
ATOM     28  H   LIG d   1       8.474   4.521  -7.453  0.00  0.00     0.050 H 
ENDROOT
BRANCH  14  29
ATOM     29  C   LIG d   1       7.575   0.838  -3.979  0.00  0.00    -0.012 A 
ATOM     30  C   LIG d   1       6.421   1.281  -3.334  0.00  0.00    -0.042 A 
ATOM     31  C   LIG d   1       5.479   0.367  -2.906  0.00  0.00     0.055 A 
ATOM     32  H   LIG d   1       6.263   2.337  -3.169  0.00  0.00     0.063 H 
ATOM     33  C   LIG d   1       5.678  -0.985  -3.116  0.00  0.00    -0.050 A 
ATOM     34  C   LIG d   1       6.822  -1.431  -3.756  0.00  0.00    -0.061 A 
ATOM     35  H   LIG d   1       4.938  -1.697  -2.780  0.00  0.00     0.062 H 
ATOM     36  C   LIG d   1       7.768  -0.527  -4.192  0.00  0.00    -0.054 A 
ATOM     37  H   LIG d   1       6.971  -2.488  -3.916  0.00  0.00     0.062 H 
ATOM     38  H   LIG d   1       8.658  -0.876  -4.695  0.00  0.00     0.062 H 
BRANCH  31  39
ATOM     39  C   LIG d   1       4.230   0.845  -2.210  0.00  0.00     0.417 C 
ATOM     40  F   LIG d   1       3.291  -0.191  -2.174  0.00  0.00    -0.166 F 
ATOM     41  F   LIG d   1       4.545   1.234  -0.903  0.00  0.00    -0.166 F 
ATOM     42  F   LIG d   1       3.697   1.935  -2.906  0.00  0.00    -0.166 F 
ENDBRANCH  31  39
ENDBRANCH  14  29
BRANCH   1  43
ATOM     43  C   LIG d   1      12.914   0.738  -6.209  0.00  0.00     0.048 C 
ATOM     44  H   LIG d   1      13.677   0.049  -6.571  0.00  0.00     0.038 H 
ATOM     45  H   LIG d   1      13.376   1.487  -5.565  0.00  0.00     0.038 H 
BRANCH  43  46
ATOM     46  C   LIG d   1      11.860  -0.038  -5.415  0.00  0.00     0.056 C 
ATOM     47  H   LIG d   1      10.888   0.438  -5.541  0.00  0.00     0.056 H 
ATOM     48  H   LIG d   1      11.814  -1.063  -5.779  0.00  0.00     0.056 H 
BRANCH  46  49
ATOM     49  O   LIG d   1      12.215  -0.040  -4.030  0.00  0.00    -0.383 OA
BRANCH  49  50
ATOM     50  C   LIG d   1      13.324   0.803  -3.713  0.00  0.00     0.036 C 
ATOM     51  H   LIG d   1      13.516   0.763  -2.641  0.00  0.00     0.052 H 
ATOM     52  H   LIG d   1      14.207   0.461  -4.253  0.00  0.00     0.052 H 
ATOM     53  H   LIG d   1      13.096   1.829  -4.002  0.00  0.00     0.052 H 
ENDBRANCH  49  50
ENDBRANCH  46  49
ENDBRANCH  43  46
ENDBRANCH   1  43
TORSDOF 6
ENDMDL
