MODEL 1
REMARK VINA RESULT:      -7.4      0.000      0.000
REMARK  12 active torsions:
REMARK  status: ('A' for Active; 'I' for Inactive)
REMARK    1  A    between atoms: C_1  and  C_2 
REMARK    2  A    between atoms: C_2  and  C_3 
REMARK    3  A    between atoms: C_10  and  O_20 
REMARK    4  A    between atoms: C_16  and  C_18 
REMARK    5  A    between atoms: C_16  and  C_19 
REMARK    6  A    between atoms: O_20  and  C_21 
REMARK    7  A    between atoms: C_21  and  C_22 
REMARK       I    between atoms: C_22  and  N_24 
REMARK    8  A    between atoms: N_24  and  C_25 
REMARK    9  A    between atoms: C_25  and  C_26 
REMARK   10  A    between atoms: C_26  and  C_27 
REMARK   11  A    between atoms: C_34  and  O_37 
REMARK   12  A    between atoms: O_37  and  C_38 
ROOT
ATOM      1  C   LIG d   1       5.655  -3.654  -7.761  0.00  0.00    -0.027 A 
ATOM      2  C   LIG d   1       5.041  -4.853  -7.576  0.00  0.00     0.027 A 
ATOM      3  C   LIG d   1       4.358  -5.109  -6.373  0.00  0.00     0.338 A 
ATOM      4  O   LIG d   1       3.814  -6.188  -6.223  0.00  0.00    -0.245 OA
ATOM      5  O   LIG d   1       4.288  -4.206  -5.387  0.00  0.00    -0.422 OA
ATOM      6  C   LIG d   1       4.886  -3.005  -5.538  0.00  0.00     0.149 A 
ATOM      7  C   LIG d   1       5.576  -2.692  -6.721  0.00  0.00     0.063 A 
ATOM      8  C   LIG d   1       6.196  -1.438  -6.859  0.00  0.00     0.136 A 
ATOM      9  C   LIG d   1       6.113  -0.522  -5.830  0.00  0.00     0.023 A 
ATOM     10  C   LIG d   1       5.421  -0.833  -4.659  0.00  0.00     0.131 A 
ATOM     11  C   LIG d   1       4.810  -2.065  -4.515  0.00  0.00     0.038 A 
ATOM     12  C   LIG d   1       4.051  -2.427  -3.262  0.00  0.00    -0.017 C 
ATOM     13  C   LIG d   1       4.447  -1.479  -2.128  0.00  0.00    -0.009 C 
ATOM     14  C   LIG d   1       4.384  -0.041  -2.658  0.00  0.00     0.105 C 
ATOM     15  O   LIG d   1       5.373   0.106  -3.677  0.00  0.00    -0.486 OA
ATOM     16  H   LIG d   1       5.079  -5.607  -8.350  0.00  0.00     0.069 H 
ATOM     17  H   LIG d   1       6.586   0.444  -5.934  0.00  0.00     0.069 H 
ATOM     18  H   LIG d   1       4.287  -3.452  -2.978  0.00  0.00     0.032 H 
ATOM     19  H   LIG d   1       2.981  -2.340  -3.451  0.00  0.00     0.032 H 
ATOM     20  H   LIG d   1       5.461  -1.705  -1.797  0.00  0.00     0.031 H 
ATOM     21  H   LIG d   1       3.754  -1.594  -1.293  0.00  0.00     0.031 H 
ENDROOT
BRANCH   8  22
ATOM     22  O   LIG d   1       6.869  -1.129  -7.996  0.00  0.00    -0.482 OA
BRANCH  22  23
ATOM     23  C   LIG d   1       7.362   0.207  -8.115  0.00  0.00     0.165 C 
ATOM     24  H   LIG d   1       8.359   0.189  -8.555  0.00  0.00     0.080 H 
ATOM     25  H   LIG d   1       7.409   0.667  -7.128  0.00  0.00     0.080 H 
BRANCH  23  26
ATOM     26  C   LIG d   1       6.439   1.006  -8.998  0.00  0.00     0.251 C 
ATOM     27  O   LIG d   1       6.488   0.877 -10.203  0.00  0.00    -0.272 OA
ATOM     28  N   LIG d   1       5.556   1.864  -8.448  0.00  0.00    -0.312 N 
ATOM     29  H   LIG d   1       5.516   1.967  -7.485  0.00  0.00     0.149 HD
BRANCH  28  30
ATOM     30  C   LIG d   1       4.658   2.641  -9.307  0.00  0.00     0.016 C 
ATOM     31  H   LIG d   1       4.793   2.336 -10.344  0.00  0.00     0.046 H 
ATOM     32  H   LIG d   1       4.888   3.702  -9.207  0.00  0.00     0.046 H 
BRANCH  30  33
ATOM     33  C   LIG d   1       3.209   2.392  -8.886  0.00  0.00    -0.010 C 
ATOM     34  H   LIG d   1       2.538   2.722  -9.680  0.00  0.00     0.033 H 
ATOM     35  H   LIG d   1       2.994   2.951  -7.975  0.00  0.00     0.033 H 
BRANCH  33  36
ATOM     36  C   LIG d   1       3.004   0.922  -8.633  0.00  0.00    -0.021 A 
ATOM     37  C   LIG d   1       2.939  -0.136  -9.646  0.00  0.00     0.006 A 
ATOM     38  C   LIG d   1       2.736  -1.337  -8.942  0.00  0.00     0.047 A 
ATOM     39  C   LIG d   1       3.035  -0.151 -11.039  0.00  0.00    -0.011 A 
ATOM     40  N   LIG d   1       2.684  -1.017  -7.601  0.00  0.00    -0.360 N 
ATOM     41  C   LIG d   1       2.632  -2.533  -9.643  0.00  0.00    -0.034 A 
ATOM     42  C   LIG d   1       2.845   0.331  -7.438  0.00  0.00     0.006 A 
ATOM     43  H   LIG d   1       2.552  -1.654  -6.881  0.00  0.00     0.165 HD
ATOM     44  H   LIG d   1       2.843   0.845  -6.489  0.00  0.00     0.081 H 
ATOM     45  C   LIG d   1       2.729  -2.536 -11.017  0.00  0.00    -0.018 A 
ATOM     46  H   LIG d   1       2.472  -3.459  -9.111  0.00  0.00     0.064 H 
ATOM     47  C   LIG d   1       2.929  -1.349 -11.717  0.00  0.00     0.121 A 
ATOM     48  H   LIG d   1       2.647  -3.468 -11.557  0.00  0.00     0.066 H 
ATOM     49  H   LIG d   1       3.190   0.769 -11.582  0.00  0.00     0.066 H 
BRANCH  47  50
ATOM     50  O   LIG d   1       3.022  -1.370 -13.073  0.00  0.00    -0.495 OA
BRANCH  50  51
ATOM     51  C   LIG d   1       4.162  -0.735 -13.655  0.00  0.00     0.079 C 
ATOM     52  H   LIG d   1       4.195  -0.955 -14.723  0.00  0.00     0.066 H 
ATOM     53  H   LIG d   1       4.092   0.343 -13.509  0.00  0.00     0.066 H 
ATOM     54  H   LIG d   1       5.068  -1.109 -13.180  0.00  0.00     0.066 H 
ENDBRANCH  50  51
ENDBRANCH  47  50
ENDBRANCH  33  36
ENDBRANCH  30  33
ENDBRANCH  28  30
ENDBRANCH  23  26
ENDBRANCH  22  23
ENDBRANCH   8  22
BRANCH   1  55
ATOM     55  C   LIG d   1       6.394  -3.352  -9.039  0.00  0.00    -0.029 C 
ATOM     56  H   LIG d   1       6.181  -2.329  -9.349  0.00  0.00     0.031 H 
ATOM     57  H   LIG d   1       7.466  -3.466  -8.874  0.00  0.00     0.031 H 
BRANCH  55  58
ATOM     58  C   LIG d   1       5.941  -4.321 -10.133  0.00  0.00    -0.061 C 
ATOM     59  H   LIG d   1       5.387  -3.775 -10.896  0.00  0.00     0.023 H 
ATOM     60  H   LIG d   1       6.814  -4.793 -10.585  0.00  0.00     0.023 H 
ATOM     61  H   LIG d   1       5.300  -5.087  -9.696  0.00  0.00     0.023 H 
ENDBRANCH  55  58
ENDBRANCH   1  55
BRANCH  14  62
ATOM     62  C   LIG d   1       4.667   0.941  -1.520  0.00  0.00    -0.025 C 
ATOM     63  H   LIG d   1       5.566   1.514  -1.749  0.00  0.00     0.027 H 
ATOM     64  H   LIG d   1       3.823   1.621  -1.408  0.00  0.00     0.027 H 
ATOM     65  H   LIG d   1       4.816   0.389  -0.592  0.00  0.00     0.027 H 
ENDBRANCH  14  62
BRANCH  14  66
ATOM     66  C   LIG d   1       2.997   0.232  -3.244  0.00  0.00    -0.025 C 
ATOM     67  H   LIG d   1       2.496   0.998  -2.651  0.00  0.00     0.027 H 
ATOM     68  H   LIG d   1       3.100   0.578  -4.273  0.00  0.00     0.027 H 
ATOM     69  H   LIG d   1       2.408  -0.684  -3.226  0.00  0.00     0.027 H 
ENDBRANCH  14  66
TORSDOF 12
ENDMDL
MODEL 2
REMARK VINA RESULT:      -6.7      5.126      8.089
REMARK  12 active torsions:
REMARK  status: ('A' for Active; 'I' for Inactive)
REMARK    1  A    between atoms: C_1  and  C_2 
REMARK    2  A    between atoms: C_2  and  C_3 
REMARK    3  A    between atoms: C_10  and  O_20 
REMARK    4  A    between atoms: C_16  and  C_18 
REMARK    5  A    between atoms: C_16  and  C_19 
REMARK    6  A    between atoms: O_20  and  C_21 
REMARK    7  A    between atoms: C_21  and  C_22 
REMARK       I    between atoms: C_22  and  N_24 
REMARK    8  A    between atoms: N_24  and  C_25 
REMARK    9  A    between atoms: C_25  and  C_26 
REMARK   10  A    between atoms: C_26  and  C_27 
REMARK   11  A    between atoms: C_34  and  O_37 
REMARK   12  A    between atoms: O_37  and  C_38 
ROOT
ATOM      1  C   LIG d   1       7.168  -5.188  -5.750  0.00  0.00    -0.027 A 
ATOM      2  C   LIG d   1       6.131  -5.990  -6.106  0.00  0.00     0.027 A 
ATOM      3  C   LIG d   1       4.822  -5.657  -5.707  0.00  0.00     0.338 A 
ATOM      4  O   LIG d   1       3.903  -6.386  -6.035  0.00  0.00    -0.245 OA
ATOM      5  O   LIG d   1       4.555  -4.565  -4.980  0.00  0.00    -0.422 OA
ATOM      6  C   LIG d   1       5.563  -3.747  -4.609  0.00  0.00     0.149 A 
ATOM      7  C   LIG d   1       6.888  -4.026  -4.985  0.00  0.00     0.063 A 
ATOM      8  C   LIG d   1       7.925  -3.165  -4.586  0.00  0.00     0.136 A 
ATOM      9  C   LIG d   1       7.628  -2.046  -3.835  0.00  0.00     0.023 A 
ATOM     10  C   LIG d   1       6.311  -1.768  -3.469  0.00  0.00     0.131 A 
ATOM     11  C   LIG d   1       5.285  -2.611  -3.856  0.00  0.00     0.038 A 
ATOM     12  C   LIG d   1       3.851  -2.332  -3.479  0.00  0.00    -0.017 C 
ATOM     13  C   LIG d   1       3.808  -1.330  -2.322  0.00  0.00    -0.009 C 
ATOM     14  C   LIG d   1       4.738  -0.160  -2.664  0.00  0.00     0.105 C 
ATOM     15  O   LIG d   1       6.077  -0.654  -2.726  0.00  0.00    -0.486 OA
ATOM     16  H   LIG d   1       6.309  -6.880  -6.692  0.00  0.00     0.069 H 
ATOM     17  H   LIG d   1       8.423  -1.381  -3.529  0.00  0.00     0.069 H 
ATOM     18  H   LIG d   1       3.369  -3.260  -3.174  0.00  0.00     0.032 H 
ATOM     19  H   LIG d   1       3.327  -1.917  -4.339  0.00  0.00     0.032 H 
ATOM     20  H   LIG d   1       4.145  -1.814  -1.405  0.00  0.00     0.031 H 
ATOM     21  H   LIG d   1       2.789  -0.964  -2.191  0.00  0.00     0.031 H 
ENDROOT
BRANCH   8  22
ATOM     22  O   LIG d   1       9.208  -3.430  -4.940  0.00  0.00    -0.482 OA
BRANCH  22  23
ATOM     23  C   LIG d   1      10.203  -3.290  -3.924  0.00  0.00     0.165 C 
ATOM     24  H   LIG d   1       9.989  -2.405  -3.325  0.00  0.00     0.080 H 
ATOM     25  H   LIG d   1      11.184  -3.187  -4.388  0.00  0.00     0.080 H 
BRANCH  23  26
ATOM     26  C   LIG d   1      10.191  -4.510  -3.040  0.00  0.00     0.251 C 
ATOM     27  O   LIG d   1       9.654  -4.467  -1.953  0.00  0.00    -0.272 OA
ATOM     28  N   LIG d   1      10.778  -5.650  -3.457  0.00  0.00    -0.312 N 
ATOM     29  H   LIG d   1      11.207  -5.685  -4.325  0.00  0.00     0.149 HD
BRANCH  28  30
ATOM     30  C   LIG d   1      10.766  -6.837  -2.597  0.00  0.00     0.016 C 
ATOM     31  H   LIG d   1      10.159  -6.639  -1.713  0.00  0.00     0.046 H 
ATOM     32  H   LIG d   1      11.786  -7.074  -2.292  0.00  0.00     0.046 H 
BRANCH  30  33
ATOM     33  C   LIG d   1      10.176  -8.019  -3.367  0.00  0.00    -0.010 C 
ATOM     34  H   LIG d   1      10.980  -8.690  -3.675  0.00  0.00     0.033 H 
ATOM     35  H   LIG d   1       9.652  -7.653  -4.250  0.00  0.00     0.033 H 
BRANCH  33  36
ATOM     36  C   LIG d   1       9.211  -8.764  -2.483  0.00  0.00    -0.021 A 
ATOM     37  C   LIG d   1       7.846  -9.169  -2.831  0.00  0.00     0.006 A 
ATOM     38  C   LIG d   1       7.336  -9.831  -1.699  0.00  0.00     0.047 A 
ATOM     39  C   LIG d   1       7.053  -9.025  -3.971  0.00  0.00    -0.011 A 
ATOM     40  N   LIG d   1       8.329  -9.821  -0.742  0.00  0.00    -0.360 N 
ATOM     41  C   LIG d   1       6.041 -10.337  -1.727  0.00  0.00    -0.034 A 
ATOM     42  C   LIG d   1       9.436  -9.182  -1.228  0.00  0.00     0.006 A 
ATOM     43  H   LIG d   1       8.253 -10.210   0.144  0.00  0.00     0.165 HD
ATOM     44  H   LIG d   1      10.356  -9.034  -0.682  0.00  0.00     0.081 H 
ATOM     45  C   LIG d   1       5.268 -10.189  -2.857  0.00  0.00    -0.018 A 
ATOM     46  H   LIG d   1       5.640 -10.843  -0.860  0.00  0.00     0.064 H 
ATOM     47  C   LIG d   1       5.769  -9.534  -3.979  0.00  0.00     0.121 A 
ATOM     48  H   LIG d   1       4.263 -10.584  -2.873  0.00  0.00     0.066 H 
ATOM     49  H   LIG d   1       7.441  -8.517  -4.841  0.00  0.00     0.066 H 
BRANCH  47  50
ATOM     50  O   LIG d   1       4.993  -9.397  -5.086  0.00  0.00    -0.495 OA
BRANCH  50  51
ATOM     51  C   LIG d   1       5.597  -9.704  -6.344  0.00  0.00     0.079 C 
ATOM     52  H   LIG d   1       5.907  -8.780  -6.834  0.00  0.00     0.066 H 
ATOM     53  H   LIG d   1       6.468 -10.339  -6.184  0.00  0.00     0.066 H 
ATOM     54  H   LIG d   1       4.878 -10.224  -6.975  0.00  0.00     0.066 H 
ENDBRANCH  50  51
ENDBRANCH  47  50
ENDBRANCH  33  36
ENDBRANCH  30  33
ENDBRANCH  28  30
ENDBRANCH  23  26
ENDBRANCH  22  23
ENDBRANCH   8  22
BRANCH   1  55
ATOM     55  C   LIG d   1       8.579  -5.520  -6.162  0.00  0.00    -0.029 C 
ATOM     56  H   LIG d   1       8.874  -4.883  -6.996  0.00  0.00     0.031 H 
ATOM     57  H   LIG d   1       9.252  -5.351  -5.321  0.00  0.00     0.031 H 
BRANCH  55  58
ATOM     58  C   LIG d   1       8.655  -6.987  -6.590  0.00  0.00    -0.061 C 
ATOM     59  H   LIG d   1       7.956  -7.164  -7.407  0.00  0.00     0.023 H 
ATOM     60  H   LIG d   1       9.668  -7.216  -6.922  0.00  0.00     0.023 H 
ATOM     61  H   LIG d   1       8.397  -7.625  -5.745  0.00  0.00     0.023 H 
ENDBRANCH  55  58
ENDBRANCH   1  55
BRANCH  14  62
ATOM     62  C   LIG d   1       4.635   0.914  -1.580  0.00  0.00    -0.025 C 
ATOM     63  H   LIG d   1       5.212   0.605  -0.707  0.00  0.00     0.027 H 
ATOM     64  H   LIG d   1       5.030   1.855  -1.961  0.00  0.00     0.027 H 
ATOM     65  H   LIG d   1       3.591   1.045  -1.296  0.00  0.00     0.027 H 
ENDBRANCH  14  62
BRANCH  14  66
ATOM     66  C   LIG d   1       4.345   0.433  -4.019  0.00  0.00    -0.025 C 
ATOM     67  H   LIG d   1       5.022   0.063  -4.788  0.00  0.00     0.027 H 
ATOM     68  H   LIG d   1       3.324   0.139  -4.260  0.00  0.00     0.027 H 
ATOM     69  H   LIG d   1       4.408   1.520  -3.971  0.00  0.00     0.027 H 
ENDBRANCH  14  66
TORSDOF 12
ENDMDL
MODEL 3
REMARK VINA RESULT:      -6.6      1.917      4.145
REMARK  12 active torsions:
REMARK  status: ('A' for Active; 'I' for Inactive)
REMARK    1  A    between atoms: C_1  and  C_2 
REMARK    2  A    between atoms: C_2  and  C_3 
REMARK    3  A    between atoms: C_10  and  O_20 
REMARK    4  A    between atoms: C_16  and  C_18 
REMARK    5  A    between atoms: C_16  and  C_19 
REMARK    6  A    between atoms: O_20  and  C_21 
REMARK    7  A    between atoms: C_21  and  C_22 
REMARK       I    between atoms: C_22  and  N_24 
REMARK    8  A    between atoms: N_24  and  C_25 
REMARK    9  A    between atoms: C_25  and  C_26 
REMARK   10  A    between atoms: C_26  and  C_27 
REMARK   11  A    between atoms: C_34  and  O_37 
REMARK   12  A    between atoms: O_37  and  C_38 
ROOT
ATOM      1  C   LIG d   1       4.332  -3.912  -7.894  0.00  0.00    -0.027 A 
ATOM      2  C   LIG d   1       4.327  -5.197  -7.453  0.00  0.00     0.027 A 
ATOM      3  C   LIG d   1       4.351  -5.461  -6.071  0.00  0.00     0.338 A 
ATOM      4  O   LIG d   1       4.346  -6.619  -5.692  0.00  0.00    -0.245 OA
ATOM      5  O   LIG d   1       4.379  -4.482  -5.159  0.00  0.00    -0.422 OA
ATOM      6  C   LIG d   1       4.384  -3.194  -5.562  0.00  0.00     0.149 A 
ATOM      7  C   LIG d   1       4.354  -2.871  -6.929  0.00  0.00     0.063 A 
ATOM      8  C   LIG d   1       4.365  -1.524  -7.331  0.00  0.00     0.136 A 
ATOM      9  C   LIG d   1       4.395  -0.530  -6.375  0.00  0.00     0.023 A 
ATOM     10  C   LIG d   1       4.418  -0.853  -5.017  0.00  0.00     0.131 A 
ATOM     11  C   LIG d   1       4.410  -2.176  -4.614  0.00  0.00     0.038 A 
ATOM     12  C   LIG d   1       4.428  -2.555  -3.154  0.00  0.00    -0.017 C 
ATOM     13  C   LIG d   1       4.892  -1.360  -2.317  0.00  0.00    -0.009 C 
ATOM     14  C   LIG d   1       4.102  -0.124  -2.765  0.00  0.00     0.105 C 
ATOM     15  O   LIG d   1       4.450   0.166  -4.118  0.00  0.00    -0.486 OA
ATOM     16  H   LIG d   1       4.307  -6.014  -8.161  0.00  0.00     0.069 H 
ATOM     17  H   LIG d   1       4.401   0.506  -6.679  0.00  0.00     0.069 H 
ATOM     18  H   LIG d   1       5.112  -3.390  -3.004  0.00  0.00     0.032 H 
ATOM     19  H   LIG d   1       3.425  -2.848  -2.844  0.00  0.00     0.032 H 
ATOM     20  H   LIG d   1       5.958  -1.193  -2.474  0.00  0.00     0.031 H 
ATOM     21  H   LIG d   1       4.702  -1.555  -1.261  0.00  0.00     0.031 H 
ENDROOT
BRANCH   8  22
ATOM     22  O   LIG d   1       4.341  -1.203  -8.649  0.00  0.00    -0.482 OA
BRANCH  22  23
ATOM     23  C   LIG d   1       3.928   0.123  -8.987  0.00  0.00     0.165 C 
ATOM     24  H   LIG d   1       3.450   0.585  -8.124  0.00  0.00     0.080 H 
ATOM     25  H   LIG d   1       3.223   0.084  -9.817  0.00  0.00     0.080 H 
BRANCH  23  26
ATOM     26  C   LIG d   1       5.132   0.936  -9.389  0.00  0.00     0.251 C 
ATOM     27  O   LIG d   1       5.402   1.082 -10.562  0.00  0.00    -0.272 OA
ATOM     28  N   LIG d   1       5.909   1.502  -8.444  0.00  0.00    -0.312 N 
ATOM     29  H   LIG d   1       5.694   1.385  -7.505  0.00  0.00     0.149 HD
BRANCH  28  30
ATOM     30  C   LIG d   1       7.079   2.292  -8.834  0.00  0.00     0.016 C 
ATOM     31  H   LIG d   1       7.077   3.237  -8.291  0.00  0.00     0.046 H 
ATOM     32  H   LIG d   1       7.043   2.489  -9.906  0.00  0.00     0.046 H 
BRANCH  30  33
ATOM     33  C   LIG d   1       8.354   1.515  -8.501  0.00  0.00    -0.010 C 
ATOM     34  H   LIG d   1       9.220   2.167  -8.625  0.00  0.00     0.033 H 
ATOM     35  H   LIG d   1       8.445   0.661  -9.173  0.00  0.00     0.033 H 
BRANCH  33  36
ATOM     36  C   LIG d   1       8.289   1.030  -7.077  0.00  0.00    -0.021 A 
ATOM     37  C   LIG d   1       8.152  -0.362  -6.636  0.00  0.00     0.006 A 
ATOM     38  C   LIG d   1       8.136  -0.325  -5.231  0.00  0.00     0.047 A 
ATOM     39  C   LIG d   1       8.046  -1.583  -7.304  0.00  0.00    -0.011 A 
ATOM     40  N   LIG d   1       8.256   0.998  -4.858  0.00  0.00    -0.360 N 
ATOM     41  C   LIG d   1       8.014  -1.511  -4.516  0.00  0.00    -0.034 A 
ATOM     42  C   LIG d   1       8.346   1.788  -5.971  0.00  0.00     0.006 A 
ATOM     43  H   LIG d   1       8.274   1.320  -3.943  0.00  0.00     0.165 HD
ATOM     44  H   LIG d   1       8.446   2.863  -5.962  0.00  0.00     0.081 H 
ATOM     45  C   LIG d   1       7.910  -2.711  -5.184  0.00  0.00    -0.018 A 
ATOM     46  H   LIG d   1       7.996  -1.491  -3.435  0.00  0.00     0.064 H 
ATOM     47  C   LIG d   1       7.925  -2.751  -6.575  0.00  0.00     0.121 A 
ATOM     48  H   LIG d   1       7.815  -3.629  -4.623  0.00  0.00     0.066 H 
ATOM     49  H   LIG d   1       8.057  -1.615  -8.383  0.00  0.00     0.066 H 
BRANCH  47  50
ATOM     50  O   LIG d   1       7.822  -3.943  -7.220  0.00  0.00    -0.495 OA
BRANCH  50  51
ATOM     51  C   LIG d   1       8.051  -5.122  -6.445  0.00  0.00     0.079 C 
ATOM     52  H   LIG d   1       7.269  -5.218  -5.691  0.00  0.00     0.066 H 
ATOM     53  H   LIG d   1       8.035  -5.995  -7.097  0.00  0.00     0.066 H 
ATOM     54  H   LIG d   1       9.021  -5.051  -5.955  0.00  0.00     0.066 H 
ENDBRANCH  50  51
ENDBRANCH  47  50
ENDBRANCH  33  36
ENDBRANCH  30  33
ENDBRANCH  28  30
ENDBRANCH  23  26
ENDBRANCH  22  23
ENDBRANCH   8  22
BRANCH   1  55
ATOM     55  C   LIG d   1       4.308  -3.599  -9.367  0.00  0.00    -0.029 C 
ATOM     56  H   LIG d   1       4.383  -2.521  -9.512  0.00  0.00     0.031 H 
ATOM     57  H   LIG d   1       5.150  -4.090  -9.857  0.00  0.00     0.031 H 
BRANCH  55  58
ATOM     58  C   LIG d   1       2.999  -4.105  -9.976  0.00  0.00    -0.061 C 
ATOM     59  H   LIG d   1       3.210  -4.921 -10.667  0.00  0.00     0.023 H 
ATOM     60  H   LIG d   1       2.343  -4.462  -9.181  0.00  0.00     0.023 H 
ATOM     61  H   LIG d   1       2.510  -3.292 -10.512  0.00  0.00     0.023 H 
ENDBRANCH  55  58
ENDBRANCH   1  55
BRANCH  14  62
ATOM     62  C   LIG d   1       4.460   1.066  -1.874  0.00  0.00    -0.025 C 
ATOM     63  H   LIG d   1       3.558   1.639  -1.653  0.00  0.00     0.027 H 
ATOM     64  H   LIG d   1       4.897   0.706  -0.943  0.00  0.00     0.027 H 
ATOM     65  H   LIG d   1       5.177   1.705  -2.390  0.00  0.00     0.027 H 
ENDBRANCH  14  62
BRANCH  14  66
ATOM     66  C   LIG d   1       2.601  -0.408  -2.669  0.00  0.00    -0.025 C 
ATOM     67  H   LIG d   1       2.068   0.520  -2.463  0.00  0.00     0.027 H 
ATOM     68  H   LIG d   1       2.251  -0.828  -3.612  0.00  0.00     0.027 H 
ATOM     69  H   LIG d   1       2.416  -1.119  -1.863  0.00  0.00     0.027 H 
ENDBRANCH  14  66
TORSDOF 12
ENDMDL
MODEL 4
REMARK VINA RESULT:      -6.4      1.743      2.735
REMARK  12 active torsions:
REMARK  status: ('A' for Active; 'I' for Inactive)
REMARK    1  A    between atoms: C_1  and  C_2 
REMARK    2  A    between atoms: C_2  and  C_3 
REMARK    3  A    between atoms: C_10  and  O_20 
REMARK    4  A    between atoms: C_16  and  C_18 
REMARK    5  A    between atoms: C_16  and  C_19 
REMARK    6  A    between atoms: O_20  and  C_21 
REMARK    7  A    between atoms: C_21  and  C_22 
REMARK       I    between atoms: C_22  and  N_24 
REMARK    8  A    between atoms: N_24  and  C_25 
REMARK    9  A    between atoms: C_25  and  C_26 
REMARK   10  A    between atoms: C_26  and  C_27 
REMARK   11  A    between atoms: C_34  and  O_37 
REMARK   12  A    between atoms: O_37  and  C_38 
ROOT
ATOM      1  C   LIG d   1       5.207  -3.722  -7.772  0.00  0.00    -0.027 A 
ATOM      2  C   LIG d   1       4.790  -4.983  -7.482  0.00  0.00     0.027 A 
ATOM      3  C   LIG d   1       4.338  -5.287  -6.184  0.00  0.00     0.338 A 
ATOM      4  O   LIG d   1       3.967  -6.422  -5.940  0.00  0.00    -0.245 OA
ATOM      5  O   LIG d   1       4.303  -4.371  -5.208  0.00  0.00    -0.422 OA
ATOM      6  C   LIG d   1       4.710  -3.109  -5.463  0.00  0.00     0.149 A 
ATOM      7  C   LIG d   1       5.164  -2.747  -6.742  0.00  0.00     0.063 A 
ATOM      8  C   LIG d   1       5.588  -1.429  -6.987  0.00  0.00     0.136 A 
ATOM      9  C   LIG d   1       5.545  -0.501  -5.967  0.00  0.00     0.023 A 
ATOM     10  C   LIG d   1       5.087  -0.861  -4.700  0.00  0.00     0.131 A 
ATOM     11  C   LIG d   1       4.670  -2.156  -4.450  0.00  0.00     0.038 A 
ATOM     12  C   LIG d   1       4.165  -2.573  -3.091  0.00  0.00    -0.017 C 
ATOM     13  C   LIG d   1       4.604  -1.549  -2.041  0.00  0.00    -0.009 C 
ATOM     14  C   LIG d   1       4.274  -0.147  -2.570  0.00  0.00     0.105 C 
ATOM     15  O   LIG d   1       5.069   0.092  -3.732  0.00  0.00    -0.486 OA
ATOM     16  H   LIG d   1       4.806  -5.749  -8.244  0.00  0.00     0.069 H 
ATOM     17  H   LIG d   1       5.868   0.513  -6.153  0.00  0.00     0.069 H 
ATOM     18  H   LIG d   1       4.572  -3.551  -2.837  0.00  0.00     0.032 H 
ATOM     19  H   LIG d   1       3.077  -2.628  -3.112  0.00  0.00     0.032 H 
ATOM     20  H   LIG d   1       5.677  -1.635  -1.870  0.00  0.00     0.031 H 
ATOM     21  H   LIG d   1       4.067  -1.726  -1.108  0.00  0.00     0.031 H 
ENDROOT
BRANCH   8  22
ATOM     22  O   LIG d   1       6.034  -1.072  -8.218  0.00  0.00    -0.482 OA
BRANCH  22  23
ATOM     23  C   LIG d   1       6.114   0.327  -8.497  0.00  0.00     0.165 C 
ATOM     24  H   LIG d   1       7.002   0.527  -9.097  0.00  0.00     0.080 H 
ATOM     25  H   LIG d   1       6.174   0.882  -7.561  0.00  0.00     0.080 H 
BRANCH  23  26
ATOM     26  C   LIG d   1       4.887   0.758  -9.259  0.00  0.00     0.251 C 
ATOM     27  O   LIG d   1       4.987   1.541 -10.179  0.00  0.00    -0.272 OA
ATOM     28  N   LIG d   1       3.677   0.272  -8.917  0.00  0.00    -0.312 N 
ATOM     29  H   LIG d   1       3.596  -0.355  -8.181  0.00  0.00     0.149 HD
BRANCH  28  30
ATOM     30  C   LIG d   1       2.483   0.690  -9.657  0.00  0.00     0.016 C 
ATOM     31  H   LIG d   1       2.784   1.208 -10.568  0.00  0.00     0.046 H 
ATOM     32  H   LIG d   1       1.889   1.361  -9.037  0.00  0.00     0.046 H 
BRANCH  30  33
ATOM     33  C   LIG d   1       1.651  -0.540 -10.020  0.00  0.00    -0.010 C 
ATOM     34  H   LIG d   1       0.704  -0.223 -10.459  0.00  0.00     0.033 H 
ATOM     35  H   LIG d   1       1.455  -1.125  -9.121  0.00  0.00     0.033 H 
BRANCH  33  36
ATOM     36  C   LIG d   1       2.407  -1.384 -11.013  0.00  0.00    -0.021 A 
ATOM     37  C   LIG d   1       2.571  -2.840 -10.973  0.00  0.00     0.006 A 
ATOM     38  C   LIG d   1       3.348  -3.175 -12.097  0.00  0.00     0.047 A 
ATOM     39  C   LIG d   1       2.133  -3.841 -10.103  0.00  0.00    -0.011 A 
ATOM     40  N   LIG d   1       3.627  -1.999 -12.762  0.00  0.00    -0.360 N 
ATOM     41  C   LIG d   1       3.674  -4.506 -12.331  0.00  0.00    -0.034 A 
ATOM     42  C   LIG d   1       3.059  -0.945 -12.101  0.00  0.00     0.006 A 
ATOM     43  H   LIG d   1       4.150  -1.931 -13.576  0.00  0.00     0.165 HD
ATOM     44  H   LIG d   1       3.126   0.088 -12.408  0.00  0.00     0.081 H 
ATOM     45  C   LIG d   1       3.238  -5.485 -11.467  0.00  0.00    -0.018 A 
ATOM     46  H   LIG d   1       4.274  -4.771 -13.190  0.00  0.00     0.064 H 
ATOM     47  C   LIG d   1       2.469  -5.157 -10.354  0.00  0.00     0.121 A 
ATOM     48  H   LIG d   1       3.494  -6.518 -11.654  0.00  0.00     0.066 H 
ATOM     49  H   LIG d   1       1.538  -3.587  -9.239  0.00  0.00     0.066 H 
BRANCH  47  50
ATOM     50  O   LIG d   1       2.046  -6.135  -9.510  0.00  0.00    -0.495 OA
BRANCH  50  51
ATOM     51  C   LIG d   1       1.533  -7.329 -10.106  0.00  0.00     0.079 C 
ATOM     52  H   LIG d   1       1.375  -8.082  -9.333  0.00  0.00     0.066 H 
ATOM     53  H   LIG d   1       0.585  -7.111 -10.599  0.00  0.00     0.066 H 
ATOM     54  H   LIG d   1       2.246  -7.705 -10.838  0.00  0.00     0.066 H 
ENDBRANCH  50  51
ENDBRANCH  47  50
ENDBRANCH  33  36
ENDBRANCH  30  33
ENDBRANCH  28  30
ENDBRANCH  23  26
ENDBRANCH  22  23
ENDBRANCH   8  22
BRANCH   1  55
ATOM     55  C   LIG d   1       5.697  -3.368  -9.152  0.00  0.00    -0.029 C 
ATOM     56  H   LIG d   1       4.846  -3.125  -9.788  0.00  0.00     0.031 H 
ATOM     57  H   LIG d   1       6.363  -2.507  -9.090  0.00  0.00     0.031 H 
BRANCH  55  58
ATOM     58  C   LIG d   1       6.455  -4.557  -9.746  0.00  0.00    -0.061 C 
ATOM     59  H   LIG d   1       7.522  -4.332  -9.771  0.00  0.00     0.023 H 
ATOM     60  H   LIG d   1       6.284  -5.441  -9.131  0.00  0.00     0.023 H 
ATOM     61  H   LIG d   1       6.100  -4.744 -10.758  0.00  0.00     0.023 H 
ENDBRANCH  55  58
ENDBRANCH   1  55
BRANCH  14  62
ATOM     62  C   LIG d   1       4.598   0.896  -1.499  0.00  0.00    -0.025 C 
ATOM     63  H   LIG d   1       3.684   1.172  -0.972  0.00  0.00     0.027 H 
ATOM     64  H   LIG d   1       5.313   0.480  -0.791  0.00  0.00     0.027 H 
ATOM     65  H   LIG d   1       5.025   1.781  -1.971  0.00  0.00     0.027 H 
ENDBRANCH  14  62
BRANCH  14  66
ATOM     66  C   LIG d   1       2.791  -0.069  -2.936  0.00  0.00    -0.025 C 
ATOM     67  H   LIG d   1       2.453  -1.042  -3.294  0.00  0.00     0.027 H 
ATOM     68  H   LIG d   1       2.215   0.214  -2.055  0.00  0.00     0.027 H 
ATOM     69  H   LIG d   1       2.648   0.675  -3.719  0.00  0.00     0.027 H 
ENDBRANCH  14  66
TORSDOF 12
ENDMDL
MODEL 5
REMARK VINA RESULT:      -6.3      4.639      9.368
REMARK  12 active torsions:
REMARK  status: ('A' for Active; 'I' for Inactive)
REMARK    1  A    between atoms: C_1  and  C_2 
REMARK    2  A    between atoms: C_2  and  C_3 
REMARK    3  A    between atoms: C_10  and  O_20 
REMARK    4  A    between atoms: C_16  and  C_18 
REMARK    5  A    between atoms: C_16  and  C_19 
REMARK    6  A    between atoms: O_20  and  C_21 
REMARK    7  A    between atoms: C_21  and  C_22 
REMARK       I    between atoms: C_22  and  N_24 
REMARK    8  A    between atoms: N_24  and  C_25 
REMARK    9  A    between atoms: C_25  and  C_26 
REMARK   10  A    between atoms: C_26  and  C_27 
REMARK   11  A    between atoms: C_34  and  O_37 
REMARK   12  A    between atoms: O_37  and  C_38 
ROOT
ATOM      1  C   LIG d   1       4.086  -1.036  -4.236  0.00  0.00    -0.027 A 
ATOM      2  C   LIG d   1       3.658   0.116  -3.657  0.00  0.00     0.027 A 
ATOM      3  C   LIG d   1       3.149   1.154  -4.461  0.00  0.00     0.338 A 
ATOM      4  O   LIG d   1       2.770   2.181  -3.927  0.00  0.00    -0.245 OA
ATOM      5  O   LIG d   1       3.069   1.050  -5.793  0.00  0.00    -0.422 OA
ATOM      6  C   LIG d   1       3.485  -0.082  -6.400  0.00  0.00     0.149 A 
ATOM      7  C   LIG d   1       3.995  -1.153  -5.648  0.00  0.00     0.063 A 
ATOM      8  C   LIG d   1       4.428  -2.322  -6.298  0.00  0.00     0.136 A 
ATOM      9  C   LIG d   1       4.338  -2.409  -7.672  0.00  0.00     0.023 A 
ATOM     10  C   LIG d   1       3.824  -1.346  -8.416  0.00  0.00     0.131 A 
ATOM     11  C   LIG d   1       3.398  -0.192  -7.785  0.00  0.00     0.038 A 
ATOM     12  C   LIG d   1       2.834   0.970  -8.563  0.00  0.00    -0.017 C 
ATOM     13  C   LIG d   1       3.224   0.841 -10.038  0.00  0.00    -0.009 C 
ATOM     14  C   LIG d   1       2.916  -0.591 -10.493  0.00  0.00     0.105 C 
ATOM     15  O   LIG d   1       3.761  -1.484  -9.767  0.00  0.00    -0.486 OA
ATOM     16  H   LIG d   1       3.709   0.237  -2.585  0.00  0.00     0.069 H 
ATOM     17  H   LIG d   1       4.667  -3.307  -8.174  0.00  0.00     0.069 H 
ATOM     18  H   LIG d   1       3.231   1.903  -8.163  0.00  0.00     0.032 H 
ATOM     19  H   LIG d   1       1.748   0.971  -8.474  0.00  0.00     0.032 H 
ATOM     20  H   LIG d   1       4.289   1.044 -10.156  0.00  0.00     0.031 H 
ATOM     21  H   LIG d   1       2.647   1.548 -10.635  0.00  0.00     0.031 H 
ENDROOT
BRANCH   8  22
ATOM     22  O   LIG d   1       4.927  -3.360  -5.579  0.00  0.00    -0.482 OA
BRANCH  22  23
ATOM     23  C   LIG d   1       5.526  -4.429  -6.314  0.00  0.00     0.165 C 
ATOM     24  H   LIG d   1       6.591  -4.472  -6.088  0.00  0.00     0.080 H 
ATOM     25  H   LIG d   1       5.386  -4.259  -7.382  0.00  0.00     0.080 H 
BRANCH  23  26
ATOM     26  C   LIG d   1       4.876  -5.731  -5.923  0.00  0.00     0.251 C 
ATOM     27  O   LIG d   1       3.946  -5.736  -5.145  0.00  0.00    -0.272 OA
ATOM     28  N   LIG d   1       5.329  -6.891  -6.439  0.00  0.00    -0.312 N 
ATOM     29  H   LIG d   1       6.072  -6.887  -7.062  0.00  0.00     0.149 HD
BRANCH  28  30
ATOM     30  C   LIG d   1       4.697  -8.158  -6.060  0.00  0.00     0.016 C 
ATOM     31  H   LIG d   1       4.081  -8.518  -6.884  0.00  0.00     0.046 H 
ATOM     32  H   LIG d   1       4.073  -8.003  -5.180  0.00  0.00     0.046 H 
BRANCH  30  33
ATOM     33  C   LIG d   1       5.779  -9.192  -5.742  0.00  0.00    -0.010 C 
ATOM     34  H   LIG d   1       6.747  -8.695  -5.673  0.00  0.00     0.033 H 
ATOM     35  H   LIG d   1       5.810  -9.940  -6.534  0.00  0.00     0.033 H 
BRANCH  33  36
ATOM     36  C   LIG d   1       5.464  -9.862  -4.430  0.00  0.00    -0.021 A 
ATOM     37  C   LIG d   1       6.351  -9.960  -3.267  0.00  0.00     0.006 A 
ATOM     38  C   LIG d   1       5.631 -10.668  -2.287  0.00  0.00     0.047 A 
ATOM     39  C   LIG d   1       7.647  -9.518  -2.997  0.00  0.00    -0.011 A 
ATOM     40  N   LIG d   1       4.398 -10.970  -2.829  0.00  0.00    -0.360 N 
ATOM     41  C   LIG d   1       6.220 -10.922  -1.054  0.00  0.00    -0.034 A 
ATOM     42  C   LIG d   1       4.319 -10.482  -4.104  0.00  0.00     0.006 A 
ATOM     43  H   LIG d   1       3.694 -11.457  -2.373  0.00  0.00     0.165 HD
ATOM     44  H   LIG d   1       3.462 -10.582  -4.753  0.00  0.00     0.081 H 
ATOM     45  C   LIG d   1       7.500 -10.481  -0.798  0.00  0.00    -0.018 A 
ATOM     46  H   LIG d   1       5.676 -11.468  -0.298  0.00  0.00     0.064 H 
ATOM     47  C   LIG d   1       8.215  -9.781  -1.766  0.00  0.00     0.121 A 
ATOM     48  H   LIG d   1       7.953 -10.681   0.162  0.00  0.00     0.066 H 
ATOM     49  H   LIG d   1       8.203  -8.975  -3.747  0.00  0.00     0.066 H 
BRANCH  47  50
ATOM     50  O   LIG d   1       9.477  -9.353  -1.498  0.00  0.00    -0.495 OA
BRANCH  50  51
ATOM     51  C   LIG d   1      10.193 -10.045  -0.472  0.00  0.00     0.079 C 
ATOM     52  H   LIG d   1      11.248  -9.777  -0.521  0.00  0.00     0.066 H 
ATOM     53  H   LIG d   1       9.792  -9.767   0.502  0.00  0.00     0.066 H 
ATOM     54  H   LIG d   1      10.085 -11.120  -0.616  0.00  0.00     0.066 H 
ENDBRANCH  50  51
ENDBRANCH  47  50
ENDBRANCH  33  36
ENDBRANCH  30  33
ENDBRANCH  28  30
ENDBRANCH  23  26
ENDBRANCH  22  23
ENDBRANCH   8  22
BRANCH   1  55
ATOM     55  C   LIG d   1       4.636  -2.163  -3.402  0.00  0.00    -0.029 C 
ATOM     56  H   LIG d   1       4.215  -3.109  -3.744  0.00  0.00     0.031 H 
ATOM     57  H   LIG d   1       5.721  -2.192  -3.500  0.00  0.00     0.031 H 
BRANCH  55  58
ATOM     58  C   LIG d   1       4.264  -1.941  -1.934  0.00  0.00    -0.061 C 
ATOM     59  H   LIG d   1       4.321  -2.888  -1.397  0.00  0.00     0.023 H 
ATOM     60  H   LIG d   1       4.957  -1.227  -1.488  0.00  0.00     0.023 H 
ATOM     61  H   LIG d   1       3.249  -1.549  -1.872  0.00  0.00     0.023 H 
ENDBRANCH  55  58
ENDBRANCH   1  55
BRANCH  14  62
ATOM     62  C   LIG d   1       3.190  -0.726 -11.992  0.00  0.00    -0.025 C 
ATOM     63  H   LIG d   1       3.508   0.238 -12.391  0.00  0.00     0.027 H 
ATOM     64  H   LIG d   1       3.977  -1.462 -12.153  0.00  0.00     0.027 H 
ATOM     65  H   LIG d   1       2.281  -1.046 -12.500  0.00  0.00     0.027 H 
ENDBRANCH  14  62
BRANCH  14  66
ATOM     66  C   LIG d   1       1.450  -0.921 -10.204  0.00  0.00    -0.025 C 
ATOM     67  H   LIG d   1       0.869  -0.827 -11.121  0.00  0.00     0.027 H 
ATOM     68  H   LIG d   1       1.375  -1.941  -9.828  0.00  0.00     0.027 H 
ATOM     69  H   LIG d   1       1.063  -0.228  -9.457  0.00  0.00     0.027 H 
ENDBRANCH  14  66
TORSDOF 12
ENDMDL
MODEL 6
REMARK VINA RESULT:      -6.3      2.492      6.826
REMARK  12 active torsions:
REMARK  status: ('A' for Active; 'I' for Inactive)
REMARK    1  A    between atoms: C_1  and  C_2 
REMARK    2  A    between atoms: C_2  and  C_3 
REMARK    3  A    between atoms: C_10  and  O_20 
REMARK    4  A    between atoms: C_16  and  C_18 
REMARK    5  A    between atoms: C_16  and  C_19 
REMARK    6  A    between atoms: O_20  and  C_21 
REMARK    7  A    between atoms: C_21  and  C_22 
REMARK       I    between atoms: C_22  and  N_24 
REMARK    8  A    between atoms: N_24  and  C_25 
REMARK    9  A    between atoms: C_25  and  C_26 
REMARK   10  A    between atoms: C_26  and  C_27 
REMARK   11  A    between atoms: C_34  and  O_37 
REMARK   12  A    between atoms: O_37  and  C_38 
ROOT
ATOM      1  C   LIG d   1       3.859  -0.976  -4.267  0.00  0.00    -0.027 A 
ATOM      2  C   LIG d   1       3.449   0.194  -3.710  0.00  0.00     0.027 A 
ATOM      3  C   LIG d   1       3.009   1.245  -4.536  0.00  0.00     0.338 A 
ATOM      4  O   LIG d   1       2.645   2.287  -4.021  0.00  0.00    -0.245 OA
ATOM      5  O   LIG d   1       2.977   1.137  -5.870  0.00  0.00    -0.422 OA
ATOM      6  C   LIG d   1       3.377  -0.012  -6.457  0.00  0.00     0.149 A 
ATOM      7  C   LIG d   1       3.820  -1.096  -5.681  0.00  0.00     0.063 A 
ATOM      8  C   LIG d   1       4.237  -2.282  -6.309  0.00  0.00     0.136 A 
ATOM      9  C   LIG d   1       4.198  -2.373  -7.685  0.00  0.00     0.023 A 
ATOM     10  C   LIG d   1       3.752  -1.297  -8.453  0.00  0.00     0.131 A 
ATOM     11  C   LIG d   1       3.342  -0.125  -7.843  0.00  0.00     0.038 A 
ATOM     12  C   LIG d   1       2.849   1.052  -8.647  0.00  0.00    -0.017 C 
ATOM     13  C   LIG d   1       3.293   0.903 -10.105  0.00  0.00    -0.009 C 
ATOM     14  C   LIG d   1       2.954  -0.520 -10.567  0.00  0.00     0.105 C 
ATOM     15  O   LIG d   1       3.738  -1.439  -9.805  0.00  0.00    -0.486 OA
ATOM     16  H   LIG d   1       3.462   0.317  -2.636  0.00  0.00     0.069 H 
ATOM     17  H   LIG d   1       4.515  -3.284  -8.171  0.00  0.00     0.069 H 
ATOM     18  H   LIG d   1       3.263   1.972  -8.235  0.00  0.00     0.032 H 
ATOM     19  H   LIG d   1       1.761   1.091  -8.601  0.00  0.00     0.032 H 
ATOM     20  H   LIG d   1       4.368   1.068 -10.181  0.00  0.00     0.031 H 
ATOM     21  H   LIG d   1       2.765   1.627 -10.726  0.00  0.00     0.031 H 
ENDROOT
BRANCH   8  22
ATOM     22  O   LIG d   1       4.671  -3.333  -5.568  0.00  0.00    -0.482 OA
BRANCH  22  23
ATOM     23  C   LIG d   1       4.677  -4.614  -6.200  0.00  0.00     0.165 C 
ATOM     24  H   LIG d   1       4.225  -4.534  -7.188  0.00  0.00     0.080 H 
ATOM     25  H   LIG d   1       4.108  -5.321  -5.596  0.00  0.00     0.080 H 
BRANCH  23  26
ATOM     26  C   LIG d   1       6.097  -5.100  -6.336  0.00  0.00     0.251 C 
ATOM     27  O   LIG d   1       6.527  -5.941  -5.575  0.00  0.00    -0.272 OA
ATOM     28  N   LIG d   1       6.891  -4.599  -7.304  0.00  0.00    -0.312 N 
ATOM     29  H   LIG d   1       6.547  -3.927  -7.913  0.00  0.00     0.149 HD
BRANCH  28  30
ATOM     30  C   LIG d   1       8.272  -5.071  -7.436  0.00  0.00     0.016 C 
ATOM     31  H   LIG d   1       8.408  -5.526  -8.417  0.00  0.00     0.046 H 
ATOM     32  H   LIG d   1       8.479  -5.809  -6.661  0.00  0.00     0.046 H 
BRANCH  30  33
ATOM     33  C   LIG d   1       9.231  -3.889  -7.285  0.00  0.00    -0.010 C 
ATOM     34  H   LIG d   1       9.133  -3.228  -8.147  0.00  0.00     0.033 H 
ATOM     35  H   LIG d   1      10.255  -4.258  -7.226  0.00  0.00     0.033 H 
BRANCH  33  36
ATOM     36  C   LIG d   1       8.897  -3.128  -6.028  0.00  0.00    -0.021 A 
ATOM     37  C   LIG d   1       8.222  -1.830  -5.949  0.00  0.00     0.006 A 
ATOM     38  C   LIG d   1       8.132  -1.521  -4.579  0.00  0.00     0.047 A 
ATOM     39  C   LIG d   1       7.709  -0.945  -6.899  0.00  0.00    -0.011 A 
ATOM     40  N   LIG d   1       8.714  -2.564  -3.889  0.00  0.00    -0.360 N 
ATOM     41  C   LIG d   1       7.530  -0.332  -4.184  0.00  0.00    -0.034 A 
ATOM     42  C   LIG d   1       9.163  -3.510  -4.769  0.00  0.00     0.006 A 
ATOM     43  H   LIG d   1       8.792  -2.618  -2.924  0.00  0.00     0.165 HD
ATOM     44  H   LIG d   1       9.659  -4.428  -4.492  0.00  0.00     0.081 H 
ATOM     45  C   LIG d   1       7.027   0.534  -5.129  0.00  0.00    -0.018 A 
ATOM     46  H   LIG d   1       7.461  -0.085  -3.134  0.00  0.00     0.064 H 
ATOM     47  C   LIG d   1       7.115   0.231  -6.486  0.00  0.00     0.121 A 
ATOM     48  H   LIG d   1       6.561   1.456  -4.816  0.00  0.00     0.066 H 
ATOM     49  H   LIG d   1       7.777  -1.179  -7.951  0.00  0.00     0.066 H 
BRANCH  47  50
ATOM     50  O   LIG d   1       6.613   1.096  -7.406  0.00  0.00    -0.495 OA
BRANCH  50  51
ATOM     51  C   LIG d   1       7.552   1.740  -8.271  0.00  0.00     0.079 C 
ATOM     52  H   LIG d   1       7.977   1.006  -8.956  0.00  0.00     0.066 H 
ATOM     53  H   LIG d   1       7.047   2.519  -8.842  0.00  0.00     0.066 H 
ATOM     54  H   LIG d   1       8.349   2.184  -7.676  0.00  0.00     0.066 H 
ENDBRANCH  50  51
ENDBRANCH  47  50
ENDBRANCH  33  36
ENDBRANCH  30  33
ENDBRANCH  28  30
ENDBRANCH  23  26
ENDBRANCH  22  23
ENDBRANCH   8  22
BRANCH   1  55
ATOM     55  C   LIG d   1       4.336  -2.118  -3.408  0.00  0.00    -0.029 C 
ATOM     56  H   LIG d   1       3.659  -2.964  -3.519  0.00  0.00     0.031 H 
ATOM     57  H   LIG d   1       5.339  -2.411  -3.718  0.00  0.00     0.031 H 
BRANCH  55  58
ATOM     58  C   LIG d   1       4.364  -1.677  -1.942  0.00  0.00    -0.061 C 
ATOM     59  H   LIG d   1       4.324  -2.555  -1.298  0.00  0.00     0.023 H 
ATOM     60  H   LIG d   1       5.284  -1.124  -1.747  0.00  0.00     0.023 H 
ATOM     61  H   LIG d   1       3.506  -1.037  -1.739  0.00  0.00     0.023 H 
ENDBRANCH  55  58
ENDBRANCH   1  55
BRANCH  14  62
ATOM     62  C   LIG d   1       3.282  -0.671 -12.053  0.00  0.00    -0.025 C 
ATOM     63  H   LIG d   1       2.403  -1.038 -12.584  0.00  0.00     0.027 H 
ATOM     64  H   LIG d   1       3.574   0.296 -12.461  0.00  0.00     0.027 H 
ATOM     65  H   LIG d   1       4.100  -1.381 -12.174  0.00  0.00     0.027 H 
ENDBRANCH  14  62
BRANCH  14  66
ATOM     66  C   LIG d   1       1.466  -0.797 -10.335  0.00  0.00    -0.025 C 
ATOM     67  H   LIG d   1       1.263  -1.855 -10.506  0.00  0.00     0.027 H 
ATOM     68  H   LIG d   1       1.205  -0.538  -9.309  0.00  0.00     0.027 H 
ATOM     69  H   LIG d   1       0.873  -0.197 -11.024  0.00  0.00     0.027 H 
ENDBRANCH  14  66
TORSDOF 12
ENDMDL
MODEL 7
REMARK VINA RESULT:      -6.2      2.927      4.070
REMARK  12 active torsions:
REMARK  status: ('A' for Active; 'I' for Inactive)
REMARK    1  A    between atoms: C_1  and  C_2 
REMARK    2  A    between atoms: C_2  and  C_3 
REMARK    3  A    between atoms: C_10  and  O_20 
REMARK    4  A    between atoms: C_16  and  C_18 
REMARK    5  A    between atoms: C_16  and  C_19 
REMARK    6  A    between atoms: O_20  and  C_21 
REMARK    7  A    between atoms: C_21  and  C_22 
REMARK       I    between atoms: C_22  and  N_24 
REMARK    8  A    between atoms: N_24  and  C_25 
REMARK    9  A    between atoms: C_25  and  C_26 
REMARK   10  A    between atoms: C_26  and  C_27 
REMARK   11  A    between atoms: C_34  and  O_37 
REMARK   12  A    between atoms: O_37  and  C_38 
ROOT
ATOM      1  C   LIG d   1       4.651  -4.187  -7.739  0.00  0.00    -0.027 A 
ATOM      2  C   LIG d   1       4.595  -5.441  -7.218  0.00  0.00     0.027 A 
ATOM      3  C   LIG d   1       4.499  -5.614  -5.825  0.00  0.00     0.338 A 
ATOM      4  O   LIG d   1       4.450  -6.744  -5.373  0.00  0.00    -0.245 OA
ATOM      5  O   LIG d   1       4.460  -4.577  -4.979  0.00  0.00    -0.422 OA
ATOM      6  C   LIG d   1       4.513  -3.318  -5.463  0.00  0.00     0.149 A 
ATOM      7  C   LIG d   1       4.602  -3.086  -6.846  0.00  0.00     0.063 A 
ATOM      8  C   LIG d   1       4.661  -1.768  -7.332  0.00  0.00     0.136 A 
ATOM      9  C   LIG d   1       4.621  -0.713  -6.443  0.00  0.00     0.023 A 
ATOM     10  C   LIG d   1       4.525  -0.946  -5.071  0.00  0.00     0.131 A 
ATOM     11  C   LIG d   1       4.469  -2.240  -4.585  0.00  0.00     0.038 A 
ATOM     12  C   LIG d   1       4.359  -2.523  -3.107  0.00  0.00    -0.017 C 
ATOM     13  C   LIG d   1       4.763  -1.278  -2.313  0.00  0.00    -0.009 C 
ATOM     14  C   LIG d   1       4.027  -0.070  -2.906  0.00  0.00     0.105 C 
ATOM     15  O   LIG d   1       4.493   0.129  -4.241  0.00  0.00    -0.486 OA
ATOM     16  H   LIG d   1       4.626  -6.302  -7.871  0.00  0.00     0.069 H 
ATOM     17  H   LIG d   1       4.664   0.301  -6.814  0.00  0.00     0.069 H 
ATOM     18  H   LIG d   1       5.019  -3.350  -2.846  0.00  0.00     0.032 H 
ATOM     19  H   LIG d   1       3.331  -2.789  -2.866  0.00  0.00     0.032 H 
ATOM     20  H   LIG d   1       5.840  -1.126  -2.389  0.00  0.00     0.031 H 
ATOM     21  H   LIG d   1       4.483  -1.402  -1.266  0.00  0.00     0.031 H 
ENDROOT
BRANCH   8  22
ATOM     22  O   LIG d   1       4.753  -1.534  -8.666  0.00  0.00    -0.482 OA
BRANCH  22  23
ATOM     23  C   LIG d   1       4.676  -0.173  -9.092  0.00  0.00     0.165 C 
ATOM     24  H   LIG d   1       5.678   0.200  -9.302  0.00  0.00     0.080 H 
ATOM     25  H   LIG d   1       4.221   0.430  -8.306  0.00  0.00     0.080 H 
BRANCH  23  26
ATOM     26  C   LIG d   1       3.835  -0.085 -10.340  0.00  0.00     0.251 C 
ATOM     27  O   LIG d   1       3.811   0.942 -10.986  0.00  0.00    -0.272 OA
ATOM     28  N   LIG d   1       3.111  -1.149 -10.740  0.00  0.00    -0.312 N 
ATOM     29  H   LIG d   1       3.129  -1.970 -10.225  0.00  0.00     0.149 HD
BRANCH  28  30
ATOM     30  C   LIG d   1       2.293  -1.064 -11.954  0.00  0.00     0.016 C 
ATOM     31  H   LIG d   1       2.809  -1.564 -12.774  0.00  0.00     0.046 H 
ATOM     32  H   LIG d   1       2.132  -0.017 -12.210  0.00  0.00     0.046 H 
BRANCH  30  33
ATOM     33  C   LIG d   1       0.945  -1.743 -11.709  0.00  0.00    -0.010 C 
ATOM     34  H   LIG d   1       0.171  -1.232 -12.283  0.00  0.00     0.033 H 
ATOM     35  H   LIG d   1       0.701  -1.695 -10.648  0.00  0.00     0.033 H 
BRANCH  33  36
ATOM     36  C   LIG d   1       1.022  -3.184 -12.141  0.00  0.00    -0.021 A 
ATOM     37  C   LIG d   1       0.337  -4.319 -11.516  0.00  0.00     0.006 A 
ATOM     38  C   LIG d   1       0.709  -5.455 -12.258  0.00  0.00     0.047 A 
ATOM     39  C   LIG d   1      -0.529  -4.448 -10.428  0.00  0.00    -0.011 A 
ATOM     40  N   LIG d   1       1.558  -5.026 -13.257  0.00  0.00    -0.360 N 
ATOM     41  C   LIG d   1       0.209  -6.701 -11.898  0.00  0.00    -0.034 A 
ATOM     42  C   LIG d   1       1.731  -3.673 -13.171  0.00  0.00     0.006 A 
ATOM     43  H   LIG d   1       1.970  -5.601 -13.922  0.00  0.00     0.165 HD
ATOM     44  H   LIG d   1       2.349  -3.084 -13.832  0.00  0.00     0.081 H 
ATOM     45  C   LIG d   1      -0.644  -6.818 -10.824  0.00  0.00    -0.018 A 
ATOM     46  H   LIG d   1       0.493  -7.580 -12.460  0.00  0.00     0.064 H 
ATOM     47  C   LIG d   1      -1.014  -5.696 -10.087  0.00  0.00     0.121 A 
ATOM     48  H   LIG d   1      -1.029  -7.789 -10.548  0.00  0.00     0.066 H 
ATOM     49  H   LIG d   1      -0.816  -3.579  -9.856  0.00  0.00     0.066 H 
BRANCH  47  50
ATOM     50  O   LIG d   1      -1.857  -5.828  -9.029  0.00  0.00    -0.495 OA
BRANCH  50  51
ATOM     51  C   LIG d   1      -3.228  -6.106  -9.321  0.00  0.00     0.079 C 
ATOM     52  H   LIG d   1      -3.730  -6.448  -8.416  0.00  0.00     0.066 H 
ATOM     53  H   LIG d   1      -3.713  -5.201  -9.686  0.00  0.00     0.066 H 
ATOM     54  H   LIG d   1      -3.286  -6.883 -10.083  0.00  0.00     0.066 H 
ENDBRANCH  50  51
ENDBRANCH  47  50
ENDBRANCH  33  36
ENDBRANCH  30  33
ENDBRANCH  28  30
ENDBRANCH  23  26
ENDBRANCH  22  23
ENDBRANCH   8  22
BRANCH   1  55
ATOM     55  C   LIG d   1       4.756  -3.972  -9.227  0.00  0.00    -0.029 C 
ATOM     56  H   LIG d   1       4.686  -2.906  -9.446  0.00  0.00     0.031 H 
ATOM     57  H   LIG d   1       5.713  -4.354  -9.583  0.00  0.00     0.031 H 
BRANCH  55  58
ATOM     58  C   LIG d   1       3.617  -4.713  -9.932  0.00  0.00    -0.061 C 
ATOM     59  H   LIG d   1       3.855  -4.824 -10.990  0.00  0.00     0.023 H 
ATOM     60  H   LIG d   1       3.492  -5.698  -9.482  0.00  0.00     0.023 H 
ATOM     61  H   LIG d   1       2.694  -4.145  -9.825  0.00  0.00     0.023 H 
ENDBRANCH  55  58
ENDBRANCH   1  55
BRANCH  14  62
ATOM     62  C   LIG d   1       4.321   1.175  -2.067  0.00  0.00    -0.025 C 
ATOM     63  H   LIG d   1       5.360   1.475  -2.213  0.00  0.00     0.027 H 
ATOM     64  H   LIG d   1       3.663   1.986  -2.376  0.00  0.00     0.027 H 
ATOM     65  H   LIG d   1       4.154   0.952  -1.013  0.00  0.00     0.027 H 
ENDBRANCH  14  62
BRANCH  14  66
ATOM     66  C   LIG d   1       2.521  -0.339  -2.920  0.00  0.00    -0.025 C 
ATOM     67  H   LIG d   1       2.052   0.260  -3.700  0.00  0.00     0.027 H 
ATOM     68  H   LIG d   1       2.344  -1.397  -3.117  0.00  0.00     0.027 H 
ATOM     69  H   LIG d   1       2.095  -0.074  -1.953  0.00  0.00     0.027 H 
ENDBRANCH  14  66
TORSDOF 12
ENDMDL
MODEL 8
REMARK VINA RESULT:      -6.2      4.472      8.940
REMARK  12 active torsions:
REMARK  status: ('A' for Active; 'I' for Inactive)
REMARK    1  A    between atoms: C_1  and  C_2 
REMARK    2  A    between atoms: C_2  and  C_3 
REMARK    3  A    between atoms: C_10  and  O_20 
REMARK    4  A    between atoms: C_16  and  C_18 
REMARK    5  A    between atoms: C_16  and  C_19 
REMARK    6  A    between atoms: O_20  and  C_21 
REMARK    7  A    between atoms: C_21  and  C_22 
REMARK       I    between atoms: C_22  and  N_24 
REMARK    8  A    between atoms: N_24  and  C_25 
REMARK    9  A    between atoms: C_25  and  C_26 
REMARK   10  A    between atoms: C_26  and  C_27 
REMARK   11  A    between atoms: C_34  and  O_37 
REMARK   12  A    between atoms: O_37  and  C_38 
ROOT
ATOM      1  C   LIG d   1       3.917  -0.955  -4.280  0.00  0.00    -0.027 A 
ATOM      2  C   LIG d   1       3.482   0.208  -3.730  0.00  0.00     0.027 A 
ATOM      3  C   LIG d   1       3.011   1.241  -4.562  0.00  0.00     0.338 A 
ATOM      4  O   LIG d   1       2.625   2.278  -4.053  0.00  0.00    -0.245 OA
ATOM      5  O   LIG d   1       2.975   1.121  -5.895  0.00  0.00    -0.422 OA
ATOM      6  C   LIG d   1       3.399  -0.022  -6.474  0.00  0.00     0.149 A 
ATOM      7  C   LIG d   1       3.872  -1.089  -5.692  0.00  0.00     0.063 A 
ATOM      8  C   LIG d   1       4.315  -2.270  -6.313  0.00  0.00     0.136 A 
ATOM      9  C   LIG d   1       4.270  -2.372  -7.688  0.00  0.00     0.023 A 
ATOM     10  C   LIG d   1       3.793  -1.314  -8.463  0.00  0.00     0.131 A 
ATOM     11  C   LIG d   1       3.358  -0.148  -7.860  0.00  0.00     0.038 A 
ATOM     12  C   LIG d   1       2.832   1.010  -8.671  0.00  0.00    -0.017 C 
ATOM     13  C   LIG d   1       3.270   0.859 -10.129  0.00  0.00    -0.009 C 
ATOM     14  C   LIG d   1       2.963  -0.575 -10.577  0.00  0.00     0.105 C 
ATOM     15  O   LIG d   1       3.774  -1.468  -9.813  0.00  0.00    -0.486 OA
ATOM     16  H   LIG d   1       3.498   0.341  -2.657  0.00  0.00     0.069 H 
ATOM     17  H   LIG d   1       4.606  -3.279  -8.169  0.00  0.00     0.069 H 
ATOM     18  H   LIG d   1       3.225   1.944  -8.268  0.00  0.00     0.032 H 
ATOM     19  H   LIG d   1       1.743   1.023  -8.617  0.00  0.00     0.032 H 
ATOM     20  H   LIG d   1       4.340   1.050 -10.214  0.00  0.00     0.031 H 
ATOM     21  H   LIG d   1       2.720   1.565 -10.754  0.00  0.00     0.031 H 
ENDROOT
BRANCH   8  22
ATOM     22  O   LIG d   1       4.779  -3.303  -5.566  0.00  0.00    -0.482 OA
BRANCH  22  23
ATOM     23  C   LIG d   1       5.619  -4.253  -6.224  0.00  0.00     0.165 C 
ATOM     24  H   LIG d   1       5.930  -3.855  -7.190  0.00  0.00     0.080 H 
ATOM     25  H   LIG d   1       5.069  -5.183  -6.373  0.00  0.00     0.080 H 
BRANCH  23  26
ATOM     26  C   LIG d   1       6.835  -4.520  -5.375  0.00  0.00     0.251 C 
ATOM     27  O   LIG d   1       7.297  -3.638  -4.682  0.00  0.00    -0.272 OA
ATOM     28  N   LIG d   1       7.409  -5.739  -5.385  0.00  0.00    -0.312 N 
ATOM     29  H   LIG d   1       7.040  -6.445  -5.939  0.00  0.00     0.149 HD
BRANCH  28  30
ATOM     30  C   LIG d   1       8.592  -5.999  -4.559  0.00  0.00     0.016 C 
ATOM     31  H   LIG d   1       8.372  -5.747  -3.521  0.00  0.00     0.046 H 
ATOM     32  H   LIG d   1       9.423  -5.389  -4.913  0.00  0.00     0.046 H 
BRANCH  30  33
ATOM     33  C   LIG d   1       8.967  -7.479  -4.656  0.00  0.00    -0.010 C 
ATOM     34  H   LIG d   1      10.036  -7.571  -4.851  0.00  0.00     0.033 H 
ATOM     35  H   LIG d   1       8.409  -7.942  -5.471  0.00  0.00     0.033 H 
BRANCH  33  36
ATOM     36  C   LIG d   1       8.630  -8.169  -3.361  0.00  0.00    -0.021 A 
ATOM     37  C   LIG d   1       7.496  -9.066  -3.120  0.00  0.00     0.006 A 
ATOM     38  C   LIG d   1       7.592  -9.462  -1.774  0.00  0.00     0.047 A 
ATOM     39  C   LIG d   1       6.452  -9.542  -3.916  0.00  0.00    -0.011 A 
ATOM     40  N   LIG d   1       8.707  -8.844  -1.248  0.00  0.00    -0.360 N 
ATOM     41  C   LIG d   1       6.641 -10.328  -1.246  0.00  0.00    -0.034 A 
ATOM     42  C   LIG d   1       9.311  -8.079  -2.207  0.00  0.00     0.006 A 
ATOM     43  H   LIG d   1       9.017  -8.938  -0.333  0.00  0.00     0.165 HD
ATOM     44  H   LIG d   1      10.203  -7.489  -2.059  0.00  0.00     0.081 H 
ATOM     45  C   LIG d   1       5.615 -10.791  -2.039  0.00  0.00    -0.018 A 
ATOM     46  H   LIG d   1       6.705 -10.634  -0.211  0.00  0.00     0.064 H 
ATOM     47  C   LIG d   1       5.517 -10.401  -3.372  0.00  0.00     0.121 A 
ATOM     48  H   LIG d   1       4.878 -11.463  -1.623  0.00  0.00     0.066 H 
ATOM     49  H   LIG d   1       6.375  -9.239  -4.949  0.00  0.00     0.066 H 
BRANCH  47  50
ATOM     50  O   LIG d   1       4.498 -10.867  -4.141  0.00  0.00    -0.495 OA
BRANCH  50  51
ATOM     51  C   LIG d   1       3.209 -10.950  -3.529  0.00  0.00     0.079 C 
ATOM     52  H   LIG d   1       2.440 -10.725  -4.269  0.00  0.00     0.066 H 
ATOM     53  H   LIG d   1       3.055 -11.957  -3.141  0.00  0.00     0.066 H 
ATOM     54  H   LIG d   1       3.147 -10.232  -2.713  0.00  0.00     0.066 H 
ENDBRANCH  50  51
ENDBRANCH  47  50
ENDBRANCH  33  36
ENDBRANCH  30  33
ENDBRANCH  28  30
ENDBRANCH  23  26
ENDBRANCH  22  23
ENDBRANCH   8  22
BRANCH   1  55
ATOM     55  C   LIG d   1       4.427  -2.078  -3.414  0.00  0.00    -0.029 C 
ATOM     56  H   LIG d   1       3.823  -2.969  -3.581  0.00  0.00     0.031 H 
ATOM     57  H   LIG d   1       5.466  -2.290  -3.669  0.00  0.00     0.031 H 
BRANCH  55  58
ATOM     58  C   LIG d   1       4.337  -1.669  -1.942  0.00  0.00    -0.061 C 
ATOM     59  H   LIG d   1       4.952  -2.338  -1.340  0.00  0.00     0.023 H 
ATOM     60  H   LIG d   1       4.695  -0.645  -1.828  0.00  0.00     0.023 H 
ATOM     61  H   LIG d   1       3.301  -1.731  -1.611  0.00  0.00     0.023 H 
ENDBRANCH  55  58
ENDBRANCH   1  55
BRANCH  14  62
ATOM     62  C   LIG d   1       3.286  -0.731 -12.064  0.00  0.00    -0.025 C 
ATOM     63  H   LIG d   1       2.984   0.171 -12.598  0.00  0.00     0.027 H 
ATOM     64  H   LIG d   1       4.357  -0.884 -12.190  0.00  0.00     0.027 H 
ATOM     65  H   LIG d   1       2.745  -1.588 -12.466  0.00  0.00     0.027 H 
ENDBRANCH  14  62
BRANCH  14  66
ATOM     66  C   LIG d   1       1.484  -0.887 -10.334  0.00  0.00    -0.025 C 
ATOM     67  H   LIG d   1       0.870  -0.259 -10.980  0.00  0.00     0.027 H 
ATOM     68  H   LIG d   1       1.293  -1.936 -10.558  0.00  0.00     0.027 H 
ATOM     69  H   LIG d   1       1.238  -0.686  -9.292  0.00  0.00     0.027 H 
ENDBRANCH  14  66
TORSDOF 12
ENDMDL
MODEL 9
REMARK VINA RESULT:      -6.1      4.894      8.414
REMARK  12 active torsions:
REMARK  status: ('A' for Active; 'I' for Inactive)
REMARK    1  A    between atoms: C_1  and  C_2 
REMARK    2  A    between atoms: C_2  and  C_3 
REMARK    3  A    between atoms: C_10  and  O_20 
REMARK    4  A    between atoms: C_16  and  C_18 
REMARK    5  A    between atoms: C_16  and  C_19 
REMARK    6  A    between atoms: O_20  and  C_21 
REMARK    7  A    between atoms: C_21  and  C_22 
REMARK       I    between atoms: C_22  and  N_24 
REMARK    8  A    between atoms: N_24  and  C_25 
REMARK    9  A    between atoms: C_25  and  C_26 
REMARK   10  A    between atoms: C_26  and  C_27 
REMARK   11  A    between atoms: C_34  and  O_37 
REMARK   12  A    between atoms: O_37  and  C_38 
ROOT
ATOM      1  C   LIG d   1       9.340   3.115  -4.409  0.00  0.00    -0.027 A 
ATOM      2  C   LIG d   1       9.577   3.586  -3.157  0.00  0.00     0.027 A 
ATOM      3  C   LIG d   1      10.035   4.906  -2.983  0.00  0.00     0.338 A 
ATOM      4  O   LIG d   1      10.243   5.313  -1.854  0.00  0.00    -0.245 OA
ATOM      5  O   LIG d   1      10.251   5.727  -4.018  0.00  0.00    -0.422 OA
ATOM      6  C   LIG d   1      10.025   5.291  -5.275  0.00  0.00     0.149 A 
ATOM      7  C   LIG d   1       9.561   3.986  -5.508  0.00  0.00     0.063 A 
ATOM      8  C   LIG d   1       9.335   3.547  -6.824  0.00  0.00     0.136 A 
ATOM      9  C   LIG d   1       9.565   4.409  -7.876  0.00  0.00     0.023 A 
ATOM     10  C   LIG d   1      10.021   5.707  -7.642  0.00  0.00     0.131 A 
ATOM     11  C   LIG d   1      10.247   6.146  -6.350  0.00  0.00     0.038 A 
ATOM     12  C   LIG d   1      10.733   7.545  -6.066  0.00  0.00    -0.017 C 
ATOM     13  C   LIG d   1      11.322   8.155  -7.341  0.00  0.00    -0.009 C 
ATOM     14  C   LIG d   1      10.332   7.919  -8.488  0.00  0.00     0.105 C 
ATOM     15  O   LIG d   1      10.233   6.513  -8.716  0.00  0.00    -0.486 OA
ATOM     16  H   LIG d   1       9.415   2.951  -2.298  0.00  0.00     0.069 H 
ATOM     17  H   LIG d   1       9.391   4.076  -8.889  0.00  0.00     0.069 H 
ATOM     18  H   LIG d   1      11.499   7.513  -5.292  0.00  0.00     0.032 H 
ATOM     19  H   LIG d   1       9.897   8.156  -5.725  0.00  0.00     0.032 H 
ATOM     20  H   LIG d   1      12.274   7.675  -7.572  0.00  0.00     0.031 H 
ATOM     21  H   LIG d   1      11.475   9.225  -7.201  0.00  0.00     0.031 H 
ENDROOT
BRANCH   8  22
ATOM     22  O   LIG d   1       8.891   2.286  -7.059  0.00  0.00    -0.482 OA
BRANCH  22  23
ATOM     23  C   LIG d   1       8.596   1.944  -8.414  0.00  0.00     0.165 C 
ATOM     24  H   LIG d   1       9.031   0.973  -8.647  0.00  0.00     0.080 H 
ATOM     25  H   LIG d   1       9.015   2.699  -9.080  0.00  0.00     0.080 H 
BRANCH  23  26
ATOM     26  C   LIG d   1       7.102   1.884  -8.602  0.00  0.00     0.251 C 
ATOM     27  O   LIG d   1       6.554   2.657  -9.360  0.00  0.00    -0.272 OA
ATOM     28  N   LIG d   1       6.375   0.971  -7.928  0.00  0.00    -0.312 N 
ATOM     29  H   LIG d   1       6.813   0.354  -7.322  0.00  0.00     0.149 HD
BRANCH  28  30
ATOM     30  C   LIG d   1       4.922   0.913  -8.110  0.00  0.00     0.016 C 
ATOM     31  H   LIG d   1       4.681   1.073  -9.162  0.00  0.00     0.046 H 
ATOM     32  H   LIG d   1       4.449   1.687  -7.507  0.00  0.00     0.046 H 
BRANCH  30  33
ATOM     33  C   LIG d   1       4.408  -0.460  -7.673  0.00  0.00    -0.010 C 
ATOM     34  H   LIG d   1       5.245  -1.155  -7.597  0.00  0.00     0.033 H 
ATOM     35  H   LIG d   1       3.694  -0.832  -8.408  0.00  0.00     0.033 H 
BRANCH  33  36
ATOM     36  C   LIG d   1       3.732  -0.340  -6.332  0.00  0.00    -0.021 A 
ATOM     37  C   LIG d   1       4.272  -0.778  -5.042  0.00  0.00     0.006 A 
ATOM     38  C   LIG d   1       3.293  -0.462  -4.082  0.00  0.00     0.047 A 
ATOM     39  C   LIG d   1       5.465  -1.388  -4.647  0.00  0.00    -0.011 A 
ATOM     40  N   LIG d   1       2.241   0.124  -4.755  0.00  0.00    -0.360 N 
ATOM     41  C   LIG d   1       3.522  -0.763  -2.745  0.00  0.00    -0.034 A 
ATOM     42  C   LIG d   1       2.522   0.188  -6.092  0.00  0.00     0.006 A 
ATOM     43  H   LIG d   1       1.424   0.444  -4.340  0.00  0.00     0.165 HD
ATOM     44  H   LIG d   1       1.865   0.600  -6.843  0.00  0.00     0.081 H 
ATOM     45  C   LIG d   1       4.702  -1.365  -2.366  0.00  0.00    -0.018 A 
ATOM     46  H   LIG d   1       2.774  -0.528  -2.002  0.00  0.00     0.064 H 
ATOM     47  C   LIG d   1       5.673  -1.679  -3.313  0.00  0.00     0.121 A 
ATOM     48  H   LIG d   1       4.875  -1.597  -1.326  0.00  0.00     0.066 H 
ATOM     49  H   LIG d   1       6.218  -1.632  -5.381  0.00  0.00     0.066 H 
BRANCH  47  50
ATOM     50  O   LIG d   1       6.832  -2.273  -2.924  0.00  0.00    -0.495 OA
BRANCH  50  51
ATOM     51  C   LIG d   1       7.769  -2.605  -3.951  0.00  0.00     0.079 C 
ATOM     52  H   LIG d   1       7.821  -3.689  -4.058  0.00  0.00     0.066 H 
ATOM     53  H   LIG d   1       7.447  -2.162  -4.894  0.00  0.00     0.066 H 
ATOM     54  H   LIG d   1       8.752  -2.219  -3.685  0.00  0.00     0.066 H 
ENDBRANCH  50  51
ENDBRANCH  47  50
ENDBRANCH  33  36
ENDBRANCH  30  33
ENDBRANCH  28  30
ENDBRANCH  23  26
ENDBRANCH  22  23
ENDBRANCH   8  22
BRANCH   1  55
ATOM     55  C   LIG d   1       8.850   1.707  -4.626  0.00  0.00    -0.029 C 
ATOM     56  H   LIG d   1       8.650   1.550  -5.686  0.00  0.00     0.031 H 
ATOM     57  H   LIG d   1       9.611   1.002  -4.292  0.00  0.00     0.031 H 
BRANCH  55  58
ATOM     58  C   LIG d   1       7.564   1.485  -3.827  0.00  0.00    -0.061 C 
ATOM     59  H   LIG d   1       7.549   2.155  -2.968  0.00  0.00     0.023 H 
ATOM     60  H   LIG d   1       6.701   1.689  -4.462  0.00  0.00     0.023 H 
ATOM     61  H   LIG d   1       7.524   0.452  -3.482  0.00  0.00     0.023 H 
ENDBRANCH  55  58
ENDBRANCH   1  55
BRANCH  14  62
ATOM     62  C   LIG d   1      10.837   8.612  -9.755  0.00  0.00    -0.025 C 
ATOM     63  H   LIG d   1      10.038   8.642 -10.497  0.00  0.00     0.027 H 
ATOM     64  H   LIG d   1      11.146   9.629  -9.515  0.00  0.00     0.027 H 
ATOM     65  H   LIG d   1      11.685   8.059 -10.159  0.00  0.00     0.027 H 
ENDBRANCH  14  62
BRANCH  14  66
ATOM     66  C   LIG d   1       8.958   8.477  -8.107  0.00  0.00    -0.025 C 
ATOM     67  H   LIG d   1       8.232   8.209  -8.875  0.00  0.00     0.027 H 
ATOM     68  H   LIG d   1       8.649   8.056  -7.150  0.00  0.00     0.027 H 
ATOM     69  H   LIG d   1       9.017   9.562  -8.025  0.00  0.00     0.027 H 
ENDBRANCH  14  66
TORSDOF 12
ENDMDL
