MODEL 1
REMARK VINA RESULT:      -6.3      0.000      0.000
REMARK  13 active torsions:
REMARK  status: ('A' for Active; 'I' for Inactive)
REMARK    1  A    between atoms: C_1  and  C_2 
REMARK    2  A    between atoms: C_2  and  C_3 
REMARK    3  A    between atoms: C_3  and  C_4 
REMARK    4  A    between atoms: C_4  and  C_5 
REMARK    5  A    between atoms: C_5  and  C_7 
REMARK    6  A    between atoms: C_5  and  N_23 
REMARK    7  A    between atoms: C_7  and  O_9 
REMARK    8  A    between atoms: O_9  and  C_10 
REMARK    9  A    between atoms: C_14  and  C_22 
REMARK   10  A    between atoms: C_20  and  C_21 
REMARK   11  A    between atoms: N_23  and  S_24 
REMARK   12  A    between atoms: S_24  and  C_27 
REMARK   13  A    between atoms: C_30  and  C_33 
ROOT
ATOM      1  C   LIG d   1       4.133  -1.371  -4.503  0.00  0.00     0.126 C 
ATOM      2  H   LIG d   1       5.184  -1.191  -4.278  0.00  0.00     0.059 H 
ENDROOT
BRANCH   1   3
ATOM      3  C   LIG d   1       3.357  -1.565  -3.199  0.00  0.00    -0.026 C 
ATOM      4  H   LIG d   1       2.562  -0.822  -3.135  0.00  0.00     0.029 H 
ATOM      5  H   LIG d   1       2.925  -2.564  -3.178  0.00  0.00     0.029 H 
BRANCH   3   6
ATOM      6  C   LIG d   1       4.308  -1.397  -2.011  0.00  0.00    -0.051 C 
ATOM      7  H   LIG d   1       3.727  -1.277  -1.096  0.00  0.00     0.027 H 
ATOM      8  H   LIG d   1       4.943  -2.278  -1.926  0.00  0.00     0.027 H 
BRANCH   6   9
ATOM      9  C   LIG d   1       5.181  -0.158  -2.227  0.00  0.00    -0.056 C 
ATOM     10  H   LIG d   1       6.120  -0.278  -1.688  0.00  0.00     0.026 H 
ATOM     11  H   LIG d   1       5.385  -0.039  -3.291  0.00  0.00     0.026 H 
BRANCH   9  12
ATOM     12  C   LIG d   1       4.447   1.079  -1.707  0.00  0.00    -0.065 C 
ATOM     13  H   LIG d   1       3.702   1.394  -2.437  0.00  0.00     0.023 H 
ATOM     14  H   LIG d   1       3.953   0.840  -0.765  0.00  0.00     0.023 H 
ATOM     15  H   LIG d   1       5.162   1.886  -1.547  0.00  0.00     0.023 H 
ENDBRANCH   9  12
ENDBRANCH   6   9
ENDBRANCH   3   6
ENDBRANCH   1   3
BRANCH   1  16
ATOM     16  C   LIG d   1       3.570  -0.189  -5.251  0.00  0.00     0.331 C 
ATOM     17  O   LIG d   1       2.496   0.267  -4.940  0.00  0.00    -0.249 OA
BRANCH  16  18
ATOM     18  O   LIG d   1       4.264   0.357  -6.263  0.00  0.00    -0.424 OA
BRANCH  18  19
ATOM     19  C   LIG d   1       3.855   0.059  -7.523  0.00  0.00     0.138 A 
ATOM     20  C   LIG d   1       4.776   0.039  -8.556  0.00  0.00     0.035 A 
ATOM     21  C   LIG d   1       4.360  -0.266  -9.845  0.00  0.00     0.146 A 
ATOM     22  C   LIG d   1       3.002  -0.549 -10.083  0.00  0.00     0.021 A 
ATOM     23  O   LIG d   1       5.241  -0.285 -10.867  0.00  0.00    -0.422 OA
ATOM     24  C   LIG d   1       2.085  -0.524  -9.026  0.00  0.00    -0.047 A 
ATOM     25  C   LIG d   1       2.573  -0.868 -11.447  0.00  0.00    -0.033 A 
ATOM     26  C   LIG d   1       2.512  -0.223  -7.766  0.00  0.00    -0.018 A 
ATOM     27  H   LIG d   1       1.042  -0.741  -9.209  0.00  0.00     0.063 H 
ATOM     28  H   LIG d   1       1.803  -0.203  -6.950  0.00  0.00     0.066 H 
ATOM     29  C   LIG d   1       3.511  -0.877 -12.429  0.00  0.00     0.026 A 
ATOM     30  C   LIG d   1       4.854  -0.583 -12.118  0.00  0.00     0.338 A 
ATOM     31  H   LIG d   1       3.228  -1.108 -13.445  0.00  0.00     0.069 H 
ATOM     32  O   LIG d   1       5.685  -0.594 -13.009  0.00  0.00    -0.245 OA
BRANCH  20  33
ATOM     33  C   LIG d   1       6.225   0.345  -8.284  0.00  0.00    -0.033 C 
ATOM     34  H   LIG d   1       6.368   1.425  -8.248  0.00  0.00     0.028 H 
ATOM     35  H   LIG d   1       6.516  -0.092  -7.328  0.00  0.00     0.028 H 
ATOM     36  H   LIG d   1       6.842  -0.077  -9.077  0.00  0.00     0.028 H 
ENDBRANCH  20  33
BRANCH  25  37
ATOM     37  C   LIG d   1       1.129  -1.178 -11.751  0.00  0.00    -0.039 C 
ATOM     38  H   LIG d   1       0.819  -0.628 -12.639  0.00  0.00     0.028 H 
ATOM     39  H   LIG d   1       1.018  -2.248 -11.928  0.00  0.00     0.028 H 
ATOM     40  H   LIG d   1       0.509  -0.883 -10.905  0.00  0.00     0.028 H 
ENDBRANCH  25  37
ENDBRANCH  18  19
ENDBRANCH  16  18
ENDBRANCH   1  16
BRANCH   1  41
ATOM     41  N   LIG d   1       4.008  -2.574  -5.329  0.00  0.00    -0.176 N 
ATOM     42  H   LIG d   1       3.137  -2.973  -5.478  0.00  0.00     0.149 HD
BRANCH  41  43
ATOM     43  S   LIG d   1       5.356  -3.255  -6.007  0.00  0.00     0.059 S 
ATOM     44  O   LIG d   1       6.372  -2.261  -5.980  0.00  0.00    -0.153 OA
ATOM     45  O   LIG d   1       5.520  -4.528  -5.397  0.00  0.00    -0.153 OA
BRANCH  43  46
ATOM     46  C   LIG d   1       4.991  -3.554  -7.705  0.00  0.00     0.105 A 
ATOM     47  C   LIG d   1       5.998  -3.489  -8.651  0.00  0.00    -0.035 A 
ATOM     48  C   LIG d   1       5.711  -3.723  -9.983  0.00  0.00    -0.057 A 
ATOM     49  H   LIG d   1       7.008  -3.256  -8.349  0.00  0.00     0.064 H 
ATOM     50  C   LIG d   1       4.417  -4.022 -10.369  0.00  0.00    -0.050 A 
ATOM     51  H   LIG d   1       6.497  -3.673 -10.722  0.00  0.00     0.062 H 
ATOM     52  C   LIG d   1       3.411  -4.088  -9.423  0.00  0.00    -0.057 A 
ATOM     53  C   LIG d   1       3.699  -3.858  -8.091  0.00  0.00    -0.035 A 
ATOM     54  H   LIG d   1       2.401  -4.322  -9.725  0.00  0.00     0.062 H 
ATOM     55  H   LIG d   1       2.913  -3.914  -7.351  0.00  0.00     0.064 H 
BRANCH  50  56
ATOM     56  C   LIG d   1       4.104  -4.278 -11.821  0.00  0.00    -0.040 C 
ATOM     57  H   LIG d   1       4.105  -3.335 -12.365  0.00  0.00     0.028 H 
ATOM     58  H   LIG d   1       4.858  -4.943 -12.244  0.00  0.00     0.028 H 
ATOM     59  H   LIG d   1       3.123  -4.745 -11.903  0.00  0.00     0.028 H 
ENDBRANCH  50  56
ENDBRANCH  43  46
ENDBRANCH  41  43
ENDBRANCH   1  41
TORSDOF 13
ENDMDL
MODEL 2
REMARK VINA RESULT:      -6.1      5.184      8.982
REMARK  13 active torsions:
REMARK  status: ('A' for Active; 'I' for Inactive)
REMARK    1  A    between atoms: C_1  and  C_2 
REMARK    2  A    between atoms: C_2  and  C_3 
REMARK    3  A    between atoms: C_3  and  C_4 
REMARK    4  A    between atoms: C_4  and  C_5 
REMARK    5  A    between atoms: C_5  and  C_7 
REMARK    6  A    between atoms: C_5  and  N_23 
REMARK    7  A    between atoms: C_7  and  O_9 
REMARK    8  A    between atoms: O_9  and  C_10 
REMARK    9  A    between atoms: C_14  and  C_22 
REMARK   10  A    between atoms: C_20  and  C_21 
REMARK   11  A    between atoms: N_23  and  S_24 
REMARK   12  A    between atoms: S_24  and  C_27 
REMARK   13  A    between atoms: C_30  and  C_33 
ROOT
ATOM      1  C   LIG d   1       7.491  -4.485  -5.058  0.00  0.00     0.126 C 
ATOM      2  H   LIG d   1       6.932  -4.897  -4.219  0.00  0.00     0.059 H 
ENDROOT
BRANCH   1   3
ATOM      3  C   LIG d   1       8.569  -3.533  -4.535  0.00  0.00    -0.026 C 
ATOM      4  H   LIG d   1       9.524  -3.774  -5.001  0.00  0.00     0.029 H 
ATOM      5  H   LIG d   1       8.296  -2.506  -4.775  0.00  0.00     0.029 H 
BRANCH   3   6
ATOM      6  C   LIG d   1       8.690  -3.686  -3.016  0.00  0.00    -0.051 C 
ATOM      7  H   LIG d   1       8.670  -2.701  -2.550  0.00  0.00     0.027 H 
ATOM      8  H   LIG d   1       7.857  -4.282  -2.644  0.00  0.00     0.027 H 
BRANCH   6   9
ATOM      9  C   LIG d   1      10.008  -4.385  -2.678  0.00  0.00    -0.056 C 
ATOM     10  H   LIG d   1      10.500  -4.699  -3.598  0.00  0.00     0.026 H 
ATOM     11  H   LIG d   1      10.656  -3.696  -2.137  0.00  0.00     0.026 H 
BRANCH   9  12
ATOM     12  C   LIG d   1       9.726  -5.610  -1.806  0.00  0.00    -0.065 C 
ATOM     13  H   LIG d   1       9.496  -6.464  -2.444  0.00  0.00     0.023 H 
ATOM     14  H   LIG d   1      10.603  -5.835  -1.200  0.00  0.00     0.023 H 
ATOM     15  H   LIG d   1       8.877  -5.405  -1.154  0.00  0.00     0.023 H 
ENDBRANCH   9  12
ENDBRANCH   6   9
ENDBRANCH   3   6
ENDBRANCH   1   3
BRANCH   1  16
ATOM     16  C   LIG d   1       8.142  -5.605  -5.828  0.00  0.00     0.331 C 
ATOM     17  O   LIG d   1       9.335  -5.595  -6.018  0.00  0.00    -0.249 OA
BRANCH  16  18
ATOM     18  O   LIG d   1       7.396  -6.616  -6.302  0.00  0.00    -0.424 OA
BRANCH  18  19
ATOM     19  C   LIG d   1       6.982  -7.550  -5.408  0.00  0.00     0.138 A 
ATOM     20  C   LIG d   1       5.710  -8.086  -5.515  0.00  0.00     0.035 A 
ATOM     21  C   LIG d   1       5.286  -9.041  -4.602  0.00  0.00     0.146 A 
ATOM     22  C   LIG d   1       6.157  -9.450  -3.576  0.00  0.00     0.021 A 
ATOM     23  O   LIG d   1       4.047  -9.572  -4.685  0.00  0.00    -0.422 OA
ATOM     24  C   LIG d   1       7.440  -8.898  -3.484  0.00  0.00    -0.047 A 
ATOM     25  C   LIG d   1       5.699 -10.459  -2.617  0.00  0.00    -0.033 A 
ATOM     26  C   LIG d   1       7.840  -7.960  -4.390  0.00  0.00    -0.018 A 
ATOM     27  H   LIG d   1       8.109  -9.212  -2.696  0.00  0.00     0.063 H 
ATOM     28  H   LIG d   1       8.830  -7.533  -4.318  0.00  0.00     0.066 H 
ATOM     29  C   LIG d   1       4.444 -10.958  -2.760  0.00  0.00     0.026 A 
ATOM     30  C   LIG d   1       3.624 -10.501  -3.812  0.00  0.00     0.338 A 
ATOM     31  H   LIG d   1       4.075 -11.702  -2.071  0.00  0.00     0.069 H 
ATOM     32  O   LIG d   1       2.500 -10.955  -3.929  0.00  0.00    -0.245 OA
BRANCH  20  33
ATOM     33  C   LIG d   1       4.790  -7.636  -6.619  0.00  0.00    -0.033 C 
ATOM     34  H   LIG d   1       5.279  -7.783  -7.583  0.00  0.00     0.028 H 
ATOM     35  H   LIG d   1       3.869  -8.220  -6.586  0.00  0.00     0.028 H 
ATOM     36  H   LIG d   1       4.554  -6.580  -6.489  0.00  0.00     0.028 H 
ENDBRANCH  20  33
BRANCH  25  37
ATOM     37  C   LIG d   1       6.597 -10.929  -1.501  0.00  0.00    -0.039 C 
ATOM     38  H   LIG d   1       6.003 -11.095  -0.603  0.00  0.00     0.028 H 
ATOM     39  H   LIG d   1       7.081 -11.860  -1.794  0.00  0.00     0.028 H 
ATOM     40  H   LIG d   1       7.354 -10.172  -1.301  0.00  0.00     0.028 H 
ENDBRANCH  25  37
ENDBRANCH  18  19
ENDBRANCH  16  18
ENDBRANCH   1  16
BRANCH   1  41
ATOM     41  N   LIG d   1       6.581  -3.752  -5.941  0.00  0.00    -0.176 N 
ATOM     42  H   LIG d   1       6.912  -3.356  -6.761  0.00  0.00     0.149 HD
BRANCH  41  43
ATOM     43  S   LIG d   1       4.982  -3.600  -5.537  0.00  0.00     0.059 S 
ATOM     44  O   LIG d   1       4.306  -3.166  -6.709  0.00  0.00    -0.153 OA
ATOM     45  O   LIG d   1       4.623  -4.788  -4.846  0.00  0.00    -0.153 OA
BRANCH  43  46
ATOM     46  C   LIG d   1       4.862  -2.284  -4.371  0.00  0.00     0.105 A 
ATOM     47  C   LIG d   1       4.207  -2.483  -3.169  0.00  0.00    -0.035 A 
ATOM     48  C   LIG d   1       4.112  -1.450  -2.255  0.00  0.00    -0.057 A 
ATOM     49  H   LIG d   1       3.769  -3.444  -2.945  0.00  0.00     0.064 H 
ATOM     50  C   LIG d   1       4.673  -0.220  -2.542  0.00  0.00    -0.050 A 
ATOM     51  H   LIG d   1       3.601  -1.605  -1.316  0.00  0.00     0.062 H 
ATOM     52  C   LIG d   1       5.328  -0.021  -3.743  0.00  0.00    -0.057 A 
ATOM     53  C   LIG d   1       5.426  -1.055  -4.655  0.00  0.00    -0.035 A 
ATOM     54  H   LIG d   1       5.766   0.940  -3.967  0.00  0.00     0.062 H 
ATOM     55  H   LIG d   1       5.942  -0.901  -5.592  0.00  0.00     0.064 H 
BRANCH  50  56
ATOM     56  C   LIG d   1       4.571   0.906  -1.545  0.00  0.00    -0.040 C 
ATOM     57  H   LIG d   1       4.690   1.859  -2.059  0.00  0.00     0.028 H 
ATOM     58  H   LIG d   1       3.595   0.875  -1.060  0.00  0.00     0.028 H 
ATOM     59  H   LIG d   1       5.353   0.798  -0.794  0.00  0.00     0.028 H 
ENDBRANCH  50  56
ENDBRANCH  43  46
ENDBRANCH  41  43
ENDBRANCH   1  41
TORSDOF 13
ENDMDL
MODEL 3
REMARK VINA RESULT:      -6.0      2.182      3.770
REMARK  13 active torsions:
REMARK  status: ('A' for Active; 'I' for Inactive)
REMARK    1  A    between atoms: C_1  and  C_2 
REMARK    2  A    between atoms: C_2  and  C_3 
REMARK    3  A    between atoms: C_3  and  C_4 
REMARK    4  A    between atoms: C_4  and  C_5 
REMARK    5  A    between atoms: C_5  and  C_7 
REMARK    6  A    between atoms: C_5  and  N_23 
REMARK    7  A    between atoms: C_7  and  O_9 
REMARK    8  A    between atoms: O_9  and  C_10 
REMARK    9  A    between atoms: C_14  and  C_22 
REMARK   10  A    between atoms: C_20  and  C_21 
REMARK   11  A    between atoms: N_23  and  S_24 
REMARK   12  A    between atoms: S_24  and  C_27 
REMARK   13  A    between atoms: C_30  and  C_33 
ROOT
ATOM      1  C   LIG d   1       6.092  -1.255  -3.836  0.00  0.00     0.126 C 
ATOM      2  H   LIG d   1       5.439  -0.503  -4.277  0.00  0.00     0.059 H 
ENDROOT
BRANCH   1   3
ATOM      3  C   LIG d   1       5.742  -1.432  -2.357  0.00  0.00    -0.026 C 
ATOM      4  H   LIG d   1       5.713  -2.493  -2.114  0.00  0.00     0.029 H 
ATOM      5  H   LIG d   1       6.495  -0.938  -1.744  0.00  0.00     0.029 H 
BRANCH   3   6
ATOM      6  C   LIG d   1       4.371  -0.808  -2.081  0.00  0.00    -0.051 C 
ATOM      7  H   LIG d   1       3.736  -0.927  -2.958  0.00  0.00     0.027 H 
ATOM      8  H   LIG d   1       3.911  -1.307  -1.228  0.00  0.00     0.027 H 
BRANCH   6   9
ATOM      9  C   LIG d   1       4.542   0.680  -1.771  0.00  0.00    -0.056 C 
ATOM     10  H   LIG d   1       4.252   0.872  -0.738  0.00  0.00     0.026 H 
ATOM     11  H   LIG d   1       5.583   0.965  -1.915  0.00  0.00     0.026 H 
BRANCH   9  12
ATOM     12  C   LIG d   1       3.654   1.500  -2.710  0.00  0.00    -0.065 C 
ATOM     13  H   LIG d   1       3.531   0.966  -3.652  0.00  0.00     0.023 H 
ATOM     14  H   LIG d   1       2.679   1.652  -2.248  0.00  0.00     0.023 H 
ATOM     15  H   LIG d   1       4.120   2.467  -2.900  0.00  0.00     0.023 H 
ENDBRANCH   9  12
ENDBRANCH   6   9
ENDBRANCH   3   6
ENDBRANCH   1   3
BRANCH   1  16
ATOM     16  C   LIG d   1       5.906  -2.567  -4.555  0.00  0.00     0.331 C 
ATOM     17  O   LIG d   1       6.803  -3.376  -4.581  0.00  0.00    -0.249 OA
BRANCH  16  18
ATOM     18  O   LIG d   1       4.742  -2.837  -5.168  0.00  0.00    -0.424 OA
BRANCH  18  19
ATOM     19  C   LIG d   1       4.355  -1.993  -6.159  0.00  0.00     0.138 A 
ATOM     20  C   LIG d   1       4.312  -2.444  -7.467  0.00  0.00     0.035 A 
ATOM     21  C   LIG d   1       3.916  -1.582  -8.480  0.00  0.00     0.146 A 
ATOM     22  C   LIG d   1       3.566  -0.258  -8.162  0.00  0.00     0.021 A 
ATOM     23  O   LIG d   1       3.872  -2.001  -9.763  0.00  0.00    -0.422 OA
ATOM     24  C   LIG d   1       3.615   0.181  -6.834  0.00  0.00    -0.047 A 
ATOM     25  C   LIG d   1       3.150   0.644  -9.239  0.00  0.00    -0.033 A 
ATOM     26  C   LIG d   1       4.007  -0.680  -5.850  0.00  0.00    -0.018 A 
ATOM     27  H   LIG d   1       3.347   1.199  -6.589  0.00  0.00     0.063 H 
ATOM     28  H   LIG d   1       4.046  -0.340  -4.825  0.00  0.00     0.066 H 
ATOM     29  C   LIG d   1       3.122   0.159 -10.507  0.00  0.00     0.026 A 
ATOM     30  C   LIG d   1       3.487  -1.181 -10.754  0.00  0.00     0.338 A 
ATOM     31  H   LIG d   1       2.821   0.797 -11.325  0.00  0.00     0.069 H 
ATOM     32  O   LIG d   1       3.458  -1.604 -11.896  0.00  0.00    -0.245 OA
BRANCH  20  33
ATOM     33  C   LIG d   1       4.691  -3.866  -7.790  0.00  0.00    -0.033 C 
ATOM     34  H   LIG d   1       5.632  -3.875  -8.341  0.00  0.00     0.028 H 
ATOM     35  H   LIG d   1       4.807  -4.431  -6.864  0.00  0.00     0.028 H 
ATOM     36  H   LIG d   1       3.910  -4.322  -8.397  0.00  0.00     0.028 H 
ENDBRANCH  20  33
BRANCH  25  37
ATOM     37  C   LIG d   1       2.765   2.072  -8.948  0.00  0.00    -0.039 C 
ATOM     38  H   LIG d   1       1.840   2.089  -8.373  0.00  0.00     0.028 H 
ATOM     39  H   LIG d   1       3.559   2.552  -8.375  0.00  0.00     0.028 H 
ATOM     40  H   LIG d   1       2.620   2.607  -9.886  0.00  0.00     0.028 H 
ENDBRANCH  25  37
ENDBRANCH  18  19
ENDBRANCH  16  18
ENDBRANCH   1  16
BRANCH   1  41
ATOM     41  N   LIG d   1       7.487  -0.825  -3.959  0.00  0.00    -0.176 N 
ATOM     42  H   LIG d   1       8.197  -1.364  -3.577  0.00  0.00     0.149 HD
BRANCH  41  43
ATOM     43  S   LIG d   1       7.852   0.582  -4.753  0.00  0.00     0.059 S 
ATOM     44  O   LIG d   1       6.877   1.537  -4.356  0.00  0.00    -0.153 OA
ATOM     45  O   LIG d   1       9.245   0.797  -4.578  0.00  0.00    -0.153 OA
BRANCH  43  46
ATOM     46  C   LIG d   1       7.599   0.291  -6.472  0.00  0.00     0.105 A 
ATOM     47  C   LIG d   1       7.143   1.312  -7.286  0.00  0.00    -0.035 A 
ATOM     48  C   LIG d   1       6.944   1.083  -8.635  0.00  0.00    -0.057 A 
ATOM     49  H   LIG d   1       6.942   2.287  -6.868  0.00  0.00     0.064 H 
ATOM     50  C   LIG d   1       7.202  -0.165  -9.170  0.00  0.00    -0.050 A 
ATOM     51  H   LIG d   1       6.588   1.880  -9.271  0.00  0.00     0.062 H 
ATOM     52  C   LIG d   1       7.659  -1.185  -8.356  0.00  0.00    -0.057 A 
ATOM     53  C   LIG d   1       7.861  -0.956  -7.008  0.00  0.00    -0.035 A 
ATOM     54  H   LIG d   1       7.860  -2.160  -8.774  0.00  0.00     0.062 H 
ATOM     55  H   LIG d   1       8.222  -1.752  -6.373  0.00  0.00     0.064 H 
BRANCH  50  56
ATOM     56  C   LIG d   1       6.986  -0.414 -10.641  0.00  0.00    -0.040 C 
ATOM     57  H   LIG d   1       7.892  -0.160 -11.189  0.00  0.00     0.028 H 
ATOM     58  H   LIG d   1       6.748  -1.466 -10.800  0.00  0.00     0.028 H 
ATOM     59  H   LIG d   1       6.161   0.203 -10.996  0.00  0.00     0.028 H 
ENDBRANCH  50  56
ENDBRANCH  43  46
ENDBRANCH  41  43
ENDBRANCH   1  41
TORSDOF 13
ENDMDL
MODEL 4
REMARK VINA RESULT:      -5.7      3.800      5.839
REMARK  13 active torsions:
REMARK  status: ('A' for Active; 'I' for Inactive)
REMARK    1  A    between atoms: C_1  and  C_2 
REMARK    2  A    between atoms: C_2  and  C_3 
REMARK    3  A    between atoms: C_3  and  C_4 
REMARK    4  A    between atoms: C_4  and  C_5 
REMARK    5  A    between atoms: C_5  and  C_7 
REMARK    6  A    between atoms: C_5  and  N_23 
REMARK    7  A    between atoms: C_7  and  O_9 
REMARK    8  A    between atoms: O_9  and  C_10 
REMARK    9  A    between atoms: C_14  and  C_22 
REMARK   10  A    between atoms: C_20  and  C_21 
REMARK   11  A    between atoms: N_23  and  S_24 
REMARK   12  A    between atoms: S_24  and  C_27 
REMARK   13  A    between atoms: C_30  and  C_33 
ROOT
ATOM      1  C   LIG d   1       4.484  -1.612  -4.441  0.00  0.00     0.126 C 
ATOM      2  H   LIG d   1       5.525  -1.783  -4.167  0.00  0.00     0.059 H 
ENDROOT
BRANCH   1   3
ATOM      3  C   LIG d   1       3.722  -1.064  -3.233  0.00  0.00    -0.026 C 
ATOM      4  H   LIG d   1       3.249  -0.119  -3.498  0.00  0.00     0.029 H 
ATOM      5  H   LIG d   1       2.959  -1.780  -2.929  0.00  0.00     0.029 H 
BRANCH   3   6
ATOM      6  C   LIG d   1       4.698  -0.838  -2.075  0.00  0.00    -0.051 C 
ATOM      7  H   LIG d   1       4.409  -1.464  -1.230  0.00  0.00     0.027 H 
ATOM      8  H   LIG d   1       5.707  -1.100  -2.393  0.00  0.00     0.027 H 
BRANCH   6   9
ATOM      9  C   LIG d   1       4.660   0.633  -1.657  0.00  0.00    -0.056 C 
ATOM     10  H   LIG d   1       4.420   0.703  -0.596  0.00  0.00     0.026 H 
ATOM     11  H   LIG d   1       5.633   1.088  -1.839  0.00  0.00     0.026 H 
BRANCH   9  12
ATOM     12  C   LIG d   1       3.593   1.367  -2.471  0.00  0.00    -0.065 C 
ATOM     13  H   LIG d   1       2.621   0.908  -2.291  0.00  0.00     0.023 H 
ATOM     14  H   LIG d   1       3.562   2.413  -2.170  0.00  0.00     0.023 H 
ATOM     15  H   LIG d   1       3.834   1.301  -3.532  0.00  0.00     0.023 H 
ENDBRANCH   9  12
ENDBRANCH   6   9
ENDBRANCH   3   6
ENDBRANCH   1   3
BRANCH   1  16
ATOM     16  C   LIG d   1       4.419  -0.614  -5.569  0.00  0.00     0.331 C 
ATOM     17  O   LIG d   1       3.529  -0.678  -6.383  0.00  0.00    -0.249 OA
BRANCH  16  18
ATOM     18  O   LIG d   1       5.351   0.348  -5.669  0.00  0.00    -0.424 OA
BRANCH  18  19
ATOM     19  C   LIG d   1       6.608  -0.042  -6.003  0.00  0.00     0.138 A 
ATOM     20  C   LIG d   1       7.676   0.330  -5.205  0.00  0.00     0.035 A 
ATOM     21  C   LIG d   1       8.962  -0.068  -5.545  0.00  0.00     0.146 A 
ATOM     22  C   LIG d   1       9.160  -0.846  -6.701  0.00  0.00     0.021 A 
ATOM     23  O   LIG d   1      10.018   0.289  -4.784  0.00  0.00    -0.422 OA
ATOM     24  C   LIG d   1       8.068  -1.214  -7.495  0.00  0.00    -0.047 A 
ATOM     25  C   LIG d   1      10.522  -1.261  -7.051  0.00  0.00    -0.033 A 
ATOM     26  C   LIG d   1       6.812  -0.813  -7.146  0.00  0.00    -0.018 A 
ATOM     27  H   LIG d   1       8.221  -1.811  -8.382  0.00  0.00     0.063 H 
ATOM     28  H   LIG d   1       5.969  -1.097  -7.760  0.00  0.00     0.066 H 
ATOM     29  C   LIG d   1      11.539  -0.873  -6.240  0.00  0.00     0.026 A 
ATOM     30  C   LIG d   1      11.267  -0.092  -5.097  0.00  0.00     0.338 A 
ATOM     31  H   LIG d   1      12.554  -1.161  -6.469  0.00  0.00     0.069 H 
ATOM     32  O   LIG d   1      12.189   0.249  -4.378  0.00  0.00    -0.245 OA
BRANCH  20  33
ATOM     33  C   LIG d   1       7.446   1.164  -3.972  0.00  0.00    -0.033 C 
ATOM     34  H   LIG d   1       7.313   2.207  -4.259  0.00  0.00     0.028 H 
ATOM     35  H   LIG d   1       6.551   0.812  -3.458  0.00  0.00     0.028 H 
ATOM     36  H   LIG d   1       8.305   1.076  -3.307  0.00  0.00     0.028 H 
ENDBRANCH  20  33
BRANCH  25  37
ATOM     37  C   LIG d   1      10.784  -2.095  -8.279  0.00  0.00    -0.039 C 
ATOM     38  H   LIG d   1      10.198  -3.011  -8.227  0.00  0.00     0.028 H 
ATOM     39  H   LIG d   1      10.502  -1.531  -9.167  0.00  0.00     0.028 H 
ATOM     40  H   LIG d   1      11.844  -2.344  -8.328  0.00  0.00     0.028 H 
ENDBRANCH  25  37
ENDBRANCH  18  19
ENDBRANCH  16  18
ENDBRANCH   1  16
BRANCH   1  41
ATOM     41  N   LIG d   1       3.877  -2.873  -4.870  0.00  0.00    -0.176 N 
ATOM     42  H   LIG d   1       2.953  -3.067  -4.652  0.00  0.00     0.149 HD
BRANCH  41  43
ATOM     43  S   LIG d   1       4.770  -3.971  -5.730  0.00  0.00     0.059 S 
ATOM     44  O   LIG d   1       4.320  -5.260  -5.336  0.00  0.00    -0.153 OA
ATOM     45  O   LIG d   1       4.752  -3.538  -7.083  0.00  0.00    -0.153 OA
BRANCH  43  46
ATOM     46  C   LIG d   1       6.438  -3.831  -5.179  0.00  0.00     0.105 A 
ATOM     47  C   LIG d   1       6.731  -3.104  -4.039  0.00  0.00    -0.035 A 
ATOM     48  C   LIG d   1       8.039  -2.994  -3.607  0.00  0.00    -0.057 A 
ATOM     49  H   LIG d   1       5.938  -2.622  -3.487  0.00  0.00     0.064 H 
ATOM     50  C   LIG d   1       9.055  -3.611  -4.314  0.00  0.00    -0.050 A 
ATOM     51  H   LIG d   1       8.269  -2.427  -2.717  0.00  0.00     0.062 H 
ATOM     52  C   LIG d   1       8.762  -4.338  -5.453  0.00  0.00    -0.057 A 
ATOM     53  C   LIG d   1       7.453  -4.452  -5.882  0.00  0.00    -0.035 A 
ATOM     54  H   LIG d   1       9.556  -4.820  -6.005  0.00  0.00     0.062 H 
ATOM     55  H   LIG d   1       7.224  -5.024  -6.770  0.00  0.00     0.064 H 
BRANCH  50  56
ATOM     56  C   LIG d   1      10.482  -3.492  -3.843  0.00  0.00    -0.040 C 
ATOM     57  H   LIG d   1      10.574  -2.636  -3.176  0.00  0.00     0.028 H 
ATOM     58  H   LIG d   1      10.766  -4.400  -3.310  0.00  0.00     0.028 H 
ATOM     59  H   LIG d   1      11.137  -3.356  -4.703  0.00  0.00     0.028 H 
ENDBRANCH  50  56
ENDBRANCH  43  46
ENDBRANCH  41  43
ENDBRANCH   1  41
TORSDOF 13
ENDMDL
MODEL 5
REMARK VINA RESULT:      -5.7      3.164      5.253
REMARK  13 active torsions:
REMARK  status: ('A' for Active; 'I' for Inactive)
REMARK    1  A    between atoms: C_1  and  C_2 
REMARK    2  A    between atoms: C_2  and  C_3 
REMARK    3  A    between atoms: C_3  and  C_4 
REMARK    4  A    between atoms: C_4  and  C_5 
REMARK    5  A    between atoms: C_5  and  C_7 
REMARK    6  A    between atoms: C_5  and  N_23 
REMARK    7  A    between atoms: C_7  and  O_9 
REMARK    8  A    between atoms: O_9  and  C_10 
REMARK    9  A    between atoms: C_14  and  C_22 
REMARK   10  A    between atoms: C_20  and  C_21 
REMARK   11  A    between atoms: N_23  and  S_24 
REMARK   12  A    between atoms: S_24  and  C_27 
REMARK   13  A    between atoms: C_30  and  C_33 
ROOT
ATOM      1  C   LIG d   1       4.630  -1.876  -4.095  0.00  0.00     0.126 C 
ATOM      2  H   LIG d   1       5.438  -2.369  -3.555  0.00  0.00     0.059 H 
ENDROOT
BRANCH   1   3
ATOM      3  C   LIG d   1       3.703  -1.175  -3.100  0.00  0.00    -0.026 C 
ATOM      4  H   LIG d   1       3.349  -0.239  -3.531  0.00  0.00     0.029 H 
ATOM      5  H   LIG d   1       2.853  -1.820  -2.880  0.00  0.00     0.029 H 
BRANCH   3   6
ATOM      6  C   LIG d   1       4.470  -0.884  -1.808  0.00  0.00    -0.051 C 
ATOM      7  H   LIG d   1       3.926  -1.305  -0.962  0.00  0.00     0.027 H 
ATOM      8  H   LIG d   1       5.461  -1.334  -1.863  0.00  0.00     0.027 H 
BRANCH   6   9
ATOM      9  C   LIG d   1       4.606   0.629  -1.625  0.00  0.00    -0.056 C 
ATOM     10  H   LIG d   1       4.448   0.883  -0.577  0.00  0.00     0.026 H 
ATOM     11  H   LIG d   1       5.603   0.943  -1.929  0.00  0.00     0.026 H 
BRANCH   9  12
ATOM     12  C   LIG d   1       3.561   1.341  -2.486  0.00  0.00    -0.065 C 
ATOM     13  H   LIG d   1       4.058   2.051  -3.147  0.00  0.00     0.023 H 
ATOM     14  H   LIG d   1       3.019   0.607  -3.082  0.00  0.00     0.023 H 
ATOM     15  H   LIG d   1       2.861   1.874  -1.842  0.00  0.00     0.023 H 
ENDBRANCH   9  12
ENDBRANCH   6   9
ENDBRANCH   3   6
ENDBRANCH   1   3
BRANCH   1  16
ATOM     16  C   LIG d   1       5.209  -0.858  -5.044  0.00  0.00     0.331 C 
ATOM     17  O   LIG d   1       4.500  -0.002  -5.519  0.00  0.00    -0.249 OA
BRANCH  16  18
ATOM     18  O   LIG d   1       6.513  -0.901  -5.362  0.00  0.00    -0.424 OA
BRANCH  18  19
ATOM     19  C   LIG d   1       7.219   0.251  -5.229  0.00  0.00     0.138 A 
ATOM     20  C   LIG d   1       7.711   0.889  -6.355  0.00  0.00     0.035 A 
ATOM     21  C   LIG d   1       8.434   2.066  -6.219  0.00  0.00     0.146 A 
ATOM     22  C   LIG d   1       8.657   2.595  -4.935  0.00  0.00     0.021 A 
ATOM     23  O   LIG d   1       8.927   2.700  -7.304  0.00  0.00    -0.422 OA
ATOM     24  C   LIG d   1       8.152   1.937  -3.808  0.00  0.00    -0.047 A 
ATOM     25  C   LIG d   1       9.421   3.838  -4.803  0.00  0.00    -0.033 A 
ATOM     26  C   LIG d   1       7.444   0.780  -3.960  0.00  0.00    -0.018 A 
ATOM     27  H   LIG d   1       8.324   2.343  -2.821  0.00  0.00     0.063 H 
ATOM     28  H   LIG d   1       7.055   0.272  -3.089  0.00  0.00     0.066 H 
ATOM     29  C   LIG d   1       9.884   4.430  -5.935  0.00  0.00     0.026 A 
ATOM     30  C   LIG d   1       9.623   3.843  -7.190  0.00  0.00     0.338 A 
ATOM     31  H   LIG d   1      10.451   5.347  -5.873  0.00  0.00     0.069 H 
ATOM     32  O   LIG d   1      10.045   4.383  -8.197  0.00  0.00    -0.245 OA
BRANCH  20  33
ATOM     33  C   LIG d   1       7.463   0.308  -7.722  0.00  0.00    -0.033 C 
ATOM     34  H   LIG d   1       6.470   0.598  -8.065  0.00  0.00     0.028 H 
ATOM     35  H   LIG d   1       8.213   0.686  -8.419  0.00  0.00     0.028 H 
ATOM     36  H   LIG d   1       7.529  -0.779  -7.674  0.00  0.00     0.028 H 
ENDBRANCH  20  33
BRANCH  25  37
ATOM     37  C   LIG d   1       9.687   4.444  -3.448  0.00  0.00    -0.039 C 
ATOM     38  H   LIG d   1       9.327   5.472  -3.434  0.00  0.00     0.028 H 
ATOM     39  H   LIG d   1       9.167   3.865  -2.685  0.00  0.00     0.028 H 
ATOM     40  H   LIG d   1      10.758   4.430  -3.249  0.00  0.00     0.028 H 
ENDBRANCH  25  37
ENDBRANCH  18  19
ENDBRANCH  16  18
ENDBRANCH   1  16
BRANCH   1  41
ATOM     41  N   LIG d   1       3.870  -2.872  -4.853  0.00  0.00    -0.176 N 
ATOM     42  H   LIG d   1       2.902  -2.828  -4.878  0.00  0.00     0.149 HD
BRANCH  41  43
ATOM     43  S   LIG d   1       4.664  -4.075  -5.668  0.00  0.00     0.059 S 
ATOM     44  O   LIG d   1       5.909  -4.260  -5.008  0.00  0.00    -0.153 OA
ATOM     45  O   LIG d   1       3.731  -5.131  -5.846  0.00  0.00    -0.153 OA
BRANCH  43  46
ATOM     46  C   LIG d   1       5.036  -3.456  -7.276  0.00  0.00     0.105 A 
ATOM     47  C   LIG d   1       4.052  -2.834  -8.022  0.00  0.00    -0.035 A 
ATOM     48  C   LIG d   1       4.343  -2.350  -9.283  0.00  0.00    -0.057 A 
ATOM     49  H   LIG d   1       3.055  -2.728  -7.620  0.00  0.00     0.064 H 
ATOM     50  C   LIG d   1       5.619  -2.486  -9.798  0.00  0.00    -0.050 A 
ATOM     51  H   LIG d   1       3.575  -1.864  -9.866  0.00  0.00     0.062 H 
ATOM     52  C   LIG d   1       6.603  -3.107  -9.052  0.00  0.00    -0.057 A 
ATOM     53  C   LIG d   1       6.313  -3.588  -7.789  0.00  0.00    -0.035 A 
ATOM     54  H   LIG d   1       7.600  -3.213  -9.455  0.00  0.00     0.062 H 
ATOM     55  H   LIG d   1       7.083  -4.069  -7.204  0.00  0.00     0.064 H 
BRANCH  50  56
ATOM     56  C   LIG d   1       5.937  -1.957 -11.173  0.00  0.00    -0.040 C 
ATOM     57  H   LIG d   1       6.969  -2.197 -11.425  0.00  0.00     0.028 H 
ATOM     58  H   LIG d   1       5.268  -2.414 -11.903  0.00  0.00     0.028 H 
ATOM     59  H   LIG d   1       5.802  -0.875 -11.186  0.00  0.00     0.028 H 
ENDBRANCH  50  56
ENDBRANCH  43  46
ENDBRANCH  41  43
ENDBRANCH   1  41
TORSDOF 13
ENDMDL
MODEL 6
REMARK VINA RESULT:      -5.5      2.012      2.553
REMARK  13 active torsions:
REMARK  status: ('A' for Active; 'I' for Inactive)
REMARK    1  A    between atoms: C_1  and  C_2 
REMARK    2  A    between atoms: C_2  and  C_3 
REMARK    3  A    between atoms: C_3  and  C_4 
REMARK    4  A    between atoms: C_4  and  C_5 
REMARK    5  A    between atoms: C_5  and  C_7 
REMARK    6  A    between atoms: C_5  and  N_23 
REMARK    7  A    between atoms: C_7  and  O_9 
REMARK    8  A    between atoms: O_9  and  C_10 
REMARK    9  A    between atoms: C_14  and  C_22 
REMARK   10  A    between atoms: C_20  and  C_21 
REMARK   11  A    between atoms: N_23  and  S_24 
REMARK   12  A    between atoms: S_24  and  C_27 
REMARK   13  A    between atoms: C_30  and  C_33 
ROOT
ATOM      1  C   LIG d   1       4.570  -1.044  -5.897  0.00  0.00     0.126 C 
ATOM      2  H   LIG d   1       5.461  -0.853  -6.495  0.00  0.00     0.059 H 
ENDROOT
BRANCH   1   3
ATOM      3  C   LIG d   1       4.946  -1.073  -4.414  0.00  0.00    -0.026 C 
ATOM      4  H   LIG d   1       6.031  -1.083  -4.314  0.00  0.00     0.029 H 
ATOM      5  H   LIG d   1       4.543  -0.190  -3.919  0.00  0.00     0.029 H 
BRANCH   3   6
ATOM      6  C   LIG d   1       4.363  -2.331  -3.766  0.00  0.00    -0.051 C 
ATOM      7  H   LIG d   1       3.485  -2.654  -4.326  0.00  0.00     0.027 H 
ATOM      8  H   LIG d   1       5.111  -3.124  -3.773  0.00  0.00     0.027 H 
BRANCH   6   9
ATOM      9  C   LIG d   1       3.962  -2.021  -2.322  0.00  0.00    -0.056 C 
ATOM     10  H   LIG d   1       2.892  -2.187  -2.200  0.00  0.00     0.026 H 
ATOM     11  H   LIG d   1       4.511  -2.674  -1.644  0.00  0.00     0.026 H 
BRANCH   9  12
ATOM     12  C   LIG d   1       4.291  -0.562  -2.005  0.00  0.00    -0.065 C 
ATOM     13  H   LIG d   1       4.292  -0.416  -0.924  0.00  0.00     0.023 H 
ATOM     14  H   LIG d   1       5.274  -0.315  -2.405  0.00  0.00     0.023 H 
ATOM     15  H   LIG d   1       3.542   0.088  -2.457  0.00  0.00     0.023 H 
ENDBRANCH   9  12
ENDBRANCH   6   9
ENDBRANCH   3   6
ENDBRANCH   1   3
BRANCH   1  16
ATOM     16  C   LIG d   1       3.560   0.049  -6.136  0.00  0.00     0.331 C 
ATOM     17  O   LIG d   1       2.626   0.186  -5.383  0.00  0.00    -0.249 OA
BRANCH  16  18
ATOM     18  O   LIG d   1       3.699   0.873  -7.188  0.00  0.00    -0.424 OA
BRANCH  18  19
ATOM     19  C   LIG d   1       3.378   0.374  -8.410  0.00  0.00     0.138 A 
ATOM     20  C   LIG d   1       4.331   0.352  -9.414  0.00  0.00     0.035 A 
ATOM     21  C   LIG d   1       4.004  -0.157 -10.663  0.00  0.00     0.146 A 
ATOM     22  C   LIG d   1       2.703  -0.643 -10.891  0.00  0.00     0.021 A 
ATOM     23  O   LIG d   1       4.916  -0.183 -11.657  0.00  0.00    -0.422 OA
ATOM     24  C   LIG d   1       1.753  -0.613  -9.864  0.00  0.00    -0.047 A 
ATOM     25  C   LIG d   1       2.368  -1.178 -12.213  0.00  0.00    -0.033 A 
ATOM     26  C   LIG d   1       2.092  -0.109  -8.642  0.00  0.00    -0.018 A 
ATOM     27  H   LIG d   1       0.754  -0.986 -10.039  0.00  0.00     0.063 H 
ATOM     28  H   LIG d   1       1.358  -0.085  -7.850  0.00  0.00     0.066 H 
ATOM     29  C   LIG d   1       3.334  -1.181 -13.168  0.00  0.00     0.026 A 
ATOM     30  C   LIG d   1       4.617  -0.677 -12.869  0.00  0.00     0.338 A 
ATOM     31  H   LIG d   1       3.121  -1.568 -14.153  0.00  0.00     0.069 H 
ATOM     32  O   LIG d   1       5.474  -0.685 -13.734  0.00  0.00    -0.245 OA
BRANCH  20  33
ATOM     33  C   LIG d   1       5.718   0.877  -9.152  0.00  0.00    -0.033 C 
ATOM     34  H   LIG d   1       6.419   0.043  -9.103  0.00  0.00     0.028 H 
ATOM     35  H   LIG d   1       6.010   1.550  -9.960  0.00  0.00     0.028 H 
ATOM     36  H   LIG d   1       5.730   1.419  -8.207  0.00  0.00     0.028 H 
ENDBRANCH  20  33
BRANCH  25  37
ATOM     37  C   LIG d   1       0.989  -1.711 -12.506  0.00  0.00    -0.039 C 
ATOM     38  H   LIG d   1       0.310  -0.879 -12.691  0.00  0.00     0.028 H 
ATOM     39  H   LIG d   1       1.027  -2.352 -13.386  0.00  0.00     0.028 H 
ATOM     40  H   LIG d   1       0.634  -2.287 -11.652  0.00  0.00     0.028 H 
ENDBRANCH  25  37
ENDBRANCH  18  19
ENDBRANCH  16  18
ENDBRANCH   1  16
BRANCH   1  41
ATOM     41  N   LIG d   1       3.992  -2.334  -6.279  0.00  0.00    -0.176 N 
ATOM     42  H   LIG d   1       3.230  -2.688  -5.795  0.00  0.00     0.149 HD
BRANCH  41  43
ATOM     43  S   LIG d   1       4.639  -3.189  -7.541  0.00  0.00     0.059 S 
ATOM     44  O   LIG d   1       3.706  -3.106  -8.610  0.00  0.00    -0.153 OA
ATOM     45  O   LIG d   1       5.988  -2.762  -7.672  0.00  0.00    -0.153 OA
BRANCH  43  46
ATOM     46  C   LIG d   1       4.692  -4.881  -7.051  0.00  0.00     0.105 A 
ATOM     47  C   LIG d   1       5.081  -5.217  -5.767  0.00  0.00    -0.035 A 
ATOM     48  C   LIG d   1       5.123  -6.544  -5.383  0.00  0.00    -0.057 A 
ATOM     49  H   LIG d   1       5.352  -4.442  -5.065  0.00  0.00     0.064 H 
ATOM     50  C   LIG d   1       4.775  -7.535  -6.282  0.00  0.00    -0.050 A 
ATOM     51  H   LIG d   1       5.426  -6.807  -4.380  0.00  0.00     0.062 H 
ATOM     52  C   LIG d   1       4.386  -7.199  -7.565  0.00  0.00    -0.057 A 
ATOM     53  C   LIG d   1       4.340  -5.872  -7.948  0.00  0.00    -0.035 A 
ATOM     54  H   LIG d   1       4.115  -7.974  -8.267  0.00  0.00     0.062 H 
ATOM     55  H   LIG d   1       4.031  -5.609  -8.949  0.00  0.00     0.064 H 
BRANCH  50  56
ATOM     56  C   LIG d   1       4.820  -8.982  -5.863  0.00  0.00    -0.040 C 
ATOM     57  H   LIG d   1       4.738  -9.618  -6.743  0.00  0.00     0.028 H 
ATOM     58  H   LIG d   1       5.763  -9.184  -5.354  0.00  0.00     0.028 H 
ATOM     59  H   LIG d   1       3.992  -9.189  -5.185  0.00  0.00     0.028 H 
ENDBRANCH  50  56
ENDBRANCH  43  46
ENDBRANCH  41  43
ENDBRANCH   1  41
TORSDOF 13
ENDMDL
MODEL 7
REMARK VINA RESULT:      -5.3      3.916      6.364
REMARK  13 active torsions:
REMARK  status: ('A' for Active; 'I' for Inactive)
REMARK    1  A    between atoms: C_1  and  C_2 
REMARK    2  A    between atoms: C_2  and  C_3 
REMARK    3  A    between atoms: C_3  and  C_4 
REMARK    4  A    between atoms: C_4  and  C_5 
REMARK    5  A    between atoms: C_5  and  C_7 
REMARK    6  A    between atoms: C_5  and  N_23 
REMARK    7  A    between atoms: C_7  and  O_9 
REMARK    8  A    between atoms: O_9  and  C_10 
REMARK    9  A    between atoms: C_14  and  C_22 
REMARK   10  A    between atoms: C_20  and  C_21 
REMARK   11  A    between atoms: N_23  and  S_24 
REMARK   12  A    between atoms: S_24  and  C_27 
REMARK   13  A    between atoms: C_30  and  C_33 
ROOT
ATOM      1  C   LIG d   1       4.437  -0.774  -5.302  0.00  0.00     0.126 C 
ATOM      2  H   LIG d   1       5.102  -0.754  -4.439  0.00  0.00     0.059 H 
ENDROOT
BRANCH   1   3
ATOM      3  C   LIG d   1       3.183   0.048  -4.999  0.00  0.00    -0.026 C 
ATOM      4  H   LIG d   1       3.312   1.061  -5.379  0.00  0.00     0.029 H 
ATOM      5  H   LIG d   1       2.321  -0.414  -5.480  0.00  0.00     0.029 H 
BRANCH   3   6
ATOM      6  C   LIG d   1       2.957   0.095  -3.486  0.00  0.00    -0.051 C 
ATOM      7  H   LIG d   1       1.890   0.186  -3.281  0.00  0.00     0.027 H 
ATOM      8  H   LIG d   1       3.337  -0.821  -3.033  0.00  0.00     0.027 H 
BRANCH   6   9
ATOM      9  C   LIG d   1       3.694   1.300  -2.898  0.00  0.00    -0.056 C 
ATOM     10  H   LIG d   1       4.300   1.768  -3.673  0.00  0.00     0.026 H 
ATOM     11  H   LIG d   1       2.970   2.019  -2.518  0.00  0.00     0.026 H 
BRANCH   9  12
ATOM     12  C   LIG d   1       4.599   0.835  -1.755  0.00  0.00    -0.065 C 
ATOM     13  H   LIG d   1       4.729  -0.246  -1.812  0.00  0.00     0.023 H 
ATOM     14  H   LIG d   1       5.569   1.323  -1.838  0.00  0.00     0.023 H 
ATOM     15  H   LIG d   1       4.142   1.095  -0.800  0.00  0.00     0.023 H 
ENDBRANCH   9  12
ENDBRANCH   6   9
ENDBRANCH   3   6
ENDBRANCH   1   3
BRANCH   1  16
ATOM     16  C   LIG d   1       5.145  -0.188  -6.496  0.00  0.00     0.331 C 
ATOM     17  O   LIG d   1       4.612   0.675  -7.152  0.00  0.00    -0.249 OA
BRANCH  16  18
ATOM     18  O   LIG d   1       6.371  -0.624  -6.831  0.00  0.00    -0.424 OA
BRANCH  18  19
ATOM     19  C   LIG d   1       7.425  -0.047  -6.199  0.00  0.00     0.138 A 
ATOM     20  C   LIG d   1       8.704  -0.220  -6.701  0.00  0.00     0.035 A 
ATOM     21  C   LIG d   1       9.783   0.370  -6.057  0.00  0.00     0.146 A 
ATOM     22  C   LIG d   1       9.560   1.135  -4.897  0.00  0.00     0.021 A 
ATOM     23  O   LIG d   1      11.038   0.209  -6.527  0.00  0.00    -0.422 OA
ATOM     24  C   LIG d   1       8.260   1.299  -4.405  0.00  0.00    -0.047 A 
ATOM     25  C   LIG d   1      10.706   1.752  -4.224  0.00  0.00    -0.033 A 
ATOM     26  C   LIG d   1       7.212   0.713  -5.051  0.00  0.00    -0.018 A 
ATOM     27  H   LIG d   1       8.089   1.887  -3.514  0.00  0.00     0.063 H 
ATOM     28  H   LIG d   1       6.209   0.839  -4.669  0.00  0.00     0.066 H 
ATOM     29  C   LIG d   1      11.942   1.557  -4.752  0.00  0.00     0.026 A 
ATOM     30  C   LIG d   1      12.091   0.776  -5.917  0.00  0.00     0.338 A 
ATOM     31  H   LIG d   1      12.808   1.997  -4.281  0.00  0.00     0.069 H 
ATOM     32  O   LIG d   1      13.205   0.608  -6.380  0.00  0.00    -0.245 OA
BRANCH  20  33
ATOM     33  C   LIG d   1       8.924  -1.043  -7.943  0.00  0.00    -0.033 C 
ATOM     34  H   LIG d   1       8.760  -0.423  -8.824  0.00  0.00     0.028 H 
ATOM     35  H   LIG d   1       9.947  -1.421  -7.952  0.00  0.00     0.028 H 
ATOM     36  H   LIG d   1       8.228  -1.881  -7.953  0.00  0.00     0.028 H 
ENDBRANCH  20  33
BRANCH  25  37
ATOM     37  C   LIG d   1      10.518   2.581  -2.979  0.00  0.00    -0.039 C 
ATOM     38  H   LIG d   1      10.208   3.588  -3.257  0.00  0.00     0.028 H 
ATOM     39  H   LIG d   1       9.752   2.124  -2.352  0.00  0.00     0.028 H 
ATOM     40  H   LIG d   1      11.457   2.629  -2.430  0.00  0.00     0.028 H 
ENDBRANCH  25  37
ENDBRANCH  18  19
ENDBRANCH  16  18
ENDBRANCH   1  16
BRANCH   1  41
ATOM     41  N   LIG d   1       4.056  -2.158  -5.592  0.00  0.00    -0.176 N 
ATOM     42  H   LIG d   1       3.481  -2.355  -6.348  0.00  0.00     0.149 HD
BRANCH  41  43
ATOM     43  S   LIG d   1       4.607  -3.387  -4.629  0.00  0.00     0.059 S 
ATOM     44  O   LIG d   1       4.164  -3.101  -3.310  0.00  0.00    -0.153 OA
ATOM     45  O   LIG d   1       4.284  -4.601  -5.295  0.00  0.00    -0.153 OA
BRANCH  43  46
ATOM     46  C   LIG d   1       6.365  -3.280  -4.603  0.00  0.00     0.105 A 
ATOM     47  C   LIG d   1       7.001  -2.592  -3.585  0.00  0.00    -0.035 A 
ATOM     48  C   LIG d   1       8.380  -2.507  -3.565  0.00  0.00    -0.057 A 
ATOM     49  H   LIG d   1       6.419  -2.120  -2.807  0.00  0.00     0.064 H 
ATOM     50  C   LIG d   1       9.125  -3.111  -4.561  0.00  0.00    -0.050 A 
ATOM     51  H   LIG d   1       8.877  -1.969  -2.770  0.00  0.00     0.062 H 
ATOM     52  C   LIG d   1       8.490  -3.800  -5.577  0.00  0.00    -0.057 A 
ATOM     53  C   LIG d   1       7.111  -3.888  -5.596  0.00  0.00    -0.035 A 
ATOM     54  H   LIG d   1       9.072  -4.272  -6.355  0.00  0.00     0.062 H 
ATOM     55  H   LIG d   1       6.614  -4.430  -6.388  0.00  0.00     0.064 H 
BRANCH  50  56
ATOM     56  C   LIG d   1      10.629  -3.020  -4.538  0.00  0.00    -0.040 C 
ATOM     57  H   LIG d   1      11.054  -3.889  -5.038  0.00  0.00     0.028 H 
ATOM     58  H   LIG d   1      10.946  -2.113  -5.054  0.00  0.00     0.028 H 
ATOM     59  H   LIG d   1      10.975  -2.989  -3.505  0.00  0.00     0.028 H 
ENDBRANCH  50  56
ENDBRANCH  43  46
ENDBRANCH  41  43
ENDBRANCH   1  41
TORSDOF 13
ENDMDL
MODEL 8
REMARK VINA RESULT:      -5.3      1.399      2.445
REMARK  13 active torsions:
REMARK  status: ('A' for Active; 'I' for Inactive)
REMARK    1  A    between atoms: C_1  and  C_2 
REMARK    2  A    between atoms: C_2  and  C_3 
REMARK    3  A    between atoms: C_3  and  C_4 
REMARK    4  A    between atoms: C_4  and  C_5 
REMARK    5  A    between atoms: C_5  and  C_7 
REMARK    6  A    between atoms: C_5  and  N_23 
REMARK    7  A    between atoms: C_7  and  O_9 
REMARK    8  A    between atoms: O_9  and  C_10 
REMARK    9  A    between atoms: C_14  and  C_22 
REMARK   10  A    between atoms: C_20  and  C_21 
REMARK   11  A    between atoms: N_23  and  S_24 
REMARK   12  A    between atoms: S_24  and  C_27 
REMARK   13  A    between atoms: C_30  and  C_33 
ROOT
ATOM      1  C   LIG d   1       5.199  -1.224  -5.187  0.00  0.00     0.126 C 
ATOM      2  H   LIG d   1       5.960  -1.735  -4.599  0.00  0.00     0.059 H 
ENDROOT
BRANCH   1   3
ATOM      3  C   LIG d   1       4.412  -0.270  -4.286  0.00  0.00    -0.026 C 
ATOM      4  H   LIG d   1       5.098   0.432  -3.813  0.00  0.00     0.029 H 
ATOM      5  H   LIG d   1       3.685   0.278  -4.884  0.00  0.00     0.029 H 
BRANCH   3   6
ATOM      6  C   LIG d   1       3.682  -1.075  -3.207  0.00  0.00    -0.051 C 
ATOM      7  H   LIG d   1       2.625  -0.808  -3.210  0.00  0.00     0.027 H 
ATOM      8  H   LIG d   1       3.789  -2.139  -3.413  0.00  0.00     0.027 H 
BRANCH   6   9
ATOM      9  C   LIG d   1       4.285  -0.756  -1.838  0.00  0.00    -0.056 C 
ATOM     10  H   LIG d   1       3.582  -1.044  -1.056  0.00  0.00     0.026 H 
ATOM     11  H   LIG d   1       5.215  -1.309  -1.712  0.00  0.00     0.026 H 
BRANCH   9  12
ATOM     12  C   LIG d   1       4.566   0.745  -1.742  0.00  0.00    -0.065 C 
ATOM     13  H   LIG d   1       5.506   0.905  -1.214  0.00  0.00     0.023 H 
ATOM     14  H   LIG d   1       4.636   1.166  -2.745  0.00  0.00     0.023 H 
ATOM     15  H   LIG d   1       3.757   1.233  -1.199  0.00  0.00     0.023 H 
ENDBRANCH   9  12
ENDBRANCH   6   9
ENDBRANCH   3   6
ENDBRANCH   1   3
BRANCH   1  16
ATOM     16  C   LIG d   1       5.859  -0.440  -6.292  0.00  0.00     0.331 C 
ATOM     17  O   LIG d   1       7.029  -0.609  -6.538  0.00  0.00    -0.249 OA
BRANCH  16  18
ATOM     18  O   LIG d   1       5.146   0.447  -7.004  0.00  0.00    -0.424 OA
BRANCH  18  19
ATOM     19  C   LIG d   1       4.904   0.142  -8.306  0.00  0.00     0.138 A 
ATOM     20  C   LIG d   1       3.615  -0.157  -8.712  0.00  0.00     0.035 A 
ATOM     21  C   LIG d   1       3.366  -0.469 -10.042  0.00  0.00     0.146 A 
ATOM     22  C   LIG d   1       4.433  -0.478 -10.959  0.00  0.00     0.021 A 
ATOM     23  O   LIG d   1       2.118  -0.770 -10.457  0.00  0.00    -0.422 OA
ATOM     24  C   LIG d   1       5.729  -0.172 -10.530  0.00  0.00    -0.047 A 
ATOM     25  C   LIG d   1       4.160  -0.809 -12.360  0.00  0.00    -0.033 A 
ATOM     26  C   LIG d   1       5.955   0.132  -9.220  0.00  0.00    -0.018 A 
ATOM     27  H   LIG d   1       6.548  -0.179 -11.235  0.00  0.00     0.063 H 
ATOM     28  H   LIG d   1       6.957   0.367  -8.889  0.00  0.00     0.066 H 
ATOM     29  C   LIG d   1       2.880  -1.095 -12.714  0.00  0.00     0.026 A 
ATOM     30  C   LIG d   1       1.861  -1.068 -11.741  0.00  0.00     0.338 A 
ATOM     31  H   LIG d   1       2.645  -1.344 -13.738  0.00  0.00     0.069 H 
ATOM     32  O   LIG d   1       0.717  -1.328 -12.071  0.00  0.00    -0.245 OA
BRANCH  20  33
ATOM     33  C   LIG d   1       2.485  -0.144  -7.716  0.00  0.00    -0.033 C 
ATOM     34  H   LIG d   1       1.744   0.597  -8.017  0.00  0.00     0.028 H 
ATOM     35  H   LIG d   1       2.020  -1.130  -7.681  0.00  0.00     0.028 H 
ATOM     36  H   LIG d   1       2.872   0.109  -6.729  0.00  0.00     0.028 H 
ENDBRANCH  20  33
BRANCH  25  37
ATOM     37  C   LIG d   1       5.269  -0.831 -13.381  0.00  0.00    -0.039 C 
ATOM     38  H   LIG d   1       5.492  -1.862 -13.651  0.00  0.00     0.028 H 
ATOM     39  H   LIG d   1       4.957  -0.281 -14.268  0.00  0.00     0.028 H 
ATOM     40  H   LIG d   1       6.159  -0.365 -12.958  0.00  0.00     0.028 H 
ENDBRANCH  25  37
ENDBRANCH  18  19
ENDBRANCH  16  18
ENDBRANCH   1  16
BRANCH   1  41
ATOM     41  N   LIG d   1       4.285  -2.211  -5.768  0.00  0.00    -0.176 N 
ATOM     42  H   LIG d   1       3.360  -1.977  -5.935  0.00  0.00     0.149 HD
BRANCH  41  43
ATOM     43  S   LIG d   1       4.835  -3.728  -6.140  0.00  0.00     0.059 S 
ATOM     44  O   LIG d   1       6.204  -3.769  -5.761  0.00  0.00    -0.153 OA
ATOM     45  O   LIG d   1       3.876  -4.644  -5.631  0.00  0.00    -0.153 OA
BRANCH  43  46
ATOM     46  C   LIG d   1       4.794  -3.881  -7.895  0.00  0.00     0.105 A 
ATOM     47  C   LIG d   1       3.593  -4.106  -8.542  0.00  0.00    -0.035 A 
ATOM     48  C   LIG d   1       3.561  -4.226  -9.918  0.00  0.00    -0.057 A 
ATOM     49  H   LIG d   1       2.680  -4.189  -7.971  0.00  0.00     0.064 H 
ATOM     50  C   LIG d   1       4.730  -4.120 -10.648  0.00  0.00    -0.050 A 
ATOM     51  H   LIG d   1       2.623  -4.402 -10.424  0.00  0.00     0.062 H 
ATOM     52  C   LIG d   1       5.931  -3.894 -10.002  0.00  0.00    -0.057 A 
ATOM     53  C   LIG d   1       5.962  -3.770  -8.626  0.00  0.00    -0.035 A 
ATOM     54  H   LIG d   1       6.844  -3.811 -10.573  0.00  0.00     0.062 H 
ATOM     55  H   LIG d   1       6.900  -3.588  -8.121  0.00  0.00     0.064 H 
BRANCH  50  56
ATOM     56  C   LIG d   1       4.696  -4.251 -12.150  0.00  0.00    -0.040 C 
ATOM     57  H   LIG d   1       5.476  -4.939 -12.473  0.00  0.00     0.028 H 
ATOM     58  H   LIG d   1       3.723  -4.632 -12.460  0.00  0.00     0.028 H 
ATOM     59  H   LIG d   1       4.863  -3.273 -12.602  0.00  0.00     0.028 H 
ENDBRANCH  50  56
ENDBRANCH  43  46
ENDBRANCH  41  43
ENDBRANCH   1  41
TORSDOF 13
ENDMDL
MODEL 9
REMARK VINA RESULT:      -5.2      2.114      4.188
REMARK  13 active torsions:
REMARK  status: ('A' for Active; 'I' for Inactive)
REMARK    1  A    between atoms: C_1  and  C_2 
REMARK    2  A    between atoms: C_2  and  C_3 
REMARK    3  A    between atoms: C_3  and  C_4 
REMARK    4  A    between atoms: C_4  and  C_5 
REMARK    5  A    between atoms: C_5  and  C_7 
REMARK    6  A    between atoms: C_5  and  N_23 
REMARK    7  A    between atoms: C_7  and  O_9 
REMARK    8  A    between atoms: O_9  and  C_10 
REMARK    9  A    between atoms: C_14  and  C_22 
REMARK   10  A    between atoms: C_20  and  C_21 
REMARK   11  A    between atoms: N_23  and  S_24 
REMARK   12  A    between atoms: S_24  and  C_27 
REMARK   13  A    between atoms: C_30  and  C_33 
ROOT
ATOM      1  C   LIG d   1       4.073  -0.606  -6.573  0.00  0.00     0.126 C 
ATOM      2  H   LIG d   1       3.020  -0.623  -6.852  0.00  0.00     0.059 H 
ENDROOT
BRANCH   1   3
ATOM      3  C   LIG d   1       4.202  -0.259  -5.088  0.00  0.00    -0.026 C 
ATOM      4  H   LIG d   1       4.731  -1.060  -4.572  0.00  0.00     0.029 H 
ATOM      5  H   LIG d   1       4.757   0.672  -4.979  0.00  0.00     0.029 H 
BRANCH   3   6
ATOM      6  C   LIG d   1       2.807  -0.095  -4.480  0.00  0.00    -0.051 C 
ATOM      7  H   LIG d   1       2.453   0.922  -4.654  0.00  0.00     0.027 H 
ATOM      8  H   LIG d   1       2.122  -0.802  -4.946  0.00  0.00     0.027 H 
BRANCH   6   9
ATOM      9  C   LIG d   1       2.872  -0.362  -2.975  0.00  0.00    -0.056 C 
ATOM     10  H   LIG d   1       3.440   0.431  -2.490  0.00  0.00     0.026 H 
ATOM     11  H   LIG d   1       1.862  -0.388  -2.567  0.00  0.00     0.026 H 
BRANCH   9  12
ATOM     12  C   LIG d   1       3.558  -1.706  -2.726  0.00  0.00    -0.065 C 
ATOM     13  H   LIG d   1       3.386  -2.365  -3.577  0.00  0.00     0.023 H 
ATOM     14  H   LIG d   1       4.629  -1.550  -2.599  0.00  0.00     0.023 H 
ATOM     15  H   LIG d   1       3.148  -2.163  -1.825  0.00  0.00     0.023 H 
ENDBRANCH   9  12
ENDBRANCH   6   9
ENDBRANCH   3   6
ENDBRANCH   1   3
BRANCH   1  16
ATOM     16  C   LIG d   1       4.683  -1.960  -6.826  0.00  0.00     0.331 C 
ATOM     17  O   LIG d   1       4.571  -2.838  -6.004  0.00  0.00    -0.249 OA
BRANCH  16  18
ATOM     18  O   LIG d   1       5.352  -2.193  -7.967  0.00  0.00    -0.424 OA
BRANCH  18  19
ATOM     19  C   LIG d   1       4.711  -2.915  -8.922  0.00  0.00     0.138 A 
ATOM     20  C   LIG d   1       5.271  -3.036 -10.182  0.00  0.00     0.035 A 
ATOM     21  C   LIG d   1       4.617  -3.774 -11.159  0.00  0.00     0.146 A 
ATOM     22  C   LIG d   1       3.389  -4.389 -10.853  0.00  0.00     0.021 A 
ATOM     23  O   LIG d   1       5.143  -3.899 -12.396  0.00  0.00    -0.422 OA
ATOM     24  C   LIG d   1       2.838  -4.257  -9.573  0.00  0.00    -0.047 A 
ATOM     25  C   LIG d   1       2.706  -5.166 -11.891  0.00  0.00    -0.033 A 
ATOM     26  C   LIG d   1       3.495  -3.528  -8.625  0.00  0.00    -0.018 A 
ATOM     27  H   LIG d   1       1.895  -4.729  -9.338  0.00  0.00     0.063 H 
ATOM     28  H   LIG d   1       3.069  -3.425  -7.637  0.00  0.00     0.066 H 
ATOM     29  C   LIG d   1       3.292  -5.258 -13.113  0.00  0.00     0.026 A 
ATOM     30  C   LIG d   1       4.524  -4.614 -13.350  0.00  0.00     0.338 A 
ATOM     31  H   LIG d   1       2.816  -5.822 -13.901  0.00  0.00     0.069 H 
ATOM     32  O   LIG d   1       5.039  -4.704 -14.450  0.00  0.00    -0.245 OA
BRANCH  20  33
ATOM     33  C   LIG d   1       6.585  -2.370 -10.493  0.00  0.00    -0.033 C 
ATOM     34  H   LIG d   1       6.802  -1.621  -9.732  0.00  0.00     0.028 H 
ATOM     35  H   LIG d   1       7.379  -3.118 -10.503  0.00  0.00     0.028 H 
ATOM     36  H   LIG d   1       6.528  -1.890 -11.470  0.00  0.00     0.028 H 
ENDBRANCH  20  33
BRANCH  25  37
ATOM     37  C   LIG d   1       1.389  -5.843 -11.611  0.00  0.00    -0.039 C 
ATOM     38  H   LIG d   1       0.579  -5.124 -11.726  0.00  0.00     0.028 H 
ATOM     39  H   LIG d   1       1.249  -6.666 -12.312  0.00  0.00     0.028 H 
ATOM     40  H   LIG d   1       1.390  -6.230 -10.592  0.00  0.00     0.028 H 
ENDBRANCH  25  37
ENDBRANCH  18  19
ENDBRANCH  16  18
ENDBRANCH   1  16
BRANCH   1  41
ATOM     41  N   LIG d   1       4.775   0.402  -7.372  0.00  0.00    -0.176 N 
ATOM     42  H   LIG d   1       5.741   0.464  -7.336  0.00  0.00     0.149 HD
BRANCH  41  43
ATOM     43  S   LIG d   1       3.915   1.435  -8.338  0.00  0.00     0.059 S 
ATOM     44  O   LIG d   1       2.799   1.873  -7.575  0.00  0.00    -0.153 OA
ATOM     45  O   LIG d   1       4.854   2.340  -8.903  0.00  0.00    -0.153 OA
BRANCH  43  46
ATOM     46  C   LIG d   1       3.268   0.484  -9.673  0.00  0.00     0.105 A 
ATOM     47  C   LIG d   1       2.056  -0.167  -9.534  0.00  0.00    -0.035 A 
ATOM     48  C   LIG d   1       1.549  -0.914 -10.581  0.00  0.00    -0.057 A 
ATOM     49  H   LIG d   1       1.506  -0.093  -8.608  0.00  0.00     0.064 H 
ATOM     50  C   LIG d   1       2.253  -1.009 -11.767  0.00  0.00    -0.050 A 
ATOM     51  H   LIG d   1       0.603  -1.423 -10.473  0.00  0.00     0.062 H 
ATOM     52  C   LIG d   1       3.464  -0.357 -11.906  0.00  0.00    -0.057 A 
ATOM     53  C   LIG d   1       3.969   0.393 -10.861  0.00  0.00    -0.035 A 
ATOM     54  H   LIG d   1       4.014  -0.431 -12.833  0.00  0.00     0.062 H 
ATOM     55  H   LIG d   1       4.914   0.906 -10.971  0.00  0.00     0.064 H 
BRANCH  50  56
ATOM     56  C   LIG d   1       1.700  -1.822 -12.909  0.00  0.00    -0.040 C 
ATOM     57  H   LIG d   1       1.968  -1.352 -13.854  0.00  0.00     0.028 H 
ATOM     58  H   LIG d   1       2.116  -2.829 -12.873  0.00  0.00     0.028 H 
ATOM     59  H   LIG d   1       0.615  -1.875 -12.824  0.00  0.00     0.028 H 
ENDBRANCH  50  56
ENDBRANCH  43  46
ENDBRANCH  41  43
ENDBRANCH   1  41
TORSDOF 13
ENDMDL
