MODEL 1
REMARK VINA RESULT:      -6.2      0.000      0.000
REMARK  9 active torsions:
REMARK  status: ('A' for Active; 'I' for Inactive)
REMARK    1  A    between atoms: C_1  and  C_2 
REMARK    2  A    between atoms: C_2  and  C_3 
REMARK    3  A    between atoms: C_3  and  C_4 
REMARK    4  A    between atoms: C_4  and  C_5 
REMARK    5  A    between atoms: C_5  and  O_6 
REMARK    6  A    between atoms: O_6  and  C_7 
REMARK    7  A    between atoms: C_7  and  C_9 
REMARK    8  A    between atoms: N_20  and  C_22 
REMARK    9  A    between atoms: C_25  and  C_28 
ROOT
ATOM      1  C   LIG d   1       7.751  -1.057  -4.667  0.00  0.00     0.100 C 
ATOM      2  H   LIG d   1       8.824  -0.897  -4.773  0.00  0.00     0.045 H 
ATOM      3  C   LIG d   1       7.451  -2.292  -3.732  0.00  0.00     0.092 C 
ATOM      4  H   LIG d   1       8.148  -2.449  -2.909  0.00  0.00     0.065 H 
ATOM      5  C   LIG d   1       5.981  -2.063  -3.357  0.00  0.00    -0.056 C 
ATOM      6  C   LIG d   1       5.299  -2.332  -4.461  0.00  0.00    -0.052 C 
ATOM      7  C   LIG d   1       6.329  -2.781  -5.481  0.00  0.00     0.116 C 
ATOM      8  C   LIG d   1       7.141  -1.515  -5.969  0.00  0.00     0.086 C 
ATOM      9  H   LIG d   1       7.932  -1.855  -6.637  0.00  0.00     0.044 H 
ATOM     10  C   LIG d   1       6.104  -0.823  -6.756  0.00  0.00     0.227 C 
ATOM     11  O   LIG d   1       5.963   0.376  -6.870  0.00  0.00    -0.275 OA
ATOM     12  N   LIG d   1       5.325  -1.797  -7.334  0.00  0.00    -0.268 N 
ATOM     13  C   LIG d   1       5.716  -3.138  -6.797  0.00  0.00     0.053 C 
ATOM     14  O   LIG d   1       7.331  -3.405  -4.713  0.00  0.00    -0.359 OA
ATOM     15  H   LIG d   1       5.588  -1.750  -2.401  0.00  0.00     0.060 H 
ATOM     16  H   LIG d   1       4.232  -2.250  -4.603  0.00  0.00     0.060 H 
ATOM     17  H   LIG d   1       4.841  -3.773  -6.661  0.00  0.00     0.050 H 
ATOM     18  H   LIG d   1       6.448  -3.619  -7.446  0.00  0.00     0.050 H 
ENDROOT
BRANCH   1  19
ATOM     19  C   LIG d   1       7.069   0.187  -4.159  0.00  0.00     0.314 C 
ATOM     20  O   LIG d   1       7.161   1.222  -4.776  0.00  0.00    -0.250 OA
BRANCH  19  21
ATOM     21  O   LIG d   1       6.358   0.145  -3.021  0.00  0.00    -0.464 OA
BRANCH  21  22
ATOM     22  C   LIG d   1       5.535   1.301  -2.715  0.00  0.00     0.092 C 
ATOM     23  H   LIG d   1       6.155   2.085  -2.281  0.00  0.00     0.070 H 
ATOM     24  H   LIG d   1       5.072   1.670  -3.631  0.00  0.00     0.070 H 
BRANCH  22  25
ATOM     25  C   LIG d   1       4.446   0.902  -1.717  0.00  0.00    -0.018 C 
ATOM     26  H   LIG d   1       4.848   0.176  -1.010  0.00  0.00     0.030 H 
ATOM     27  H   LIG d   1       4.105   1.785  -1.178  0.00  0.00     0.030 H 
BRANCH  25  28
ATOM     28  C   LIG d   1       3.268   0.280  -2.471  0.00  0.00    -0.050 C 
ATOM     29  H   LIG d   1       3.396  -0.801  -2.517  0.00  0.00     0.027 H 
ATOM     30  H   LIG d   1       2.340   0.515  -1.951  0.00  0.00     0.027 H 
BRANCH  28  31
ATOM     31  C   LIG d   1       3.214   0.848  -3.891  0.00  0.00    -0.056 C 
ATOM     32  H   LIG d   1       2.997   1.915  -3.848  0.00  0.00     0.026 H 
ATOM     33  H   LIG d   1       4.176   0.693  -4.380  0.00  0.00     0.026 H 
BRANCH  31  34
ATOM     34  C   LIG d   1       2.117   0.136  -4.684  0.00  0.00    -0.065 C 
ATOM     35  H   LIG d   1       2.121   0.495  -5.714  0.00  0.00     0.023 H 
ATOM     36  H   LIG d   1       2.301  -0.939  -4.674  0.00  0.00     0.023 H 
ATOM     37  H   LIG d   1       1.148   0.343  -4.231  0.00  0.00     0.023 H 
ENDBRANCH  31  34
ENDBRANCH  28  31
ENDBRANCH  25  28
ENDBRANCH  22  25
ENDBRANCH  21  22
ENDBRANCH  19  21
ENDBRANCH   1  19
BRANCH  12  38
ATOM     38  C   LIG d   1       4.316  -1.569  -8.277  0.00  0.00     0.036 A 
ATOM     39  C   LIG d   1       4.403  -2.136  -9.540  0.00  0.00    -0.040 A 
ATOM     40  C   LIG d   1       3.407  -1.909 -10.468  0.00  0.00    -0.057 A 
ATOM     41  H   LIG d   1       5.251  -2.755  -9.798  0.00  0.00     0.064 H 
ATOM     42  C   LIG d   1       2.322  -1.116 -10.140  0.00  0.00    -0.050 A 
ATOM     43  H   LIG d   1       3.473  -2.350 -11.452  0.00  0.00     0.062 H 
ATOM     44  C   LIG d   1       2.232  -0.549  -8.881  0.00  0.00    -0.057 A 
ATOM     45  C   LIG d   1       3.226  -0.773  -7.949  0.00  0.00    -0.040 A 
ATOM     46  H   LIG d   1       1.381   0.066  -8.626  0.00  0.00     0.062 H 
ATOM     47  H   LIG d   1       3.156  -0.331  -6.967  0.00  0.00     0.064 H 
BRANCH  42  48
ATOM     48  C   LIG d   1       1.235  -0.870 -11.154  0.00  0.00    -0.040 C 
ATOM     49  H   LIG d   1       0.642  -1.777 -11.280  0.00  0.00     0.028 H 
ATOM     50  H   LIG d   1       0.592  -0.061 -10.807  0.00  0.00     0.028 H 
ATOM     51  H   LIG d   1       1.683  -0.593 -12.108  0.00  0.00     0.028 H 
ENDBRANCH  42  48
ENDBRANCH  12  38
TORSDOF 9
ENDMDL
MODEL 2
REMARK VINA RESULT:      -6.2      2.420      5.547
REMARK  9 active torsions:
REMARK  status: ('A' for Active; 'I' for Inactive)
REMARK    1  A    between atoms: C_1  and  C_2 
REMARK    2  A    between atoms: C_2  and  C_3 
REMARK    3  A    between atoms: C_3  and  C_4 
REMARK    4  A    between atoms: C_4  and  C_5 
REMARK    5  A    between atoms: C_5  and  O_6 
REMARK    6  A    between atoms: O_6  and  C_7 
REMARK    7  A    between atoms: C_7  and  C_9 
REMARK    8  A    between atoms: N_20  and  C_22 
REMARK    9  A    between atoms: C_25  and  C_28 
ROOT
ATOM      1  C   LIG d   1       3.974   0.819  -4.029  0.00  0.00     0.100 C 
ATOM      2  H   LIG d   1       4.328   1.839  -4.180  0.00  0.00     0.045 H 
ATOM      3  C   LIG d   1       3.363   0.639  -2.586  0.00  0.00     0.092 C 
ATOM      4  H   LIG d   1       2.842   1.505  -2.176  0.00  0.00     0.065 H 
ATOM      5  C   LIG d   1       2.545  -0.649  -2.740  0.00  0.00    -0.056 C 
ATOM      6  C   LIG d   1       3.445  -1.619  -2.823  0.00  0.00    -0.052 C 
ATOM      7  C   LIG d   1       4.794  -0.943  -2.658  0.00  0.00     0.116 C 
ATOM      8  C   LIG d   1       5.127  -0.153  -3.987  0.00  0.00     0.086 C 
ATOM      9  H   LIG d   1       6.055   0.397  -3.831  0.00  0.00     0.044 H 
ATOM     10  C   LIG d   1       5.376  -1.277  -4.907  0.00  0.00     0.227 C 
ATOM     11  O   LIG d   1       5.117  -1.311  -6.092  0.00  0.00    -0.275 OA
ATOM     12  N   LIG d   1       5.955  -2.280  -4.167  0.00  0.00    -0.268 N 
ATOM     13  C   LIG d   1       5.932  -1.911  -2.716  0.00  0.00     0.053 C 
ATOM     14  O   LIG d   1       4.534   0.150  -1.809  0.00  0.00    -0.359 OA
ATOM     15  H   LIG d   1       1.470  -0.746  -2.774  0.00  0.00     0.060 H 
ATOM     16  H   LIG d   1       3.256  -2.671  -2.975  0.00  0.00     0.060 H 
ATOM     17  H   LIG d   1       5.734  -2.785  -2.096  0.00  0.00     0.050 H 
ATOM     18  H   LIG d   1       6.864  -1.429  -2.422  0.00  0.00     0.050 H 
ENDROOT
BRANCH   1  19
ATOM     19  C   LIG d   1       2.979   0.431  -5.092  0.00  0.00     0.314 C 
ATOM     20  O   LIG d   1       1.939  -0.100  -4.781  0.00  0.00    -0.250 OA
BRANCH  19  21
ATOM     21  O   LIG d   1       3.247   0.677  -6.384  0.00  0.00    -0.464 OA
BRANCH  21  22
ATOM     22  C   LIG d   1       2.519  -0.104  -7.368  0.00  0.00     0.092 C 
ATOM     23  H   LIG d   1       2.991  -1.080  -7.480  0.00  0.00     0.070 H 
ATOM     24  H   LIG d   1       1.488  -0.235  -7.037  0.00  0.00     0.070 H 
BRANCH  22  25
ATOM     25  C   LIG d   1       2.534   0.627  -8.712  0.00  0.00    -0.018 C 
ATOM     26  H   LIG d   1       3.277   0.171  -9.366  0.00  0.00     0.030 H 
ATOM     27  H   LIG d   1       1.550   0.558  -9.174  0.00  0.00     0.030 H 
BRANCH  25  28
ATOM     28  C   LIG d   1       2.889   2.099  -8.486  0.00  0.00    -0.050 C 
ATOM     29  H   LIG d   1       1.992   2.709  -8.590  0.00  0.00     0.027 H 
ATOM     30  H   LIG d   1       3.300   2.224  -7.485  0.00  0.00     0.027 H 
BRANCH  28  31
ATOM     31  C   LIG d   1       3.927   2.538  -9.521  0.00  0.00    -0.056 C 
ATOM     32  H   LIG d   1       3.649   3.510  -9.926  0.00  0.00     0.026 H 
ATOM     33  H   LIG d   1       4.906   2.609  -9.045  0.00  0.00     0.026 H 
BRANCH  31  34
ATOM     34  C   LIG d   1       3.983   1.512 -10.654  0.00  0.00    -0.065 C 
ATOM     35  H   LIG d   1       4.056   2.029 -11.611  0.00  0.00     0.023 H 
ATOM     36  H   LIG d   1       4.856   0.871 -10.521  0.00  0.00     0.023 H 
ATOM     37  H   LIG d   1       3.080   0.902 -10.638  0.00  0.00     0.023 H 
ENDBRANCH  31  34
ENDBRANCH  28  31
ENDBRANCH  25  28
ENDBRANCH  22  25
ENDBRANCH  21  22
ENDBRANCH  19  21
ENDBRANCH   1  19
BRANCH  12  38
ATOM     38  C   LIG d   1       6.480  -3.467  -4.689  0.00  0.00     0.036 A 
ATOM     39  C   LIG d   1       7.845  -3.710  -4.628  0.00  0.00    -0.040 A 
ATOM     40  C   LIG d   1       8.360  -4.882  -5.144  0.00  0.00    -0.057 A 
ATOM     41  H   LIG d   1       8.504  -2.982  -4.178  0.00  0.00     0.064 H 
ATOM     42  C   LIG d   1       7.518  -5.815  -5.721  0.00  0.00    -0.050 A 
ATOM     43  H   LIG d   1       9.422  -5.072  -5.098  0.00  0.00     0.062 H 
ATOM     44  C   LIG d   1       6.156  -5.576  -5.784  0.00  0.00    -0.057 A 
ATOM     45  C   LIG d   1       5.635  -4.405  -5.268  0.00  0.00    -0.040 A 
ATOM     46  H   LIG d   1       5.500  -6.308  -6.231  0.00  0.00     0.062 H 
ATOM     47  H   LIG d   1       4.573  -4.219  -5.317  0.00  0.00     0.064 H 
BRANCH  42  48
ATOM     48  C   LIG d   1       8.082  -7.094  -6.284  0.00  0.00    -0.040 C 
ATOM     49  H   LIG d   1       9.171  -7.055  -6.252  0.00  0.00     0.028 H 
ATOM     50  H   LIG d   1       7.731  -7.937  -5.689  0.00  0.00     0.028 H 
ATOM     51  H   LIG d   1       7.753  -7.215  -7.315  0.00  0.00     0.028 H 
ENDBRANCH  42  48
ENDBRANCH  12  38
TORSDOF 9
ENDMDL
MODEL 3
REMARK VINA RESULT:      -6.2      3.442      6.504
REMARK  9 active torsions:
REMARK  status: ('A' for Active; 'I' for Inactive)
REMARK    1  A    between atoms: C_1  and  C_2 
REMARK    2  A    between atoms: C_2  and  C_3 
REMARK    3  A    between atoms: C_3  and  C_4 
REMARK    4  A    between atoms: C_4  and  C_5 
REMARK    5  A    between atoms: C_5  and  O_6 
REMARK    6  A    between atoms: O_6  and  C_7 
REMARK    7  A    between atoms: C_7  and  C_9 
REMARK    8  A    between atoms: N_20  and  C_22 
REMARK    9  A    between atoms: C_25  and  C_28 
ROOT
ATOM      1  C   LIG d   1       6.957  -1.058  -5.330  0.00  0.00     0.100 C 
ATOM      2  H   LIG d   1       6.617  -1.862  -4.677  0.00  0.00     0.045 H 
ATOM      3  C   LIG d   1       7.842  -1.620  -6.509  0.00  0.00     0.092 C 
ATOM      4  H   LIG d   1       7.564  -2.603  -6.890  0.00  0.00     0.065 H 
ATOM      5  C   LIG d   1       7.820  -0.460  -7.511  0.00  0.00    -0.056 C 
ATOM      6  C   LIG d   1       8.580   0.479  -6.967  0.00  0.00    -0.052 C 
ATOM      7  C   LIG d   1       9.114  -0.120  -5.678  0.00  0.00     0.116 C 
ATOM      8  C   LIG d   1       7.941  -0.163  -4.619  0.00  0.00     0.086 C 
ATOM      9  H   LIG d   1       8.308  -0.669  -3.727  0.00  0.00     0.044 H 
ATOM     10  C   LIG d   1       7.789   1.276  -4.335  0.00  0.00     0.227 C 
ATOM     11  O   LIG d   1       6.756   1.855  -4.077  0.00  0.00    -0.275 OA
ATOM     12  N   LIG d   1       9.042   1.835  -4.419  0.00  0.00    -0.268 N 
ATOM     13  C   LIG d   1      10.012   0.819  -4.938  0.00  0.00     0.053 C 
ATOM     14  O   LIG d   1       9.217  -1.497  -5.952  0.00  0.00    -0.359 OA
ATOM     15  H   LIG d   1       7.297  -0.417  -8.455  0.00  0.00     0.060 H 
ATOM     16  H   LIG d   1       8.780   1.465  -7.360  0.00  0.00     0.060 H 
ATOM     17  H   LIG d   1      10.735   1.280  -5.610  0.00  0.00     0.050 H 
ATOM     18  H   LIG d   1      10.514   0.306  -4.118  0.00  0.00     0.050 H 
ENDROOT
BRANCH   1  19
ATOM     19  C   LIG d   1       5.789  -0.265  -5.860  0.00  0.00     0.314 C 
ATOM     20  O   LIG d   1       5.892   0.337  -6.902  0.00  0.00    -0.250 OA
BRANCH  19  21
ATOM     21  O   LIG d   1       4.637  -0.228  -5.173  0.00  0.00    -0.464 OA
BRANCH  21  22
ATOM     22  C   LIG d   1       4.264  -1.429  -4.447  0.00  0.00     0.092 C 
ATOM     23  H   LIG d   1       3.681  -2.080  -5.098  0.00  0.00     0.070 H 
ATOM     24  H   LIG d   1       5.164  -1.951  -4.122  0.00  0.00     0.070 H 
BRANCH  22  25
ATOM     25  C   LIG d   1       3.427  -1.046  -3.225  0.00  0.00    -0.018 C 
ATOM     26  H   LIG d   1       2.957  -0.077  -3.395  0.00  0.00     0.030 H 
ATOM     27  H   LIG d   1       2.657  -1.800  -3.062  0.00  0.00     0.030 H 
BRANCH  25  28
ATOM     28  C   LIG d   1       4.331  -0.966  -1.993  0.00  0.00    -0.050 C 
ATOM     29  H   LIG d   1       3.831  -1.434  -1.145  0.00  0.00     0.027 H 
ATOM     30  H   LIG d   1       5.266  -1.486  -2.196  0.00  0.00     0.027 H 
BRANCH  28  31
ATOM     31  C   LIG d   1       4.623   0.500  -1.670  0.00  0.00    -0.056 C 
ATOM     32  H   LIG d   1       4.587   0.649  -0.591  0.00  0.00     0.026 H 
ATOM     33  H   LIG d   1       5.615   0.762  -2.039  0.00  0.00     0.026 H 
BRANCH  31  34
ATOM     34  C   LIG d   1       3.576   1.390  -2.342  0.00  0.00    -0.065 C 
ATOM     35  H   LIG d   1       2.721   1.512  -1.677  0.00  0.00     0.023 H 
ATOM     36  H   LIG d   1       4.012   2.366  -2.555  0.00  0.00     0.023 H 
ATOM     37  H   LIG d   1       3.249   0.927  -3.273  0.00  0.00     0.023 H 
ENDBRANCH  31  34
ENDBRANCH  28  31
ENDBRANCH  25  28
ENDBRANCH  22  25
ENDBRANCH  21  22
ENDBRANCH  19  21
ENDBRANCH   1  19
BRANCH  12  38
ATOM     38  C   LIG d   1       9.361   3.153  -4.078  0.00  0.00     0.036 A 
ATOM     39  C   LIG d   1       9.092   4.187  -4.965  0.00  0.00    -0.040 A 
ATOM     40  C   LIG d   1       9.410   5.486  -4.627  0.00  0.00    -0.057 A 
ATOM     41  H   LIG d   1       8.636   3.972  -5.921  0.00  0.00     0.064 H 
ATOM     42  C   LIG d   1       9.994   5.761  -3.404  0.00  0.00    -0.050 A 
ATOM     43  H   LIG d   1       9.201   6.291  -5.316  0.00  0.00     0.062 H 
ATOM     44  C   LIG d   1      10.264   4.734  -2.517  0.00  0.00    -0.057 A 
ATOM     45  C   LIG d   1       9.948   3.431  -2.850  0.00  0.00    -0.040 A 
ATOM     46  H   LIG d   1      10.716   4.952  -1.560  0.00  0.00     0.062 H 
ATOM     47  H   LIG d   1      10.159   2.630  -2.158  0.00  0.00     0.064 H 
BRANCH  42  48
ATOM     48  C   LIG d   1      10.339   7.181  -3.036  0.00  0.00    -0.040 C 
ATOM     49  H   LIG d   1      11.061   7.577  -3.751  0.00  0.00     0.028 H 
ATOM     50  H   LIG d   1       9.436   7.791  -3.057  0.00  0.00     0.028 H 
ATOM     51  H   LIG d   1      10.769   7.204  -2.035  0.00  0.00     0.028 H 
ENDBRANCH  42  48
ENDBRANCH  12  38
TORSDOF 9
ENDMDL
MODEL 4
REMARK VINA RESULT:      -6.2      2.044      3.962
REMARK  9 active torsions:
REMARK  status: ('A' for Active; 'I' for Inactive)
REMARK    1  A    between atoms: C_1  and  C_2 
REMARK    2  A    between atoms: C_2  and  C_3 
REMARK    3  A    between atoms: C_3  and  C_4 
REMARK    4  A    between atoms: C_4  and  C_5 
REMARK    5  A    between atoms: C_5  and  O_6 
REMARK    6  A    between atoms: O_6  and  C_7 
REMARK    7  A    between atoms: C_7  and  C_9 
REMARK    8  A    between atoms: N_20  and  C_22 
REMARK    9  A    between atoms: C_25  and  C_28 
ROOT
ATOM      1  C   LIG d   1       4.791  -1.417  -2.691  0.00  0.00     0.100 C 
ATOM      2  H   LIG d   1       4.553  -2.352  -2.183  0.00  0.00     0.045 H 
ATOM      3  C   LIG d   1       4.320  -0.175  -1.839  0.00  0.00     0.092 C 
ATOM      4  H   LIG d   1       4.384  -0.284  -0.757  0.00  0.00     0.065 H 
ATOM      5  C   LIG d   1       5.126   0.970  -2.466  0.00  0.00    -0.056 C 
ATOM      6  C   LIG d   1       4.570   1.173  -3.651  0.00  0.00    -0.052 C 
ATOM      7  C   LIG d   1       3.400   0.209  -3.727  0.00  0.00     0.116 C 
ATOM      8  C   LIG d   1       3.963  -1.253  -3.940  0.00  0.00     0.086 C 
ATOM      9  H   LIG d   1       3.124  -1.948  -3.910  0.00  0.00     0.044 H 
ATOM     10  C   LIG d   1       4.456  -1.146  -5.325  0.00  0.00     0.227 C 
ATOM     11  O   LIG d   1       5.428  -1.702  -5.791  0.00  0.00    -0.275 OA
ATOM     12  N   LIG d   1       3.606  -0.294  -5.989  0.00  0.00    -0.268 N 
ATOM     13  C   LIG d   1       2.648   0.319  -5.015  0.00  0.00     0.053 C 
ATOM     14  O   LIG d   1       2.964   0.087  -2.394  0.00  0.00    -0.359 OA
ATOM     15  H   LIG d   1       5.964   1.496  -2.035  0.00  0.00     0.060 H 
ATOM     16  H   LIG d   1       4.885   1.878  -4.407  0.00  0.00     0.060 H 
ATOM     17  H   LIG d   1       2.452   1.361  -5.265  0.00  0.00     0.050 H 
ATOM     18  H   LIG d   1       1.720  -0.251  -4.970  0.00  0.00     0.050 H 
ENDROOT
BRANCH   1  19
ATOM     19  C   LIG d   1       6.263  -1.334  -3.002  0.00  0.00     0.314 C 
ATOM     20  O   LIG d   1       6.943  -2.333  -2.981  0.00  0.00    -0.250 OA
BRANCH  19  21
ATOM     21  O   LIG d   1       6.819  -0.150  -3.304  0.00  0.00    -0.464 OA
BRANCH  21  22
ATOM     22  C   LIG d   1       7.983  -0.171  -4.172  0.00  0.00     0.092 C 
ATOM     23  H   LIG d   1       8.888  -0.139  -3.567  0.00  0.00     0.070 H 
ATOM     24  H   LIG d   1       7.976  -1.085  -4.767  0.00  0.00     0.070 H 
BRANCH  22  25
ATOM     25  C   LIG d   1       7.947   1.043  -5.102  0.00  0.00    -0.018 C 
ATOM     26  H   LIG d   1       8.770   0.981  -5.814  0.00  0.00     0.030 H 
ATOM     27  H   LIG d   1       7.000   1.061  -5.640  0.00  0.00     0.030 H 
BRANCH  25  28
ATOM     28  C   LIG d   1       8.086   2.323  -4.274  0.00  0.00    -0.050 C 
ATOM     29  H   LIG d   1       8.003   3.190  -4.929  0.00  0.00     0.027 H 
ATOM     30  H   LIG d   1       7.296   2.357  -3.524  0.00  0.00     0.027 H 
BRANCH  28  31
ATOM     31  C   LIG d   1       9.449   2.336  -3.579  0.00  0.00    -0.056 C 
ATOM     32  H   LIG d   1       9.427   1.664  -2.722  0.00  0.00     0.026 H 
ATOM     33  H   LIG d   1      10.216   2.005  -4.281  0.00  0.00     0.026 H 
BRANCH  31  34
ATOM     34  C   LIG d   1       9.767   3.755  -3.106  0.00  0.00    -0.065 C 
ATOM     35  H   LIG d   1       9.354   3.907  -2.109  0.00  0.00     0.023 H 
ATOM     36  H   LIG d   1      10.849   3.893  -3.076  0.00  0.00     0.023 H 
ATOM     37  H   LIG d   1       9.328   4.476  -3.795  0.00  0.00     0.023 H 
ENDBRANCH  31  34
ENDBRANCH  28  31
ENDBRANCH  25  28
ENDBRANCH  22  25
ENDBRANCH  21  22
ENDBRANCH  19  21
ENDBRANCH   1  19
BRANCH  12  38
ATOM     38  C   LIG d   1       3.634  -0.035  -7.363  0.00  0.00     0.036 A 
ATOM     39  C   LIG d   1       4.752   0.556  -7.937  0.00  0.00    -0.040 A 
ATOM     40  C   LIG d   1       4.777   0.812  -9.293  0.00  0.00    -0.057 A 
ATOM     41  H   LIG d   1       5.601   0.816  -7.322  0.00  0.00     0.064 H 
ATOM     42  C   LIG d   1       3.690   0.480 -10.081  0.00  0.00    -0.050 A 
ATOM     43  H   LIG d   1       5.646   1.271  -9.740  0.00  0.00     0.062 H 
ATOM     44  C   LIG d   1       2.574  -0.109  -9.513  0.00  0.00    -0.057 A 
ATOM     45  C   LIG d   1       2.544  -0.367  -8.156  0.00  0.00    -0.040 A 
ATOM     46  H   LIG d   1       1.728  -0.371 -10.131  0.00  0.00     0.062 H 
ATOM     47  H   LIG d   1       1.673  -0.827  -7.713  0.00  0.00     0.064 H 
BRANCH  42  48
ATOM     48  C   LIG d   1       3.719   0.760 -11.562  0.00  0.00    -0.040 C 
ATOM     49  H   LIG d   1       2.703   0.740 -11.955  0.00  0.00     0.028 H 
ATOM     50  H   LIG d   1       4.157   1.742 -11.736  0.00  0.00     0.028 H 
ATOM     51  H   LIG d   1       4.318   0.000 -12.064  0.00  0.00     0.028 H 
ENDBRANCH  42  48
ENDBRANCH  12  38
TORSDOF 9
ENDMDL
MODEL 5
REMARK VINA RESULT:      -6.1      2.442      3.991
REMARK  9 active torsions:
REMARK  status: ('A' for Active; 'I' for Inactive)
REMARK    1  A    between atoms: C_1  and  C_2 
REMARK    2  A    between atoms: C_2  and  C_3 
REMARK    3  A    between atoms: C_3  and  C_4 
REMARK    4  A    between atoms: C_4  and  C_5 
REMARK    5  A    between atoms: C_5  and  O_6 
REMARK    6  A    between atoms: O_6  and  C_7 
REMARK    7  A    between atoms: C_7  and  C_9 
REMARK    8  A    between atoms: N_20  and  C_22 
REMARK    9  A    between atoms: C_25  and  C_28 
ROOT
ATOM      1  C   LIG d   1       5.872  -0.206  -2.766  0.00  0.00     0.100 C 
ATOM      2  H   LIG d   1       6.598  -0.879  -2.308  0.00  0.00     0.045 H 
ATOM      3  C   LIG d   1       4.677   0.092  -1.780  0.00  0.00     0.092 C 
ATOM      4  H   LIG d   1       4.930   0.140  -0.721  0.00  0.00     0.065 H 
ATOM      5  C   LIG d   1       4.055   1.351  -2.398  0.00  0.00    -0.056 C 
ATOM      6  C   LIG d   1       3.454   0.930  -3.502  0.00  0.00    -0.052 C 
ATOM      7  C   LIG d   1       3.650  -0.575  -3.529  0.00  0.00     0.116 C 
ATOM      8  C   LIG d   1       5.154  -0.881  -3.908  0.00  0.00     0.086 C 
ATOM      9  H   LIG d   1       5.308  -1.958  -3.843  0.00  0.00     0.044 H 
ATOM     10  C   LIG d   1       5.157  -0.473  -5.324  0.00  0.00     0.227 C 
ATOM     11  O   LIG d   1       6.079   0.034  -5.928  0.00  0.00    -0.275 OA
ATOM     12  N   LIG d   1       3.916  -0.775  -5.831  0.00  0.00    -0.268 N 
ATOM     13  C   LIG d   1       3.013  -1.215  -4.720  0.00  0.00     0.053 C 
ATOM     14  O   LIG d   1       3.683  -0.945  -2.170  0.00  0.00    -0.359 OA
ATOM     15  H   LIG d   1       4.098   2.360  -2.018  0.00  0.00     0.060 H 
ATOM     16  H   LIG d   1       2.933   1.534  -4.230  0.00  0.00     0.060 H 
ATOM     17  H   LIG d   1       2.001  -0.842  -4.870  0.00  0.00     0.050 H 
ATOM     18  H   LIG d   1       3.017  -2.301  -4.623  0.00  0.00     0.050 H 
ENDROOT
BRANCH   1  19
ATOM     19  C   LIG d   1       6.532   1.070  -3.221  0.00  0.00     0.314 C 
ATOM     20  O   LIG d   1       5.924   2.113  -3.175  0.00  0.00    -0.250 OA
BRANCH  19  21
ATOM     21  O   LIG d   1       7.794   1.047  -3.676  0.00  0.00    -0.464 OA
BRANCH  21  22
ATOM     22  C   LIG d   1       8.338   2.299  -4.172  0.00  0.00     0.092 C 
ATOM     23  H   LIG d   1       8.593   2.192  -5.226  0.00  0.00     0.070 H 
ATOM     24  H   LIG d   1       7.595   3.088  -4.057  0.00  0.00     0.070 H 
BRANCH  22  25
ATOM     25  C   LIG d   1       9.594   2.659  -3.377  0.00  0.00    -0.018 C 
ATOM     26  H   LIG d   1       9.504   2.277  -2.360  0.00  0.00     0.030 H 
ATOM     27  H   LIG d   1      10.467   2.217  -3.856  0.00  0.00     0.030 H 
BRANCH  25  28
ATOM     28  C   LIG d   1       9.752   4.181  -3.336  0.00  0.00    -0.050 C 
ATOM     29  H   LIG d   1       9.111   4.593  -2.558  0.00  0.00     0.027 H 
ATOM     30  H   LIG d   1      10.790   4.432  -3.123  0.00  0.00     0.027 H 
BRANCH  28  31
ATOM     31  C   LIG d   1       9.354   4.771  -4.691  0.00  0.00    -0.056 C 
ATOM     32  H   LIG d   1      10.147   4.589  -5.415  0.00  0.00     0.026 H 
ATOM     33  H   LIG d   1       8.433   4.299  -5.035  0.00  0.00     0.026 H 
BRANCH  31  34
ATOM     34  C   LIG d   1       9.133   6.278  -4.546  0.00  0.00    -0.065 C 
ATOM     35  H   LIG d   1       9.824   6.677  -3.804  0.00  0.00     0.023 H 
ATOM     36  H   LIG d   1       9.311   6.765  -5.506  0.00  0.00     0.023 H 
ATOM     37  H   LIG d   1       8.108   6.466  -4.228  0.00  0.00     0.023 H 
ENDBRANCH  31  34
ENDBRANCH  28  31
ENDBRANCH  25  28
ENDBRANCH  22  25
ENDBRANCH  21  22
ENDBRANCH  19  21
ENDBRANCH   1  19
BRANCH  12  38
ATOM     38  C   LIG d   1       3.549  -0.680  -7.178  0.00  0.00     0.036 A 
ATOM     39  C   LIG d   1       2.950   0.478  -7.655  0.00  0.00    -0.040 A 
ATOM     40  C   LIG d   1       2.588   0.569  -8.984  0.00  0.00    -0.057 A 
ATOM     41  H   LIG d   1       2.765   1.306  -6.986  0.00  0.00     0.064 H 
ATOM     42  C   LIG d   1       2.822  -0.491  -9.840  0.00  0.00    -0.050 A 
ATOM     43  H   LIG d   1       2.121   1.469  -9.356  0.00  0.00     0.062 H 
ATOM     44  C   LIG d   1       3.419  -1.647  -9.368  0.00  0.00    -0.057 A 
ATOM     45  C   LIG d   1       3.784  -1.743  -8.039  0.00  0.00    -0.040 A 
ATOM     46  H   LIG d   1       3.606  -2.471 -10.040  0.00  0.00     0.062 H 
ATOM     47  H   LIG d   1       4.250  -2.644  -7.671  0.00  0.00     0.064 H 
BRANCH  42  48
ATOM     48  C   LIG d   1       2.427  -0.390 -11.291  0.00  0.00    -0.040 C 
ATOM     49  H   LIG d   1       1.523  -0.975 -11.463  0.00  0.00     0.028 H 
ATOM     50  H   LIG d   1       2.238   0.654 -11.543  0.00  0.00     0.028 H 
ATOM     51  H   LIG d   1       3.233  -0.774 -11.916  0.00  0.00     0.028 H 
ENDBRANCH  42  48
ENDBRANCH  12  38
TORSDOF 9
ENDMDL
MODEL 6
REMARK VINA RESULT:      -6.1      2.127      4.581
REMARK  9 active torsions:
REMARK  status: ('A' for Active; 'I' for Inactive)
REMARK    1  A    between atoms: C_1  and  C_2 
REMARK    2  A    between atoms: C_2  and  C_3 
REMARK    3  A    between atoms: C_3  and  C_4 
REMARK    4  A    between atoms: C_4  and  C_5 
REMARK    5  A    between atoms: C_5  and  O_6 
REMARK    6  A    between atoms: O_6  and  C_7 
REMARK    7  A    between atoms: C_7  and  C_9 
REMARK    8  A    between atoms: N_20  and  C_22 
REMARK    9  A    between atoms: C_25  and  C_28 
ROOT
ATOM      1  C   LIG d   1       4.694  -1.533  -2.719  0.00  0.00     0.100 C 
ATOM      2  H   LIG d   1       4.388  -2.449  -2.215  0.00  0.00     0.045 H 
ATOM      3  C   LIG d   1       4.329  -0.263  -1.856  0.00  0.00     0.092 C 
ATOM      4  H   LIG d   1       4.393  -0.384  -0.775  0.00  0.00     0.065 H 
ATOM      5  C   LIG d   1       5.218   0.819  -2.483  0.00  0.00    -0.056 C 
ATOM      6  C   LIG d   1       4.670   1.073  -3.663  0.00  0.00    -0.052 C 
ATOM      7  C   LIG d   1       3.427   0.205  -3.734  0.00  0.00     0.116 C 
ATOM      8  C   LIG d   1       3.871  -1.296  -3.961  0.00  0.00     0.086 C 
ATOM      9  H   LIG d   1       2.981  -1.923  -3.927  0.00  0.00     0.044 H 
ATOM     10  C   LIG d   1       4.360  -1.219  -5.349  0.00  0.00     0.227 C 
ATOM     11  O   LIG d   1       5.281  -1.847  -5.826  0.00  0.00    -0.275 OA
ATOM     12  N   LIG d   1       3.574  -0.299  -6.000  0.00  0.00    -0.268 N 
ATOM     13  C   LIG d   1       2.676   0.382  -5.014  0.00  0.00     0.053 C 
ATOM     14  O   LIG d   1       2.993   0.108  -2.397  0.00  0.00    -0.359 OA
ATOM     15  H   LIG d   1       6.099   1.275  -2.056  0.00  0.00     0.060 H 
ATOM     16  H   LIG d   1       5.033   1.756  -4.416  0.00  0.00     0.060 H 
ATOM     17  H   LIG d   1       2.560   1.438  -5.257  0.00  0.00     0.050 H 
ATOM     18  H   LIG d   1       1.706  -0.114  -4.965  0.00  0.00     0.050 H 
ENDROOT
BRANCH   1  19
ATOM     19  C   LIG d   1       6.166  -1.563  -3.043  0.00  0.00     0.314 C 
ATOM     20  O   LIG d   1       6.812  -0.543  -3.015  0.00  0.00    -0.250 OA
BRANCH  19  21
ATOM     21  O   LIG d   1       6.758  -2.724  -3.363  0.00  0.00    -0.464 OA
BRANCH  21  22
ATOM     22  C   LIG d   1       8.037  -2.645  -4.045  0.00  0.00     0.092 C 
ATOM     23  H   LIG d   1       7.900  -2.187  -5.024  0.00  0.00     0.070 H 
ATOM     24  H   LIG d   1       8.727  -2.041  -3.455  0.00  0.00     0.070 H 
BRANCH  22  25
ATOM     25  C   LIG d   1       8.611  -4.053  -4.217  0.00  0.00    -0.018 C 
ATOM     26  H   LIG d   1       7.900  -4.785  -3.834  0.00  0.00     0.030 H 
ATOM     27  H   LIG d   1       8.796  -4.243  -5.274  0.00  0.00     0.030 H 
BRANCH  25  28
ATOM     28  C   LIG d   1       9.926  -4.165  -3.441  0.00  0.00    -0.050 C 
ATOM     29  H   LIG d   1      10.518  -4.986  -3.846  0.00  0.00     0.027 H 
ATOM     30  H   LIG d   1      10.483  -3.234  -3.536  0.00  0.00     0.027 H 
BRANCH  28  31
ATOM     31  C   LIG d   1       9.626  -4.432  -1.965  0.00  0.00    -0.056 C 
ATOM     32  H   LIG d   1      10.309  -3.853  -1.344  0.00  0.00     0.026 H 
ATOM     33  H   LIG d   1       8.599  -4.138  -1.745  0.00  0.00     0.026 H 
BRANCH  31  34
ATOM     34  C   LIG d   1       9.805  -5.922  -1.668  0.00  0.00    -0.065 C 
ATOM     35  H   LIG d   1       9.859  -6.075  -0.590  0.00  0.00     0.023 H 
ATOM     36  H   LIG d   1       8.958  -6.477  -2.072  0.00  0.00     0.023 H 
ATOM     37  H   LIG d   1      10.725  -6.276  -2.132  0.00  0.00     0.023 H 
ENDBRANCH  31  34
ENDBRANCH  28  31
ENDBRANCH  25  28
ENDBRANCH  22  25
ENDBRANCH  21  22
ENDBRANCH  19  21
ENDBRANCH   1  19
BRANCH  12  38
ATOM     38  C   LIG d   1       3.611  -0.033  -7.373  0.00  0.00     0.036 A 
ATOM     39  C   LIG d   1       2.529  -0.366  -8.177  0.00  0.00    -0.040 A 
ATOM     40  C   LIG d   1       2.570  -0.103  -9.531  0.00  0.00    -0.057 A 
ATOM     41  H   LIG d   1       1.656  -0.831  -7.741  0.00  0.00     0.064 H 
ATOM     42  C   LIG d   1       3.687   0.492 -10.088  0.00  0.00    -0.050 A 
ATOM     43  H   LIG d   1       1.728  -0.362 -10.157  0.00  0.00     0.062 H 
ATOM     44  C   LIG d   1       4.767   0.825  -9.291  0.00  0.00    -0.057 A 
ATOM     45  C   LIG d   1       4.732   0.564  -7.935  0.00  0.00    -0.040 A 
ATOM     46  H   LIG d   1       5.637   1.293  -9.729  0.00  0.00     0.062 H 
ATOM     47  H   LIG d   1       5.575   0.824  -7.313  0.00  0.00     0.064 H 
BRANCH  42  48
ATOM     48  C   LIG d   1       3.728   0.778 -11.568  0.00  0.00    -0.040 C 
ATOM     49  H   LIG d   1       2.777   0.496 -12.019  0.00  0.00     0.028 H 
ATOM     50  H   LIG d   1       3.904   1.842 -11.726  0.00  0.00     0.028 H 
ATOM     51  H   LIG d   1       4.533   0.204 -12.027  0.00  0.00     0.028 H 
ENDBRANCH  42  48
ENDBRANCH  12  38
TORSDOF 9
ENDMDL
MODEL 7
REMARK VINA RESULT:      -6.0      2.656      5.599
REMARK  9 active torsions:
REMARK  status: ('A' for Active; 'I' for Inactive)
REMARK    1  A    between atoms: C_1  and  C_2 
REMARK    2  A    between atoms: C_2  and  C_3 
REMARK    3  A    between atoms: C_3  and  C_4 
REMARK    4  A    between atoms: C_4  and  C_5 
REMARK    5  A    between atoms: C_5  and  O_6 
REMARK    6  A    between atoms: O_6  and  C_7 
REMARK    7  A    between atoms: C_7  and  C_9 
REMARK    8  A    between atoms: N_20  and  C_22 
REMARK    9  A    between atoms: C_25  and  C_28 
ROOT
ATOM      1  C   LIG d   1       4.827  -1.738  -3.073  0.00  0.00     0.100 C 
ATOM      2  H   LIG d   1       4.661  -2.109  -2.061  0.00  0.00     0.045 H 
ATOM      3  C   LIG d   1       5.009  -2.930  -4.091  0.00  0.00     0.092 C 
ATOM      4  H   LIG d   1       4.426  -3.828  -3.887  0.00  0.00     0.065 H 
ATOM      5  C   LIG d   1       4.767  -2.241  -5.440  0.00  0.00    -0.056 C 
ATOM      6  C   LIG d   1       5.840  -1.490  -5.640  0.00  0.00    -0.052 C 
ATOM      7  C   LIG d   1       6.757  -1.761  -4.461  0.00  0.00     0.116 C 
ATOM      8  C   LIG d   1       6.161  -1.044  -3.184  0.00  0.00     0.086 C 
ATOM      9  H   LIG d   1       6.778  -1.312  -2.326  0.00  0.00     0.044 H 
ATOM     10  C   LIG d   1       6.403   0.366  -3.536  0.00  0.00     0.227 C 
ATOM     11  O   LIG d   1       5.699   1.312  -3.252  0.00  0.00    -0.275 OA
ATOM     12  N   LIG d   1       7.577   0.406  -4.249  0.00  0.00    -0.268 N 
ATOM     13  C   LIG d   1       8.035  -0.990  -4.540  0.00  0.00     0.053 C 
ATOM     14  O   LIG d   1       6.488  -3.098  -4.112  0.00  0.00    -0.359 OA
ATOM     15  H   LIG d   1       3.909  -2.346  -6.086  0.00  0.00     0.060 H 
ATOM     16  H   LIG d   1       6.024  -0.824  -6.470  0.00  0.00     0.060 H 
ATOM     17  H   LIG d   1       8.472  -1.057  -5.536  0.00  0.00     0.050 H 
ATOM     18  H   LIG d   1       8.741  -1.333  -3.782  0.00  0.00     0.050 H 
ENDROOT
BRANCH   1  19
ATOM     19  C   LIG d   1       3.706  -0.826  -3.502  0.00  0.00     0.314 C 
ATOM     20  O   LIG d   1       3.012  -0.290  -2.670  0.00  0.00    -0.250 OA
BRANCH  19  21
ATOM     21  O   LIG d   1       3.480  -0.609  -4.806  0.00  0.00    -0.464 OA
BRANCH  21  22
ATOM     22  C   LIG d   1       2.516   0.424  -5.145  0.00  0.00     0.092 C 
ATOM     23  H   LIG d   1       1.515  -0.006  -5.166  0.00  0.00     0.070 H 
ATOM     24  H   LIG d   1       2.556   1.216  -4.397  0.00  0.00     0.070 H 
BRANCH  22  25
ATOM     25  C   LIG d   1       2.853   1.003  -6.521  0.00  0.00    -0.018 C 
ATOM     26  H   LIG d   1       2.185   1.837  -6.738  0.00  0.00     0.030 H 
ATOM     27  H   LIG d   1       3.885   1.353  -6.525  0.00  0.00     0.030 H 
BRANCH  25  28
ATOM     28  C   LIG d   1       2.678  -0.081  -7.587  0.00  0.00    -0.050 C 
ATOM     29  H   LIG d   1       3.543  -0.743  -7.578  0.00  0.00     0.027 H 
ATOM     30  H   LIG d   1       1.778  -0.657  -7.374  0.00  0.00     0.027 H 
BRANCH  28  31
ATOM     31  C   LIG d   1       2.549   0.574  -8.964  0.00  0.00    -0.056 C 
ATOM     32  H   LIG d   1       3.188   0.052  -9.676  0.00  0.00     0.026 H 
ATOM     33  H   LIG d   1       1.512   0.517  -9.297  0.00  0.00     0.026 H 
BRANCH  31  34
ATOM     34  C   LIG d   1       2.977   2.039  -8.874  0.00  0.00    -0.065 C 
ATOM     35  H   LIG d   1       2.283   2.657  -9.444  0.00  0.00     0.023 H 
ATOM     36  H   LIG d   1       2.970   2.356  -7.830  0.00  0.00     0.023 H 
ATOM     37  H   LIG d   1       3.982   2.150  -9.280  0.00  0.00     0.023 H 
ENDBRANCH  31  34
ENDBRANCH  28  31
ENDBRANCH  25  28
ENDBRANCH  22  25
ENDBRANCH  21  22
ENDBRANCH  19  21
ENDBRANCH   1  19
BRANCH  12  38
ATOM     38  C   LIG d   1       8.240   1.571  -4.649  0.00  0.00     0.036 A 
ATOM     39  C   LIG d   1       8.336   1.889  -5.997  0.00  0.00    -0.040 A 
ATOM     40  C   LIG d   1       8.991   3.039  -6.389  0.00  0.00    -0.057 A 
ATOM     41  H   LIG d   1       7.900   1.236  -6.739  0.00  0.00     0.064 H 
ATOM     42  C   LIG d   1       9.550   3.876  -5.440  0.00  0.00    -0.050 A 
ATOM     43  H   LIG d   1       9.067   3.288  -7.437  0.00  0.00     0.062 H 
ATOM     44  C   LIG d   1       9.456   3.562  -4.096  0.00  0.00    -0.057 A 
ATOM     45  C   LIG d   1       8.802   2.413  -3.698  0.00  0.00    -0.040 A 
ATOM     46  H   LIG d   1       9.890   4.220  -3.356  0.00  0.00     0.062 H 
ATOM     47  H   LIG d   1       8.728   2.168  -2.649  0.00  0.00     0.064 H 
BRANCH  42  48
ATOM     48  C   LIG d   1      10.265   5.131  -5.870  0.00  0.00    -0.040 C 
ATOM     49  H   LIG d   1      10.537   5.714  -4.989  0.00  0.00     0.028 H 
ATOM     50  H   LIG d   1      11.165   4.865  -6.423  0.00  0.00     0.028 H 
ATOM     51  H   LIG d   1       9.609   5.723  -6.507  0.00  0.00     0.028 H 
ENDBRANCH  42  48
ENDBRANCH  12  38
TORSDOF 9
ENDMDL
MODEL 8
REMARK VINA RESULT:      -6.0      2.919      6.075
REMARK  9 active torsions:
REMARK  status: ('A' for Active; 'I' for Inactive)
REMARK    1  A    between atoms: C_1  and  C_2 
REMARK    2  A    between atoms: C_2  and  C_3 
REMARK    3  A    between atoms: C_3  and  C_4 
REMARK    4  A    between atoms: C_4  and  C_5 
REMARK    5  A    between atoms: C_5  and  O_6 
REMARK    6  A    between atoms: O_6  and  C_7 
REMARK    7  A    between atoms: C_7  and  C_9 
REMARK    8  A    between atoms: N_20  and  C_22 
REMARK    9  A    between atoms: C_25  and  C_28 
ROOT
ATOM      1  C   LIG d   1       3.467  -0.010  -8.550  0.00  0.00     0.100 C 
ATOM      2  H   LIG d   1       2.979  -0.981  -8.633  0.00  0.00     0.045 H 
ATOM      3  C   LIG d   1       3.197   0.871  -9.832  0.00  0.00     0.092 C 
ATOM      4  H   LIG d   1       2.222   0.745 -10.303  0.00  0.00     0.065 H 
ATOM      5  C   LIG d   1       3.548   2.279  -9.335  0.00  0.00    -0.056 C 
ATOM      6  C   LIG d   1       4.868   2.284  -9.222  0.00  0.00    -0.052 C 
ATOM      7  C   LIG d   1       5.328   0.920  -9.702  0.00  0.00     0.116 C 
ATOM      8  C   LIG d   1       4.967  -0.152  -8.597  0.00  0.00     0.086 C 
ATOM      9  H   LIG d   1       5.224  -1.138  -8.983  0.00  0.00     0.044 H 
ATOM     10  C   LIG d   1       5.928   0.223  -7.543  0.00  0.00     0.227 C 
ATOM     11  O   LIG d   1       5.749   0.156  -6.346  0.00  0.00    -0.275 OA
ATOM     12  N   LIG d   1       7.065   0.664  -8.177  0.00  0.00    -0.268 N 
ATOM     13  C   LIG d   1       6.814   0.763  -9.649  0.00  0.00     0.053 C 
ATOM     14  O   LIG d   1       4.380   0.558 -10.679  0.00  0.00    -0.359 OA
ATOM     15  H   LIG d   1       2.867   3.090  -9.123  0.00  0.00     0.060 H 
ATOM     16  H   LIG d   1       5.488   3.093  -8.863  0.00  0.00     0.060 H 
ATOM     17  H   LIG d   1       7.314   1.634 -10.072  0.00  0.00     0.050 H 
ATOM     18  H   LIG d   1       7.124  -0.149 -10.159  0.00  0.00     0.050 H 
ENDROOT
BRANCH   1  19
ATOM     19  C   LIG d   1       3.029   0.707  -7.298  0.00  0.00     0.314 C 
ATOM     20  O   LIG d   1       2.862   1.903  -7.315  0.00  0.00    -0.250 OA
BRANCH  19  21
ATOM     21  O   LIG d   1       2.826   0.016  -6.166  0.00  0.00    -0.464 OA
BRANCH  21  22
ATOM     22  C   LIG d   1       2.487   0.780  -4.979  0.00  0.00     0.092 C 
ATOM     23  H   LIG d   1       3.008   1.737  -5.002  0.00  0.00     0.070 H 
ATOM     24  H   LIG d   1       1.411   0.954  -4.956  0.00  0.00     0.070 H 
BRANCH  22  25
ATOM     25  C   LIG d   1       2.905  -0.001  -3.733  0.00  0.00    -0.018 C 
ATOM     26  H   LIG d   1       2.044  -0.535  -3.332  0.00  0.00     0.030 H 
ATOM     27  H   LIG d   1       3.686  -0.715  -3.997  0.00  0.00     0.030 H 
BRANCH  25  28
ATOM     28  C   LIG d   1       3.439   0.971  -2.678  0.00  0.00    -0.050 C 
ATOM     29  H   LIG d   1       3.834   1.859  -3.169  0.00  0.00     0.027 H 
ATOM     30  H   LIG d   1       2.631   1.256  -2.005  0.00  0.00     0.027 H 
BRANCH  28  31
ATOM     31  C   LIG d   1       4.552   0.292  -1.876  0.00  0.00    -0.056 C 
ATOM     32  H   LIG d   1       5.517   0.524  -2.326  0.00  0.00     0.026 H 
ATOM     33  H   LIG d   1       4.533   0.657  -0.849  0.00  0.00     0.026 H 
BRANCH  31  34
ATOM     34  C   LIG d   1       4.336  -1.222  -1.884  0.00  0.00    -0.065 C 
ATOM     35  H   LIG d   1       4.030  -1.541  -2.880  0.00  0.00     0.023 H 
ATOM     36  H   LIG d   1       5.267  -1.723  -1.613  0.00  0.00     0.023 H 
ATOM     37  H   LIG d   1       3.561  -1.483  -1.164  0.00  0.00     0.023 H 
ENDBRANCH  31  34
ENDBRANCH  28  31
ENDBRANCH  25  28
ENDBRANCH  22  25
ENDBRANCH  21  22
ENDBRANCH  19  21
ENDBRANCH   1  19
BRANCH  12  38
ATOM     38  C   LIG d   1       8.272   0.979  -7.542  0.00  0.00     0.036 A 
ATOM     39  C   LIG d   1       8.538   2.287  -7.163  0.00  0.00    -0.040 A 
ATOM     40  C   LIG d   1       9.730   2.595  -6.538  0.00  0.00    -0.057 A 
ATOM     41  H   LIG d   1       7.813   3.064  -7.358  0.00  0.00     0.064 H 
ATOM     42  C   LIG d   1      10.658   1.601  -6.289  0.00  0.00    -0.050 A 
ATOM     43  H   LIG d   1       9.938   3.612  -6.242  0.00  0.00     0.062 H 
ATOM     44  C   LIG d   1      10.397   0.296  -6.666  0.00  0.00    -0.057 A 
ATOM     45  C   LIG d   1       9.206  -0.018  -7.291  0.00  0.00    -0.040 A 
ATOM     46  H   LIG d   1      11.122  -0.480  -6.465  0.00  0.00     0.062 H 
ATOM     47  H   LIG d   1       9.002  -1.036  -7.585  0.00  0.00     0.064 H 
BRANCH  42  48
ATOM     48  C   LIG d   1      11.958   1.939  -5.606  0.00  0.00    -0.040 C 
ATOM     49  H   LIG d   1      11.934   2.976  -5.270  0.00  0.00     0.028 H 
ATOM     50  H   LIG d   1      12.098   1.283  -4.747  0.00  0.00     0.028 H 
ATOM     51  H   LIG d   1      12.783   1.803  -6.305  0.00  0.00     0.028 H 
ENDBRANCH  42  48
ENDBRANCH  12  38
TORSDOF 9
ENDMDL
MODEL 9
REMARK VINA RESULT:      -5.9      3.308      5.814
REMARK  9 active torsions:
REMARK  status: ('A' for Active; 'I' for Inactive)
REMARK    1  A    between atoms: C_1  and  C_2 
REMARK    2  A    between atoms: C_2  and  C_3 
REMARK    3  A    between atoms: C_3  and  C_4 
REMARK    4  A    between atoms: C_4  and  C_5 
REMARK    5  A    between atoms: C_5  and  O_6 
REMARK    6  A    between atoms: O_6  and  C_7 
REMARK    7  A    between atoms: C_7  and  C_9 
REMARK    8  A    between atoms: N_20  and  C_22 
REMARK    9  A    between atoms: C_25  and  C_28 
ROOT
ATOM      1  C   LIG d   1       3.218  -0.297  -8.050  0.00  0.00     0.100 C 
ATOM      2  H   LIG d   1       2.879  -1.296  -7.778  0.00  0.00     0.045 H 
ATOM      3  C   LIG d   1       2.423   0.252  -9.297  0.00  0.00     0.092 C 
ATOM      4  H   LIG d   1       1.378  -0.049  -9.369  0.00  0.00     0.065 H 
ATOM      5  C   LIG d   1       2.704   1.757  -9.222  0.00  0.00    -0.056 C 
ATOM      6  C   LIG d   1       3.974   1.888  -9.577  0.00  0.00    -0.052 C 
ATOM      7  C   LIG d   1       4.450   0.489  -9.926  0.00  0.00     0.116 C 
ATOM      8  C   LIG d   1       4.628  -0.332  -8.587  0.00  0.00     0.086 C 
ATOM      9  H   LIG d   1       4.887  -1.357  -8.849  0.00  0.00     0.044 H 
ATOM     10  C   LIG d   1       5.811   0.340  -8.020  0.00  0.00     0.227 C 
ATOM     11  O   LIG d   1       6.040   0.530  -6.845  0.00  0.00    -0.275 OA
ATOM     12  N   LIG d   1       6.604   0.713  -9.079  0.00  0.00    -0.268 N 
ATOM     13  C   LIG d   1       5.879   0.461 -10.364  0.00  0.00     0.053 C 
ATOM     14  O   LIG d   1       3.302  -0.152 -10.429  0.00  0.00    -0.359 OA
ATOM     15  H   LIG d   1       2.017   2.541  -8.941  0.00  0.00     0.060 H 
ATOM     16  H   LIG d   1       4.551   2.801  -9.611  0.00  0.00     0.060 H 
ATOM     17  H   LIG d   1       6.082   1.251 -11.087  0.00  0.00     0.050 H 
ATOM     18  H   LIG d   1       6.138  -0.516 -10.772  0.00  0.00     0.050 H 
ENDROOT
BRANCH   1  19
ATOM     19  C   LIG d   1       3.109   0.646  -6.879  0.00  0.00     0.314 C 
ATOM     20  O   LIG d   1       2.848   1.811  -7.065  0.00  0.00    -0.250 OA
BRANCH  19  21
ATOM     21  O   LIG d   1       3.301   0.192  -5.631  0.00  0.00    -0.464 OA
BRANCH  21  22
ATOM     22  C   LIG d   1       2.209   0.370  -4.690  0.00  0.00     0.092 C 
ATOM     23  H   LIG d   1       2.143   1.419  -4.404  0.00  0.00     0.070 H 
ATOM     24  H   LIG d   1       1.274   0.061  -5.157  0.00  0.00     0.070 H 
BRANCH  22  25
ATOM     25  C   LIG d   1       2.465  -0.484  -3.446  0.00  0.00    -0.018 C 
ATOM     26  H   LIG d   1       1.525  -0.648  -2.919  0.00  0.00     0.030 H 
ATOM     27  H   LIG d   1       2.888  -1.443  -3.745  0.00  0.00     0.030 H 
BRANCH  25  28
ATOM     28  C   LIG d   1       3.447   0.242  -2.524  0.00  0.00    -0.050 C 
ATOM     29  H   LIG d   1       4.036   0.950  -3.105  0.00  0.00     0.027 H 
ATOM     30  H   LIG d   1       2.893   0.776  -1.753  0.00  0.00     0.027 H 
BRANCH  28  31
ATOM     31  C   LIG d   1       4.378  -0.779  -1.867  0.00  0.00    -0.056 C 
ATOM     32  H   LIG d   1       5.410  -0.557  -2.136  0.00  0.00     0.026 H 
ATOM     33  H   LIG d   1       4.267  -0.727  -0.783  0.00  0.00     0.026 H 
BRANCH  31  34
ATOM     34  C   LIG d   1       4.017  -2.185  -2.351  0.00  0.00    -0.065 C 
ATOM     35  H   LIG d   1       3.305  -2.636  -1.660  0.00  0.00     0.023 H 
ATOM     36  H   LIG d   1       3.570  -2.123  -3.344  0.00  0.00     0.023 H 
ATOM     37  H   LIG d   1       4.918  -2.796  -2.396  0.00  0.00     0.023 H 
ENDBRANCH  31  34
ENDBRANCH  28  31
ENDBRANCH  25  28
ENDBRANCH  22  25
ENDBRANCH  21  22
ENDBRANCH  19  21
ENDBRANCH   1  19
BRANCH  12  38
ATOM     38  C   LIG d   1       7.891   1.252  -8.972  0.00  0.00     0.036 A 
ATOM     39  C   LIG d   1       8.994   0.412  -8.894  0.00  0.00    -0.040 A 
ATOM     40  C   LIG d   1      10.262   0.947  -8.788  0.00  0.00    -0.057 A 
ATOM     41  H   LIG d   1       8.859  -0.660  -8.915  0.00  0.00     0.064 H 
ATOM     42  C   LIG d   1      10.435   2.318  -8.759  0.00  0.00    -0.050 A 
ATOM     43  H   LIG d   1      11.120   0.294  -8.727  0.00  0.00     0.062 H 
ATOM     44  C   LIG d   1       9.339   3.159  -8.837  0.00  0.00    -0.057 A 
ATOM     45  C   LIG d   1       8.068   2.629  -8.943  0.00  0.00    -0.040 A 
ATOM     46  H   LIG d   1       9.478   4.230  -8.819  0.00  0.00     0.062 H 
ATOM     47  H   LIG d   1       7.213   3.285  -9.004  0.00  0.00     0.064 H 
BRANCH  42  48
ATOM     48  C   LIG d   1      11.820   2.900  -8.644  0.00  0.00    -0.040 C 
ATOM     49  H   LIG d   1      12.552   2.168  -8.987  0.00  0.00     0.028 H 
ATOM     50  H   LIG d   1      11.889   3.798  -9.258  0.00  0.00     0.028 H 
ATOM     51  H   LIG d   1      12.023   3.155  -7.604  0.00  0.00     0.028 H 
ENDBRANCH  42  48
ENDBRANCH  12  38
TORSDOF 9
ENDMDL
MODEL 10
REMARK VINA RESULT:      -5.8      2.574      6.016
REMARK  9 active torsions:
REMARK  status: ('A' for Active; 'I' for Inactive)
REMARK    1  A    between atoms: C_1  and  C_2 
REMARK    2  A    between atoms: C_2  and  C_3 
REMARK    3  A    between atoms: C_3  and  C_4 
REMARK    4  A    between atoms: C_4  and  C_5 
REMARK    5  A    between atoms: C_5  and  O_6 
REMARK    6  A    between atoms: O_6  and  C_7 
REMARK    7  A    between atoms: C_7  and  C_9 
REMARK    8  A    between atoms: N_20  and  C_22 
REMARK    9  A    between atoms: C_25  and  C_28 
ROOT
ATOM      1  C   LIG d   1       5.734  -1.027  -6.898  0.00  0.00     0.100 C 
ATOM      2  H   LIG d   1       4.945  -1.250  -7.617  0.00  0.00     0.045 H 
ATOM      3  C   LIG d   1       6.785  -0.019  -7.506  0.00  0.00     0.092 C 
ATOM      4  H   LIG d   1       6.388   0.732  -8.190  0.00  0.00     0.065 H 
ATOM      5  C   LIG d   1       7.498   0.500  -6.251  0.00  0.00    -0.056 C 
ATOM      6  C   LIG d   1       8.241  -0.515  -5.835  0.00  0.00    -0.052 C 
ATOM      7  C   LIG d   1       8.036  -1.621  -6.855  0.00  0.00     0.116 C 
ATOM      8  C   LIG d   1       6.596  -2.239  -6.646  0.00  0.00     0.086 C 
ATOM      9  H   LIG d   1       6.424  -2.972  -7.434  0.00  0.00     0.044 H 
ATOM     10  C   LIG d   1       6.792  -2.938  -5.364  0.00  0.00     0.227 C 
ATOM     11  O   LIG d   1       5.967  -3.082  -4.486  0.00  0.00    -0.275 OA
ATOM     12  N   LIG d   1       8.088  -3.394  -5.350  0.00  0.00    -0.268 N 
ATOM     13  C   LIG d   1       8.824  -2.850  -6.535  0.00  0.00     0.053 C 
ATOM     14  O   LIG d   1       7.812  -0.938  -8.066  0.00  0.00    -0.359 OA
ATOM     15  H   LIG d   1       7.413   1.479  -5.804  0.00  0.00     0.060 H 
ATOM     16  H   LIG d   1       8.864  -0.548  -4.953  0.00  0.00     0.060 H 
ATOM     17  H   LIG d   1       9.852  -2.599  -6.273  0.00  0.00     0.050 H 
ATOM     18  H   LIG d   1       8.797  -3.554  -7.367  0.00  0.00     0.050 H 
ENDROOT
BRANCH   1  19
ATOM     19  C   LIG d   1       5.156  -0.497  -5.611  0.00  0.00     0.314 C 
ATOM     20  O   LIG d   1       5.793   0.277  -4.936  0.00  0.00    -0.250 OA
BRANCH  19  21
ATOM     21  O   LIG d   1       3.933  -0.884  -5.216  0.00  0.00    -0.464 OA
BRANCH  21  22
ATOM     22  C   LIG d   1       3.023   0.157  -4.774  0.00  0.00     0.092 C 
ATOM     23  H   LIG d   1       3.466   1.133  -4.966  0.00  0.00     0.070 H 
ATOM     24  H   LIG d   1       2.082   0.071  -5.318  0.00  0.00     0.070 H 
BRANCH  22  25
ATOM     25  C   LIG d   1       2.761   0.002  -3.275  0.00  0.00    -0.018 C 
ATOM     26  H   LIG d   1       1.691   0.081  -3.082  0.00  0.00     0.030 H 
ATOM     27  H   LIG d   1       3.120  -0.971  -2.942  0.00  0.00     0.030 H 
BRANCH  25  28
ATOM     28  C   LIG d   1       3.498   1.105  -2.512  0.00  0.00    -0.050 C 
ATOM     29  H   LIG d   1       3.940   1.805  -3.221  0.00  0.00     0.027 H 
ATOM     30  H   LIG d   1       2.795   1.634  -1.869  0.00  0.00     0.027 H 
BRANCH  28  31
ATOM     31  C   LIG d   1       4.601   0.483  -1.654  0.00  0.00    -0.056 C 
ATOM     32  H   LIG d   1       5.575   0.797  -2.029  0.00  0.00     0.026 H 
ATOM     33  H   LIG d   1       4.487   0.812  -0.621  0.00  0.00     0.026 H 
BRANCH  31  34
ATOM     34  C   LIG d   1       4.499  -1.042  -1.719  0.00  0.00    -0.065 C 
ATOM     35  H   LIG d   1       5.156  -1.419  -2.502  0.00  0.00     0.023 H 
ATOM     36  H   LIG d   1       4.797  -1.467  -0.759  0.00  0.00     0.023 H 
ATOM     37  H   LIG d   1       3.470  -1.328  -1.938  0.00  0.00     0.023 H 
ENDBRANCH  31  34
ENDBRANCH  28  31
ENDBRANCH  25  28
ENDBRANCH  22  25
ENDBRANCH  21  22
ENDBRANCH  19  21
ENDBRANCH   1  19
BRANCH  12  38
ATOM     38  C   LIG d   1       8.638  -4.233  -4.375  0.00  0.00     0.036 A 
ATOM     39  C   LIG d   1       9.162  -3.694  -3.208  0.00  0.00    -0.040 A 
ATOM     40  C   LIG d   1       9.705  -4.524  -2.248  0.00  0.00    -0.057 A 
ATOM     41  H   LIG d   1       9.145  -2.625  -3.051  0.00  0.00     0.064 H 
ATOM     42  C   LIG d   1       9.727  -5.893  -2.448  0.00  0.00    -0.050 A 
ATOM     43  H   LIG d   1      10.112  -4.106  -1.340  0.00  0.00     0.062 H 
ATOM     44  C   LIG d   1       9.207  -6.434  -3.610  0.00  0.00    -0.057 A 
ATOM     45  C   LIG d   1       8.662  -5.607  -4.574  0.00  0.00    -0.040 A 
ATOM     46  H   LIG d   1       9.222  -7.503  -3.761  0.00  0.00     0.062 H 
ATOM     47  H   LIG d   1       8.256  -6.030  -5.480  0.00  0.00     0.064 H 
BRANCH  42  48
ATOM     48  C   LIG d   1      10.320  -6.797  -1.398  0.00  0.00    -0.040 C 
ATOM     49  H   LIG d   1      11.311  -6.434  -1.123  0.00  0.00     0.028 H 
ATOM     50  H   LIG d   1       9.677  -6.802  -0.518  0.00  0.00     0.028 H 
ATOM     51  H   LIG d   1      10.401  -7.809  -1.794  0.00  0.00     0.028 H 
ENDBRANCH  42  48
ENDBRANCH  12  38
TORSDOF 9
ENDMDL
