MODEL 1
REMARK VINA RESULT:      -4.3      0.000      0.000
REMARK  8 active torsions:
REMARK  status: ('A' for Active; 'I' for Inactive)
REMARK    1  A    between atoms: C_1  and  C_2 
REMARK    2  A    between atoms: C_1  and  C_3 
REMARK    3  A    between atoms: C_2  and  N_22 
REMARK    4  A    between atoms: C_3  and  C_5 
REMARK    5  A    between atoms: C_3  and  O_10 
REMARK    6  A    between atoms: C_5  and  C_7 
REMARK    7  A    between atoms: C_5  and  N_25 
REMARK    8  A    between atoms: C_7  and  C_8 
ROOT
ATOM      1  C   LIG d   1       3.221   0.421  -2.682  0.00  0.00     0.103 C 
ATOM      2  H   LIG d   1       2.440   0.715  -1.981  0.00  0.00     0.065 H 
ENDROOT
BRANCH   1   3
ATOM      3  C   LIG d   1       4.575   0.428  -1.969  0.00  0.00     0.019 C 
ATOM      4  H   LIG d   1       4.997  -0.577  -1.982  0.00  0.00     0.034 H 
ATOM      5  H   LIG d   1       4.440   0.752  -0.936  0.00  0.00     0.034 H 
BRANCH   3   6
ATOM      6  C   LIG d   1       5.524   1.391  -2.685  0.00  0.00    -0.033 C 
ATOM      7  H   LIG d   1       4.975   2.280  -2.993  0.00  0.00     0.081 H 
ATOM      8  H   LIG d   1       6.331   1.676  -2.009  0.00  0.00     0.081 H 
BRANCH   6   9
ATOM      9  N   LIG d   1       6.101   0.711  -3.858  0.00  0.00     0.219 N 
ATOM     10  H   LIG d   1       6.046  -0.299  -3.740  0.00  0.00     0.199 HD
ATOM     11  H   LIG d   1       5.598   0.983  -4.701  0.00  0.00     0.199 HD
ATOM     12  H   LIG d   1       7.087   0.983  -3.955  0.00  0.00     0.199 HD
ENDBRANCH   6   9
ENDBRANCH   3   6
ENDBRANCH   1   3
BRANCH   1  13
ATOM     13  C   LIG d   1       2.929  -0.985  -3.209  0.00  0.00     0.007 C 
ATOM     14  H   LIG d   1       1.897  -1.252  -2.980  0.00  0.00     0.088 H 
BRANCH  13  15
ATOM     15  C   LIG d   1       3.874  -1.987  -2.540  0.00  0.00     0.032 C 
ATOM     16  H   LIG d   1       4.546  -1.457  -1.865  0.00  0.00     0.038 H 
ATOM     17  H   LIG d   1       3.292  -2.715  -1.975  0.00  0.00     0.038 H 
BRANCH  15  18
ATOM     18  C   LIG d   1       4.680  -2.699  -3.595  0.00  0.00     0.047 C 
ATOM     19  O   LIG d   1       4.246  -3.700  -4.114  0.00  0.00    -0.550 OA
ATOM     20  O   LIG d   1       5.881  -2.222  -3.958  0.00  0.00    -0.550 OA
ENDBRANCH  15  18
ENDBRANCH  13  15
BRANCH  13  21
ATOM     21  N   LIG d   1       3.128  -1.041  -4.667  0.00  0.00     0.223 N 
ATOM     22  H   LIG d   1       4.070  -0.733  -4.903  0.00  0.00     0.200 HD
ATOM     23  H   LIG d   1       2.988  -1.992  -5.002  0.00  0.00     0.200 HD
ATOM     24  H   LIG d   1       2.448  -0.422  -5.125  0.00  0.00     0.200 HD
ENDBRANCH  13  21
ENDBRANCH   1  13
BRANCH   1  25
ATOM     25  O   LIG d   1       3.254   1.343  -3.774  0.00  0.00    -0.386 OA
ATOM     26  H   LIG d   1       2.928   0.976  -4.607  0.00  0.00     0.210 HD
ENDBRANCH   1  25
TORSDOF 8
ENDMDL
MODEL 2
REMARK VINA RESULT:      -4.1      1.811      2.306
REMARK  8 active torsions:
REMARK  status: ('A' for Active; 'I' for Inactive)
REMARK    1  A    between atoms: C_1  and  C_2 
REMARK    2  A    between atoms: C_1  and  C_3 
REMARK    3  A    between atoms: C_2  and  N_22 
REMARK    4  A    between atoms: C_3  and  C_5 
REMARK    5  A    between atoms: C_3  and  O_10 
REMARK    6  A    between atoms: C_5  and  C_7 
REMARK    7  A    between atoms: C_5  and  N_25 
REMARK    8  A    between atoms: C_7  and  C_8 
ROOT
ATOM      1  C   LIG d   1       3.480  -1.491  -2.831  0.00  0.00     0.103 C 
ATOM      2  H   LIG d   1       2.846  -2.086  -2.172  0.00  0.00     0.065 H 
ENDROOT
BRANCH   1   3
ATOM      3  C   LIG d   1       4.204  -0.421  -2.011  0.00  0.00     0.019 C 
ATOM      4  H   LIG d   1       5.260  -0.410  -2.281  0.00  0.00     0.034 H 
ATOM      5  H   LIG d   1       4.103  -0.647  -0.949  0.00  0.00     0.034 H 
BRANCH   3   6
ATOM      6  C   LIG d   1       3.588   0.949  -2.303  0.00  0.00    -0.033 C 
ATOM      7  H   LIG d   1       2.616   0.816  -2.776  0.00  0.00     0.081 H 
ATOM      8  H   LIG d   1       3.467   1.499  -1.369  0.00  0.00     0.081 H 
BRANCH   6   9
ATOM      9  N   LIG d   1       4.493   1.703  -3.188  0.00  0.00     0.219 N 
ATOM     10  H   LIG d   1       4.057   2.580  -3.469  0.00  0.00     0.199 HD
ATOM     11  H   LIG d   1       5.370   1.897  -2.708  0.00  0.00     0.199 HD
ATOM     12  H   LIG d   1       4.688   1.143  -4.027  0.00  0.00     0.199 HD
ENDBRANCH   6   9
ENDBRANCH   3   6
ENDBRANCH   1   3
BRANCH   1  13
ATOM     13  C   LIG d   1       4.509  -2.401  -3.505  0.00  0.00     0.007 C 
ATOM     14  H   LIG d   1       4.681  -3.279  -2.881  0.00  0.00     0.088 H 
BRANCH  13  15
ATOM     15  C   LIG d   1       5.823  -1.638  -3.685  0.00  0.00     0.032 C 
ATOM     16  H   LIG d   1       5.852  -0.796  -2.994  0.00  0.00     0.038 H 
ATOM     17  H   LIG d   1       6.661  -2.304  -3.480  0.00  0.00     0.038 H 
BRANCH  15  18
ATOM     18  C   LIG d   1       5.920  -1.130  -5.100  0.00  0.00     0.047 C 
ATOM     19  O   LIG d   1       6.648  -1.683  -5.892  0.00  0.00    -0.550 OA
ATOM     20  O   LIG d   1       5.199  -0.065  -5.483  0.00  0.00    -0.550 OA
ENDBRANCH  15  18
ENDBRANCH  13  15
BRANCH  13  21
ATOM     21  N   LIG d   1       4.024  -2.837  -4.826  0.00  0.00     0.223 N 
ATOM     22  H   LIG d   1       3.286  -3.530  -4.714  0.00  0.00     0.200 HD
ATOM     23  H   LIG d   1       3.666  -2.040  -5.347  0.00  0.00     0.200 HD
ATOM     24  H   LIG d   1       4.802  -3.258  -5.349  0.00  0.00     0.200 HD
ENDBRANCH  13  21
ENDBRANCH   1  13
BRANCH   1  25
ATOM     25  O   LIG d   1       2.673  -0.861  -3.829  0.00  0.00    -0.386 OA
ATOM     26  H   LIG d   1       1.854  -1.335  -4.027  0.00  0.00     0.210 HD
ENDBRANCH   1  25
TORSDOF 8
ENDMDL
MODEL 3
REMARK VINA RESULT:      -4.1      1.694      3.625
REMARK  8 active torsions:
REMARK  status: ('A' for Active; 'I' for Inactive)
REMARK    1  A    between atoms: C_1  and  C_2 
REMARK    2  A    between atoms: C_1  and  C_3 
REMARK    3  A    between atoms: C_2  and  N_22 
REMARK    4  A    between atoms: C_3  and  C_5 
REMARK    5  A    between atoms: C_3  and  O_10 
REMARK    6  A    between atoms: C_5  and  C_7 
REMARK    7  A    between atoms: C_5  and  N_25 
REMARK    8  A    between atoms: C_7  and  C_8 
ROOT
ATOM      1  C   LIG d   1       4.792  -0.903  -2.412  0.00  0.00     0.103 C 
ATOM      2  H   LIG d   1       5.230  -0.977  -1.416  0.00  0.00     0.065 H 
ENDROOT
BRANCH   1   3
ATOM      3  C   LIG d   1       4.013  -2.182  -2.722  0.00  0.00     0.019 C 
ATOM      4  H   LIG d   1       3.018  -1.923  -3.083  0.00  0.00     0.034 H 
ATOM      5  H   LIG d   1       3.925  -2.784  -1.817  0.00  0.00     0.034 H 
BRANCH   3   6
ATOM      6  C   LIG d   1       4.753  -2.983  -3.797  0.00  0.00    -0.033 C 
ATOM      7  H   LIG d   1       5.778  -2.621  -3.876  0.00  0.00     0.081 H 
ATOM      8  H   LIG d   1       4.759  -4.038  -3.524  0.00  0.00     0.081 H 
BRANCH   6   9
ATOM      9  N   LIG d   1       4.051  -2.824  -5.082  0.00  0.00     0.219 N 
ATOM     10  H   LIG d   1       4.716  -2.868  -5.852  0.00  0.00     0.199 HD
ATOM     11  H   LIG d   1       3.355  -3.559  -5.192  0.00  0.00     0.199 HD
ATOM     12  H   LIG d   1       3.579  -1.912  -5.099  0.00  0.00     0.199 HD
ENDBRANCH   6   9
ENDBRANCH   3   6
ENDBRANCH   1   3
BRANCH   1  13
ATOM     13  C   LIG d   1       3.843   0.296  -2.461  0.00  0.00     0.007 C 
ATOM     14  H   LIG d   1       3.435   0.478  -1.466  0.00  0.00     0.088 H 
BRANCH  13  15
ATOM     15  C   LIG d   1       2.700   0.002  -3.434  0.00  0.00     0.032 C 
ATOM     16  H   LIG d   1       2.619  -1.075  -3.585  0.00  0.00     0.038 H 
ATOM     17  H   LIG d   1       1.764   0.381  -3.022  0.00  0.00     0.038 H 
BRANCH  15  18
ATOM     18  C   LIG d   1       2.975   0.675  -4.754  0.00  0.00     0.047 C 
ATOM     19  O   LIG d   1       2.417   1.710  -5.032  0.00  0.00    -0.550 OA
ATOM     20  O   LIG d   1       3.841   0.126  -5.620  0.00  0.00    -0.550 OA
ENDBRANCH  15  18
ENDBRANCH  13  15
BRANCH  13  21
ATOM     21  N   LIG d   1       4.559   1.501  -2.915  0.00  0.00     0.223 N 
ATOM     22  H   LIG d   1       4.547   1.551  -3.933  0.00  0.00     0.200 HD
ATOM     23  H   LIG d   1       4.119   2.334  -2.529  0.00  0.00     0.200 HD
ATOM     24  H   LIG d   1       5.533   1.457  -2.593  0.00  0.00     0.200 HD
ENDBRANCH  13  21
ENDBRANCH   1  13
BRANCH   1  25
ATOM     25  O   LIG d   1       5.830  -0.731  -3.378  0.00  0.00    -0.386 OA
ATOM     26  H   LIG d   1       5.538  -0.845  -4.293  0.00  0.00     0.210 HD
ENDBRANCH   1  25
TORSDOF 8
ENDMDL
MODEL 4
REMARK VINA RESULT:      -3.8      1.982      3.246
REMARK  8 active torsions:
REMARK  status: ('A' for Active; 'I' for Inactive)
REMARK    1  A    between atoms: C_1  and  C_2 
REMARK    2  A    between atoms: C_1  and  C_3 
REMARK    3  A    between atoms: C_2  and  N_22 
REMARK    4  A    between atoms: C_3  and  C_5 
REMARK    5  A    between atoms: C_3  and  O_10 
REMARK    6  A    between atoms: C_5  and  C_7 
REMARK    7  A    between atoms: C_5  and  N_25 
REMARK    8  A    between atoms: C_7  and  C_8 
ROOT
ATOM      1  C   LIG d   1       3.617  -1.685  -3.091  0.00  0.00     0.103 C 
ATOM      2  H   LIG d   1       3.137  -2.475  -2.513  0.00  0.00     0.065 H 
ENDROOT
BRANCH   1   3
ATOM      3  C   LIG d   1       2.791  -0.402  -2.984  0.00  0.00     0.019 C 
ATOM      4  H   LIG d   1       3.444   0.431  -2.725  0.00  0.00     0.034 H 
ATOM      5  H   LIG d   1       2.031  -0.522  -2.211  0.00  0.00     0.034 H 
BRANCH   3   6
ATOM      6  C   LIG d   1       2.112  -0.119  -4.326  0.00  0.00    -0.033 C 
ATOM      7  H   LIG d   1       2.124  -1.021  -4.937  0.00  0.00     0.081 H 
ATOM      8  H   LIG d   1       1.081   0.191  -4.154  0.00  0.00     0.081 H 
BRANCH   6   9
ATOM      9  N   LIG d   1       2.831   0.972  -5.007  0.00  0.00     0.219 N 
ATOM     10  H   LIG d   1       2.354   1.220  -5.872  0.00  0.00     0.199 HD
ATOM     11  H   LIG d   1       2.882   1.789  -4.401  0.00  0.00     0.199 HD
ATOM     12  H   LIG d   1       3.785   0.661  -5.229  0.00  0.00     0.199 HD
ENDBRANCH   6   9
ENDBRANCH   3   6
ENDBRANCH   1   3
BRANCH   1  13
ATOM     13  C   LIG d   1       5.022  -1.433  -2.541  0.00  0.00     0.007 C 
ATOM     14  H   LIG d   1       5.080  -1.796  -1.514  0.00  0.00     0.088 H 
BRANCH  13  15
ATOM     15  C   LIG d   1       5.320   0.067  -2.569  0.00  0.00     0.032 C 
ATOM     16  H   LIG d   1       4.386   0.621  -2.656  0.00  0.00     0.038 H 
ATOM     17  H   LIG d   1       5.828   0.354  -1.647  0.00  0.00     0.038 H 
BRANCH  15  18
ATOM     18  C   LIG d   1       6.204   0.383  -3.747  0.00  0.00     0.047 C 
ATOM     19  O   LIG d   1       5.744   0.378  -4.865  0.00  0.00    -0.550 OA
ATOM     20  O   LIG d   1       7.501   0.669  -3.557  0.00  0.00    -0.550 OA
ENDBRANCH  15  18
ENDBRANCH  13  15
BRANCH  13  21
ATOM     21  N   LIG d   1       6.028  -2.136  -3.356  0.00  0.00     0.223 N 
ATOM     22  H   LIG d   1       5.601  -2.931  -3.829  0.00  0.00     0.200 HD
ATOM     23  H   LIG d   1       6.423  -1.501  -4.047  0.00  0.00     0.200 HD
ATOM     24  H   LIG d   1       6.781  -2.475  -2.745  0.00  0.00     0.200 HD
ENDBRANCH  13  21
ENDBRANCH   1  13
BRANCH   1  25
ATOM     25  O   LIG d   1       3.705  -2.082  -4.462  0.00  0.00    -0.386 OA
ATOM     26  H   LIG d   1       4.588  -2.367  -4.732  0.00  0.00     0.210 HD
ENDBRANCH   1  25
TORSDOF 8
ENDMDL
MODEL 5
REMARK VINA RESULT:      -3.7      1.933      4.046
REMARK  8 active torsions:
REMARK  status: ('A' for Active; 'I' for Inactive)
REMARK    1  A    between atoms: C_1  and  C_2 
REMARK    2  A    between atoms: C_1  and  C_3 
REMARK    3  A    between atoms: C_2  and  N_22 
REMARK    4  A    between atoms: C_3  and  C_5 
REMARK    5  A    between atoms: C_3  and  O_10 
REMARK    6  A    between atoms: C_5  and  C_7 
REMARK    7  A    between atoms: C_5  and  N_25 
REMARK    8  A    between atoms: C_7  and  C_8 
ROOT
ATOM      1  C   LIG d   1       4.498  -1.885  -4.530  0.00  0.00     0.103 C 
ATOM      2  H   LIG d   1       4.574  -1.512  -5.552  0.00  0.00     0.065 H 
ENDROOT
BRANCH   1   3
ATOM      3  C   LIG d   1       5.009  -3.326  -4.475  0.00  0.00     0.019 C 
ATOM      4  H   LIG d   1       4.536  -3.848  -3.643  0.00  0.00     0.034 H 
ATOM      5  H   LIG d   1       6.090  -3.324  -4.335  0.00  0.00     0.034 H 
BRANCH   3   6
ATOM      6  C   LIG d   1       4.667  -4.040  -5.785  0.00  0.00    -0.033 C 
ATOM      7  H   LIG d   1       5.568  -4.491  -6.199  0.00  0.00     0.081 H 
ATOM      8  H   LIG d   1       3.925  -4.815  -5.593  0.00  0.00     0.081 H 
BRANCH   6   9
ATOM      9  N   LIG d   1       4.102  -3.061  -6.731  0.00  0.00     0.219 N 
ATOM     10  H   LIG d   1       4.523  -2.146  -6.581  0.00  0.00     0.199 HD
ATOM     11  H   LIG d   1       4.275  -3.362  -7.689  0.00  0.00     0.199 HD
ATOM     12  H   LIG d   1       3.088  -2.992  -6.580  0.00  0.00     0.199 HD
ENDBRANCH   6   9
ENDBRANCH   3   6
ENDBRANCH   1   3
BRANCH   1  13
ATOM     13  C   LIG d   1       5.344  -1.009  -3.605  0.00  0.00     0.007 C 
ATOM     14  H   LIG d   1       6.353  -1.418  -3.538  0.00  0.00     0.088 H 
BRANCH  13  15
ATOM     15  C   LIG d   1       4.713  -0.981  -2.211  0.00  0.00     0.032 C 
ATOM     16  H   LIG d   1       3.897  -1.702  -2.168  0.00  0.00     0.038 H 
ATOM     17  H   LIG d   1       5.466  -1.240  -1.466  0.00  0.00     0.038 H 
BRANCH  15  18
ATOM     18  C   LIG d   1       4.180   0.399  -1.927  0.00  0.00     0.047 C 
ATOM     19  O   LIG d   1       3.070   0.705  -2.294  0.00  0.00    -0.550 OA
ATOM     20  O   LIG d   1       4.937   1.289  -1.267  0.00  0.00    -0.550 OA
ENDBRANCH  15  18
ENDBRANCH  13  15
BRANCH  13  21
ATOM     21  N   LIG d   1       5.418   0.368  -4.123  0.00  0.00     0.223 N 
ATOM     22  H   LIG d   1       4.510   0.653  -4.487  0.00  0.00     0.200 HD
ATOM     23  H   LIG d   1       5.701   1.006  -3.382  0.00  0.00     0.200 HD
ATOM     24  H   LIG d   1       6.110   0.407  -4.881  0.00  0.00     0.200 HD
ENDBRANCH  13  21
ENDBRANCH   1  13
BRANCH   1  25
ATOM     25  O   LIG d   1       3.133  -1.847  -4.109  0.00  0.00    -0.386 OA
ATOM     26  H   LIG d   1       2.643  -2.660  -4.292  0.00  0.00     0.210 HD
ENDBRANCH   1  25
TORSDOF 8
ENDMDL
MODEL 6
REMARK VINA RESULT:      -3.7      1.791      3.858
REMARK  8 active torsions:
REMARK  status: ('A' for Active; 'I' for Inactive)
REMARK    1  A    between atoms: C_1  and  C_2 
REMARK    2  A    between atoms: C_1  and  C_3 
REMARK    3  A    between atoms: C_2  and  N_22 
REMARK    4  A    between atoms: C_3  and  C_5 
REMARK    5  A    between atoms: C_3  and  O_10 
REMARK    6  A    between atoms: C_5  and  C_7 
REMARK    7  A    between atoms: C_5  and  N_25 
REMARK    8  A    between atoms: C_7  and  C_8 
ROOT
ATOM      1  C   LIG d   1       4.339  -1.947  -4.237  0.00  0.00     0.103 C 
ATOM      2  H   LIG d   1       3.318  -1.565  -4.265  0.00  0.00     0.065 H 
ENDROOT
BRANCH   1   3
ATOM      3  C   LIG d   1       5.134  -1.365  -5.408  0.00  0.00     0.019 C 
ATOM      4  H   LIG d   1       5.582  -2.177  -5.981  0.00  0.00     0.034 H 
ATOM      5  H   LIG d   1       5.919  -0.713  -5.027  0.00  0.00     0.034 H 
BRANCH   3   6
ATOM      6  C   LIG d   1       4.196  -0.561  -6.312  0.00  0.00    -0.033 C 
ATOM      7  H   LIG d   1       4.680   0.373  -6.597  0.00  0.00     0.081 H 
ATOM      8  H   LIG d   1       3.967  -1.141  -7.206  0.00  0.00     0.081 H 
BRANCH   6   9
ATOM      9  N   LIG d   1       2.944  -0.290  -5.584  0.00  0.00     0.219 N 
ATOM     10  H   LIG d   1       2.987   0.629  -5.144  0.00  0.00     0.199 HD
ATOM     11  H   LIG d   1       2.154  -0.322  -6.225  0.00  0.00     0.199 HD
ATOM     12  H   LIG d   1       2.815  -1.003  -4.856  0.00  0.00     0.199 HD
ENDBRANCH   6   9
ENDBRANCH   3   6
ENDBRANCH   1   3
BRANCH   1  13
ATOM     13  C   LIG d   1       5.000  -1.536  -2.919  0.00  0.00     0.007 C 
ATOM     14  H   LIG d   1       5.291  -2.429  -2.365  0.00  0.00     0.088 H 
BRANCH  13  15
ATOM     15  C   LIG d   1       4.010  -0.720  -2.085  0.00  0.00     0.032 C 
ATOM     16  H   LIG d   1       2.999  -0.882  -2.460  0.00  0.00     0.038 H 
ATOM     17  H   LIG d   1       4.065  -1.036  -1.043  0.00  0.00     0.038 H 
BRANCH  15  18
ATOM     18  C   LIG d   1       4.355   0.743  -2.184  0.00  0.00     0.047 C 
ATOM     19  O   LIG d   1       4.874   1.306  -1.249  0.00  0.00    -0.550 OA
ATOM     20  O   LIG d   1       4.086   1.422  -3.311  0.00  0.00    -0.550 OA
ENDBRANCH  15  18
ENDBRANCH  13  15
BRANCH  13  21
ATOM     21  N   LIG d   1       6.197  -0.718  -3.176  0.00  0.00     0.223 N 
ATOM     22  H   LIG d   1       6.670  -0.507  -2.298  0.00  0.00     0.200 HD
ATOM     23  H   LIG d   1       6.835  -1.217  -3.793  0.00  0.00     0.200 HD
ATOM     24  H   LIG d   1       5.916   0.162  -3.625  0.00  0.00     0.200 HD
ENDBRANCH  13  21
ENDBRANCH   1  13
BRANCH   1  25
ATOM     25  O   LIG d   1       4.318  -3.372  -4.336  0.00  0.00    -0.386 OA
ATOM     26  H   LIG d   1       3.430  -3.753  -4.329  0.00  0.00     0.210 HD
ENDBRANCH   1  25
TORSDOF 8
ENDMDL
MODEL 7
REMARK VINA RESULT:      -3.7      2.023      3.172
REMARK  8 active torsions:
REMARK  status: ('A' for Active; 'I' for Inactive)
REMARK    1  A    between atoms: C_1  and  C_2 
REMARK    2  A    between atoms: C_1  and  C_3 
REMARK    3  A    between atoms: C_2  and  N_22 
REMARK    4  A    between atoms: C_3  and  C_5 
REMARK    5  A    between atoms: C_3  and  O_10 
REMARK    6  A    between atoms: C_5  and  C_7 
REMARK    7  A    between atoms: C_5  and  N_25 
REMARK    8  A    between atoms: C_7  and  C_8 
ROOT
ATOM      1  C   LIG d   1       5.260  -0.892  -3.320  0.00  0.00     0.103 C 
ATOM      2  H   LIG d   1       5.751   0.019  -3.664  0.00  0.00     0.065 H 
ENDROOT
BRANCH   1   3
ATOM      3  C   LIG d   1       4.379  -0.571  -2.112  0.00  0.00     0.019 C 
ATOM      4  H   LIG d   1       4.650  -1.223  -1.281  0.00  0.00     0.034 H 
ATOM      5  H   LIG d   1       3.332  -0.733  -2.372  0.00  0.00     0.034 H 
BRANCH   3   6
ATOM      6  C   LIG d   1       4.583   0.889  -1.703  0.00  0.00    -0.033 C 
ATOM      7  H   LIG d   1       3.738   1.219  -1.100  0.00  0.00     0.081 H 
ATOM      8  H   LIG d   1       5.502   0.979  -1.124  0.00  0.00     0.081 H 
BRANCH   6   9
ATOM      9  N   LIG d   1       4.700   1.715  -2.918  0.00  0.00     0.219 N 
ATOM     10  H   LIG d   1       5.403   1.322  -3.543  0.00  0.00     0.199 HD
ATOM     11  H   LIG d   1       3.803   1.757  -3.399  0.00  0.00     0.199 HD
ATOM     12  H   LIG d   1       4.982   2.667  -2.654  0.00  0.00     0.199 HD
ENDBRANCH   6   9
ENDBRANCH   3   6
ENDBRANCH   1   3
BRANCH   1  13
ATOM     13  C   LIG d   1       4.395  -1.460  -4.447  0.00  0.00     0.007 C 
ATOM     14  H   LIG d   1       4.728  -2.471  -4.685  0.00  0.00     0.088 H 
BRANCH  13  15
ATOM     15  C   LIG d   1       4.526  -0.574  -5.687  0.00  0.00     0.032 C 
ATOM     16  H   LIG d   1       5.326   0.150  -5.533  0.00  0.00     0.038 H 
ATOM     17  H   LIG d   1       4.760  -1.194  -6.553  0.00  0.00     0.038 H 
BRANCH  15  18
ATOM     18  C   LIG d   1       3.229   0.153  -5.926  0.00  0.00     0.047 C 
ATOM     19  O   LIG d   1       2.544  -0.130  -6.881  0.00  0.00    -0.550 OA
ATOM     20  O   LIG d   1       2.832   1.115  -5.078  0.00  0.00    -0.550 OA
ENDBRANCH  15  18
ENDBRANCH  13  15
BRANCH  13  21
ATOM     21  N   LIG d   1       2.980  -1.504  -4.038  0.00  0.00     0.223 N 
ATOM     22  H   LIG d   1       2.435  -0.849  -4.597  0.00  0.00     0.200 HD
ATOM     23  H   LIG d   1       2.611  -2.445  -4.160  0.00  0.00     0.200 HD
ATOM     24  H   LIG d   1       2.906  -1.241  -3.048  0.00  0.00     0.200 HD
ENDBRANCH  13  21
ENDBRANCH   1  13
BRANCH   1  25
ATOM     25  O   LIG d   1       6.249  -1.854  -2.946  0.00  0.00    -0.386 OA
ATOM     26  H   LIG d   1       5.883  -2.698  -2.648  0.00  0.00     0.210 HD
ENDBRANCH   1  25
TORSDOF 8
ENDMDL
MODEL 8
REMARK VINA RESULT:      -3.7      2.091      3.770
REMARK  8 active torsions:
REMARK  status: ('A' for Active; 'I' for Inactive)
REMARK    1  A    between atoms: C_1  and  C_2 
REMARK    2  A    between atoms: C_1  and  C_3 
REMARK    3  A    between atoms: C_2  and  N_22 
REMARK    4  A    between atoms: C_3  and  C_5 
REMARK    5  A    between atoms: C_3  and  O_10 
REMARK    6  A    between atoms: C_5  and  C_7 
REMARK    7  A    between atoms: C_5  and  N_25 
REMARK    8  A    between atoms: C_7  and  C_8 
ROOT
ATOM      1  C   LIG d   1       5.031  -2.195  -4.060  0.00  0.00     0.103 C 
ATOM      2  H   LIG d   1       5.539  -3.160  -4.062  0.00  0.00     0.065 H 
ENDROOT
BRANCH   1   3
ATOM      3  C   LIG d   1       4.607  -1.846  -2.632  0.00  0.00     0.019 C 
ATOM      4  H   LIG d   1       5.216  -1.021  -2.264  0.00  0.00     0.034 H 
ATOM      5  H   LIG d   1       4.746  -2.715  -1.988  0.00  0.00     0.034 H 
BRANCH   3   6
ATOM      6  C   LIG d   1       3.132  -1.436  -2.623  0.00  0.00    -0.033 C 
ATOM      7  H   LIG d   1       2.622  -1.901  -3.466  0.00  0.00     0.081 H 
ATOM      8  H   LIG d   1       2.671  -1.763  -1.691  0.00  0.00     0.081 H 
BRANCH   6   9
ATOM      9  N   LIG d   1       3.042   0.031  -2.712  0.00  0.00     0.219 N 
ATOM     10  H   LIG d   1       2.677   0.414  -1.841  0.00  0.00     0.199 HD
ATOM     11  H   LIG d   1       3.962   0.427  -2.898  0.00  0.00     0.199 HD
ATOM     12  H   LIG d   1       2.409   0.285  -3.480  0.00  0.00     0.199 HD
ENDBRANCH   6   9
ENDBRANCH   3   6
ENDBRANCH   1   3
BRANCH   1  13
ATOM     13  C   LIG d   1       5.982  -1.119  -4.587  0.00  0.00     0.007 C 
ATOM     14  H   LIG d   1       6.690  -1.569  -5.284  0.00  0.00     0.088 H 
BRANCH  13  15
ATOM     15  C   LIG d   1       6.746  -0.496  -3.417  0.00  0.00     0.032 C 
ATOM     16  H   LIG d   1       6.384  -0.919  -2.480  0.00  0.00     0.038 H 
ATOM     17  H   LIG d   1       7.810  -0.708  -3.523  0.00  0.00     0.038 H 
BRANCH  15  18
ATOM     18  C   LIG d   1       6.530   0.995  -3.411  0.00  0.00     0.047 C 
ATOM     19  O   LIG d   1       7.175   1.702  -4.150  0.00  0.00    -0.550 OA
ATOM     20  O   LIG d   1       5.622   1.539  -2.586  0.00  0.00    -0.550 OA
ENDBRANCH  15  18
ENDBRANCH  13  15
BRANCH  13  21
ATOM     21  N   LIG d   1       5.229  -0.062  -5.283  0.00  0.00     0.223 N 
ATOM     22  H   LIG d   1       4.251  -0.332  -5.373  0.00  0.00     0.200 HD
ATOM     23  H   LIG d   1       5.293   0.812  -4.764  0.00  0.00     0.200 HD
ATOM     24  H   LIG d   1       5.626   0.076  -6.220  0.00  0.00     0.200 HD
ENDBRANCH  13  21
ENDBRANCH   1  13
BRANCH   1  25
ATOM     25  O   LIG d   1       3.875  -2.262  -4.897  0.00  0.00    -0.386 OA
ATOM     26  H   LIG d   1       3.456  -1.406  -5.058  0.00  0.00     0.210 HD
ENDBRANCH   1  25
TORSDOF 8
ENDMDL
MODEL 9
REMARK VINA RESULT:      -3.7      2.307      3.000
REMARK  8 active torsions:
REMARK  status: ('A' for Active; 'I' for Inactive)
REMARK    1  A    between atoms: C_1  and  C_2 
REMARK    2  A    between atoms: C_1  and  C_3 
REMARK    3  A    between atoms: C_2  and  N_22 
REMARK    4  A    between atoms: C_3  and  C_5 
REMARK    5  A    between atoms: C_3  and  O_10 
REMARK    6  A    between atoms: C_5  and  C_7 
REMARK    7  A    between atoms: C_5  and  N_25 
REMARK    8  A    between atoms: C_7  and  C_8 
ROOT
ATOM      1  C   LIG d   1       2.455   0.632  -4.995  0.00  0.00     0.103 C 
ATOM      2  H   LIG d   1       2.070   1.653  -5.019  0.00  0.00     0.065 H 
ENDROOT
BRANCH   1   3
ATOM      3  C   LIG d   1       3.150   0.319  -6.321  0.00  0.00     0.019 C 
ATOM      4  H   LIG d   1       3.481   1.247  -6.786  0.00  0.00     0.034 H 
ATOM      5  H   LIG d   1       2.451  -0.190  -6.986  0.00  0.00     0.034 H 
BRANCH   3   6
ATOM      6  C   LIG d   1       4.359  -0.584  -6.064  0.00  0.00    -0.033 C 
ATOM      7  H   LIG d   1       5.137  -0.363  -6.794  0.00  0.00     0.081 H 
ATOM      8  H   LIG d   1       4.739  -0.403  -5.059  0.00  0.00     0.081 H 
BRANCH   6   9
ATOM      9  N   LIG d   1       3.938  -1.991  -6.171  0.00  0.00     0.219 N 
ATOM     10  H   LIG d   1       4.575  -2.588  -5.645  0.00  0.00     0.199 HD
ATOM     11  H   LIG d   1       2.992  -2.101  -5.808  0.00  0.00     0.199 HD
ATOM     12  H   LIG d   1       3.952  -2.274  -7.158  0.00  0.00     0.199 HD
ENDBRANCH   6   9
ENDBRANCH   3   6
ENDBRANCH   1   3
BRANCH   1  13
ATOM     13  C   LIG d   1       3.458   0.493  -3.848  0.00  0.00     0.007 C 
ATOM     14  H   LIG d   1       4.380   0.048  -4.225  0.00  0.00     0.088 H 
BRANCH  13  15
ATOM     15  C   LIG d   1       2.867  -0.403  -2.759  0.00  0.00     0.032 C 
ATOM     16  H   LIG d   1       2.739   0.174  -1.843  0.00  0.00     0.038 H 
ATOM     17  H   LIG d   1       1.899  -0.783  -3.086  0.00  0.00     0.038 H 
BRANCH  15  18
ATOM     18  C   LIG d   1       3.798  -1.559  -2.498  0.00  0.00     0.047 C 
ATOM     19  O   LIG d   1       3.758  -2.538  -3.206  0.00  0.00    -0.550 OA
ATOM     20  O   LIG d   1       4.670  -1.502  -1.480  0.00  0.00    -0.550 OA
ENDBRANCH  15  18
ENDBRANCH  13  15
BRANCH  13  21
ATOM     21  N   LIG d   1       3.764   1.812  -3.269  0.00  0.00     0.223 N 
ATOM     22  H   LIG d   1       4.749   2.034  -3.406  0.00  0.00     0.200 HD
ATOM     23  H   LIG d   1       3.191   2.529  -3.708  0.00  0.00     0.200 HD
ATOM     24  H   LIG d   1       3.563   1.794  -2.262  0.00  0.00     0.200 HD
ENDBRANCH  13  21
ENDBRANCH   1  13
BRANCH   1  25
ATOM     25  O   LIG d   1       1.373  -0.281  -4.796  0.00  0.00    -0.386 OA
ATOM     26  H   LIG d   1       0.609  -0.114  -5.364  0.00  0.00     0.210 HD
ENDBRANCH   1  25
TORSDOF 8
ENDMDL
