MODEL 1
REMARK VINA RESULT:      -7.3      0.000      0.000
REMARK  4 active torsions:
REMARK  status: ('A' for Active; 'I' for Inactive)
REMARK    1  A    between atoms: CE_1  and  SD_2 
REMARK    2  A    between atoms: SD_2  and  CG_3 
REMARK    3  A    between atoms: CG_3  and  CB_4 
REMARK    4  A    between atoms: CB_4  and  CA_5 
REMARK       I    between atoms: CA_5  and  C_7 
REMARK       I    between atoms: CA_5  and  N_9 
REMARK       I    between atoms: N_9  and  C_10 
REMARK       I    between atoms: C_10  and  N_12 
ROOT
ATOM      1  CA  MET d   1       3.963   0.493  -7.885  0.00  0.00     0.065 C 
ATOM      2  HA  MET d   1       3.672  -0.452  -8.344  0.00  0.00     0.056 H 
ATOM      3  C   MET d   1       5.431   0.736  -8.122  0.00  0.00     0.062 C 
ATOM      4  O   MET d   1       6.184   0.849  -7.184  0.00  0.00    -0.548 OA
ATOM      5  N   MET d   1       3.704   0.435  -6.444  0.00  0.00    -0.291 N 
ATOM      6  H   MET d   1       3.413   1.230  -5.972  0.00  0.00     0.151 HD
ATOM      7  OXT MET d   1       5.903   0.826  -9.376  0.00  0.00    -0.548 OA
ATOM      8  C   UNK d   0       3.872  -0.723  -5.775  0.00  0.00     0.303 C 
ATOM      9  O   UNK d   0       4.152  -1.740  -6.381  0.00  0.00    -0.253 OA
ATOM     10  N   UNK d   0       3.729  -0.755  -4.436  0.00  0.00    -0.285 N 
ATOM     11  C   UNK d   0       3.288   0.437  -3.701  0.00  0.00     0.021 C 
ATOM     12  C   UNK d   0       4.226   0.714  -2.535  0.00  0.00    -0.006 C 
ATOM     13  H   UNK d   0       3.757   1.458  -1.892  0.00  0.00     0.033 H 
ATOM     14  C   UNK d   0       4.447  -0.544  -1.695  0.00  0.00    -0.037 C 
ATOM     15  C   UNK d   0       5.046  -1.627  -2.596  0.00  0.00     0.016 C 
ATOM     16  H   UNK d   0       5.306  -2.506  -2.005  0.00  0.00     0.038 H 
ATOM     17  C   UNK d   0       4.007  -1.985  -3.679  0.00  0.00     0.024 C 
ATOM     18  C   UNK d   0       6.274  -1.089  -3.294  0.00  0.00     0.027 A 
ATOM     19  C   UNK d   0       7.206  -1.990  -3.703  0.00  0.00    -0.042 A 
ATOM     20  C   UNK d   0       8.301  -1.580  -4.471  0.00  0.00    -0.055 A 
ATOM     21  C   UNK d   0       8.410  -0.264  -4.814  0.00  0.00     0.003 A 
ATOM     22  C   UNK d   0       7.439   0.641  -4.364  0.00  0.00     0.252 A 
ATOM     23  O   UNK d   0       7.503   1.811  -4.702  0.00  0.00    -0.268 OA
ATOM     24  N   UNK d   0       6.430   0.230  -3.558  0.00  0.00    -0.312 N 
ATOM     25  C   UNK d   0       5.562   1.266  -2.999  0.00  0.00     0.031 C 
ATOM     26  H   UNK d   0       3.283   1.295  -4.372  0.00  0.00     0.047 H 
ATOM     27  H   UNK d   0       2.280   0.273  -3.319  0.00  0.00     0.047 H 
ATOM     28  H   UNK d   0       5.134  -0.324  -0.878  0.00  0.00     0.028 H 
ATOM     29  H   UNK d   0       3.494  -0.888  -1.292  0.00  0.00     0.028 H 
ATOM     30  H   UNK d   0       3.091  -2.347  -3.211  0.00  0.00     0.047 H 
ATOM     31  H   UNK d   0       4.411  -2.748  -4.345  0.00  0.00     0.047 H 
ATOM     32  H   UNK d   0       7.099  -3.030  -3.432  0.00  0.00     0.064 H 
ATOM     33  H   UNK d   0       9.047  -2.294  -4.787  0.00  0.00     0.062 H 
ATOM     34  H   UNK d   0       9.234   0.075  -5.425  0.00  0.00     0.067 H 
ATOM     35  H   UNK d   0       5.385   2.027  -3.759  0.00  0.00     0.050 H 
ATOM     36  H   UNK d   0       6.067   1.728  -2.150  0.00  0.00     0.050 H 
ENDROOT
BRANCH   1  37
ATOM     37  CB  MET d   1       3.151   1.632  -8.504  0.00  0.00    -0.020 C 
ATOM     38  HB1 MET d   1       3.820   2.445  -8.785  0.00  0.00     0.029 H 
ATOM     39  HB2 MET d   1       2.423   1.996  -7.778  0.00  0.00     0.029 H 
BRANCH  37  40
ATOM     40  CG  MET d   1       2.419   1.122  -9.746  0.00  0.00    -0.005 C 
ATOM     41  HG1 MET d   1       1.497   1.688  -9.882  0.00  0.00     0.038 H 
ATOM     42  HG2 MET d   1       3.055   1.250 -10.622  0.00  0.00     0.038 H 
BRANCH  40  43
ATOM     43  SD  MET d   1       2.022  -0.636  -9.537  0.00  0.00    -0.164 SA
BRANCH  43  44
ATOM     44  CE  MET d   1       1.311  -1.119 -11.134  0.00  0.00    -0.018 C 
ATOM     45  HE1 MET d   1       2.077  -1.056 -11.907  0.00  0.00     0.034 H 
ATOM     46  HE2 MET d   1       0.940  -2.143 -11.072  0.00  0.00     0.034 H 
ATOM     47  HE3 MET d   1       0.488  -0.450 -11.382  0.00  0.00     0.034 H 
ENDBRANCH  43  44
ENDBRANCH  40  43
ENDBRANCH  37  40
ENDBRANCH   1  37
TORSDOF 6
ENDMDL
MODEL 2
REMARK VINA RESULT:      -7.3      2.829      5.661
REMARK  4 active torsions:
REMARK  status: ('A' for Active; 'I' for Inactive)
REMARK    1  A    between atoms: CE_1  and  SD_2 
REMARK    2  A    between atoms: SD_2  and  CG_3 
REMARK    3  A    between atoms: CG_3  and  CB_4 
REMARK    4  A    between atoms: CB_4  and  CA_5 
REMARK       I    between atoms: CA_5  and  C_7 
REMARK       I    between atoms: CA_5  and  N_9 
REMARK       I    between atoms: N_9  and  C_10 
REMARK       I    between atoms: C_10  and  N_12 
ROOT
ATOM      1  CA  MET d   1       8.416   1.235  -4.882  0.00  0.00     0.065 C 
ATOM      2  HA  MET d   1       8.409   2.199  -4.375  0.00  0.00     0.056 H 
ATOM      3  C   MET d   1       7.806   1.384  -6.252  0.00  0.00     0.062 C 
ATOM      4  O   MET d   1       6.822   0.748  -6.548  0.00  0.00    -0.548 OA
ATOM      5  N   MET d   1       7.636   0.269  -4.103  0.00  0.00    -0.291 N 
ATOM      6  H   MET d   1       7.908  -0.661  -4.072  0.00  0.00     0.151 HD
ATOM      7  OXT MET d   1       8.357   2.222  -7.144  0.00  0.00    -0.548 OA
ATOM      8  C   UNK d   0       6.540   0.673  -3.431  0.00  0.00     0.303 C 
ATOM      9  O   UNK d   0       6.248   1.854  -3.397  0.00  0.00    -0.253 OA
ATOM     10  N   UNK d   0       5.768  -0.229  -2.794  0.00  0.00    -0.285 N 
ATOM     11  C   UNK d   0       6.162  -1.642  -2.734  0.00  0.00     0.021 C 
ATOM     12  C   UNK d   0       5.005  -2.530  -3.169  0.00  0.00    -0.006 C 
ATOM     13  H   UNK d   0       5.251  -3.559  -2.908  0.00  0.00     0.033 H 
ATOM     14  C   UNK d   0       3.720  -2.164  -2.426  0.00  0.00    -0.037 C 
ATOM     15  C   UNK d   0       3.390  -0.699  -2.726  0.00  0.00     0.016 C 
ATOM     16  H   UNK d   0       2.426  -0.434  -2.290  0.00  0.00     0.038 H 
ATOM     17  C   UNK d   0       4.515   0.180  -2.142  0.00  0.00     0.024 C 
ATOM     18  C   UNK d   0       3.361  -0.479  -4.221  0.00  0.00     0.027 A 
ATOM     19  C   UNK d   0       2.612   0.556  -4.686  0.00  0.00    -0.042 A 
ATOM     20  C   UNK d   0       2.643   0.903  -6.041  0.00  0.00    -0.055 A 
ATOM     21  C   UNK d   0       3.447   0.194  -6.885  0.00  0.00     0.003 A 
ATOM     22  C   UNK d   0       4.194  -0.876  -6.376  0.00  0.00     0.252 A 
ATOM     23  O   UNK d   0       4.950  -1.489  -7.113  0.00  0.00    -0.268 OA
ATOM     24  N   UNK d   0       4.088  -1.239  -5.074  0.00  0.00    -0.312 N 
ATOM     25  C   UNK d   0       4.771  -2.467  -4.667  0.00  0.00     0.031 C 
ATOM     26  H   UNK d   0       7.013  -1.809  -3.394  0.00  0.00     0.047 H 
ATOM     27  H   UNK d   0       6.443  -1.895  -1.712  0.00  0.00     0.047 H 
ATOM     28  H   UNK d   0       2.904  -2.801  -2.766  0.00  0.00     0.028 H 
ATOM     29  H   UNK d   0       3.866  -2.294  -1.354  0.00  0.00     0.028 H 
ATOM     30  H   UNK d   0       4.590   0.023  -1.065  0.00  0.00     0.047 H 
ATOM     31  H   UNK d   0       4.313   1.230  -2.351  0.00  0.00     0.047 H 
ATOM     32  H   UNK d   0       1.990   1.115  -4.003  0.00  0.00     0.064 H 
ATOM     33  H   UNK d   0       2.041   1.719  -6.412  0.00  0.00     0.062 H 
ATOM     34  H   UNK d   0       3.506   0.455  -7.932  0.00  0.00     0.067 H 
ATOM     35  H   UNK d   0       5.732  -2.522  -5.177  0.00  0.00     0.050 H 
ATOM     36  H   UNK d   0       4.164  -3.322  -4.966  0.00  0.00     0.050 H 
ENDROOT
BRANCH   1  37
ATOM     37  CB  MET d   1       9.856   0.738  -5.015  0.00  0.00    -0.020 C 
ATOM     38  HB1 MET d   1      10.115   0.653  -6.071  0.00  0.00     0.029 H 
ATOM     39  HB2 MET d   1       9.950  -0.238  -4.538  0.00  0.00     0.029 H 
BRANCH  37  40
ATOM     40  CG  MET d   1      10.803   1.729  -4.336  0.00  0.00    -0.005 C 
ATOM     41  HG1 MET d   1      11.462   1.191  -3.654  0.00  0.00     0.038 H 
ATOM     42  HG2 MET d   1      11.401   2.237  -5.093  0.00  0.00     0.038 H 
BRANCH  40  43
ATOM     43  SD  MET d   1       9.837   2.951  -3.407  0.00  0.00    -0.164 SA
BRANCH  43  44
ATOM     44  CE  MET d   1      11.090   3.928  -2.532  0.00  0.00    -0.018 C 
ATOM     45  HE1 MET d   1      10.921   4.988  -2.720  0.00  0.00     0.034 H 
ATOM     46  HE2 MET d   1      11.020   3.733  -1.461  0.00  0.00     0.034 H 
ATOM     47  HE3 MET d   1      12.081   3.648  -2.887  0.00  0.00     0.034 H 
ENDBRANCH  43  44
ENDBRANCH  40  43
ENDBRANCH  37  40
ENDBRANCH   1  37
TORSDOF 6
ENDMDL
MODEL 3
REMARK VINA RESULT:      -7.0      2.442      4.893
REMARK  4 active torsions:
REMARK  status: ('A' for Active; 'I' for Inactive)
REMARK    1  A    between atoms: CE_1  and  SD_2 
REMARK    2  A    between atoms: SD_2  and  CG_3 
REMARK    3  A    between atoms: CG_3  and  CB_4 
REMARK    4  A    between atoms: CB_4  and  CA_5 
REMARK       I    between atoms: CA_5  and  C_7 
REMARK       I    between atoms: CA_5  and  N_9 
REMARK       I    between atoms: N_9  and  C_10 
REMARK       I    between atoms: C_10  and  N_12 
ROOT
ATOM      1  CA  MET d   1       8.390   1.110  -5.364  0.00  0.00     0.065 C 
ATOM      2  HA  MET d   1       8.469   2.069  -4.853  0.00  0.00     0.056 H 
ATOM      3  C   MET d   1       7.641   1.290  -6.659  0.00  0.00     0.062 C 
ATOM      4  O   MET d   1       6.610   0.689  -6.850  0.00  0.00    -0.548 OA
ATOM      5  N   MET d   1       7.669   0.161  -4.511  0.00  0.00    -0.291 N 
ATOM      6  H   MET d   1       7.913  -0.777  -4.515  0.00  0.00     0.151 HD
ATOM      7  OXT MET d   1       8.118   2.120  -7.601  0.00  0.00    -0.548 OA
ATOM      8  C   UNK d   0       6.666   0.593  -3.721  0.00  0.00     0.303 C 
ATOM      9  O   UNK d   0       6.417   1.781  -3.649  0.00  0.00    -0.253 OA
ATOM     10  N   UNK d   0       5.939  -0.291  -3.010  0.00  0.00    -0.285 N 
ATOM     11  C   UNK d   0       6.292  -1.716  -3.002  0.00  0.00     0.021 C 
ATOM     12  C   UNK d   0       5.068  -2.564  -3.314  0.00  0.00    -0.006 C 
ATOM     13  H   UNK d   0       5.308  -3.603  -3.087  0.00  0.00     0.033 H 
ATOM     14  C   UNK d   0       3.883  -2.165  -2.434  0.00  0.00    -0.037 C 
ATOM     15  C   UNK d   0       3.569  -0.688  -2.687  0.00  0.00     0.016 C 
ATOM     16  H   UNK d   0       2.667  -0.398  -2.147  0.00  0.00     0.038 H 
ATOM     17  C   UNK d   0       4.778   0.150  -2.223  0.00  0.00     0.024 C 
ATOM     18  C   UNK d   0       3.385  -0.453  -4.169  0.00  0.00     0.027 A 
ATOM     19  C   UNK d   0       2.624   0.609  -4.543  0.00  0.00    -0.042 A 
ATOM     20  C   UNK d   0       2.518   0.968  -5.891  0.00  0.00    -0.055 A 
ATOM     21  C   UNK d   0       3.203   0.242  -6.822  0.00  0.00     0.003 A 
ATOM     22  C   UNK d   0       3.967  -0.856  -6.403  0.00  0.00     0.252 A 
ATOM     23  O   UNK d   0       4.619  -1.484  -7.222  0.00  0.00    -0.268 OA
ATOM     24  N   UNK d   0       3.991  -1.227  -5.100  0.00  0.00    -0.312 N 
ATOM     25  C   UNK d   0       4.675  -2.479  -4.777  0.00  0.00     0.031 C 
ATOM     26  H   UNK d   0       7.061  -1.903  -3.751  0.00  0.00     0.047 H 
ATOM     27  H   UNK d   0       6.675  -1.987  -2.018  0.00  0.00     0.047 H 
ATOM     28  H   UNK d   0       3.016  -2.774  -2.687  0.00  0.00     0.028 H 
ATOM     29  H   UNK d   0       4.140  -2.310  -1.384  0.00  0.00     0.028 H 
ATOM     30  H   UNK d   0       4.964  -0.019  -1.162  0.00  0.00     0.047 H 
ATOM     31  H   UNK d   0       4.588   1.208  -2.402  0.00  0.00     0.047 H 
ATOM     32  H   UNK d   0       2.097   1.181  -3.793  0.00  0.00     0.064 H 
ATOM     33  H   UNK d   0       1.906   1.806  -6.189  0.00  0.00     0.062 H 
ATOM     34  H   UNK d   0       3.157   0.511  -7.867  0.00  0.00     0.067 H 
ATOM     35  H   UNK d   0       5.573  -2.559  -5.389  0.00  0.00     0.050 H 
ATOM     36  H   UNK d   0       4.012  -3.312  -5.014  0.00  0.00     0.050 H 
ENDROOT
BRANCH   1  37
ATOM     37  CB  MET d   1       9.791   0.570  -5.656  0.00  0.00    -0.020 C 
ATOM     38  HB1 MET d   1      10.518   1.088  -5.029  0.00  0.00     0.029 H 
ATOM     39  HB2 MET d   1      10.034   0.737  -6.706  0.00  0.00     0.029 H 
BRANCH  37  40
ATOM     40  CG  MET d   1       9.835  -0.928  -5.356  0.00  0.00    -0.005 C 
ATOM     41  HG1 MET d   1      10.764  -1.168  -4.838  0.00  0.00     0.038 H 
ATOM     42  HG2 MET d   1       8.988  -1.197  -4.724  0.00  0.00     0.038 H 
BRANCH  40  43
ATOM     43  SD  MET d   1       9.751  -1.861  -6.910  0.00  0.00    -0.164 SA
BRANCH  43  44
ATOM     44  CE  MET d   1       8.081  -2.566  -6.909  0.00  0.00    -0.018 C 
ATOM     45  HE1 MET d   1       7.786  -2.803  -5.887  0.00  0.00     0.034 H 
ATOM     46  HE2 MET d   1       7.380  -1.844  -7.331  0.00  0.00     0.034 H 
ATOM     47  HE3 MET d   1       8.070  -3.475  -7.510  0.00  0.00     0.034 H 
ENDBRANCH  43  44
ENDBRANCH  40  43
ENDBRANCH  37  40
ENDBRANCH   1  37
TORSDOF 6
ENDMDL
MODEL 4
REMARK VINA RESULT:      -6.8      1.991      3.508
REMARK  4 active torsions:
REMARK  status: ('A' for Active; 'I' for Inactive)
REMARK    1  A    between atoms: CE_1  and  SD_2 
REMARK    2  A    between atoms: SD_2  and  CG_3 
REMARK    3  A    between atoms: CG_3  and  CB_4 
REMARK    4  A    between atoms: CB_4  and  CA_5 
REMARK       I    between atoms: CA_5  and  C_7 
REMARK       I    between atoms: CA_5  and  N_9 
REMARK       I    between atoms: N_9  and  C_10 
REMARK       I    between atoms: C_10  and  N_12 
ROOT
ATOM      1  CA  MET d   1       4.213   0.423  -8.416  0.00  0.00     0.065 C 
ATOM      2  HA  MET d   1       4.970   1.119  -8.778  0.00  0.00     0.056 H 
ATOM      3  C   MET d   1       3.186   1.175  -7.611  0.00  0.00     0.062 C 
ATOM      4  O   MET d   1       3.001   0.893  -6.450  0.00  0.00    -0.548 OA
ATOM      5  N   MET d   1       4.848  -0.592  -7.571  0.00  0.00    -0.291 N 
ATOM      6  H   MET d   1       4.517  -1.502  -7.575  0.00  0.00     0.151 HD
ATOM      7  OXT MET d   1       2.473   2.159  -8.182  0.00  0.00    -0.548 OA
ATOM      8  C   UNK d   0       5.893  -0.259  -6.787  0.00  0.00     0.303 C 
ATOM      9  O   UNK d   0       6.366   0.860  -6.846  0.00  0.00    -0.253 OA
ATOM     10  N   UNK d   0       6.415  -1.166  -5.938  0.00  0.00    -0.285 N 
ATOM     11  C   UNK d   0       5.928  -2.550  -5.929  0.00  0.00     0.021 C 
ATOM     12  C   UNK d   0       5.589  -2.980  -4.508  0.00  0.00    -0.006 C 
ATOM     13  H   UNK d   0       5.444  -4.060  -4.507  0.00  0.00     0.033 H 
ATOM     14  C   UNK d   0       6.740  -2.671  -3.551  0.00  0.00    -0.037 C 
ATOM     15  C   UNK d   0       7.007  -1.164  -3.586  0.00  0.00     0.016 C 
ATOM     16  H   UNK d   0       7.757  -0.897  -2.841  0.00  0.00     0.038 H 
ATOM     17  C   UNK d   0       7.488  -0.791  -5.004  0.00  0.00     0.024 C 
ATOM     18  C   UNK d   0       5.723  -0.412  -3.322  0.00  0.00     0.027 A 
ATOM     19  C   UNK d   0       5.827   0.844  -2.812  0.00  0.00    -0.042 A 
ATOM     20  C   UNK d   0       4.692   1.648  -2.667  0.00  0.00    -0.055 A 
ATOM     21  C   UNK d   0       3.481   1.156  -3.057  0.00  0.00     0.003 A 
ATOM     22  C   UNK d   0       3.406  -0.148  -3.565  0.00  0.00     0.252 A 
ATOM     23  O   UNK d   0       2.335  -0.582  -3.958  0.00  0.00    -0.268 OA
ATOM     24  N   UNK d   0       4.510  -0.933  -3.624  0.00  0.00    -0.312 N 
ATOM     25  C   UNK d   0       4.312  -2.331  -4.007  0.00  0.00     0.031 C 
ATOM     26  H   UNK d   0       5.037  -2.625  -6.551  0.00  0.00     0.047 H 
ATOM     27  H   UNK d   0       6.701  -3.207  -6.327  0.00  0.00     0.047 H 
ATOM     28  H   UNK d   0       6.468  -2.972  -2.540  0.00  0.00     0.028 H 
ATOM     29  H   UNK d   0       7.635  -3.209  -3.866  0.00  0.00     0.028 H 
ATOM     30  H   UNK d   0       8.398  -1.341  -5.245  0.00  0.00     0.047 H 
ATOM     31  H   UNK d   0       7.675   0.281  -5.063  0.00  0.00     0.047 H 
ATOM     32  H   UNK d   0       6.795   1.223  -2.519  0.00  0.00     0.064 H 
ATOM     33  H   UNK d   0       4.774   2.642  -2.253  0.00  0.00     0.062 H 
ATOM     34  H   UNK d   0       2.592   1.764  -2.977  0.00  0.00     0.067 H 
ATOM     35  H   UNK d   0       3.560  -2.379  -4.793  0.00  0.00     0.050 H 
ATOM     36  H   UNK d   0       3.952  -2.885  -3.140  0.00  0.00     0.050 H 
ENDROOT
BRANCH   1  37
ATOM     37  CB  MET d   1       3.534  -0.256  -9.605  0.00  0.00    -0.020 C 
ATOM     38  HB1 MET d   1       4.267  -0.851 -10.152  0.00  0.00     0.029 H 
ATOM     39  HB2 MET d   1       3.116   0.503 -10.268  0.00  0.00     0.029 H 
BRANCH  37  40
ATOM     40  CG  MET d   1       2.412  -1.165  -9.102  0.00  0.00    -0.005 C 
ATOM     41  HG1 MET d   1       2.505  -1.293  -8.023  0.00  0.00     0.038 H 
ATOM     42  HG2 MET d   1       1.447  -0.713  -9.332  0.00  0.00     0.038 H 
BRANCH  40  43
ATOM     43  SD  MET d   1       2.531  -2.782  -9.915  0.00  0.00    -0.164 SA
BRANCH  43  44
ATOM     44  CE  MET d   1       3.542  -3.771  -8.779  0.00  0.00    -0.018 C 
ATOM     45  HE1 MET d   1       4.226  -4.397  -9.352  0.00  0.00     0.034 H 
ATOM     46  HE2 MET d   1       4.116  -3.107  -8.131  0.00  0.00     0.034 H 
ATOM     47  HE3 MET d   1       2.895  -4.401  -8.171  0.00  0.00     0.034 H 
ENDBRANCH  43  44
ENDBRANCH  40  43
ENDBRANCH  37  40
ENDBRANCH   1  37
TORSDOF 6
ENDMDL
MODEL 5
REMARK VINA RESULT:      -6.1      2.988      5.097
REMARK  4 active torsions:
REMARK  status: ('A' for Active; 'I' for Inactive)
REMARK    1  A    between atoms: CE_1  and  SD_2 
REMARK    2  A    between atoms: SD_2  and  CG_3 
REMARK    3  A    between atoms: CG_3  and  CB_4 
REMARK    4  A    between atoms: CB_4  and  CA_5 
REMARK       I    between atoms: CA_5  and  C_7 
REMARK       I    between atoms: CA_5  and  N_9 
REMARK       I    between atoms: N_9  and  C_10 
REMARK       I    between atoms: C_10  and  N_12 
ROOT
ATOM      1  CA  MET d   1       8.649   0.863  -5.129  0.00  0.00     0.065 C 
ATOM      2  HA  MET d   1       9.467   0.338  -4.635  0.00  0.00     0.056 H 
ATOM      3  C   MET d   1       7.824   1.589  -4.099  0.00  0.00     0.062 C 
ATOM      4  O   MET d   1       6.651   1.328  -3.969  0.00  0.00    -0.548 OA
ATOM      5  N   MET d   1       7.806  -0.103  -5.838  0.00  0.00    -0.291 N 
ATOM      6  H   MET d   1       7.391   0.141  -6.679  0.00  0.00     0.151 HD
ATOM      7  OXT MET d   1       8.391   2.528  -3.324  0.00  0.00    -0.548 OA
ATOM      8  C   UNK d   0       7.606  -1.331  -5.320  0.00  0.00     0.303 C 
ATOM      9  O   UNK d   0       8.195  -1.669  -4.311  0.00  0.00    -0.253 OA
ATOM     10  N   UNK d   0       6.754  -2.185  -5.920  0.00  0.00    -0.285 N 
ATOM     11  C   UNK d   0       6.116  -1.835  -7.194  0.00  0.00     0.021 C 
ATOM     12  C   UNK d   0       4.612  -2.057  -7.109  0.00  0.00    -0.006 C 
ATOM     13  H   UNK d   0       4.204  -2.000  -8.118  0.00  0.00     0.033 H 
ATOM     14  C   UNK d   0       4.291  -3.447  -6.561  0.00  0.00    -0.037 C 
ATOM     15  C   UNK d   0       4.913  -3.573  -5.168  0.00  0.00     0.016 C 
ATOM     16  H   UNK d   0       4.619  -4.518  -4.709  0.00  0.00     0.038 H 
ATOM     17  C   UNK d   0       6.447  -3.490  -5.314  0.00  0.00     0.024 C 
ATOM     18  C   UNK d   0       4.467  -2.416  -4.304  0.00  0.00     0.027 A 
ATOM     19  C   UNK d   0       4.473  -2.603  -2.957  0.00  0.00    -0.042 A 
ATOM     20  C   UNK d   0       4.202  -1.539  -2.091  0.00  0.00    -0.055 A 
ATOM     21  C   UNK d   0       3.946  -0.307  -2.620  0.00  0.00     0.003 A 
ATOM     22  C   UNK d   0       3.935  -0.152  -4.012  0.00  0.00     0.252 A 
ATOM     23  O   UNK d   0       3.751   0.954  -4.494  0.00  0.00    -0.268 OA
ATOM     24  N   UNK d   0       4.125  -1.217  -4.830  0.00  0.00    -0.312 N 
ATOM     25  C   UNK d   0       3.929  -0.998  -6.263  0.00  0.00     0.031 C 
ATOM     26  H   UNK d   0       6.315  -0.789  -7.423  0.00  0.00     0.047 H 
ATOM     27  H   UNK d   0       6.526  -2.462  -7.987  0.00  0.00     0.047 H 
ATOM     28  H   UNK d   0       3.211  -3.575  -6.494  0.00  0.00     0.028 H 
ATOM     29  H   UNK d   0       4.711  -4.208  -7.220  0.00  0.00     0.028 H 
ATOM     30  H   UNK d   0       6.804  -4.292  -5.961  0.00  0.00     0.047 H 
ATOM     31  H   UNK d   0       6.918  -3.565  -4.334  0.00  0.00     0.047 H 
ATOM     32  H   UNK d   0       4.689  -3.582  -2.554  0.00  0.00     0.064 H 
ATOM     33  H   UNK d   0       4.197  -1.690  -1.022  0.00  0.00     0.062 H 
ATOM     34  H   UNK d   0       3.756   0.536  -1.973  0.00  0.00     0.067 H 
ATOM     35  H   UNK d   0       4.330  -0.020  -6.529  0.00  0.00     0.050 H 
ATOM     36  H   UNK d   0       2.860  -1.011  -6.477  0.00  0.00     0.050 H 
ENDROOT
BRANCH   1  37
ATOM     37  CB  MET d   1       9.221   1.871  -6.128  0.00  0.00    -0.020 C 
ATOM     38  HB1 MET d   1      10.205   1.537  -6.458  0.00  0.00     0.029 H 
ATOM     39  HB2 MET d   1       9.311   2.846  -5.649  0.00  0.00     0.029 H 
BRANCH  37  40
ATOM     40  CG  MET d   1       8.288   1.980  -7.335  0.00  0.00    -0.005 C 
ATOM     41  HG1 MET d   1       7.891   0.993  -7.576  0.00  0.00     0.038 H 
ATOM     42  HG2 MET d   1       7.465   2.653  -7.098  0.00  0.00     0.038 H 
BRANCH  40  43
ATOM     43  SD  MET d   1       9.210   2.626  -8.757  0.00  0.00    -0.164 SA
BRANCH  43  44
ATOM     44  CE  MET d   1       9.410   4.390  -8.387  0.00  0.00    -0.018 C 
ATOM     45  HE1 MET d   1      10.412   4.568  -7.998  0.00  0.00     0.034 H 
ATOM     46  HE2 MET d   1       9.264   4.971  -9.298  0.00  0.00     0.034 H 
ATOM     47  HE3 MET d   1       8.672   4.691  -7.643  0.00  0.00     0.034 H 
ENDBRANCH  43  44
ENDBRANCH  40  43
ENDBRANCH  37  40
ENDBRANCH   1  37
TORSDOF 6
ENDMDL
MODEL 6
REMARK VINA RESULT:      -5.5      3.124      6.675
REMARK  4 active torsions:
REMARK  status: ('A' for Active; 'I' for Inactive)
REMARK    1  A    between atoms: CE_1  and  SD_2 
REMARK    2  A    between atoms: SD_2  and  CG_3 
REMARK    3  A    between atoms: CG_3  and  CB_4 
REMARK    4  A    between atoms: CB_4  and  CA_5 
REMARK       I    between atoms: CA_5  and  C_7 
REMARK       I    between atoms: CA_5  and  N_9 
REMARK       I    between atoms: N_9  and  C_10 
REMARK       I    between atoms: C_10  and  N_12 
ROOT
ATOM      1  CA  MET d   1       4.426  -2.068  -6.122  0.00  0.00     0.065 C 
ATOM      2  HA  MET d   1       3.443  -2.533  -6.201  0.00  0.00     0.056 H 
ATOM      3  C   MET d   1       4.264  -0.607  -5.789  0.00  0.00     0.062 C 
ATOM      4  O   MET d   1       4.696   0.236  -6.539  0.00  0.00    -0.548 OA
ATOM      5  N   MET d   1       5.133  -2.202  -7.398  0.00  0.00    -0.291 N 
ATOM      6  H   MET d   1       6.094  -2.331  -7.408  0.00  0.00     0.151 HD
ATOM      7  OXT MET d   1       3.641  -0.242  -4.657  0.00  0.00    -0.548 OA
ATOM      8  C   UNK d   0       4.449  -2.145  -8.557  0.00  0.00     0.303 C 
ATOM      9  O   UNK d   0       3.235  -2.072  -8.544  0.00  0.00    -0.253 OA
ATOM     10  N   UNK d   0       5.108  -2.170  -9.732  0.00  0.00    -0.285 N 
ATOM     11  C   UNK d   0       6.563  -2.365  -9.770  0.00  0.00     0.021 C 
ATOM     12  C   UNK d   0       7.215  -1.296 -10.634  0.00  0.00    -0.006 C 
ATOM     13  H   UNK d   0       8.248  -1.593 -10.819  0.00  0.00     0.033 H 
ATOM     14  C   UNK d   0       6.521  -1.186 -11.992  0.00  0.00    -0.037 C 
ATOM     15  C   UNK d   0       5.050  -0.835 -11.755  0.00  0.00     0.016 C 
ATOM     16  H   UNK d   0       4.549  -0.653 -12.707  0.00  0.00     0.038 H 
ATOM     17  C   UNK d   0       4.387  -2.008 -11.004  0.00  0.00     0.024 C 
ATOM     18  C   UNK d   0       4.954   0.391 -10.876  0.00  0.00     0.027 A 
ATOM     19  C   UNK d   0       3.824   1.142 -10.971  0.00  0.00    -0.042 A 
ATOM     20  C   UNK d   0       3.606   2.211 -10.097  0.00  0.00    -0.055 A 
ATOM     21  C   UNK d   0       4.539   2.479  -9.138  0.00  0.00     0.003 A 
ATOM     22  C   UNK d   0       5.699   1.695  -9.076  0.00  0.00     0.252 A 
ATOM     23  O   UNK d   0       6.518   1.898  -8.195  0.00  0.00    -0.268 OA
ATOM     24  N   UNK d   0       5.920   0.713  -9.984  0.00  0.00    -0.312 N 
ATOM     25  C   UNK d   0       7.228   0.059  -9.950  0.00  0.00     0.031 C 
ATOM     26  H   UNK d   0       6.963  -2.306  -8.758  0.00  0.00     0.047 H 
ATOM     27  H   UNK d   0       6.784  -3.348 -10.188  0.00  0.00     0.047 H 
ATOM     28  H   UNK d   0       6.995  -0.404 -12.585  0.00  0.00     0.028 H 
ATOM     29  H   UNK d   0       6.590  -2.139 -12.518  0.00  0.00     0.028 H 
ATOM     30  H   UNK d   0       4.467  -2.921 -11.594  0.00  0.00     0.047 H 
ATOM     31  H   UNK d   0       3.339  -1.780 -10.810  0.00  0.00     0.047 H 
ATOM     32  H   UNK d   0       3.090   0.909 -11.728  0.00  0.00     0.064 H 
ATOM     33  H   UNK d   0       2.714   2.814 -10.179  0.00  0.00     0.062 H 
ATOM     34  H   UNK d   0       4.385   3.286  -8.436  0.00  0.00     0.067 H 
ATOM     35  H   UNK d   0       7.530  -0.073  -8.912  0.00  0.00     0.050 H 
ATOM     36  H   UNK d   0       7.955   0.700 -10.450  0.00  0.00     0.050 H 
ENDROOT
BRANCH   1  37
ATOM     37  CB  MET d   1       5.229  -2.758  -5.018  0.00  0.00    -0.020 C 
ATOM     38  HB1 MET d   1       4.732  -3.686  -4.733  0.00  0.00     0.029 H 
ATOM     39  HB2 MET d   1       5.294  -2.100  -4.151  0.00  0.00     0.029 H 
BRANCH  37  40
ATOM     40  CG  MET d   1       6.637  -3.068  -5.528  0.00  0.00    -0.005 C 
ATOM     41  HG1 MET d   1       6.773  -4.148  -5.581  0.00  0.00     0.038 H 
ATOM     42  HG2 MET d   1       6.767  -2.637  -6.521  0.00  0.00     0.038 H 
BRANCH  40  43
ATOM     43  SD  MET d   1       7.862  -2.358  -4.395  0.00  0.00    -0.164 SA
BRANCH  43  44
ATOM     44  CE  MET d   1       6.887  -1.278  -3.313  0.00  0.00    -0.018 C 
ATOM     45  HE1 MET d   1       7.166  -1.456  -2.275  0.00  0.00     0.034 H 
ATOM     46  HE2 MET d   1       7.082  -0.235  -3.569  0.00  0.00     0.034 H 
ATOM     47  HE3 MET d   1       5.827  -1.492  -3.447  0.00  0.00     0.034 H 
ENDBRANCH  43  44
ENDBRANCH  40  43
ENDBRANCH  37  40
ENDBRANCH   1  37
TORSDOF 6
ENDMDL
MODEL 7
REMARK VINA RESULT:      -5.5      2.725      6.404
REMARK  4 active torsions:
REMARK  status: ('A' for Active; 'I' for Inactive)
REMARK    1  A    between atoms: CE_1  and  SD_2 
REMARK    2  A    between atoms: SD_2  and  CG_3 
REMARK    3  A    between atoms: CG_3  and  CB_4 
REMARK    4  A    between atoms: CB_4  and  CA_5 
REMARK       I    between atoms: CA_5  and  C_7 
REMARK       I    between atoms: CA_5  and  N_9 
REMARK       I    between atoms: N_9  and  C_10 
REMARK       I    between atoms: C_10  and  N_12 
ROOT
ATOM      1  CA  MET d   1       4.771  -0.478  -4.599  0.00  0.00     0.065 C 
ATOM      2  HA  MET d   1       4.709  -1.545  -4.389  0.00  0.00     0.056 H 
ATOM      3  C   MET d   1       3.393   0.057  -4.894  0.00  0.00     0.062 C 
ATOM      4  O   MET d   1       3.159   0.569  -5.963  0.00  0.00    -0.548 OA
ATOM      5  N   MET d   1       5.638  -0.258  -5.759  0.00  0.00    -0.291 N 
ATOM      6  H   MET d   1       6.204   0.528  -5.799  0.00  0.00     0.151 HD
ATOM      7  OXT MET d   1       2.425  -0.035  -3.968  0.00  0.00    -0.548 OA
ATOM      8  C   UNK d   0       5.649  -1.148  -6.771  0.00  0.00     0.303 C 
ATOM      9  O   UNK d   0       5.007  -2.178  -6.682  0.00  0.00    -0.253 OA
ATOM     10  N   UNK d   0       6.372  -0.899  -7.881  0.00  0.00    -0.285 N 
ATOM     11  C   UNK d   0       7.236   0.285  -7.962  0.00  0.00     0.021 C 
ATOM     12  C   UNK d   0       6.960   1.051  -9.248  0.00  0.00    -0.006 C 
ATOM     13  H   UNK d   0       7.754   1.785  -9.382  0.00  0.00     0.033 H 
ATOM     14  C   UNK d   0       6.988   0.119 -10.460  0.00  0.00    -0.037 C 
ATOM     15  C   UNK d   0       5.923  -0.963 -10.263  0.00  0.00     0.016 C 
ATOM     16  H   UNK d   0       5.851  -1.586 -11.155  0.00  0.00     0.038 H 
ATOM     17  C   UNK d   0       6.316  -1.810  -9.035  0.00  0.00     0.024 C 
ATOM     18  C   UNK d   0       4.588  -0.317  -9.972  0.00  0.00     0.027 A 
ATOM     19  C   UNK d   0       3.470  -1.030 -10.272  0.00  0.00    -0.042 A 
ATOM     20  C   UNK d   0       2.206  -0.555  -9.909  0.00  0.00    -0.055 A 
ATOM     21  C   UNK d   0       2.114   0.629  -9.236  0.00  0.00     0.003 A 
ATOM     22  C   UNK d   0       3.285   1.345  -8.955  0.00  0.00     0.252 A 
ATOM     23  O   UNK d   0       3.218   2.382  -8.316  0.00  0.00    -0.268 OA
ATOM     24  N   UNK d   0       4.491   0.899  -9.385  0.00  0.00    -0.312 N 
ATOM     25  C   UNK d   0       5.635   1.790  -9.197  0.00  0.00     0.031 C 
ATOM     26  H   UNK d   0       7.043   0.933  -7.107  0.00  0.00     0.047 H 
ATOM     27  H   UNK d   0       8.280  -0.029  -7.948  0.00  0.00     0.047 H 
ATOM     28  H   UNK d   0       6.772   0.687 -11.365  0.00  0.00     0.028 H 
ATOM     29  H   UNK d   0       7.971  -0.345 -10.543  0.00  0.00     0.028 H 
ATOM     30  H   UNK d   0       7.293  -2.266  -9.193  0.00  0.00     0.047 H 
ATOM     31  H   UNK d   0       5.568  -2.583  -8.861  0.00  0.00     0.047 H 
ATOM     32  H   UNK d   0       3.561  -1.971 -10.794  0.00  0.00     0.064 H 
ATOM     33  H   UNK d   0       1.317  -1.117 -10.156  0.00  0.00     0.062 H 
ATOM     34  H   UNK d   0       1.152   1.007  -8.925  0.00  0.00     0.067 H 
ATOM     35  H   UNK d   0       5.544   2.283  -8.229  0.00  0.00     0.050 H 
ATOM     36  H   UNK d   0       5.624   2.548  -9.981  0.00  0.00     0.050 H 
ENDROOT
BRANCH   1  37
ATOM     37  CB  MET d   1       5.351   0.248  -3.384  0.00  0.00    -0.020 C 
ATOM     38  HB1 MET d   1       4.909  -0.159  -2.473  0.00  0.00     0.029 H 
ATOM     39  HB2 MET d   1       5.124   1.312  -3.453  0.00  0.00     0.029 H 
BRANCH  37  40
ATOM     40  CG  MET d   1       6.867   0.051  -3.347  0.00  0.00    -0.005 C 
ATOM     41  HG1 MET d   1       7.173  -0.219  -2.336  0.00  0.00     0.038 H 
ATOM     42  HG2 MET d   1       7.147  -0.745  -4.036  0.00  0.00     0.038 H 
BRANCH  40  43
ATOM     43  SD  MET d   1       7.689   1.592  -3.836  0.00  0.00    -0.164 SA
BRANCH  43  44
ATOM     44  CE  MET d   1       9.140   1.038  -4.773  0.00  0.00    -0.018 C 
ATOM     45  HE1 MET d   1       8.815   0.527  -5.678  0.00  0.00     0.034 H 
ATOM     46  HE2 MET d   1       9.751   1.901  -5.042  0.00  0.00     0.034 H 
ATOM     47  HE3 MET d   1       9.728   0.355  -4.161  0.00  0.00     0.034 H 
ENDBRANCH  43  44
ENDBRANCH  40  43
ENDBRANCH  37  40
ENDBRANCH   1  37
TORSDOF 6
ENDMDL
MODEL 8
REMARK VINA RESULT:      -5.3      2.760      3.856
REMARK  4 active torsions:
REMARK  status: ('A' for Active; 'I' for Inactive)
REMARK    1  A    between atoms: CE_1  and  SD_2 
REMARK    2  A    between atoms: SD_2  and  CG_3 
REMARK    3  A    between atoms: CG_3  and  CB_4 
REMARK    4  A    between atoms: CB_4  and  CA_5 
REMARK       I    between atoms: CA_5  and  C_7 
REMARK       I    between atoms: CA_5  and  N_9 
REMARK       I    between atoms: N_9  and  C_10 
REMARK       I    between atoms: C_10  and  N_12 
ROOT
ATOM      1  CA  MET d   1       5.823   0.365  -8.175  0.00  0.00     0.065 C 
ATOM      2  HA  MET d   1       4.861   0.329  -8.685  0.00  0.00     0.056 H 
ATOM      3  C   MET d   1       6.645  -0.834  -8.570  0.00  0.00     0.062 C 
ATOM      4  O   MET d   1       7.014  -1.619  -7.727  0.00  0.00    -0.548 OA
ATOM      5  N   MET d   1       5.606   0.352  -6.725  0.00  0.00    -0.291 N 
ATOM      6  H   MET d   1       6.196   0.854  -6.143  0.00  0.00     0.151 HD
ATOM      7  OXT MET d   1       6.970  -1.031  -9.857  0.00  0.00    -0.548 OA
ATOM      8  C   UNK d   0       4.588  -0.358  -6.202  0.00  0.00     0.303 C 
ATOM      9  O   UNK d   0       3.795  -0.917  -6.937  0.00  0.00    -0.253 OA
ATOM     10  N   UNK d   0       4.446  -0.450  -4.865  0.00  0.00    -0.285 N 
ATOM     11  C   UNK d   0       5.328   0.303  -3.965  0.00  0.00     0.021 C 
ATOM     12  C   UNK d   0       5.911  -0.620  -2.905  0.00  0.00    -0.006 C 
ATOM     13  H   UNK d   0       6.376  -0.003  -2.137  0.00  0.00     0.033 H 
ATOM     14  C   UNK d   0       4.815  -1.445  -2.230  0.00  0.00    -0.037 C 
ATOM     15  C   UNK d   0       4.103  -2.273  -3.303  0.00  0.00     0.016 C 
ATOM     16  H   UNK d   0       3.380  -2.945  -2.840  0.00  0.00     0.038 H 
ATOM     17  C   UNK d   0       3.402  -1.302  -4.276  0.00  0.00     0.024 C 
ATOM     18  C   UNK d   0       5.119  -3.066  -4.093  0.00  0.00     0.027 A 
ATOM     19  C   UNK d   0       4.687  -4.201  -4.704  0.00  0.00    -0.042 A 
ATOM     20  C   UNK d   0       5.534  -4.913  -5.559  0.00  0.00    -0.055 A 
ATOM     21  C   UNK d   0       6.796  -4.442  -5.780  0.00  0.00     0.003 A 
ATOM     22  C   UNK d   0       7.213  -3.277  -5.123  0.00  0.00     0.252 A 
ATOM     23  O   UNK d   0       8.324  -2.823  -5.348  0.00  0.00    -0.268 OA
ATOM     24  N   UNK d   0       6.398  -2.649  -4.241  0.00  0.00    -0.312 N 
ATOM     25  C   UNK d   0       6.973  -1.542  -3.476  0.00  0.00     0.031 C 
ATOM     26  H   UNK d   0       6.138   0.749  -4.542  0.00  0.00     0.047 H 
ATOM     27  H   UNK d   0       4.756   1.093  -3.477  0.00  0.00     0.047 H 
ATOM     28  H   UNK d   0       5.259  -2.108  -1.489  0.00  0.00     0.028 H 
ATOM     29  H   UNK d   0       4.100  -0.779  -1.746  0.00  0.00     0.028 H 
ATOM     30  H   UNK d   0       2.683  -0.687  -3.735  0.00  0.00     0.047 H 
ATOM     31  H   UNK d   0       2.895  -1.864  -5.060  0.00  0.00     0.047 H 
ATOM     32  H   UNK d   0       3.682  -4.554  -4.528  0.00  0.00     0.064 H 
ATOM     33  H   UNK d   0       5.195  -5.820  -6.037  0.00  0.00     0.062 H 
ATOM     34  H   UNK d   0       7.463  -4.961  -6.453  0.00  0.00     0.067 H 
ATOM     35  H   UNK d   0       7.628  -0.965  -4.128  0.00  0.00     0.050 H 
ATOM     36  H   UNK d   0       7.563  -1.951  -2.656  0.00  0.00     0.050 H 
ENDROOT
BRANCH   1  37
ATOM     37  CB  MET d   1       6.562   1.644  -8.569  0.00  0.00    -0.020 C 
ATOM     38  HB1 MET d   1       5.922   2.506  -8.382  0.00  0.00     0.029 H 
ATOM     39  HB2 MET d   1       6.818   1.604  -9.628  0.00  0.00     0.029 H 
BRANCH  37  40
ATOM     40  CG  MET d   1       7.842   1.770  -7.741  0.00  0.00    -0.005 C 
ATOM     41  HG1 MET d   1       7.655   2.413  -6.880  0.00  0.00     0.038 H 
ATOM     42  HG2 MET d   1       8.151   0.783  -7.396  0.00  0.00     0.038 H 
BRANCH  40  43
ATOM     43  SD  MET d   1       9.155   2.494  -8.762  0.00  0.00    -0.164 SA
BRANCH  43  44
ATOM     44  CE  MET d   1       9.894   3.761  -7.695  0.00  0.00    -0.018 C 
ATOM     45  HE1 MET d   1       9.163   4.547  -7.505  0.00  0.00     0.034 H 
ATOM     46  HE2 MET d   1      10.195   3.309  -6.749  0.00  0.00     0.034 H 
ATOM     47  HE3 MET d   1      10.767   4.187  -8.188  0.00  0.00     0.034 H 
ENDBRANCH  43  44
ENDBRANCH  40  43
ENDBRANCH  37  40
ENDBRANCH   1  37
TORSDOF 6
ENDMDL
MODEL 9
REMARK VINA RESULT:      -5.3      2.964      6.917
REMARK  4 active torsions:
REMARK  status: ('A' for Active; 'I' for Inactive)
REMARK    1  A    between atoms: CE_1  and  SD_2 
REMARK    2  A    between atoms: SD_2  and  CG_3 
REMARK    3  A    between atoms: CG_3  and  CB_4 
REMARK    4  A    between atoms: CB_4  and  CA_5 
REMARK       I    between atoms: CA_5  and  C_7 
REMARK       I    between atoms: CA_5  and  N_9 
REMARK       I    between atoms: N_9  and  C_10 
REMARK       I    between atoms: C_10  and  N_12 
ROOT
ATOM      1  CA  MET d   1       5.087  -2.980  -6.709  0.00  0.00     0.065 C 
ATOM      2  HA  MET d   1       6.169  -3.066  -6.809  0.00  0.00     0.056 H 
ATOM      3  C   MET d   1       4.418  -3.994  -7.600  0.00  0.00     0.062 C 
ATOM      4  O   MET d   1       3.667  -3.629  -8.474  0.00  0.00    -0.548 OA
ATOM      5  N   MET d   1       4.668  -1.632  -7.103  0.00  0.00    -0.291 N 
ATOM      6  H   MET d   1       3.929  -1.201  -6.647  0.00  0.00     0.151 HD
ATOM      7  OXT MET d   1       4.655  -5.303  -7.422  0.00  0.00    -0.548 OA
ATOM      8  C   UNK d   0       5.310  -0.991  -8.100  0.00  0.00     0.303 C 
ATOM      9  O   UNK d   0       6.292  -1.492  -8.613  0.00  0.00    -0.253 OA
ATOM     10  N   UNK d   0       4.864   0.207  -8.528  0.00  0.00    -0.285 N 
ATOM     11  C   UNK d   0       3.746   0.876  -7.851  0.00  0.00     0.021 C 
ATOM     12  C   UNK d   0       2.698   1.308  -8.867  0.00  0.00    -0.006 C 
ATOM     13  H   UNK d   0       2.002   1.982  -8.369  0.00  0.00     0.033 H 
ATOM     14  C   UNK d   0       3.336   2.078 -10.023  0.00  0.00    -0.037 C 
ATOM     15  C   UNK d   0       4.368   1.171 -10.697  0.00  0.00     0.016 C 
ATOM     16  H   UNK d   0       4.771   1.656 -11.587  0.00  0.00     0.038 H 
ATOM     17  C   UNK d   0       5.490   0.874  -9.680  0.00  0.00     0.024 C 
ATOM     18  C   UNK d   0       3.724  -0.144 -11.071  0.00  0.00     0.027 A 
ATOM     19  C   UNK d   0       4.283  -0.846 -12.093  0.00  0.00    -0.042 A 
ATOM     20  C   UNK d   0       3.824  -2.130 -12.407  0.00  0.00    -0.055 A 
ATOM     21  C   UNK d   0       2.816  -2.671 -11.662  0.00  0.00     0.003 A 
ATOM     22  C   UNK d   0       2.253  -1.914 -10.626  0.00  0.00     0.252 A 
ATOM     23  O   UNK d   0       1.382  -2.406  -9.926  0.00  0.00    -0.268 OA
ATOM     24  N   UNK d   0       2.665  -0.644 -10.392  0.00  0.00    -0.312 N 
ATOM     25  C   UNK d   0       1.909   0.128  -9.406  0.00  0.00     0.031 C 
ATOM     26  H   UNK d   0       3.295   0.191  -7.135  0.00  0.00     0.047 H 
ATOM     27  H   UNK d   0       4.118   1.755  -7.324  0.00  0.00     0.047 H 
ATOM     28  H   UNK d   0       2.569   2.361 -10.743  0.00  0.00     0.028 H 
ATOM     29  H   UNK d   0       3.829   2.972  -9.640  0.00  0.00     0.028 H 
ATOM     30  H   UNK d   0       5.958   1.805  -9.360  0.00  0.00     0.047 H 
ATOM     31  H   UNK d   0       6.235   0.218 -10.129  0.00  0.00     0.047 H 
ATOM     32  H   UNK d   0       5.087  -0.408 -12.665  0.00  0.00     0.064 H 
ATOM     33  H   UNK d   0       4.262  -2.683 -13.224  0.00  0.00     0.062 H 
ATOM     34  H   UNK d   0       2.459  -3.669 -11.870  0.00  0.00     0.067 H 
ATOM     35  H   UNK d   0       1.639  -0.525  -8.577  0.00  0.00     0.050 H 
ATOM     36  H   UNK d   0       0.996   0.499  -9.874  0.00  0.00     0.050 H 
ENDROOT
BRANCH   1  37
ATOM     37  CB  MET d   1       4.688  -3.233  -5.255  0.00  0.00    -0.020 C 
ATOM     38  HB1 MET d   1       5.286  -4.051  -4.851  0.00  0.00     0.029 H 
ATOM     39  HB2 MET d   1       3.631  -3.500  -5.210  0.00  0.00     0.029 H 
BRANCH  37  40
ATOM     40  CG  MET d   1       4.929  -1.968  -4.430  0.00  0.00    -0.005 C 
ATOM     41  HG1 MET d   1       5.991  -1.886  -4.195  0.00  0.00     0.038 H 
ATOM     42  HG2 MET d   1       4.617  -1.095  -5.003  0.00  0.00     0.038 H 
BRANCH  40  43
ATOM     43  SD  MET d   1       3.973  -2.057  -2.891  0.00  0.00    -0.164 SA
BRANCH  43  44
ATOM     44  CE  MET d   1       2.801  -0.679  -3.022  0.00  0.00    -0.018 C 
ATOM     45  HE1 MET d   1       2.479  -0.380  -2.026  0.00  0.00     0.034 H 
ATOM     46  HE2 MET d   1       3.286   0.165  -3.516  0.00  0.00     0.034 H 
ATOM     47  HE3 MET d   1       1.936  -0.992  -3.606  0.00  0.00     0.034 H 
ENDBRANCH  43  44
ENDBRANCH  40  43
ENDBRANCH  37  40
ENDBRANCH   1  37
TORSDOF 6
ENDMDL
MODEL 10
REMARK VINA RESULT:      -5.3      1.898      2.268
REMARK  4 active torsions:
REMARK  status: ('A' for Active; 'I' for Inactive)
REMARK    1  A    between atoms: CE_1  and  SD_2 
REMARK    2  A    between atoms: SD_2  and  CG_3 
REMARK    3  A    between atoms: CG_3  and  CB_4 
REMARK    4  A    between atoms: CB_4  and  CA_5 
REMARK       I    between atoms: CA_5  and  C_7 
REMARK       I    between atoms: CA_5  and  N_9 
REMARK       I    between atoms: N_9  and  C_10 
REMARK       I    between atoms: C_10  and  N_12 
ROOT
ATOM      1  CA  MET d   1       4.216  -2.604  -7.970  0.00  0.00     0.065 C 
ATOM      2  HA  MET d   1       3.819  -3.610  -7.833  0.00  0.00     0.056 H 
ATOM      3  C   MET d   1       5.683  -2.684  -8.303  0.00  0.00     0.062 C 
ATOM      4  O   MET d   1       6.497  -2.154  -7.584  0.00  0.00    -0.548 OA
ATOM      5  N   MET d   1       4.037  -1.836  -6.735  0.00  0.00    -0.291 N 
ATOM      6  H   MET d   1       3.842  -0.888  -6.778  0.00  0.00     0.151 HD
ATOM      7  OXT MET d   1       6.088  -3.344  -9.400  0.00  0.00    -0.548 OA
ATOM      8  C   UNK d   0       4.144  -2.449  -5.539  0.00  0.00     0.303 C 
ATOM      9  O   UNK d   0       4.300  -3.654  -5.485  0.00  0.00    -0.253 OA
ATOM     10  N   UNK d   0       4.076  -1.727  -4.403  0.00  0.00    -0.285 N 
ATOM     11  C   UNK d   0       3.782  -0.290  -4.446  0.00  0.00     0.021 C 
ATOM     12  C   UNK d   0       4.807   0.482  -3.626  0.00  0.00    -0.006 C 
ATOM     13  H   UNK d   0       4.440   1.501  -3.498  0.00  0.00     0.033 H 
ATOM     14  C   UNK d   0       4.968  -0.126  -2.233  0.00  0.00    -0.037 C 
ATOM     15  C   UNK d   0       5.419  -1.580  -2.389  0.00  0.00     0.016 C 
ATOM     16  H   UNK d   0       5.637  -2.013  -1.412  0.00  0.00     0.038 H 
ATOM     17  C   UNK d   0       4.292  -2.363  -3.094  0.00  0.00     0.024 C 
ATOM     18  C   UNK d   0       6.645  -1.642  -3.269  0.00  0.00     0.027 A 
ATOM     19  C   UNK d   0       7.472  -2.710  -3.116  0.00  0.00    -0.042 A 
ATOM     20  C   UNK d   0       8.552  -2.904  -3.984  0.00  0.00    -0.055 A 
ATOM     21  C   UNK d   0       8.753  -2.010  -4.995  0.00  0.00     0.003 A 
ATOM     22  C   UNK d   0       7.891  -0.912  -5.116  0.00  0.00     0.252 A 
ATOM     23  O   UNK d   0       8.035  -0.132  -6.044  0.00  0.00    -0.268 OA
ATOM     24  N   UNK d   0       6.898  -0.707  -4.216  0.00  0.00    -0.312 N 
ATOM     25  C   UNK d   0       6.155   0.548  -4.319  0.00  0.00     0.031 C 
ATOM     26  H   UNK d   0       3.811   0.056  -5.478  0.00  0.00     0.047 H 
ATOM     27  H   UNK d   0       2.788  -0.113  -4.035  0.00  0.00     0.047 H 
ATOM     28  H   UNK d   0       5.717   0.433  -1.672  0.00  0.00     0.028 H 
ATOM     29  H   UNK d   0       4.014  -0.093  -1.705  0.00  0.00     0.028 H 
ATOM     30  H   UNK d   0       3.377  -2.313  -2.503  0.00  0.00     0.047 H 
ATOM     31  H   UNK d   0       4.590  -3.402  -3.231  0.00  0.00     0.047 H 
ATOM     32  H   UNK d   0       7.292  -3.415  -2.317  0.00  0.00     0.064 H 
ATOM     33  H   UNK d   0       9.214  -3.747  -3.856  0.00  0.00     0.062 H 
ATOM     34  H   UNK d   0       9.566  -2.148  -5.693  0.00  0.00     0.067 H 
ATOM     35  H   UNK d   0       6.000   0.782  -5.372  0.00  0.00     0.050 H 
ATOM     36  H   UNK d   0       6.747   1.345  -3.865  0.00  0.00     0.050 H 
ENDROOT
BRANCH   1  37
ATOM     37  CB  MET d   1       3.470  -1.913  -9.113  0.00  0.00    -0.020 C 
ATOM     38  HB1 MET d   1       2.750  -2.607  -9.548  0.00  0.00     0.029 H 
ATOM     39  HB2 MET d   1       4.182  -1.602  -9.877  0.00  0.00     0.029 H 
BRANCH  37  40
ATOM     40  CG  MET d   1       2.734  -0.686  -8.574  0.00  0.00    -0.005 C 
ATOM     41  HG1 MET d   1       1.662  -0.803  -8.741  0.00  0.00     0.038 H 
ATOM     42  HG2 MET d   1       2.925  -0.587  -7.505  0.00  0.00     0.038 H 
BRANCH  40  43
ATOM     43  SD  MET d   1       3.321   0.799  -9.434  0.00  0.00    -0.164 SA
BRANCH  43  44
ATOM     44  CE  MET d   1       2.793   2.165  -8.364  0.00  0.00    -0.018 C 
ATOM     45  HE1 MET d   1       1.793   1.962  -7.982  0.00  0.00     0.034 H 
ATOM     46  HE2 MET d   1       3.488   2.261  -7.528  0.00  0.00     0.034 H 
ATOM     47  HE3 MET d   1       2.784   3.092  -8.935  0.00  0.00     0.034 H 
ENDBRANCH  43  44
ENDBRANCH  40  43
ENDBRANCH  37  40
ENDBRANCH   1  37
TORSDOF 6
ENDMDL
