MODEL 1
REMARK VINA RESULT:      -7.1      0.000      0.000
REMARK  4 active torsions:
REMARK  status: ('A' for Active; 'I' for Inactive)
REMARK    1  A    between atoms: C_1  and  O_2 
REMARK    2  A    between atoms: O_2  and  C_3 
REMARK    3  A    between atoms: C_3  and  C_5 
REMARK    4  A    between atoms: C_7  and  O_31 
ROOT
ATOM      1  C   LIG d   1       1.096  -1.399 -10.506  0.00  0.00     0.086 C 
ATOM      2  H   LIG d   1       0.198  -1.083  -9.975  0.00  0.00     0.044 H 
ATOM      3  C   LIG d   1       0.918  -1.143 -12.005  0.00  0.00     0.068 C 
ATOM      4  H   LIG d   1       0.746  -0.080 -12.174  0.00  0.00     0.060 H 
ATOM      5  C   LIG d   1       2.179  -1.579 -12.753  0.00  0.00    -0.026 C 
ATOM      6  C   LIG d   1       3.385  -0.792 -12.235  0.00  0.00    -0.043 C 
ATOM      7  C   LIG d   1       3.555  -1.059 -10.738  0.00  0.00     0.003 C 
ATOM      8  H   LIG d   1       3.701  -2.127 -10.577  0.00  0.00     0.035 H 
ATOM      9  C   LIG d   1       2.296  -0.600  -9.997  0.00  0.00    -0.013 C 
ATOM     10  H   LIG d   1       2.132   0.461 -10.185  0.00  0.00     0.032 H 
ATOM     11  C   LIG d   1       2.481  -0.829  -8.495  0.00  0.00     0.000 C 
ATOM     12  C   LIG d   1       3.721  -0.062  -8.030  0.00  0.00     0.021 C 
ATOM     13  H   LIG d   1       3.584   1.003  -8.220  0.00  0.00     0.092 H 
ATOM     14  C   LIG d   1       3.944  -0.287  -6.556  0.00  0.00     0.069 A 
ATOM     15  C   LIG d   1       5.167  -0.524  -6.026  0.00  0.00    -0.009 A 
ATOM     16  C   LIG d   1       4.991  -0.681  -4.600  0.00  0.00     0.004 A 
ATOM     17  C   LIG d   1       5.884  -0.934  -3.554  0.00  0.00    -0.052 A 
ATOM     18  C   LIG d   1       5.354  -1.021  -2.291  0.00  0.00    -0.061 A 
ATOM     19  C   LIG d   1       3.998  -0.867  -2.049  0.00  0.00    -0.060 A 
ATOM     20  C   LIG d   1       3.092  -0.616  -3.065  0.00  0.00    -0.038 A 
ATOM     21  C   LIG d   1       3.602  -0.521  -4.358  0.00  0.00     0.047 A 
ATOM     22  N   LIG d   1       3.002  -0.286  -5.563  0.00  0.00    -0.353 N 
ATOM     23  H   LIG d   1       2.053  -0.140  -5.695  0.00  0.00     0.166 HD
ATOM     24  C   LIG d   1       6.430  -0.594  -6.847  0.00  0.00     0.015 C 
ATOM     25  C   LIG d   1       6.143   0.022  -8.223  0.00  0.00    -0.027 C 
ATOM     26  C   LIG d   1       4.768  -0.294 -10.204  0.00  0.00    -0.028 C 
ATOM     27  H   LIG d   1       2.053  -1.389 -13.819  0.00  0.00     0.029 H 
ATOM     28  H   LIG d   1       2.344  -2.644 -12.593  0.00  0.00     0.029 H 
ATOM     29  H   LIG d   1       3.222   0.273 -12.398  0.00  0.00     0.027 H 
ATOM     30  H   LIG d   1       4.283  -1.109 -12.765  0.00  0.00     0.027 H 
ATOM     31  H   LIG d   1       2.616  -1.893  -8.302  0.00  0.00     0.033 H 
ATOM     32  H   LIG d   1       1.606  -0.467  -7.958  0.00  0.00     0.033 H 
ATOM     33  H   LIG d   1       6.943  -1.055  -3.731  0.00  0.00     0.062 H 
ATOM     34  H   LIG d   1       6.014  -1.216  -1.458  0.00  0.00     0.062 H 
ATOM     35  H   LIG d   1       3.636  -0.947  -1.035  0.00  0.00     0.062 H 
ATOM     36  H   LIG d   1       2.037  -0.497  -2.864  0.00  0.00     0.064 H 
ATOM     37  H   LIG d   1       7.222  -0.033  -6.351  0.00  0.00     0.037 H 
ATOM     38  H   LIG d   1       6.735  -1.635  -6.966  0.00  0.00     0.037 H 
ATOM     39  H   LIG d   1       6.038   1.102  -8.123  0.00  0.00     0.082 H 
ATOM     40  H   LIG d   1       6.967  -0.202  -8.901  0.00  0.00     0.082 H 
ATOM     41  H   LIG d   1       5.667  -0.633 -10.718  0.00  0.00     0.082 H 
ATOM     42  H   LIG d   1       4.629   0.774 -10.376  0.00  0.00     0.082 H 
ATOM     43  N   LIG d   1       4.900  -0.583  -8.760  0.00  0.00     0.242 N 
ATOM     44  H   LIG d   1       4.946  -1.600  -8.628  0.00  0.00     0.204 HD
ENDROOT
BRANCH   1  45
ATOM     45  C   LIG d   1       1.333  -2.869 -10.269  0.00  0.00     0.313 C 
ATOM     46  O   LIG d   1       0.462  -3.668 -10.518  0.00  0.00    -0.250 OA
BRANCH  45  47
ATOM     47  O   LIG d   1       2.511  -3.288  -9.781  0.00  0.00    -0.468 OA
BRANCH  47  48
ATOM     48  C   LIG d   1       2.769  -4.716  -9.821  0.00  0.00     0.082 C 
ATOM     49  H   LIG d   1       1.843  -5.247 -10.044  0.00  0.00     0.066 H 
ATOM     50  H   LIG d   1       3.506  -4.931 -10.594  0.00  0.00     0.066 H 
ATOM     51  H   LIG d   1       3.151  -5.043  -8.854  0.00  0.00     0.066 H 
ENDBRANCH  47  48
ENDBRANCH  45  47
ENDBRANCH   1  45
BRANCH   3  52
ATOM     52  O   LIG d   1      -0.202  -1.888 -12.485  0.00  0.00    -0.391 OA
ATOM     53  H   LIG d   1       0.037  -2.671 -13.001  0.00  0.00     0.210 HD
ENDBRANCH   3  52
TORSDOF 4
ENDMDL
MODEL 2
REMARK VINA RESULT:      -6.7      5.698      6.769
REMARK  4 active torsions:
REMARK  status: ('A' for Active; 'I' for Inactive)
REMARK    1  A    between atoms: C_1  and  O_2 
REMARK    2  A    between atoms: O_2  and  C_3 
REMARK    3  A    between atoms: C_3  and  C_5 
REMARK    4  A    between atoms: C_7  and  O_31 
ROOT
ATOM      1  C   LIG d   1       4.705  -8.201  -6.390  0.00  0.00     0.086 C 
ATOM      2  H   LIG d   1       3.647  -8.012  -6.573  0.00  0.00     0.044 H 
ATOM      3  C   LIG d   1       5.200  -9.287  -7.349  0.00  0.00     0.068 C 
ATOM      4  H   LIG d   1       5.058  -8.956  -8.378  0.00  0.00     0.060 H 
ATOM      5  C   LIG d   1       6.686  -9.552  -7.101  0.00  0.00    -0.026 C 
ATOM      6  C   LIG d   1       7.484  -8.266  -7.323  0.00  0.00    -0.043 C 
ATOM      7  C   LIG d   1       6.984  -7.189  -6.358  0.00  0.00     0.003 C 
ATOM      8  H   LIG d   1       7.106  -7.541  -5.333  0.00  0.00     0.035 H 
ATOM      9  C   LIG d   1       5.501  -6.918  -6.628  0.00  0.00    -0.013 C 
ATOM     10  H   LIG d   1       5.374  -6.599  -7.663  0.00  0.00     0.032 H 
ATOM     11  C   LIG d   1       5.010  -5.813  -5.690  0.00  0.00     0.000 C 
ATOM     12  C   LIG d   1       5.863  -4.562  -5.914  0.00  0.00     0.021 C 
ATOM     13  H   LIG d   1       5.761  -4.232  -6.948  0.00  0.00     0.092 H 
ATOM     14  C   LIG d   1       5.417  -3.461  -4.986  0.00  0.00     0.069 A 
ATOM     15  C   LIG d   1       6.287  -2.670  -4.314  0.00  0.00    -0.009 A 
ATOM     16  C   LIG d   1       5.503  -1.736  -3.538  0.00  0.00     0.004 A 
ATOM     17  C   LIG d   1       5.848  -0.697  -2.669  0.00  0.00    -0.052 A 
ATOM     18  C   LIG d   1       4.816   0.001  -2.093  0.00  0.00    -0.061 A 
ATOM     19  C   LIG d   1       3.488  -0.299  -2.353  0.00  0.00    -0.060 A 
ATOM     20  C   LIG d   1       3.118  -1.323  -3.209  0.00  0.00    -0.038 A 
ATOM     21  C   LIG d   1       4.145  -2.048  -3.809  0.00  0.00     0.047 A 
ATOM     22  N   LIG d   1       4.133  -3.095  -4.686  0.00  0.00    -0.353 N 
ATOM     23  H   LIG d   1       3.335  -3.516  -5.042  0.00  0.00     0.166 HD
ATOM     24  C   LIG d   1       7.785  -2.806  -4.417  0.00  0.00     0.015 C 
ATOM     25  C   LIG d   1       8.106  -3.665  -5.648  0.00  0.00    -0.027 C 
ATOM     26  C   LIG d   1       7.781  -5.898  -6.552  0.00  0.00    -0.028 C 
ATOM     27  H   LIG d   1       7.037 -10.321  -7.790  0.00  0.00     0.029 H 
ATOM     28  H   LIG d   1       6.826  -9.894  -6.076  0.00  0.00     0.029 H 
ATOM     29  H   LIG d   1       7.348  -7.925  -8.350  0.00  0.00     0.027 H 
ATOM     30  H   LIG d   1       8.541  -8.455  -7.140  0.00  0.00     0.027 H 
ATOM     31  H   LIG d   1       5.107  -6.142  -4.656  0.00  0.00     0.033 H 
ATOM     32  H   LIG d   1       3.966  -5.586  -5.905  0.00  0.00     0.033 H 
ATOM     33  H   LIG d   1       6.879  -0.454  -2.460  0.00  0.00     0.062 H 
ATOM     34  H   LIG d   1       5.045   0.810  -1.415  0.00  0.00     0.062 H 
ATOM     35  H   LIG d   1       2.717   0.282  -1.869  0.00  0.00     0.062 H 
ATOM     36  H   LIG d   1       2.079  -1.547  -3.404  0.00  0.00     0.064 H 
ATOM     37  H   LIG d   1       8.237  -1.821  -4.527  0.00  0.00     0.037 H 
ATOM     38  H   LIG d   1       8.173  -3.291  -3.520  0.00  0.00     0.037 H 
ATOM     39  H   LIG d   1       7.902  -3.092  -6.553  0.00  0.00     0.082 H 
ATOM     40  H   LIG d   1       9.158  -3.950  -5.628  0.00  0.00     0.082 H 
ATOM     41  H   LIG d   1       8.834  -6.086  -6.342  0.00  0.00     0.082 H 
ATOM     42  H   LIG d   1       7.671  -5.553  -7.580  0.00  0.00     0.082 H 
ATOM     43  N   LIG d   1       7.272  -4.890  -5.598  0.00  0.00     0.242 N 
ATOM     44  H   LIG d   1       7.316  -5.279  -4.649  0.00  0.00     0.204 HD
ENDROOT
BRANCH   1  45
ATOM     45  C   LIG d   1       4.899  -8.657  -4.967  0.00  0.00     0.313 C 
ATOM     46  O   LIG d   1       5.978  -8.540  -4.437  0.00  0.00    -0.250 OA
BRANCH  45  47
ATOM     47  O   LIG d   1       3.871  -9.192  -4.288  0.00  0.00    -0.468 OA
BRANCH  47  48
ATOM     48  C   LIG d   1       4.151 -10.376  -3.496  0.00  0.00     0.082 C 
ATOM     49  H   LIG d   1       4.132 -10.119  -2.437  0.00  0.00     0.066 H 
ATOM     50  H   LIG d   1       3.396 -11.136  -3.699  0.00  0.00     0.066 H 
ATOM     51  H   LIG d   1       5.135 -10.765  -3.758  0.00  0.00     0.066 H 
ENDBRANCH  47  48
ENDBRANCH  45  47
ENDBRANCH   1  45
BRANCH   3  52
ATOM     52  O   LIG d   1       4.459 -10.489  -7.130  0.00  0.00    -0.391 OA
ATOM     53  H   LIG d   1       4.997 -11.235  -6.830  0.00  0.00     0.210 HD
ENDBRANCH   3  52
TORSDOF 4
ENDMDL
MODEL 3
REMARK VINA RESULT:      -6.5      5.307      7.258
REMARK  4 active torsions:
REMARK  status: ('A' for Active; 'I' for Inactive)
REMARK    1  A    between atoms: C_1  and  O_2 
REMARK    2  A    between atoms: O_2  and  C_3 
REMARK    3  A    between atoms: C_3  and  C_5 
REMARK    4  A    between atoms: C_7  and  O_31 
ROOT
ATOM      1  C   LIG d   1       9.647   3.744  -7.830  0.00  0.00     0.086 C 
ATOM      2  H   LIG d   1       9.334   4.614  -7.254  0.00  0.00     0.044 H 
ATOM      3  C   LIG d   1      10.909   4.090  -8.626  0.00  0.00     0.068 C 
ATOM      4  H   LIG d   1      11.704   4.381  -7.940  0.00  0.00     0.060 H 
ATOM      5  C   LIG d   1      11.356   2.869  -9.433  0.00  0.00    -0.026 C 
ATOM      6  C   LIG d   1      11.647   1.703  -8.486  0.00  0.00    -0.043 C 
ATOM      7  C   LIG d   1      10.380   1.364  -7.699  0.00  0.00     0.003 C 
ATOM      8  H   LIG d   1       9.584   1.099  -8.395  0.00  0.00     0.035 H 
ATOM      9  C   LIG d   1       9.952   2.586  -6.880  0.00  0.00    -0.013 C 
ATOM     10  H   LIG d   1      10.761   2.872  -6.207  0.00  0.00     0.032 H 
ATOM     11  C   LIG d   1       8.708   2.236  -6.061  0.00  0.00     0.000 C 
ATOM     12  C   LIG d   1       9.030   1.039  -5.164  0.00  0.00     0.021 C 
ATOM     13  H   LIG d   1       9.846   1.299  -4.489  0.00  0.00     0.092 H 
ATOM     14  C   LIG d   1       7.814   0.655  -4.360  0.00  0.00     0.069 A 
ATOM     15  C   LIG d   1       7.432  -0.631  -4.176  0.00  0.00    -0.009 A 
ATOM     16  C   LIG d   1       6.241  -0.609  -3.357  0.00  0.00     0.004 A 
ATOM     17  C   LIG d   1       5.417  -1.619  -2.848  0.00  0.00    -0.052 A 
ATOM     18  C   LIG d   1       4.345  -1.223  -2.088  0.00  0.00    -0.061 A 
ATOM     19  C   LIG d   1       4.079   0.112  -1.828  0.00  0.00    -0.060 A 
ATOM     20  C   LIG d   1       4.877   1.132  -2.319  0.00  0.00    -0.038 A 
ATOM     21  C   LIG d   1       5.974   0.760  -3.093  0.00  0.00     0.047 A 
ATOM     22  N   LIG d   1       6.944   1.492  -3.716  0.00  0.00    -0.353 N 
ATOM     23  H   LIG d   1       7.006   2.460  -3.704  0.00  0.00     0.166 HD
ATOM     24  C   LIG d   1       8.173  -1.810  -4.754  0.00  0.00     0.015 C 
ATOM     25  C   LIG d   1       9.561  -1.332  -5.200  0.00  0.00    -0.027 C 
ATOM     26  C   LIG d   1      10.645   0.188  -6.757  0.00  0.00    -0.028 C 
ATOM     27  H   LIG d   1      12.258   3.115  -9.993  0.00  0.00     0.029 H 
ATOM     28  H   LIG d   1      10.566   2.585 -10.127  0.00  0.00     0.029 H 
ATOM     29  H   LIG d   1      12.441   1.985  -7.793  0.00  0.00     0.027 H 
ATOM     30  H   LIG d   1      11.960   0.833  -9.063  0.00  0.00     0.027 H 
ATOM     31  H   LIG d   1       7.889   1.979  -6.734  0.00  0.00     0.033 H 
ATOM     32  H   LIG d   1       8.422   3.088  -5.445  0.00  0.00     0.033 H 
ATOM     33  H   LIG d   1       5.617  -2.662  -3.044  0.00  0.00     0.062 H 
ATOM     34  H   LIG d   1       3.688  -1.976  -1.679  0.00  0.00     0.062 H 
ATOM     35  H   LIG d   1       3.220   0.365  -1.225  0.00  0.00     0.062 H 
ATOM     36  H   LIG d   1       4.659   2.169  -2.109  0.00  0.00     0.064 H 
ATOM     37  H   LIG d   1       8.276  -2.586  -3.997  0.00  0.00     0.037 H 
ATOM     38  H   LIG d   1       7.625  -2.203  -5.612  0.00  0.00     0.037 H 
ATOM     39  H   LIG d   1      10.175  -1.131  -4.323  0.00  0.00     0.082 H 
ATOM     40  H   LIG d   1      10.035  -2.106  -5.805  0.00  0.00     0.082 H 
ATOM     41  H   LIG d   1      10.932  -0.687  -7.340  0.00  0.00     0.082 H 
ATOM     42  H   LIG d   1      11.450   0.447  -6.069  0.00  0.00     0.082 H 
ATOM     43  N   LIG d   1       9.397  -0.110  -6.023  0.00  0.00     0.242 N 
ATOM     44  H   LIG d   1       8.643  -0.269  -6.701  0.00  0.00     0.204 HD
ENDROOT
BRANCH   1  45
ATOM     45  C   LIG d   1       8.546   3.342  -8.777  0.00  0.00     0.313 C 
ATOM     46  O   LIG d   1       8.062   4.160  -9.523  0.00  0.00    -0.250 OA
BRANCH  45  47
ATOM     47  O   LIG d   1       8.104   2.075  -8.792  0.00  0.00    -0.468 OA
BRANCH  47  48
ATOM     48  C   LIG d   1       6.681   1.876  -8.999  0.00  0.00     0.082 C 
ATOM     49  H   LIG d   1       6.526   1.050  -9.694  0.00  0.00     0.066 H 
ATOM     50  H   LIG d   1       6.204   1.643  -8.047  0.00  0.00     0.066 H 
ATOM     51  H   LIG d   1       6.243   2.784  -9.412  0.00  0.00     0.066 H 
ENDBRANCH  47  48
ENDBRANCH  45  47
ENDBRANCH   1  45
BRANCH   3  52
ATOM     52  O   LIG d   1      10.628   5.171  -9.516  0.00  0.00    -0.391 OA
ATOM     53  H   LIG d   1      10.990   6.022  -9.229  0.00  0.00     0.210 HD
ENDBRANCH   3  52
TORSDOF 4
ENDMDL
MODEL 4
REMARK VINA RESULT:      -6.3      2.263      3.170
REMARK  4 active torsions:
REMARK  status: ('A' for Active; 'I' for Inactive)
REMARK    1  A    between atoms: C_1  and  O_2 
REMARK    2  A    between atoms: O_2  and  C_3 
REMARK    3  A    between atoms: C_3  and  C_5 
REMARK    4  A    between atoms: C_7  and  O_31 
ROOT
ATOM      1  C   LIG d   1       4.632  -0.179 -10.771  0.00  0.00     0.086 C 
ATOM      2  H   LIG d   1       5.039   0.821 -10.628  0.00  0.00     0.044 H 
ATOM      3  C   LIG d   1       4.928  -0.650 -12.197  0.00  0.00     0.068 C 
ATOM      4  H   LIG d   1       6.006  -0.665 -12.359  0.00  0.00     0.060 H 
ATOM      5  C   LIG d   1       4.364  -2.058 -12.400  0.00  0.00    -0.026 C 
ATOM      6  C   LIG d   1       5.004  -3.020 -11.396  0.00  0.00    -0.043 C 
ATOM      7  C   LIG d   1       4.698  -2.542  -9.976  0.00  0.00     0.003 C 
ATOM      8  H   LIG d   1       3.618  -2.505  -9.832  0.00  0.00     0.035 H 
ATOM      9  C   LIG d   1       5.284  -1.141  -9.777  0.00  0.00    -0.013 C 
ATOM     10  H   LIG d   1       6.360  -1.170  -9.954  0.00  0.00     0.032 H 
ATOM     11  C   LIG d   1       5.015  -0.678  -8.343  0.00  0.00     0.000 C 
ATOM     12  C   LIG d   1       5.632  -1.690  -7.376  0.00  0.00     0.021 C 
ATOM     13  H   LIG d   1       6.708  -1.746  -7.542  0.00  0.00     0.092 H 
ATOM     14  C   LIG d   1       5.363  -1.274  -5.952  0.00  0.00     0.069 A 
ATOM     15  C   LIG d   1       4.982  -2.147  -4.991  0.00  0.00    -0.009 A 
ATOM     16  C   LIG d   1       4.826  -1.394  -3.767  0.00  0.00     0.004 A 
ATOM     17  C   LIG d   1       4.460  -1.757  -2.467  0.00  0.00    -0.052 A 
ATOM     18  C   LIG d   1       4.415  -0.755  -1.531  0.00  0.00    -0.061 A 
ATOM     19  C   LIG d   1       4.716   0.561  -1.845  0.00  0.00    -0.060 A 
ATOM     20  C   LIG d   1       5.082   0.948  -3.123  0.00  0.00    -0.038 A 
ATOM     21  C   LIG d   1       5.137  -0.049  -4.095  0.00  0.00     0.047 A 
ATOM     22  N   LIG d   1       5.455  -0.015  -5.422  0.00  0.00    -0.353 N 
ATOM     23  H   LIG d   1       5.707   0.781  -5.916  0.00  0.00     0.166 HD
ATOM     24  C   LIG d   1       4.784  -3.622  -5.238  0.00  0.00     0.015 C 
ATOM     25  C   LIG d   1       5.447  -3.978  -6.575  0.00  0.00    -0.027 C 
ATOM     26  C   LIG d   1       5.315  -3.501  -8.955  0.00  0.00    -0.028 C 
ATOM     27  H   LIG d   1       4.582  -2.393 -13.414  0.00  0.00     0.029 H 
ATOM     28  H   LIG d   1       3.285  -2.040 -12.249  0.00  0.00     0.029 H 
ATOM     29  H   LIG d   1       6.083  -3.041 -11.549  0.00  0.00     0.027 H 
ATOM     30  H   LIG d   1       4.596  -4.020 -11.539  0.00  0.00     0.027 H 
ATOM     31  H   LIG d   1       3.940  -0.619  -8.175  0.00  0.00     0.033 H 
ATOM     32  H   LIG d   1       5.465   0.301  -8.183  0.00  0.00     0.033 H 
ATOM     33  H   LIG d   1       4.224  -2.779  -2.211  0.00  0.00     0.062 H 
ATOM     34  H   LIG d   1       4.136  -0.998  -0.516  0.00  0.00     0.062 H 
ATOM     35  H   LIG d   1       4.663   1.309  -1.068  0.00  0.00     0.062 H 
ATOM     36  H   LIG d   1       5.315   1.978  -3.356  0.00  0.00     0.064 H 
ATOM     37  H   LIG d   1       5.245  -4.194  -4.434  0.00  0.00     0.037 H 
ATOM     38  H   LIG d   1       3.717  -3.846  -5.285  0.00  0.00     0.037 H 
ATOM     39  H   LIG d   1       6.530  -3.946  -6.463  0.00  0.00     0.082 H 
ATOM     40  H   LIG d   1       5.142  -4.981  -6.876  0.00  0.00     0.082 H 
ATOM     41  H   LIG d   1       4.886  -4.494  -9.084  0.00  0.00     0.082 H 
ATOM     42  H   LIG d   1       6.394  -3.548  -9.106  0.00  0.00     0.082 H 
ATOM     43  N   LIG d   1       4.992  -3.007  -7.600  0.00  0.00     0.242 N 
ATOM     44  H   LIG d   1       3.975  -2.898  -7.521  0.00  0.00     0.204 HD
ENDROOT
BRANCH   1  45
ATOM     45  C   LIG d   1       3.142  -0.156 -10.545  0.00  0.00     0.313 C 
ATOM     46  O   LIG d   1       2.397  -0.609 -11.381  0.00  0.00    -0.250 OA
BRANCH  45  47
ATOM     47  O   LIG d   1       2.644   0.366  -9.413  0.00  0.00    -0.468 OA
BRANCH  47  48
ATOM     48  C   LIG d   1       2.753   1.804  -9.248  0.00  0.00     0.082 C 
ATOM     49  H   LIG d   1       3.805   2.089  -9.222  0.00  0.00     0.066 H 
ATOM     50  H   LIG d   1       2.262   2.305 -10.082  0.00  0.00     0.066 H 
ATOM     51  H   LIG d   1       2.274   2.100  -8.315  0.00  0.00     0.066 H 
ENDBRANCH  47  48
ENDBRANCH  45  47
ENDBRANCH   1  45
BRANCH   3  52
ATOM     52  O   LIG d   1       4.320   0.245 -13.129  0.00  0.00    -0.391 OA
ATOM     53  H   LIG d   1       3.422  -0.005 -13.388  0.00  0.00     0.210 HD
ENDBRANCH   3  52
TORSDOF 4
ENDMDL
MODEL 5
REMARK VINA RESULT:      -6.2      6.752      8.568
REMARK  4 active torsions:
REMARK  status: ('A' for Active; 'I' for Inactive)
REMARK    1  A    between atoms: C_1  and  O_2 
REMARK    2  A    between atoms: O_2  and  C_3 
REMARK    3  A    between atoms: C_3  and  C_5 
REMARK    4  A    between atoms: C_7  and  O_31 
ROOT
ATOM      1  C   LIG d   1      11.055  -3.991  -5.088  0.00  0.00     0.086 C 
ATOM      2  H   LIG d   1      10.342  -4.761  -5.380  0.00  0.00     0.044 H 
ATOM      3  C   LIG d   1      12.384  -4.228  -5.811  0.00  0.00     0.068 C 
ATOM      4  H   LIG d   1      12.224  -4.190  -6.888  0.00  0.00     0.060 H 
ATOM      5  C   LIG d   1      13.387  -3.145  -5.408  0.00  0.00    -0.026 C 
ATOM      6  C   LIG d   1      12.836  -1.767  -5.780  0.00  0.00    -0.043 C 
ATOM      7  C   LIG d   1      11.511  -1.540  -5.050  0.00  0.00     0.003 C 
ATOM      8  H   LIG d   1      11.678  -1.605  -3.975  0.00  0.00     0.035 H 
ATOM      9  C   LIG d   1      10.509  -2.617  -5.475  0.00  0.00    -0.013 C 
ATOM     10  H   LIG d   1      10.368  -2.574  -6.555  0.00  0.00     0.032 H 
ATOM     11  C   LIG d   1       9.171  -2.367  -4.776  0.00  0.00     0.000 C 
ATOM     12  C   LIG d   1       8.680  -0.964  -5.140  0.00  0.00     0.021 C 
ATOM     13  H   LIG d   1       8.544  -0.893  -6.219  0.00  0.00     0.092 H 
ATOM     14  C   LIG d   1       7.373  -0.678  -4.446  0.00  0.00     0.069 A 
ATOM     15  C   LIG d   1       7.101   0.507  -3.852  0.00  0.00    -0.009 A 
ATOM     16  C   LIG d   1       5.765   0.414  -3.306  0.00  0.00     0.004 A 
ATOM     17  C   LIG d   1       4.962   1.314  -2.598  0.00  0.00    -0.052 A 
ATOM     18  C   LIG d   1       3.715   0.877  -2.228  0.00  0.00    -0.061 A 
ATOM     19  C   LIG d   1       3.259  -0.396  -2.535  0.00  0.00    -0.060 A 
ATOM     20  C   LIG d   1       4.033  -1.307  -3.234  0.00  0.00    -0.038 A 
ATOM     21  C   LIG d   1       5.304  -0.890  -3.624  0.00  0.00     0.047 A 
ATOM     22  N   LIG d   1       6.302  -1.520  -4.312  0.00  0.00    -0.353 N 
ATOM     23  H   LIG d   1       6.259  -2.427  -4.652  0.00  0.00     0.166 HD
ATOM     24  C   LIG d   1       8.070   1.662  -3.815  0.00  0.00     0.015 C 
ATOM     25  C   LIG d   1       9.166   1.401  -4.856  0.00  0.00    -0.027 C 
ATOM     26  C   LIG d   1      10.952  -0.158  -5.396  0.00  0.00    -0.028 C 
ATOM     27  H   LIG d   1      14.330  -3.312  -5.929  0.00  0.00     0.029 H 
ATOM     28  H   LIG d   1      13.556  -3.191  -4.332  0.00  0.00     0.029 H 
ATOM     29  H   LIG d   1      12.671  -1.719  -6.857  0.00  0.00     0.027 H 
ATOM     30  H   LIG d   1      13.550  -0.997  -5.487  0.00  0.00     0.027 H 
ATOM     31  H   LIG d   1       9.304  -2.440  -3.697  0.00  0.00     0.033 H 
ATOM     32  H   LIG d   1       8.441  -3.105  -5.106  0.00  0.00     0.033 H 
ATOM     33  H   LIG d   1       5.307   2.308  -2.354  0.00  0.00     0.062 H 
ATOM     34  H   LIG d   1       3.067   1.545  -1.680  0.00  0.00     0.062 H 
ATOM     35  H   LIG d   1       2.269  -0.687  -2.217  0.00  0.00     0.062 H 
ATOM     36  H   LIG d   1       3.666  -2.296  -3.468  0.00  0.00     0.064 H 
ATOM     37  H   LIG d   1       7.548   2.587  -4.053  0.00  0.00     0.037 H 
ATOM     38  H   LIG d   1       8.516   1.735  -2.822  0.00  0.00     0.037 H 
ATOM     39  H   LIG d   1       8.754   1.528  -5.857  0.00  0.00     0.082 H 
ATOM     40  H   LIG d   1       9.984   2.107  -4.708  0.00  0.00     0.082 H 
ATOM     41  H   LIG d   1      11.657   0.610  -5.077  0.00  0.00     0.082 H 
ATOM     42  H   LIG d   1      10.798  -0.087  -6.473  0.00  0.00     0.082 H 
ATOM     43  N   LIG d   1       9.679   0.022  -4.666  0.00  0.00     0.242 N 
ATOM     44  H   LIG d   1       9.845  -0.132  -3.665  0.00  0.00     0.204 HD
ENDROOT
BRANCH   1  45
ATOM     45  C   LIG d   1      11.274  -4.044  -3.597  0.00  0.00     0.313 C 
ATOM     46  O   LIG d   1      12.392  -4.155  -3.155  0.00  0.00    -0.250 OA
BRANCH  45  47
ATOM     47  O   LIG d   1      10.226  -3.967  -2.763  0.00  0.00    -0.468 OA
BRANCH  47  48
ATOM     48  C   LIG d   1       9.823  -5.193  -2.097  0.00  0.00     0.082 C 
ATOM     49  H   LIG d   1       9.304  -5.838  -2.806  0.00  0.00     0.066 H 
ATOM     50  H   LIG d   1      10.705  -5.707  -1.716  0.00  0.00     0.066 H 
ATOM     51  H   LIG d   1       9.156  -4.954  -1.269  0.00  0.00     0.066 H 
ENDBRANCH  47  48
ENDBRANCH  45  47
ENDBRANCH   1  45
BRANCH   3  52
ATOM     52  O   LIG d   1      12.899  -5.511  -5.451  0.00  0.00    -0.391 OA
ATOM     53  H   LIG d   1      12.338  -6.002  -4.834  0.00  0.00     0.210 HD
ENDBRANCH   3  52
TORSDOF 4
ENDMDL
MODEL 6
REMARK VINA RESULT:      -6.0      4.118      7.334
REMARK  4 active torsions:
REMARK  status: ('A' for Active; 'I' for Inactive)
REMARK    1  A    between atoms: C_1  and  O_2 
REMARK    2  A    between atoms: O_2  and  C_3 
REMARK    3  A    between atoms: C_3  and  C_5 
REMARK    4  A    between atoms: C_7  and  O_31 
ROOT
ATOM      1  C   LIG d   1       4.113  -0.717  -3.145  0.00  0.00     0.086 C 
ATOM      2  H   LIG d   1       3.401  -1.376  -2.649  0.00  0.00     0.044 H 
ATOM      3  C   LIG d   1       4.438   0.465  -2.227  0.00  0.00     0.068 C 
ATOM      4  H   LIG d   1       4.868   0.095  -1.296  0.00  0.00     0.060 H 
ATOM      5  C   LIG d   1       5.443   1.389  -2.918  0.00  0.00    -0.026 C 
ATOM      6  C   LIG d   1       6.724   0.615  -3.235  0.00  0.00    -0.043 C 
ATOM      7  C   LIG d   1       6.388  -0.560  -4.155  0.00  0.00     0.003 C 
ATOM      8  H   LIG d   1       5.936  -0.181  -5.072  0.00  0.00     0.035 H 
ATOM      9  C   LIG d   1       5.398  -1.489  -3.447  0.00  0.00    -0.013 C 
ATOM     10  H   LIG d   1       5.836  -1.841  -2.513  0.00  0.00     0.032 H 
ATOM     11  C   LIG d   1       5.092  -2.686  -4.350  0.00  0.00     0.000 C 
ATOM     12  C   LIG d   1       6.403  -3.403  -4.678  0.00  0.00     0.021 C 
ATOM     13  H   LIG d   1       6.867  -3.754  -3.755  0.00  0.00     0.092 H 
ATOM     14  C   LIG d   1       6.137  -4.576  -5.587  0.00  0.00     0.069 A 
ATOM     15  C   LIG d   1       6.916  -4.868  -6.655  0.00  0.00    -0.009 A 
ATOM     16  C   LIG d   1       6.363  -6.050  -7.276  0.00  0.00     0.004 A 
ATOM     17  C   LIG d   1       6.740  -6.803  -8.393  0.00  0.00    -0.052 A 
ATOM     18  C   LIG d   1       5.963  -7.892  -8.699  0.00  0.00    -0.061 A 
ATOM     19  C   LIG d   1       4.855  -8.242  -7.945  0.00  0.00    -0.060 A 
ATOM     20  C   LIG d   1       4.459  -7.516  -6.835  0.00  0.00    -0.038 A 
ATOM     21  C   LIG d   1       5.229  -6.404  -6.499  0.00  0.00     0.047 A 
ATOM     22  N   LIG d   1       5.124  -5.491  -5.489  0.00  0.00    -0.353 N 
ATOM     23  H   LIG d   1       4.436  -5.490  -4.806  0.00  0.00     0.166 HD
ATOM     24  C   LIG d   1       8.123  -4.055  -7.052  0.00  0.00     0.015 C 
ATOM     25  C   LIG d   1       8.509  -3.159  -5.867  0.00  0.00    -0.027 C 
ATOM     26  C   LIG d   1       7.660  -1.338  -4.498  0.00  0.00    -0.028 C 
ATOM     27  H   LIG d   1       5.678   2.226  -2.260  0.00  0.00     0.029 H 
ATOM     28  H   LIG d   1       5.009   1.768  -3.843  0.00  0.00     0.029 H 
ATOM     29  H   LIG d   1       7.161   0.239  -2.310  0.00  0.00     0.027 H 
ATOM     30  H   LIG d   1       7.436   1.274  -3.732  0.00  0.00     0.027 H 
ATOM     31  H   LIG d   1       4.625  -2.338  -5.271  0.00  0.00     0.033 H 
ATOM     32  H   LIG d   1       4.420  -3.372  -3.836  0.00  0.00     0.033 H 
ATOM     33  H   LIG d   1       7.602  -6.539  -8.987  0.00  0.00     0.062 H 
ATOM     34  H   LIG d   1       6.224  -8.497  -9.555  0.00  0.00     0.062 H 
ATOM     35  H   LIG d   1       4.279  -9.109  -8.234  0.00  0.00     0.062 H 
ATOM     36  H   LIG d   1       3.593  -7.799  -6.255  0.00  0.00     0.064 H 
ATOM     37  H   LIG d   1       8.950  -4.722  -7.295  0.00  0.00     0.037 H 
ATOM     38  H   LIG d   1       7.882  -3.437  -7.918  0.00  0.00     0.037 H 
ATOM     39  H   LIG d   1       8.940  -3.770  -5.075  0.00  0.00     0.082 H 
ATOM     40  H   LIG d   1       9.240  -2.420  -6.195  0.00  0.00     0.082 H 
ATOM     41  H   LIG d   1       8.358  -0.683  -5.019  0.00  0.00     0.082 H 
ATOM     42  H   LIG d   1       8.120  -1.707  -3.581  0.00  0.00     0.082 H 
ATOM     43  N   LIG d   1       7.292  -2.458  -5.391  0.00  0.00     0.242 N 
ATOM     44  H   LIG d   1       6.790  -2.082  -6.204  0.00  0.00     0.204 HD
ENDROOT
BRANCH   1  45
ATOM     45  C   LIG d   1       3.518  -0.208  -4.434  0.00  0.00     0.313 C 
ATOM     46  O   LIG d   1       2.356   0.119  -4.474  0.00  0.00    -0.250 OA
BRANCH  45  47
ATOM     47  O   LIG d   1       4.280  -0.117  -5.535  0.00  0.00    -0.468 OA
BRANCH  47  48
ATOM     48  C   LIG d   1       3.597  -0.169  -6.814  0.00  0.00     0.082 C 
ATOM     49  H   LIG d   1       3.175  -1.164  -6.961  0.00  0.00     0.066 H 
ATOM     50  H   LIG d   1       2.797   0.570  -6.830  0.00  0.00     0.066 H 
ATOM     51  H   LIG d   1       4.306   0.046  -7.614  0.00  0.00     0.066 H 
ENDBRANCH  47  48
ENDBRANCH  45  47
ENDBRANCH   1  45
BRANCH   3  52
ATOM     52  O   LIG d   1       3.241   1.190  -1.944  0.00  0.00    -0.391 OA
ATOM     53  H   LIG d   1       2.436   0.655  -1.991  0.00  0.00     0.210 HD
ENDBRANCH   3  52
TORSDOF 4
ENDMDL
MODEL 7
REMARK VINA RESULT:      -5.8     11.306     14.571
REMARK  4 active torsions:
REMARK  status: ('A' for Active; 'I' for Inactive)
REMARK    1  A    between atoms: C_1  and  O_2 
REMARK    2  A    between atoms: O_2  and  C_3 
REMARK    3  A    between atoms: C_3  and  C_5 
REMARK    4  A    between atoms: C_7  and  O_31 
ROOT
ATOM      1  C   LIG d   1      11.017   9.788  -0.429  0.00  0.00     0.086 C 
ATOM      2  H   LIG d   1      10.466  10.652  -0.798  0.00  0.00     0.044 H 
ATOM      3  C   LIG d   1      11.048   9.820   1.102  0.00  0.00     0.068 C 
ATOM      4  H   LIG d   1      10.029   9.796   1.487  0.00  0.00     0.060 H 
ATOM      5  C   LIG d   1      11.817   8.605   1.625  0.00  0.00    -0.026 C 
ATOM      6  C   LIG d   1      11.136   7.319   1.149  0.00  0.00    -0.043 C 
ATOM      7  C   LIG d   1      11.115   7.297  -0.380  0.00  0.00     0.003 C 
ATOM      8  H   LIG d   1      12.137   7.347  -0.755  0.00  0.00     0.035 H 
ATOM      9  C   LIG d   1      10.326   8.505  -0.892  0.00  0.00    -0.013 C 
ATOM     10  H   LIG d   1       9.313   8.474  -0.490  0.00  0.00     0.032 H 
ATOM     11  C   LIG d   1      10.269   8.462  -2.421  0.00  0.00     0.000 C 
ATOM     12  C   LIG d   1       9.624   7.143  -2.852  0.00  0.00     0.021 C 
ATOM     13  H   LIG d   1       8.612   7.084  -2.450  0.00  0.00     0.092 H 
ATOM     14  C   LIG d   1       9.575   7.060  -4.356  0.00  0.00     0.069 A 
ATOM     15  C   LIG d   1       9.885   5.934  -5.040  0.00  0.00    -0.009 A 
ATOM     16  C   LIG d   1       9.718   6.227  -6.446  0.00  0.00     0.004 A 
ATOM     17  C   LIG d   1       9.886   5.462  -7.604  0.00  0.00    -0.052 A 
ATOM     18  C   LIG d   1       9.631   6.082  -8.801  0.00  0.00    -0.061 A 
ATOM     19  C   LIG d   1       9.224   7.404  -8.874  0.00  0.00    -0.060 A 
ATOM     20  C   LIG d   1       9.049   8.185  -7.744  0.00  0.00    -0.038 A 
ATOM     21  C   LIG d   1       9.300   7.582  -6.514  0.00  0.00     0.047 A 
ATOM     22  N   LIG d   1       9.226   8.051  -5.233  0.00  0.00    -0.353 N 
ATOM     23  H   LIG d   1       8.966   8.952  -4.983  0.00  0.00     0.166 HD
ATOM     24  C   LIG d   1      10.314   4.649  -4.376  0.00  0.00     0.015 C 
ATOM     25  C   LIG d   1       9.955   4.736  -2.887  0.00  0.00    -0.027 C 
ATOM     26  C   LIG d   1      10.453   6.010  -0.877  0.00  0.00    -0.028 C 
ATOM     27  H   LIG d   1      11.831   8.626   2.714  0.00  0.00     0.029 H 
ATOM     28  H   LIG d   1      12.839   8.635   1.249  0.00  0.00     0.029 H 
ATOM     29  H   LIG d   1      10.114   7.287   1.528  0.00  0.00     0.027 H 
ATOM     30  H   LIG d   1      11.689   6.455   1.518  0.00  0.00     0.027 H 
ATOM     31  H   LIG d   1      11.279   8.524  -2.825  0.00  0.00     0.033 H 
ATOM     32  H   LIG d   1       9.675   9.297  -2.790  0.00  0.00     0.033 H 
ATOM     33  H   LIG d   1      10.203   4.430  -7.558  0.00  0.00     0.062 H 
ATOM     34  H   LIG d   1       9.751   5.522  -9.717  0.00  0.00     0.062 H 
ATOM     35  H   LIG d   1       9.039   7.841  -9.844  0.00  0.00     0.062 H 
ATOM     36  H   LIG d   1       8.730   9.216  -7.814  0.00  0.00     0.064 H 
ATOM     37  H   LIG d   1       9.793   3.808  -4.832  0.00  0.00     0.037 H 
ATOM     38  H   LIG d   1      11.391   4.519  -4.489  0.00  0.00     0.037 H 
ATOM     39  H   LIG d   1       8.874   4.661  -2.768  0.00  0.00     0.082 H 
ATOM     40  H   LIG d   1      10.436   3.918  -2.349  0.00  0.00     0.082 H 
ATOM     41  H   LIG d   1      11.024   5.149  -0.528  0.00  0.00     0.082 H 
ATOM     42  H   LIG d   1       9.434   5.952  -0.491  0.00  0.00     0.082 H 
ATOM     43  N   LIG d   1      10.458   6.025  -2.355  0.00  0.00     0.242 N 
ATOM     44  H   LIG d   1      11.422   6.162  -2.681  0.00  0.00     0.204 HD
ENDROOT
BRANCH   1  45
ATOM     45  C   LIG d   1      12.426   9.822  -0.964  0.00  0.00     0.313 C 
ATOM     46  O   LIG d   1      13.089  10.826  -0.855  0.00  0.00    -0.250 OA
BRANCH  45  47
ATOM     47  O   LIG d   1      12.944   8.736  -1.559  0.00  0.00    -0.468 OA
BRANCH  47  48
ATOM     48  C   LIG d   1      14.386   8.577  -1.502  0.00  0.00     0.082 C 
ATOM     49  H   LIG d   1      14.657   7.586  -1.866  0.00  0.00     0.066 H 
ATOM     50  H   LIG d   1      14.860   9.336  -2.125  0.00  0.00     0.066 H 
ATOM     51  H   LIG d   1      14.723   8.691  -0.472  0.00  0.00     0.066 H 
ENDBRANCH  47  48
ENDBRANCH  45  47
ENDBRANCH   1  45
BRANCH   3  52
ATOM     52  O   LIG d   1      11.694  11.016   1.539  0.00  0.00    -0.391 OA
ATOM     53  H   LIG d   1      12.077  10.956   2.426  0.00  0.00     0.210 HD
ENDBRANCH   3  52
TORSDOF 4
ENDMDL
MODEL 8
REMARK VINA RESULT:      -5.8     10.560     12.973
REMARK  4 active torsions:
REMARK  status: ('A' for Active; 'I' for Inactive)
REMARK    1  A    between atoms: C_1  and  O_2 
REMARK    2  A    between atoms: O_2  and  C_3 
REMARK    3  A    between atoms: C_3  and  C_5 
REMARK    4  A    between atoms: C_7  and  O_31 
ROOT
ATOM      1  C   LIG d   1      10.382   4.952  -3.059  0.00  0.00     0.086 C 
ATOM      2  H   LIG d   1       9.911   5.369  -2.169  0.00  0.00     0.044 H 
ATOM      3  C   LIG d   1      10.209   3.431  -3.060  0.00  0.00     0.068 C 
ATOM      4  H   LIG d   1       9.147   3.185  -3.057  0.00  0.00     0.060 H 
ATOM      5  C   LIG d   1      10.863   2.842  -4.311  0.00  0.00    -0.026 C 
ATOM      6  C   LIG d   1      10.213   3.436  -5.562  0.00  0.00    -0.043 C 
ATOM      7  C   LIG d   1      10.396   4.955  -5.552  0.00  0.00     0.003 C 
ATOM      8  H   LIG d   1      11.460   5.189  -5.529  0.00  0.00     0.035 H 
ATOM      9  C   LIG d   1       9.720   5.536  -4.307  0.00  0.00    -0.013 C 
ATOM     10  H   LIG d   1       8.662   5.273  -4.313  0.00  0.00     0.032 H 
ATOM     11  C   LIG d   1       9.867   7.059  -4.316  0.00  0.00     0.000 C 
ATOM     12  C   LIG d   1       9.245   7.606  -5.603  0.00  0.00     0.021 C 
ATOM     13  H   LIG d   1       8.187   7.343  -5.636  0.00  0.00     0.092 H 
ATOM     14  C   LIG d   1       9.394   9.105  -5.652  0.00  0.00     0.069 A 
ATOM     15  C   LIG d   1       9.758   9.770  -6.774  0.00  0.00    -0.009 A 
ATOM     16  C   LIG d   1       9.790  11.177  -6.445  0.00  0.00     0.004 A 
ATOM     17  C   LIG d   1      10.088  12.322  -7.191  0.00  0.00    -0.052 A 
ATOM     18  C   LIG d   1      10.014  13.526  -6.538  0.00  0.00    -0.061 A 
ATOM     19  C   LIG d   1       9.661  13.619  -5.201  0.00  0.00    -0.060 A 
ATOM     20  C   LIG d   1       9.361  12.503  -4.438  0.00  0.00    -0.038 A 
ATOM     21  C   LIG d   1       9.427  11.265  -5.076  0.00  0.00     0.047 A 
ATOM     22  N   LIG d   1       9.196   9.995  -4.631  0.00  0.00    -0.353 N 
ATOM     23  H   LIG d   1       8.933   9.758  -3.728  0.00  0.00     0.166 HD
ATOM     24  C   LIG d   1      10.055   9.088  -8.086  0.00  0.00     0.015 C 
ATOM     25  C   LIG d   1       9.504   7.657  -8.019  0.00  0.00    -0.027 C 
ATOM     26  C   LIG d   1       9.767   5.567  -6.805  0.00  0.00    -0.028 C 
ATOM     27  H   LIG d   1      10.733   1.759  -4.313  0.00  0.00     0.029 H 
ATOM     28  H   LIG d   1      11.928   3.077  -4.308  0.00  0.00     0.029 H 
ATOM     29  H   LIG d   1       9.150   3.197  -5.569  0.00  0.00     0.027 H 
ATOM     30  H   LIG d   1      10.685   3.019  -6.452  0.00  0.00     0.027 H 
ATOM     31  H   LIG d   1      10.923   7.324  -4.279  0.00  0.00     0.033 H 
ATOM     32  H   LIG d   1       9.353   7.483  -3.454  0.00  0.00     0.033 H 
ATOM     33  H   LIG d   1      10.364  12.261  -8.233  0.00  0.00     0.062 H 
ATOM     34  H   LIG d   1      10.238  14.432  -7.082  0.00  0.00     0.062 H 
ATOM     35  H   LIG d   1       9.621  14.593  -4.738  0.00  0.00     0.062 H 
ATOM     36  H   LIG d   1       9.086  12.588  -3.397  0.00  0.00     0.064 H 
ATOM     37  H   LIG d   1       9.574   9.630  -8.899  0.00  0.00     0.037 H 
ATOM     38  H   LIG d   1      11.133   9.059  -8.250  0.00  0.00     0.037 H 
ATOM     39  H   LIG d   1       8.415   7.686  -8.059  0.00  0.00     0.082 H 
ATOM     40  H   LIG d   1       9.883   7.082  -8.863  0.00  0.00     0.082 H 
ATOM     41  H   LIG d   1      10.259   5.168  -7.692  0.00  0.00     0.082 H 
ATOM     42  H   LIG d   1       8.705   5.322  -6.836  0.00  0.00     0.082 H 
ATOM     43  N   LIG d   1       9.970   7.031  -6.759  0.00  0.00     0.242 N 
ATOM     44  H   LIG d   1      10.973   7.223  -6.647  0.00  0.00     0.204 HD
ENDROOT
BRANCH   1  45
ATOM     45  C   LIG d   1      11.850   5.294  -3.061  0.00  0.00     0.313 C 
ATOM     46  O   LIG d   1      12.332   5.879  -4.002  0.00  0.00    -0.250 OA
BRANCH  45  47
ATOM     47  O   LIG d   1      12.621   4.950  -2.017  0.00  0.00    -0.468 OA
BRANCH  47  48
ATOM     48  C   LIG d   1      12.484   5.741  -0.808  0.00  0.00     0.082 C 
ATOM     49  H   LIG d   1      13.135   5.336  -0.033  0.00  0.00     0.066 H 
ATOM     50  H   LIG d   1      12.767   6.774  -1.015  0.00  0.00     0.066 H 
ATOM     51  H   LIG d   1      11.450   5.710  -0.468  0.00  0.00     0.066 H 
ENDBRANCH  47  48
ENDBRANCH  45  47
ENDBRANCH   1  45
BRANCH   3  52
ATOM     52  O   LIG d   1      10.827   2.881  -1.896  0.00  0.00    -0.391 OA
ATOM     53  H   LIG d   1      10.356   3.072  -1.072  0.00  0.00     0.210 HD
ENDBRANCH   3  52
TORSDOF 4
ENDMDL
MODEL 9
REMARK VINA RESULT:      -5.7      6.391      9.316
REMARK  4 active torsions:
REMARK  status: ('A' for Active; 'I' for Inactive)
REMARK    1  A    between atoms: C_1  and  O_2 
REMARK    2  A    between atoms: O_2  and  C_3 
REMARK    3  A    between atoms: C_3  and  C_5 
REMARK    4  A    between atoms: C_7  and  O_31 
ROOT
ATOM      1  C   LIG d   1      11.045   3.484  -3.377  0.00  0.00     0.086 C 
ATOM      2  H   LIG d   1      11.158   3.097  -2.364  0.00  0.00     0.044 H 
ATOM      3  C   LIG d   1      12.393   4.018  -3.870  0.00  0.00     0.068 C 
ATOM      4  H   LIG d   1      13.127   3.213  -3.864  0.00  0.00     0.060 H 
ATOM      5  C   LIG d   1      12.240   4.558  -5.293  0.00  0.00    -0.026 C 
ATOM      6  C   LIG d   1      11.759   3.439  -6.220  0.00  0.00    -0.043 C 
ATOM      7  C   LIG d   1      10.411   2.916  -5.720  0.00  0.00     0.003 C 
ATOM      8  H   LIG d   1       9.691   3.734  -5.705  0.00  0.00     0.035 H 
ATOM      9  C   LIG d   1      10.579   2.361  -4.303  0.00  0.00    -0.013 C 
ATOM     10  H   LIG d   1      11.325   1.565  -4.312  0.00  0.00     0.032 H 
ATOM     11  C   LIG d   1       9.241   1.799  -3.818  0.00  0.00     0.000 C 
ATOM     12  C   LIG d   1       8.776   0.719  -4.796  0.00  0.00     0.021 C 
ATOM     13  H   LIG d   1       9.514  -0.083  -4.831  0.00  0.00     0.092 H 
ATOM     14  C   LIG d   1       7.446   0.162  -4.357  0.00  0.00     0.069 A 
ATOM     15  C   LIG d   1       6.432  -0.084  -5.219  0.00  0.00    -0.009 A 
ATOM     16  C   LIG d   1       5.332  -0.613  -4.445  0.00  0.00     0.004 A 
ATOM     17  C   LIG d   1       4.047  -1.044  -4.789  0.00  0.00    -0.052 A 
ATOM     18  C   LIG d   1       3.249  -1.498  -3.769  0.00  0.00    -0.061 A 
ATOM     19  C   LIG d   1       3.684  -1.534  -2.454  0.00  0.00    -0.060 A 
ATOM     20  C   LIG d   1       4.950  -1.114  -2.085  0.00  0.00    -0.038 A 
ATOM     21  C   LIG d   1       5.783  -0.649  -3.100  0.00  0.00     0.047 A 
ATOM     22  N   LIG d   1       7.063  -0.172  -3.086  0.00  0.00    -0.353 N 
ATOM     23  H   LIG d   1       7.617  -0.083  -2.295  0.00  0.00     0.166 HD
ATOM     24  C   LIG d   1       6.520   0.175  -6.702  0.00  0.00     0.015 C 
ATOM     25  C   LIG d   1       7.998   0.358  -7.070  0.00  0.00    -0.027 C 
ATOM     26  C   LIG d   1       9.904   1.807  -6.645  0.00  0.00    -0.028 C 
ATOM     27  H   LIG d   1      13.202   4.931  -5.644  0.00  0.00     0.029 H 
ATOM     28  H   LIG d   1      11.514   5.370  -5.297  0.00  0.00     0.029 H 
ATOM     29  H   LIG d   1      12.487   2.628  -6.221  0.00  0.00     0.027 H 
ATOM     30  H   LIG d   1      11.645   3.827  -7.232  0.00  0.00     0.027 H 
ATOM     31  H   LIG d   1       8.502   2.600  -3.779  0.00  0.00     0.033 H 
ATOM     32  H   LIG d   1       9.363   1.366  -2.826  0.00  0.00     0.033 H 
ATOM     33  H   LIG d   1       3.698  -1.021  -5.811  0.00  0.00     0.062 H 
ATOM     34  H   LIG d   1       2.250  -1.838  -3.998  0.00  0.00     0.062 H 
ATOM     35  H   LIG d   1       3.012  -1.900  -1.692  0.00  0.00     0.062 H 
ATOM     36  H   LIG d   1       5.278  -1.148  -1.055  0.00  0.00     0.064 H 
ATOM     37  H   LIG d   1       6.107  -0.673  -7.248  0.00  0.00     0.037 H 
ATOM     38  H   LIG d   1       5.964   1.080  -6.951  0.00  0.00     0.037 H 
ATOM     39  H   LIG d   1       8.509  -0.603  -7.012  0.00  0.00     0.082 H 
ATOM     40  H   LIG d   1       8.074   0.749  -8.086  0.00  0.00     0.082 H 
ATOM     41  H   LIG d   1       9.767   2.206  -7.650  0.00  0.00     0.082 H 
ATOM     42  H   LIG d   1      10.630   0.994  -6.671  0.00  0.00     0.082 H 
ATOM     43  N   LIG d   1       8.600   1.335  -6.131  0.00  0.00     0.242 N 
ATOM     44  H   LIG d   1       7.968   2.139  -6.043  0.00  0.00     0.204 HD
ENDROOT
BRANCH   1  45
ATOM     45  C   LIG d   1      10.027   4.595  -3.382  0.00  0.00     0.313 C 
ATOM     46  O   LIG d   1       9.285   4.730  -4.326  0.00  0.00    -0.250 OA
BRANCH  45  47
ATOM     47  O   LIG d   1       9.945   5.435  -2.338  0.00  0.00    -0.468 OA
BRANCH  47  48
ATOM     48  C   LIG d   1       9.589   6.812  -2.627  0.00  0.00     0.082 C 
ATOM     49  H   LIG d   1       8.505   6.924  -2.585  0.00  0.00     0.066 H 
ATOM     50  H   LIG d   1      10.050   7.470  -1.890  0.00  0.00     0.066 H 
ATOM     51  H   LIG d   1       9.943   7.079  -3.622  0.00  0.00     0.066 H 
ENDBRANCH  47  48
ENDBRANCH  45  47
ENDBRANCH   1  45
BRANCH   3  52
ATOM     52  O   LIG d   1      12.831   5.069  -3.007  0.00  0.00    -0.391 OA
ATOM     53  H   LIG d   1      13.684   4.900  -2.582  0.00  0.00     0.210 HD
ENDBRANCH   3  52
TORSDOF 4
ENDMDL
MODEL 10
REMARK VINA RESULT:      -5.6     10.942     14.034
REMARK  4 active torsions:
REMARK  status: ('A' for Active; 'I' for Inactive)
REMARK    1  A    between atoms: C_1  and  O_2 
REMARK    2  A    between atoms: O_2  and  C_3 
REMARK    3  A    between atoms: C_3  and  C_5 
REMARK    4  A    between atoms: C_7  and  O_31 
ROOT
ATOM      1  C   LIG d   1      11.435   8.212  -0.650  0.00  0.00     0.086 C 
ATOM      2  H   LIG d   1      12.325   7.586  -0.603  0.00  0.00     0.044 H 
ATOM      3  C   LIG d   1      11.551   9.340   0.379  0.00  0.00     0.068 C 
ATOM      4  H   LIG d   1      12.434   9.940   0.163  0.00  0.00     0.060 H 
ATOM      5  C   LIG d   1      10.305  10.225   0.312  0.00  0.00    -0.026 C 
ATOM      6  C   LIG d   1      10.170  10.820  -1.091  0.00  0.00    -0.043 C 
ATOM      7  C   LIG d   1      10.051   9.685  -2.110  0.00  0.00     0.003 C 
ATOM      8  H   LIG d   1       9.179   9.076  -1.870  0.00  0.00     0.035 H 
ATOM      9  C   LIG d   1      11.310   8.817  -2.048  0.00  0.00    -0.013 C 
ATOM     10  H   LIG d   1      12.186   9.434  -2.255  0.00  0.00     0.032 H 
ATOM     11  C   LIG d   1      11.211   7.705  -3.095  0.00  0.00     0.000 C 
ATOM     12  C   LIG d   1      11.032   8.343  -4.475  0.00  0.00     0.021 C 
ATOM     13  H   LIG d   1      11.891   8.976  -4.699  0.00  0.00     0.092 H 
ATOM     14  C   LIG d   1      10.907   7.271  -5.527  0.00  0.00     0.069 A 
ATOM     15  C   LIG d   1       9.998   7.327  -6.528  0.00  0.00    -0.009 A 
ATOM     16  C   LIG d   1      10.178   6.142  -7.336  0.00  0.00     0.004 A 
ATOM     17  C   LIG d   1       9.539   5.669  -8.487  0.00  0.00    -0.052 A 
ATOM     18  C   LIG d   1       9.982   4.475  -8.997  0.00  0.00    -0.061 A 
ATOM     19  C   LIG d   1      11.014   3.760  -8.411  0.00  0.00    -0.060 A 
ATOM     20  C   LIG d   1      11.664   4.205  -7.272  0.00  0.00    -0.038 A 
ATOM     21  C   LIG d   1      11.236   5.415  -6.731  0.00  0.00     0.047 A 
ATOM     22  N   LIG d   1      11.650   6.127  -5.642  0.00  0.00    -0.353 N 
ATOM     23  H   LIG d   1      12.362   5.862  -5.039  0.00  0.00     0.166 HD
ATOM     24  C   LIG d   1       9.015   8.459  -6.697  0.00  0.00     0.015 C 
ATOM     25  C   LIG d   1       9.487   9.637  -5.834  0.00  0.00    -0.027 C 
ATOM     26  C   LIG d   1       9.897  10.260  -3.520  0.00  0.00    -0.028 C 
ATOM     27  H   LIG d   1      10.393  11.031   1.041  0.00  0.00     0.029 H 
ATOM     28  H   LIG d   1       9.423   9.627   0.540  0.00  0.00     0.029 H 
ATOM     29  H   LIG d   1      11.050  11.422  -1.318  0.00  0.00     0.027 H 
ATOM     30  H   LIG d   1       9.278  11.446  -1.138  0.00  0.00     0.027 H 
ATOM     31  H   LIG d   1      10.354   7.070  -2.872  0.00  0.00     0.033 H 
ATOM     32  H   LIG d   1      12.122   7.108  -3.085  0.00  0.00     0.033 H 
ATOM     33  H   LIG d   1       8.734   6.218  -8.952  0.00  0.00     0.062 H 
ATOM     34  H   LIG d   1       9.512   4.078  -9.885  0.00  0.00     0.062 H 
ATOM     35  H   LIG d   1      11.321   2.825  -8.855  0.00  0.00     0.062 H 
ATOM     36  H   LIG d   1      12.469   3.639  -6.824  0.00  0.00     0.064 H 
ATOM     37  H   LIG d   1       8.979   8.761  -7.744  0.00  0.00     0.037 H 
ATOM     38  H   LIG d   1       8.025   8.138  -6.373  0.00  0.00     0.037 H 
ATOM     39  H   LIG d   1      10.374  10.084  -6.282  0.00  0.00     0.082 H 
ATOM     40  H   LIG d   1       8.694  10.383  -5.774  0.00  0.00     0.082 H 
ATOM     41  H   LIG d   1       8.991  10.864  -3.570  0.00  0.00     0.082 H 
ATOM     42  H   LIG d   1      10.762  10.881  -3.756  0.00  0.00     0.082 H 
ATOM     43  N   LIG d   1       9.779   9.133  -4.470  0.00  0.00     0.242 N 
ATOM     44  H   LIG d   1       9.007   8.527  -4.171  0.00  0.00     0.204 HD
ENDROOT
BRANCH   1  45
ATOM     45  C   LIG d   1      10.214   7.379  -0.352  0.00  0.00     0.313 C 
ATOM     46  O   LIG d   1       9.138   7.704  -0.795  0.00  0.00    -0.250 OA
BRANCH  45  47
ATOM     47  O   LIG d   1      10.323   6.276   0.404  0.00  0.00    -0.468 OA
BRANCH  47  48
ATOM     48  C   LIG d   1      11.573   5.541   0.321  0.00  0.00     0.082 C 
ATOM     49  H   LIG d   1      11.457   4.570   0.802  0.00  0.00     0.066 H 
ATOM     50  H   LIG d   1      11.842   5.398  -0.725  0.00  0.00     0.066 H 
ATOM     51  H   LIG d   1      12.359   6.104   0.824  0.00  0.00     0.066 H 
ENDBRANCH  47  48
ENDBRANCH  45  47
ENDBRANCH   1  45
BRANCH   3  52
ATOM     52  O   LIG d   1      11.666   8.779   1.688  0.00  0.00    -0.391 OA
ATOM     53  H   LIG d   1      12.575   8.723   2.015  0.00  0.00     0.210 HD
ENDBRANCH   3  52
TORSDOF 4
ENDMDL
