MODEL 1
REMARK VINA RESULT:      -6.5      0.000      0.000
REMARK  7 active torsions:
REMARK  status: ('A' for Active; 'I' for Inactive)
REMARK    1  A    between atoms: C_4  and  O_20 
REMARK    2  A    between atoms: C_5  and  C_7 
REMARK    3  A    between atoms: N_8  and  C_9 
REMARK    4  A    between atoms: C_9  and  C_10 
REMARK    5  A    between atoms: C_10  and  N_11 
REMARK    6  A    between atoms: C_12  and  C_13 
REMARK    7  A    between atoms: C_18  and  O_19 
ROOT
ATOM      1  C   LIG d   1       5.898  -2.512  -7.073  0.00  0.00     0.162 C 
ATOM      2  H   LIG d   1       6.972  -2.334  -7.143  0.00  0.00     0.104 H 
ATOM      3  H   LIG d   1       5.720  -3.529  -6.728  0.00  0.00     0.104 H 
ENDROOT
BRANCH   1   4
ATOM      4  N   LIG d   1       5.308  -1.563  -6.125  0.00  0.00    -0.245 N 
ATOM      5  C   LIG d   1       5.821  -1.425  -4.945  0.00  0.00     0.175 C 
ATOM      6  H   LIG d   1       6.730  -1.948  -4.686  0.00  0.00     0.138 H 
ATOM      7  H   LIG d   1       4.534  -1.039  -6.382  0.00  0.00     0.445 HD
BRANCH   5   8
ATOM      8  C   LIG d   1       5.164  -0.554  -3.954  0.00  0.00     0.079 A 
ATOM      9  C   LIG d   1       3.826  -0.772  -3.600  0.00  0.00     0.130 A 
ATOM     10  C   LIG d   1       3.218   0.053  -2.667  0.00  0.00    -0.019 A 
ATOM     11  C   LIG d   1       3.930   1.086  -2.088  0.00  0.00    -0.058 A 
ATOM     12  H   LIG d   1       2.188  -0.112  -2.391  0.00  0.00     0.065 H 
ATOM     13  C   LIG d   1       5.254   1.304  -2.434  0.00  0.00    -0.061 A 
ATOM     14  H   LIG d   1       3.453   1.726  -1.361  0.00  0.00     0.062 H 
ATOM     15  C   LIG d   1       5.873   0.494  -3.361  0.00  0.00    -0.045 A 
ATOM     16  H   LIG d   1       5.801   2.116  -1.979  0.00  0.00     0.062 H 
ATOM     17  H   LIG d   1       6.905   0.668  -3.628  0.00  0.00     0.063 H 
BRANCH   9  18
ATOM     18  O   LIG d   1       3.127  -1.788  -4.169  0.00  0.00    -0.506 OA
ATOM     19  H   LIG d   1       2.190  -1.592  -4.305  0.00  0.00     0.292 HD
ENDBRANCH   9  18
ENDBRANCH   5   8
ENDBRANCH   1   4
BRANCH   1  20
ATOM     20  C   LIG d   1       5.259  -2.321  -8.450  0.00  0.00     0.098 C 
ATOM     21  H   LIG d   1       5.394  -1.289  -8.774  0.00  0.00     0.057 H 
ATOM     22  H   LIG d   1       5.734  -2.990  -9.167  0.00  0.00     0.057 H 
BRANCH  20  23
ATOM     23  N   LIG d   1       3.829  -2.625  -8.371  0.00  0.00    -0.285 NA
ATOM     24  C   LIG d   1       2.981  -1.936  -9.065  0.00  0.00     0.033 C 
ATOM     25  H   LIG d   1       2.170  -2.432  -9.576  0.00  0.00     0.083 H 
BRANCH  24  26
ATOM     26  C   LIG d   1       3.121  -0.471  -9.154  0.00  0.00     0.034 A 
ATOM     27  C   LIG d   1       2.899   0.328  -8.024  0.00  0.00     0.125 A 
ATOM     28  C   LIG d   1       3.038   1.704  -8.118  0.00  0.00    -0.019 A 
ATOM     29  C   LIG d   1       3.384   2.285  -9.322  0.00  0.00    -0.058 A 
ATOM     30  H   LIG d   1       2.872   2.324  -7.248  0.00  0.00     0.065 H 
ATOM     31  C   LIG d   1       3.600   1.499 -10.442  0.00  0.00    -0.061 A 
ATOM     32  H   LIG d   1       3.488   3.357  -9.392  0.00  0.00     0.062 H 
ATOM     33  C   LIG d   1       3.471   0.128 -10.365  0.00  0.00    -0.050 A 
ATOM     34  H   LIG d   1       3.871   1.961 -11.379  0.00  0.00     0.062 H 
ATOM     35  H   LIG d   1       3.641  -0.481 -11.241  0.00  0.00     0.062 H 
BRANCH  27  36
ATOM     36  O   LIG d   1       2.552  -0.243  -6.842  0.00  0.00    -0.506 OA
ATOM     37  H   LIG d   1       2.329   0.392  -6.149  0.00  0.00     0.292 HD
ENDBRANCH  27  36
ENDBRANCH  24  26
ENDBRANCH  20  23
ENDBRANCH   1  20
TORSDOF 7
ENDMDL
MODEL 2
REMARK VINA RESULT:      -6.2      4.006      6.248
REMARK  7 active torsions:
REMARK  status: ('A' for Active; 'I' for Inactive)
REMARK    1  A    between atoms: C_4  and  O_20 
REMARK    2  A    between atoms: C_5  and  C_7 
REMARK    3  A    between atoms: N_8  and  C_9 
REMARK    4  A    between atoms: C_9  and  C_10 
REMARK    5  A    between atoms: C_10  and  N_11 
REMARK    6  A    between atoms: C_12  and  C_13 
REMARK    7  A    between atoms: C_18  and  O_19 
ROOT
ATOM      1  C   LIG d   1       7.232   0.438  -6.652  0.00  0.00     0.162 C 
ATOM      2  H   LIG d   1       6.377   0.746  -7.254  0.00  0.00     0.104 H 
ATOM      3  H   LIG d   1       8.055   0.156  -7.307  0.00  0.00     0.104 H 
ENDROOT
BRANCH   1   4
ATOM      4  N   LIG d   1       7.650   1.550  -5.793  0.00  0.00    -0.245 N 
ATOM      5  C   LIG d   1       8.708   2.234  -6.090  0.00  0.00     0.175 C 
ATOM      6  H   LIG d   1       9.238   2.038  -7.011  0.00  0.00     0.138 H 
ATOM      7  H   LIG d   1       7.133   1.773  -5.004  0.00  0.00     0.445 HD
BRANCH   5   8
ATOM      8  C   LIG d   1       9.190   3.279  -5.170  0.00  0.00     0.079 A 
ATOM      9  C   LIG d   1       9.404   2.985  -3.817  0.00  0.00     0.130 A 
ATOM     10  C   LIG d   1       9.858   3.977  -2.961  0.00  0.00    -0.019 A 
ATOM     11  C   LIG d   1      10.099   5.249  -3.441  0.00  0.00    -0.058 A 
ATOM     12  H   LIG d   1      10.025   3.754  -1.918  0.00  0.00     0.065 H 
ATOM     13  C   LIG d   1       9.890   5.544  -4.779  0.00  0.00    -0.061 A 
ATOM     14  H   LIG d   1      10.453   6.018  -2.771  0.00  0.00     0.062 H 
ATOM     15  C   LIG d   1       9.438   4.571  -5.644  0.00  0.00    -0.045 A 
ATOM     16  H   LIG d   1      10.077   6.543  -5.144  0.00  0.00     0.062 H 
ATOM     17  H   LIG d   1       9.276   4.806  -6.685  0.00  0.00     0.063 H 
BRANCH   9  18
ATOM     18  O   LIG d   1       9.168   1.734  -3.346  0.00  0.00    -0.506 OA
ATOM     19  H   LIG d   1       8.582   1.707  -2.578  0.00  0.00     0.292 HD
ENDBRANCH   9  18
ENDBRANCH   5   8
ENDBRANCH   1   4
BRANCH   1  20
ATOM     20  C   LIG d   1       6.840  -0.758  -5.782  0.00  0.00     0.098 C 
ATOM     21  H   LIG d   1       5.772  -0.717  -5.568  0.00  0.00     0.057 H 
ATOM     22  H   LIG d   1       7.067  -1.683  -6.313  0.00  0.00     0.057 H 
BRANCH  20  23
ATOM     23  N   LIG d   1       7.592  -0.717  -4.526  0.00  0.00    -0.285 NA
ATOM     24  C   LIG d   1       7.038  -1.117  -3.427  0.00  0.00     0.033 C 
ATOM     25  H   LIG d   1       7.597  -1.724  -2.730  0.00  0.00     0.083 H 
BRANCH  24  26
ATOM     26  C   LIG d   1       5.645  -0.741  -3.126  0.00  0.00     0.034 A 
ATOM     27  C   LIG d   1       5.294   0.608  -2.985  0.00  0.00     0.125 A 
ATOM     28  C   LIG d   1       3.980   0.951  -2.706  0.00  0.00    -0.019 A 
ATOM     29  C   LIG d   1       3.024  -0.035  -2.557  0.00  0.00    -0.058 A 
ATOM     30  H   LIG d   1       3.704   1.990  -2.601  0.00  0.00     0.065 H 
ATOM     31  C   LIG d   1       3.368  -1.370  -2.690  0.00  0.00    -0.061 A 
ATOM     32  H   LIG d   1       2.003   0.236  -2.336  0.00  0.00     0.062 H 
ATOM     33  C   LIG d   1       4.669  -1.728  -2.973  0.00  0.00    -0.050 A 
ATOM     34  H   LIG d   1       2.614  -2.134  -2.574  0.00  0.00     0.062 H 
ATOM     35  H   LIG d   1       4.933  -2.770  -3.077  0.00  0.00     0.062 H 
BRANCH  27  36
ATOM     36  O   LIG d   1       6.235   1.576  -3.125  0.00  0.00    -0.506 OA
ATOM     37  H   LIG d   1       7.142   1.241  -3.166  0.00  0.00     0.292 HD
ENDBRANCH  27  36
ENDBRANCH  24  26
ENDBRANCH  20  23
ENDBRANCH   1  20
TORSDOF 7
ENDMDL
MODEL 3
REMARK VINA RESULT:      -6.1      2.429      3.037
REMARK  7 active torsions:
REMARK  status: ('A' for Active; 'I' for Inactive)
REMARK    1  A    between atoms: C_4  and  O_20 
REMARK    2  A    between atoms: C_5  and  C_7 
REMARK    3  A    between atoms: N_8  and  C_9 
REMARK    4  A    between atoms: C_9  and  C_10 
REMARK    5  A    between atoms: C_10  and  N_11 
REMARK    6  A    between atoms: C_12  and  C_13 
REMARK    7  A    between atoms: C_18  and  O_19 
ROOT
ATOM      1  C   LIG d   1       8.185   1.199  -6.007  0.00  0.00     0.162 C 
ATOM      2  H   LIG d   1       8.654   2.029  -5.478  0.00  0.00     0.104 H 
ATOM      3  H   LIG d   1       8.900   0.385  -6.112  0.00  0.00     0.104 H 
ENDROOT
BRANCH   1   4
ATOM      4  N   LIG d   1       7.021   0.734  -5.248  0.00  0.00    -0.245 N 
ATOM      5  C   LIG d   1       7.172  -0.139  -4.304  0.00  0.00     0.175 C 
ATOM      6  H   LIG d   1       8.162  -0.463  -4.021  0.00  0.00     0.138 H 
ATOM      7  H   LIG d   1       6.139   1.079  -5.453  0.00  0.00     0.445 HD
BRANCH   5   8
ATOM      8  C   LIG d   1       5.991  -0.689  -3.615  0.00  0.00     0.079 A 
ATOM      9  C   LIG d   1       5.282   0.094  -2.694  0.00  0.00     0.130 A 
ATOM     10  C   LIG d   1       4.172  -0.434  -2.052  0.00  0.00    -0.019 A 
ATOM     11  C   LIG d   1       3.768  -1.727  -2.320  0.00  0.00    -0.058 A 
ATOM     12  H   LIG d   1       3.623   0.167  -1.343  0.00  0.00     0.065 H 
ATOM     13  C   LIG d   1       4.466  -2.505  -3.230  0.00  0.00    -0.061 A 
ATOM     14  H   LIG d   1       2.903  -2.134  -1.818  0.00  0.00     0.062 H 
ATOM     15  C   LIG d   1       5.571  -1.997  -3.876  0.00  0.00    -0.045 A 
ATOM     16  H   LIG d   1       4.144  -3.516  -3.429  0.00  0.00     0.062 H 
ATOM     17  H   LIG d   1       6.112  -2.606  -4.584  0.00  0.00     0.063 H 
BRANCH   9  18
ATOM     18  O   LIG d   1       5.680   1.366  -2.433  0.00  0.00    -0.506 OA
ATOM     19  H   LIG d   1       6.542   1.593  -2.808  0.00  0.00     0.292 HD
ENDBRANCH   9  18
ENDBRANCH   5   8
ENDBRANCH   1   4
BRANCH   1  20
ATOM     20  C   LIG d   1       7.736   1.666  -7.393  0.00  0.00     0.098 C 
ATOM     21  H   LIG d   1       6.764   2.151  -7.316  0.00  0.00     0.057 H 
ATOM     22  H   LIG d   1       8.463   2.375  -7.790  0.00  0.00     0.057 H 
BRANCH  20  23
ATOM     23  N   LIG d   1       7.638   0.512  -8.289  0.00  0.00    -0.285 NA
ATOM     24  C   LIG d   1       6.726   0.482  -9.207  0.00  0.00     0.033 C 
ATOM     25  H   LIG d   1       6.969   0.131 -10.199  0.00  0.00     0.083 H 
BRANCH  24  26
ATOM     26  C   LIG d   1       5.355   0.924  -8.897  0.00  0.00     0.034 A 
ATOM     27  C   LIG d   1       4.600   0.251  -7.927  0.00  0.00     0.125 A 
ATOM     28  C   LIG d   1       3.312   0.679  -7.640  0.00  0.00    -0.019 A 
ATOM     29  C   LIG d   1       2.774   1.757  -8.315  0.00  0.00    -0.058 A 
ATOM     30  H   LIG d   1       2.728   0.167  -6.889  0.00  0.00     0.065 H 
ATOM     31  C   LIG d   1       3.515   2.421  -9.279  0.00  0.00    -0.061 A 
ATOM     32  H   LIG d   1       1.770   2.084  -8.092  0.00  0.00     0.062 H 
ATOM     33  C   LIG d   1       4.798   2.012  -9.573  0.00  0.00    -0.050 A 
ATOM     34  H   LIG d   1       3.087   3.263  -9.802  0.00  0.00     0.062 H 
ATOM     35  H   LIG d   1       5.373   2.534 -10.324  0.00  0.00     0.062 H 
BRANCH  27  36
ATOM     36  O   LIG d   1       5.127  -0.811  -7.268  0.00  0.00    -0.506 OA
ATOM     37  H   LIG d   1       4.879  -1.668  -7.640  0.00  0.00     0.292 HD
ENDBRANCH  27  36
ENDBRANCH  24  26
ENDBRANCH  20  23
ENDBRANCH   1  20
TORSDOF 7
ENDMDL
MODEL 4
REMARK VINA RESULT:      -6.0      1.737      6.123
REMARK  7 active torsions:
REMARK  status: ('A' for Active; 'I' for Inactive)
REMARK    1  A    between atoms: C_4  and  O_20 
REMARK    2  A    between atoms: C_5  and  C_7 
REMARK    3  A    between atoms: N_8  and  C_9 
REMARK    4  A    between atoms: C_9  and  C_10 
REMARK    5  A    between atoms: C_10  and  N_11 
REMARK    6  A    between atoms: C_12  and  C_13 
REMARK    7  A    between atoms: C_18  and  O_19 
ROOT
ATOM      1  C   LIG d   1       4.986  -3.546  -5.963  0.00  0.00     0.162 C 
ATOM      2  H   LIG d   1       4.677  -4.509  -5.556  0.00  0.00     0.104 H 
ATOM      3  H   LIG d   1       5.956  -3.652  -6.447  0.00  0.00     0.104 H 
ENDROOT
BRANCH   1   4
ATOM      4  N   LIG d   1       3.997  -3.090  -6.943  0.00  0.00    -0.245 N 
ATOM      5  C   LIG d   1       4.388  -2.527  -8.042  0.00  0.00     0.175 C 
ATOM      6  H   LIG d   1       5.442  -2.465  -8.273  0.00  0.00     0.138 H 
ATOM      7  H   LIG d   1       3.052  -3.211  -6.770  0.00  0.00     0.445 HD
BRANCH   5   8
ATOM      8  C   LIG d   1       3.395  -1.970  -8.977  0.00  0.00     0.079 A 
ATOM      9  C   LIG d   1       2.577  -0.903  -8.585  0.00  0.00     0.130 A 
ATOM     10  C   LIG d   1       1.646  -0.386  -9.473  0.00  0.00    -0.019 A 
ATOM     11  C   LIG d   1       1.526  -0.923 -10.740  0.00  0.00    -0.058 A 
ATOM     12  H   LIG d   1       1.015   0.437  -9.175  0.00  0.00     0.065 H 
ATOM     13  C   LIG d   1       2.334  -1.979 -11.133  0.00  0.00    -0.061 A 
ATOM     14  H   LIG d   1       0.800  -0.518 -11.429  0.00  0.00     0.062 H 
ATOM     15  C   LIG d   1       3.264  -2.505 -10.262  0.00  0.00    -0.045 A 
ATOM     16  H   LIG d   1       2.230  -2.394 -12.124  0.00  0.00     0.062 H 
ATOM     17  H   LIG d   1       3.890  -3.327 -10.572  0.00  0.00     0.063 H 
BRANCH   9  18
ATOM     18  O   LIG d   1       2.696  -0.375  -7.339  0.00  0.00    -0.506 OA
ATOM     19  H   LIG d   1       3.451   0.221  -7.235  0.00  0.00     0.292 HD
ENDBRANCH   9  18
ENDBRANCH   5   8
ENDBRANCH   1   4
BRANCH   1  20
ATOM     20  C   LIG d   1       5.090  -2.523  -4.831  0.00  0.00     0.098 C 
ATOM     21  H   LIG d   1       6.137  -2.271  -4.663  0.00  0.00     0.057 H 
ATOM     22  H   LIG d   1       4.541  -1.621  -5.104  0.00  0.00     0.057 H 
BRANCH  20  23
ATOM     23  N   LIG d   1       4.522  -3.090  -3.606  0.00  0.00    -0.285 NA
ATOM     24  C   LIG d   1       3.604  -2.446  -2.960  0.00  0.00     0.033 C 
ATOM     25  H   LIG d   1       2.750  -2.974  -2.564  0.00  0.00     0.083 H 
BRANCH  24  26
ATOM     26  C   LIG d   1       3.727  -0.990  -2.763  0.00  0.00     0.034 A 
ATOM     27  C   LIG d   1       2.990  -0.106  -3.564  0.00  0.00     0.125 A 
ATOM     28  C   LIG d   1       3.109   1.261  -3.366  0.00  0.00    -0.019 A 
ATOM     29  C   LIG d   1       3.958   1.749  -2.392  0.00  0.00    -0.058 A 
ATOM     30  H   LIG d   1       2.540   1.946  -3.978  0.00  0.00     0.065 H 
ATOM     31  C   LIG d   1       4.691   0.879  -1.602  0.00  0.00    -0.061 A 
ATOM     32  H   LIG d   1       4.050   2.814  -2.244  0.00  0.00     0.062 H 
ATOM     33  C   LIG d   1       4.581  -0.484  -1.781  0.00  0.00    -0.050 A 
ATOM     34  H   LIG d   1       5.351   1.269  -0.842  0.00  0.00     0.062 H 
ATOM     35  H   LIG d   1       5.153  -1.158  -1.162  0.00  0.00     0.062 H 
BRANCH  27  36
ATOM     36  O   LIG d   1       2.162  -0.586  -4.525  0.00  0.00    -0.506 OA
ATOM     37  H   LIG d   1       2.009  -1.540  -4.474  0.00  0.00     0.292 HD
ENDBRANCH  27  36
ENDBRANCH  24  26
ENDBRANCH  20  23
ENDBRANCH   1  20
TORSDOF 7
ENDMDL
MODEL 5
REMARK VINA RESULT:      -6.0      1.792      2.193
REMARK  7 active torsions:
REMARK  status: ('A' for Active; 'I' for Inactive)
REMARK    1  A    between atoms: C_4  and  O_20 
REMARK    2  A    between atoms: C_5  and  C_7 
REMARK    3  A    between atoms: N_8  and  C_9 
REMARK    4  A    between atoms: C_9  and  C_10 
REMARK    5  A    between atoms: C_10  and  N_11 
REMARK    6  A    between atoms: C_12  and  C_13 
REMARK    7  A    between atoms: C_18  and  O_19 
ROOT
ATOM      1  C   LIG d   1       4.585  -3.518  -7.979  0.00  0.00     0.162 C 
ATOM      2  H   LIG d   1       5.671  -3.543  -7.885  0.00  0.00     0.104 H 
ATOM      3  H   LIG d   1       4.204  -4.535  -8.060  0.00  0.00     0.104 H 
ENDROOT
BRANCH   1   4
ATOM      4  N   LIG d   1       4.008  -2.871  -6.798  0.00  0.00    -0.245 N 
ATOM      5  C   LIG d   1       4.608  -1.860  -6.257  0.00  0.00     0.175 C 
ATOM      6  H   LIG d   1       5.489  -1.442  -6.721  0.00  0.00     0.138 H 
ATOM      7  H   LIG d   1       3.177  -3.200  -6.422  0.00  0.00     0.445 HD
BRANCH   5   8
ATOM      8  C   LIG d   1       4.088  -1.278  -5.006  0.00  0.00     0.079 A 
ATOM      9  C   LIG d   1       4.035  -2.050  -3.838  0.00  0.00     0.130 A 
ATOM     10  C   LIG d   1       3.544  -1.493  -2.667  0.00  0.00    -0.019 A 
ATOM     11  C   LIG d   1       3.109  -0.182  -2.653  0.00  0.00    -0.058 A 
ATOM     12  H   LIG d   1       3.503  -2.084  -1.765  0.00  0.00     0.065 H 
ATOM     13  C   LIG d   1       3.160   0.585  -3.807  0.00  0.00    -0.061 A 
ATOM     14  H   LIG d   1       2.728   0.248  -1.740  0.00  0.00     0.062 H 
ATOM     15  C   LIG d   1       3.644   0.047  -4.979  0.00  0.00    -0.045 A 
ATOM     16  H   LIG d   1       2.814   1.608  -3.787  0.00  0.00     0.062 H 
ATOM     17  H   LIG d   1       3.681   0.648  -5.875  0.00  0.00     0.063 H 
BRANCH   9  18
ATOM     18  O   LIG d   1       4.464  -3.338  -3.852  0.00  0.00    -0.506 OA
ATOM     19  H   LIG d   1       4.452  -3.766  -2.984  0.00  0.00     0.292 HD
ENDBRANCH   9  18
ENDBRANCH   5   8
ENDBRANCH   1   4
BRANCH   1  20
ATOM     20  C   LIG d   1       4.200  -2.728  -9.232  0.00  0.00     0.098 C 
ATOM     21  H   LIG d   1       4.617  -1.723  -9.170  0.00  0.00     0.057 H 
ATOM     22  H   LIG d   1       4.596  -3.230 -10.114  0.00  0.00     0.057 H 
BRANCH  20  23
ATOM     23  N   LIG d   1       2.741  -2.647  -9.329  0.00  0.00    -0.285 NA
ATOM     24  C   LIG d   1       2.187  -1.649  -9.939  0.00  0.00     0.033 C 
ATOM     25  H   LIG d   1       1.352  -1.817 -10.601  0.00  0.00     0.083 H 
BRANCH  24  26
ATOM     26  C   LIG d   1       2.697  -0.282  -9.727  0.00  0.00     0.034 A 
ATOM     27  C   LIG d   1       3.376   0.383 -10.757  0.00  0.00     0.125 A 
ATOM     28  C   LIG d   1       3.847   1.671 -10.549  0.00  0.00    -0.019 A 
ATOM     29  C   LIG d   1       3.657   2.289  -9.329  0.00  0.00    -0.058 A 
ATOM     30  H   LIG d   1       4.367   2.190 -11.341  0.00  0.00     0.065 H 
ATOM     31  C   LIG d   1       2.991   1.633  -8.307  0.00  0.00    -0.061 A 
ATOM     32  H   LIG d   1       4.028   3.290  -9.170  0.00  0.00     0.062 H 
ATOM     33  C   LIG d   1       2.511   0.354  -8.499  0.00  0.00    -0.050 A 
ATOM     34  H   LIG d   1       2.845   2.124  -7.357  0.00  0.00     0.062 H 
ATOM     35  H   LIG d   1       1.991  -0.153  -7.700  0.00  0.00     0.062 H 
BRANCH  27  36
ATOM     36  O   LIG d   1       3.569  -0.227 -11.953  0.00  0.00    -0.506 OA
ATOM     37  H   LIG d   1       3.597   0.380 -12.705  0.00  0.00     0.292 HD
ENDBRANCH  27  36
ENDBRANCH  24  26
ENDBRANCH  20  23
ENDBRANCH   1  20
TORSDOF 7
ENDMDL
MODEL 6
REMARK VINA RESULT:      -6.0      1.445      5.446
REMARK  7 active torsions:
REMARK  status: ('A' for Active; 'I' for Inactive)
REMARK    1  A    between atoms: C_4  and  O_20 
REMARK    2  A    between atoms: C_5  and  C_7 
REMARK    3  A    between atoms: N_8  and  C_9 
REMARK    4  A    between atoms: C_9  and  C_10 
REMARK    5  A    between atoms: C_10  and  N_11 
REMARK    6  A    between atoms: C_12  and  C_13 
REMARK    7  A    between atoms: C_18  and  O_19 
ROOT
ATOM      1  C   LIG d   1       6.609  -2.548  -6.438  0.00  0.00     0.162 C 
ATOM      2  H   LIG d   1       6.202  -3.559  -6.464  0.00  0.00     0.104 H 
ATOM      3  H   LIG d   1       7.668  -2.577  -6.693  0.00  0.00     0.104 H 
ENDROOT
BRANCH   1   4
ATOM      4  N   LIG d   1       5.895  -1.710  -7.404  0.00  0.00    -0.245 N 
ATOM      5  C   LIG d   1       5.673  -0.463  -7.137  0.00  0.00     0.175 C 
ATOM      6  H   LIG d   1       6.082  -0.020  -6.241  0.00  0.00     0.138 H 
ATOM      7  H   LIG d   1       5.591  -2.088  -8.243  0.00  0.00     0.445 HD
BRANCH   5   8
ATOM      8  C   LIG d   1       4.861   0.353  -8.057  0.00  0.00     0.079 A 
ATOM      9  C   LIG d   1       3.566  -0.053  -8.406  0.00  0.00     0.130 A 
ATOM     10  C   LIG d   1       2.811   0.722  -9.273  0.00  0.00    -0.019 A 
ATOM     11  C   LIG d   1       3.334   1.892  -9.789  0.00  0.00    -0.058 A 
ATOM     12  H   LIG d   1       1.813   0.412  -9.543  0.00  0.00     0.065 H 
ATOM     13  C   LIG d   1       4.614   2.298  -9.446  0.00  0.00    -0.061 A 
ATOM     14  H   LIG d   1       2.743   2.493 -10.463  0.00  0.00     0.062 H 
ATOM     15  C   LIG d   1       5.378   1.539  -8.587  0.00  0.00    -0.045 A 
ATOM     16  H   LIG d   1       5.015   3.212  -9.859  0.00  0.00     0.062 H 
ATOM     17  H   LIG d   1       6.375   1.860  -8.324  0.00  0.00     0.063 H 
BRANCH   9  18
ATOM     18  O   LIG d   1       3.053  -1.203  -7.897  0.00  0.00    -0.506 OA
ATOM     19  H   LIG d   1       3.606  -1.613  -7.218  0.00  0.00     0.292 HD
ENDBRANCH   9  18
ENDBRANCH   5   8
ENDBRANCH   1   4
BRANCH   1  20
ATOM     20  C   LIG d   1       6.438  -1.966  -5.034  0.00  0.00     0.098 C 
ATOM     21  H   LIG d   1       7.418  -1.810  -4.583  0.00  0.00     0.057 H 
ATOM     22  H   LIG d   1       5.913  -1.012  -5.097  0.00  0.00     0.057 H 
BRANCH  20  23
ATOM     23  N   LIG d   1       5.664  -2.897  -4.209  0.00  0.00    -0.285 NA
ATOM     24  C   LIG d   1       4.486  -2.563  -3.790  0.00  0.00     0.033 C 
ATOM     25  H   LIG d   1       3.680  -3.281  -3.816  0.00  0.00     0.083 H 
BRANCH  24  26
ATOM     26  C   LIG d   1       4.246  -1.204  -3.273  0.00  0.00     0.034 A 
ATOM     27  C   LIG d   1       3.433  -0.313  -3.986  0.00  0.00     0.125 A 
ATOM     28  C   LIG d   1       3.209   0.962  -3.488  0.00  0.00    -0.019 A 
ATOM     29  C   LIG d   1       3.795   1.354  -2.301  0.00  0.00    -0.058 A 
ATOM     30  H   LIG d   1       2.579   1.651  -4.032  0.00  0.00     0.065 H 
ATOM     31  C   LIG d   1       4.604   0.478  -1.596  0.00  0.00    -0.061 A 
ATOM     32  H   LIG d   1       3.622   2.349  -1.919  0.00  0.00     0.062 H 
ATOM     33  C   LIG d   1       4.833  -0.795  -2.074  0.00  0.00    -0.050 A 
ATOM     34  H   LIG d   1       5.058   0.793  -0.668  0.00  0.00     0.062 H 
ATOM     35  H   LIG d   1       5.463  -1.475  -1.520  0.00  0.00     0.062 H 
BRANCH  27  36
ATOM     36  O   LIG d   1       2.863  -0.697  -5.156  0.00  0.00    -0.506 OA
ATOM     37  H   LIG d   1       1.913  -0.865  -5.095  0.00  0.00     0.292 HD
ENDBRANCH  27  36
ENDBRANCH  24  26
ENDBRANCH  20  23
ENDBRANCH   1  20
TORSDOF 7
ENDMDL
MODEL 7
REMARK VINA RESULT:      -5.8      2.150      3.728
REMARK  7 active torsions:
REMARK  status: ('A' for Active; 'I' for Inactive)
REMARK    1  A    between atoms: C_4  and  O_20 
REMARK    2  A    between atoms: C_5  and  C_7 
REMARK    3  A    between atoms: N_8  and  C_9 
REMARK    4  A    between atoms: C_9  and  C_10 
REMARK    5  A    between atoms: C_10  and  N_11 
REMARK    6  A    between atoms: C_12  and  C_13 
REMARK    7  A    between atoms: C_18  and  O_19 
ROOT
ATOM      1  C   LIG d   1       2.812   0.601  -7.695  0.00  0.00     0.162 C 
ATOM      2  H   LIG d   1       2.043  -0.133  -7.937  0.00  0.00     0.104 H 
ATOM      3  H   LIG d   1       2.364   1.593  -7.643  0.00  0.00     0.104 H 
ENDROOT
BRANCH   1   4
ATOM      4  N   LIG d   1       3.417   0.268  -6.403  0.00  0.00    -0.245 N 
ATOM      5  C   LIG d   1       2.707   0.332  -5.322  0.00  0.00     0.175 C 
ATOM      6  H   LIG d   1       1.651   0.553  -5.381  0.00  0.00     0.138 H 
ATOM      7  H   LIG d   1       4.347  -0.000  -6.357  0.00  0.00     0.445 HD
BRANCH   5   8
ATOM      8  C   LIG d   1       3.340   0.105  -4.011  0.00  0.00     0.079 A 
ATOM      9  C   LIG d   1       3.723  -1.187  -3.627  0.00  0.00     0.130 A 
ATOM     10  C   LIG d   1       4.319  -1.390  -2.392  0.00  0.00    -0.019 A 
ATOM     11  C   LIG d   1       4.534  -0.321  -1.543  0.00  0.00    -0.058 A 
ATOM     12  H   LIG d   1       4.616  -2.383  -2.093  0.00  0.00     0.065 H 
ATOM     13  C   LIG d   1       4.158   0.958  -1.919  0.00  0.00    -0.061 A 
ATOM     14  H   LIG d   1       4.998  -0.483  -0.582  0.00  0.00     0.062 H 
ATOM     15  C   LIG d   1       3.564   1.177  -3.143  0.00  0.00    -0.045 A 
ATOM     16  H   LIG d   1       4.326   1.787  -1.248  0.00  0.00     0.062 H 
ATOM     17  H   LIG d   1       3.272   2.176  -3.432  0.00  0.00     0.063 H 
BRANCH   9  18
ATOM     18  O   LIG d   1       3.512  -2.237  -4.462  0.00  0.00    -0.506 OA
ATOM     19  H   LIG d   1       2.580  -2.404  -4.656  0.00  0.00     0.292 HD
ENDBRANCH   9  18
ENDBRANCH   5   8
ENDBRANCH   1   4
BRANCH   1  20
ATOM     20  C   LIG d   1       3.890   0.586  -8.781  0.00  0.00     0.098 C 
ATOM     21  H   LIG d   1       4.342  -0.404  -8.831  0.00  0.00     0.057 H 
ATOM     22  H   LIG d   1       3.439   0.827  -9.744  0.00  0.00     0.057 H 
BRANCH  20  23
ATOM     23  N   LIG d   1       4.919   1.578  -8.461  0.00  0.00    -0.285 NA
ATOM     24  C   LIG d   1       6.171   1.280  -8.600  0.00  0.00     0.033 C 
ATOM     25  H   LIG d   1       6.852   1.995  -9.037  0.00  0.00     0.083 H 
BRANCH  24  26
ATOM     26  C   LIG d   1       6.667  -0.036  -8.160  0.00  0.00     0.034 A 
ATOM     27  C   LIG d   1       6.739  -0.340  -6.794  0.00  0.00     0.125 A 
ATOM     28  C   LIG d   1       7.203  -1.583  -6.390  0.00  0.00    -0.019 A 
ATOM     29  C   LIG d   1       7.602  -2.512  -7.331  0.00  0.00    -0.058 A 
ATOM     30  H   LIG d   1       7.256  -1.824  -5.338  0.00  0.00     0.065 H 
ATOM     31  C   LIG d   1       7.537  -2.214  -8.682  0.00  0.00    -0.061 A 
ATOM     32  H   LIG d   1       7.966  -3.478  -7.012  0.00  0.00     0.062 H 
ATOM     33  C   LIG d   1       7.073  -0.985  -9.100  0.00  0.00    -0.050 A 
ATOM     34  H   LIG d   1       7.850  -2.946  -9.410  0.00  0.00     0.062 H 
ATOM     35  H   LIG d   1       7.023  -0.756 -10.155  0.00  0.00     0.062 H 
BRANCH  27  36
ATOM     36  O   LIG d   1       6.353   0.575  -5.869  0.00  0.00    -0.506 OA
ATOM     37  H   LIG d   1       7.064   0.866  -5.282  0.00  0.00     0.292 HD
ENDBRANCH  27  36
ENDBRANCH  24  26
ENDBRANCH  20  23
ENDBRANCH   1  20
TORSDOF 7
ENDMDL
MODEL 8
REMARK VINA RESULT:      -5.7      1.893      6.033
REMARK  7 active torsions:
REMARK  status: ('A' for Active; 'I' for Inactive)
REMARK    1  A    between atoms: C_4  and  O_20 
REMARK    2  A    between atoms: C_5  and  C_7 
REMARK    3  A    between atoms: N_8  and  C_9 
REMARK    4  A    between atoms: C_9  and  C_10 
REMARK    5  A    between atoms: C_10  and  N_11 
REMARK    6  A    between atoms: C_12  and  C_13 
REMARK    7  A    between atoms: C_18  and  O_19 
ROOT
ATOM      1  C   LIG d   1       6.994  -0.291  -6.381  0.00  0.00     0.162 C 
ATOM      2  H   LIG d   1       7.939  -0.326  -6.925  0.00  0.00     0.104 H 
ATOM      3  H   LIG d   1       6.993   0.568  -5.711  0.00  0.00     0.104 H 
ENDROOT
BRANCH   1   4
ATOM      4  N   LIG d   1       5.888  -0.170  -7.334  0.00  0.00    -0.245 N 
ATOM      5  C   LIG d   1       4.752  -0.737  -7.080  0.00  0.00     0.175 C 
ATOM      6  H   LIG d   1       4.593  -1.229  -6.132  0.00  0.00     0.138 H 
ATOM      7  H   LIG d   1       6.006   0.334  -8.153  0.00  0.00     0.445 HD
BRANCH   5   8
ATOM      8  C   LIG d   1       3.675  -0.709  -8.085  0.00  0.00     0.079 A 
ATOM      9  C   LIG d   1       3.080   0.506  -8.449  0.00  0.00     0.130 A 
ATOM     10  C   LIG d   1       2.068   0.520  -9.396  0.00  0.00    -0.019 A 
ATOM     11  C   LIG d   1       1.648  -0.660  -9.979  0.00  0.00    -0.058 A 
ATOM     12  H   LIG d   1       1.607   1.454  -9.680  0.00  0.00     0.065 H 
ATOM     13  C   LIG d   1       2.234  -1.864  -9.622  0.00  0.00    -0.061 A 
ATOM     14  H   LIG d   1       0.859  -0.645 -10.716  0.00  0.00     0.062 H 
ATOM     15  C   LIG d   1       3.241  -1.896  -8.682  0.00  0.00    -0.045 A 
ATOM     16  H   LIG d   1       1.896  -2.782 -10.080  0.00  0.00     0.062 H 
ATOM     17  H   LIG d   1       3.694  -2.837  -8.407  0.00  0.00     0.063 H 
BRANCH   9  18
ATOM     18  O   LIG d   1       3.494   1.666  -7.877  0.00  0.00    -0.506 OA
ATOM     19  H   LIG d   1       4.362   1.608  -7.455  0.00  0.00     0.292 HD
ENDBRANCH   9  18
ENDBRANCH   5   8
ENDBRANCH   1   4
BRANCH   1  20
ATOM     20  C   LIG d   1       6.827  -1.574  -5.565  0.00  0.00     0.098 C 
ATOM     21  H   LIG d   1       5.769  -1.745  -5.370  0.00  0.00     0.057 H 
ATOM     22  H   LIG d   1       7.233  -2.416  -6.126  0.00  0.00     0.057 H 
BRANCH  20  23
ATOM     23  N   LIG d   1       7.544  -1.442  -4.295  0.00  0.00    -0.285 NA
ATOM     24  C   LIG d   1       6.915  -1.614  -3.177  0.00  0.00     0.033 C 
ATOM     25  H   LIG d   1       7.376  -2.176  -2.378  0.00  0.00     0.083 H 
BRANCH  24  26
ATOM     26  C   LIG d   1       5.570  -1.040  -2.992  0.00  0.00     0.034 A 
ATOM     27  C   LIG d   1       5.402   0.349  -2.918  0.00  0.00     0.125 A 
ATOM     28  C   LIG d   1       4.131   0.879  -2.750  0.00  0.00    -0.019 A 
ATOM     29  C   LIG d   1       3.040   0.040  -2.644  0.00  0.00    -0.058 A 
ATOM     30  H   LIG d   1       3.996   1.950  -2.697  0.00  0.00     0.065 H 
ATOM     31  C   LIG d   1       3.203  -1.334  -2.711  0.00  0.00    -0.061 A 
ATOM     32  H   LIG d   1       2.053   0.456  -2.509  0.00  0.00     0.062 H 
ATOM     33  C   LIG d   1       4.458  -1.877  -2.884  0.00  0.00    -0.050 A 
ATOM     34  H   LIG d   1       2.344  -1.983  -2.628  0.00  0.00     0.062 H 
ATOM     35  H   LIG d   1       4.581  -2.949  -2.937  0.00  0.00     0.062 H 
BRANCH  27  36
ATOM     36  O   LIG d   1       6.476   1.173  -3.016  0.00  0.00    -0.506 OA
ATOM     37  H   LIG d   1       6.261   2.066  -3.318  0.00  0.00     0.292 HD
ENDBRANCH  27  36
ENDBRANCH  24  26
ENDBRANCH  20  23
ENDBRANCH   1  20
TORSDOF 7
ENDMDL
MODEL 9
REMARK VINA RESULT:      -5.7      2.396      3.197
REMARK  7 active torsions:
REMARK  status: ('A' for Active; 'I' for Inactive)
REMARK    1  A    between atoms: C_4  and  O_20 
REMARK    2  A    between atoms: C_5  and  C_7 
REMARK    3  A    between atoms: N_8  and  C_9 
REMARK    4  A    between atoms: C_9  and  C_10 
REMARK    5  A    between atoms: C_10  and  N_11 
REMARK    6  A    between atoms: C_12  and  C_13 
REMARK    7  A    between atoms: C_18  and  O_19 
ROOT
ATOM      1  C   LIG d   1       7.068   0.826  -7.119  0.00  0.00     0.162 C 
ATOM      2  H   LIG d   1       7.209   1.904  -7.026  0.00  0.00     0.104 H 
ATOM      3  H   LIG d   1       8.004   0.364  -7.430  0.00  0.00     0.104 H 
ENDROOT
BRANCH   1   4
ATOM      4  N   LIG d   1       6.657   0.275  -5.825  0.00  0.00    -0.245 N 
ATOM      5  C   LIG d   1       5.467  -0.215  -5.681  0.00  0.00     0.175 C 
ATOM      6  H   LIG d   1       4.807  -0.291  -6.532  0.00  0.00     0.138 H 
ATOM      7  H   LIG d   1       7.274   0.276  -5.079  0.00  0.00     0.445 HD
BRANCH   5   8
ATOM      8  C   LIG d   1       5.014  -0.669  -4.355  0.00  0.00     0.079 A 
ATOM      9  C   LIG d   1       5.013   0.215  -3.268  0.00  0.00     0.130 A 
ATOM     10  C   LIG d   1       4.584  -0.223  -2.025  0.00  0.00    -0.019 A 
ATOM     11  C   LIG d   1       4.160  -1.527  -1.858  0.00  0.00    -0.058 A 
ATOM     12  H   LIG d   1       4.581   0.456  -1.186  0.00  0.00     0.065 H 
ATOM     13  C   LIG d   1       4.159  -2.405  -2.930  0.00  0.00    -0.061 A 
ATOM     14  H   LIG d   1       3.827  -1.864  -0.888  0.00  0.00     0.062 H 
ATOM     15  C   LIG d   1       4.582  -1.987  -4.173  0.00  0.00    -0.045 A 
ATOM     16  H   LIG d   1       3.829  -3.423  -2.789  0.00  0.00     0.062 H 
ATOM     17  H   LIG d   1       4.580  -2.674  -5.005  0.00  0.00     0.063 H 
BRANCH   9  18
ATOM     18  O   LIG d   1       5.429   1.497  -3.433  0.00  0.00    -0.506 OA
ATOM     19  H   LIG d   1       4.865   2.153  -3.000  0.00  0.00     0.292 HD
ENDBRANCH   9  18
ENDBRANCH   5   8
ENDBRANCH   1   4
BRANCH   1  20
ATOM     20  C   LIG d   1       5.987   0.541  -8.162  0.00  0.00     0.098 C 
ATOM     21  H   LIG d   1       6.389  -0.117  -8.932  0.00  0.00     0.057 H 
ATOM     22  H   LIG d   1       5.136   0.058  -7.681  0.00  0.00     0.057 H 
BRANCH  20  23
ATOM     23  N   LIG d   1       5.553   1.799  -8.774  0.00  0.00    -0.285 NA
ATOM     24  C   LIG d   1       4.295   2.017  -8.982  0.00  0.00     0.033 C 
ATOM     25  H   LIG d   1       3.871   2.986  -8.765  0.00  0.00     0.083 H 
BRANCH  24  26
ATOM     26  C   LIG d   1       3.441   0.943  -9.520  0.00  0.00     0.034 A 
ATOM     27  C   LIG d   1       3.620   0.492 -10.835  0.00  0.00     0.125 A 
ATOM     28  C   LIG d   1       2.814  -0.523 -11.329  0.00  0.00    -0.019 A 
ATOM     29  C   LIG d   1       1.833  -1.078 -10.531  0.00  0.00    -0.058 A 
ATOM     30  H   LIG d   1       2.951  -0.877 -12.340  0.00  0.00     0.065 H 
ATOM     31  C   LIG d   1       1.650  -0.632  -9.233  0.00  0.00    -0.061 A 
ATOM     32  H   LIG d   1       1.206  -1.865 -10.921  0.00  0.00     0.062 H 
ATOM     33  C   LIG d   1       2.445   0.373  -8.724  0.00  0.00    -0.050 A 
ATOM     34  H   LIG d   1       0.881  -1.072  -8.616  0.00  0.00     0.062 H 
ATOM     35  H   LIG d   1       2.300   0.717  -7.711  0.00  0.00     0.062 H 
BRANCH  27  36
ATOM     36  O   LIG d   1       4.580   1.043 -11.620  0.00  0.00    -0.506 OA
ATOM     37  H   LIG d   1       5.118   0.396 -12.096  0.00  0.00     0.292 HD
ENDBRANCH  27  36
ENDBRANCH  24  26
ENDBRANCH  20  23
ENDBRANCH   1  20
TORSDOF 7
ENDMDL
