MODEL 1
REMARK VINA RESULT:      -6.3      0.000      0.000
REMARK  8 active torsions:
REMARK  status: ('A' for Active; 'I' for Inactive)
REMARK    1  A    between atoms: C_1  and  C_2 
REMARK    2  A    between atoms: C_2  and  N_3 
REMARK    3  A    between atoms: N_6  and  C_9 
REMARK    4  A    between atoms: C_9  and  C_10 
REMARK    5  A    between atoms: C_11  and  O_30 
REMARK    6  A    between atoms: C_18  and  C_19 
REMARK    7  A    between atoms: C_24  and  O_25 
REMARK    8  A    between atoms: O_25  and  C_26 
ROOT
ATOM      1  C   LIG d   1       8.312   1.350  -7.722  0.00  0.00     0.051 A 
ATOM      2  C   LIG d   1       9.079   2.296  -8.384  0.00  0.00     0.125 A 
ATOM      3  C   LIG d   1       9.700   3.324  -7.679  0.00  0.00    -0.019 A 
ATOM      4  C   LIG d   1       9.558   3.409  -6.323  0.00  0.00    -0.044 A 
ATOM      5  C   LIG d   1       8.789   2.464  -5.644  0.00  0.00     0.068 A 
ATOM      6  C   LIG d   1       8.157   1.422  -6.344  0.00  0.00     0.147 A 
ATOM      7  O   LIG d   1       7.472   0.644  -5.480  0.00  0.00    -0.451 OA
ATOM      8  C   LIG d   1       7.594   1.079  -4.203  0.00  0.00     0.176 A 
ATOM      9  C   LIG d   1       7.030   0.513  -3.105  0.00  0.00    -0.005 C 
ATOM     10  C   LIG d   1       8.444   2.278  -4.222  0.00  0.00     0.232 A 
ATOM     11  O   LIG d   1       8.788   2.964  -3.276  0.00  0.00    -0.283 OA
ATOM     12  H   LIG d   1      10.295   4.055  -8.206  0.00  0.00     0.065 H 
ATOM     13  H   LIG d   1      10.040   4.207  -5.778  0.00  0.00     0.063 H 
ATOM     14  H   LIG d   1       7.244   0.919  -2.106  0.00  0.00     0.066 H 
ENDROOT
BRANCH   1  15
ATOM     15  C   LIG d   1       7.646   0.244  -8.498  0.00  0.00     0.031 C 
ATOM     16  H   LIG d   1       7.832  -0.718  -7.998  0.00  0.00     0.048 H 
ATOM     17  H   LIG d   1       8.058   0.212  -9.518  0.00  0.00     0.048 H 
BRANCH  15  18
ATOM     18  N   LIG d   1       6.200   0.491  -8.561  0.00  0.00    -0.295 N 
ATOM     19  C   LIG d   1       5.773   0.778  -9.938  0.00  0.00     0.012 C 
ATOM     20  C   LIG d   1       4.278   1.108  -9.949  0.00  0.00     0.012 C 
ATOM     21  H   LIG d   1       5.959  -0.101 -10.571  0.00  0.00     0.044 H 
ATOM     22  H   LIG d   1       6.340   1.636 -10.327  0.00  0.00     0.044 H 
ATOM     23  N   LIG d   1       3.525  -0.025  -9.392  0.00  0.00    -0.300 N 
ATOM     24  H   LIG d   1       3.950   1.295 -10.981  0.00  0.00     0.044 H 
ATOM     25  H   LIG d   1       4.096   2.005  -9.338  0.00  0.00     0.044 H 
ATOM     26  C   LIG d   1       3.952  -0.313  -8.016  0.00  0.00     0.012 C 
ATOM     27  C   LIG d   1       5.446  -0.642  -8.005  0.00  0.00     0.012 C 
ATOM     28  H   LIG d   1       3.765   0.568  -7.383  0.00  0.00     0.044 H 
ATOM     29  H   LIG d   1       3.384  -1.171  -7.627  0.00  0.00     0.044 H 
ATOM     30  H   LIG d   1       5.630  -1.539  -8.615  0.00  0.00     0.044 H 
ATOM     31  H   LIG d   1       5.775  -0.829  -6.972  0.00  0.00     0.044 H 
BRANCH  23  32
ATOM     32  C   LIG d   1       2.079   0.222  -9.455  0.00  0.00    -0.004 C 
ATOM     33  H   LIG d   1       1.893   1.191  -9.943  0.00  0.00     0.042 H 
ATOM     34  H   LIG d   1       1.666   0.241  -8.435  0.00  0.00     0.042 H 
BRANCH  32  35
ATOM     35  C   LIG d   1       1.406  -0.892 -10.258  0.00  0.00    -0.052 C 
ATOM     36  H   LIG d   1       0.744  -0.448 -11.017  0.00  0.00     0.024 H 
ATOM     37  H   LIG d   1       0.813  -1.525  -9.581  0.00  0.00     0.024 H 
ATOM     38  H   LIG d   1       2.175  -1.503 -10.754  0.00  0.00     0.024 H 
ENDBRANCH  32  35
ENDBRANCH  23  32
ENDBRANCH  15  18
ENDBRANCH   1  15
BRANCH   2  39
ATOM     39  O   LIG d   1       9.226   2.220  -9.732  0.00  0.00    -0.506 OA
ATOM     40  H   LIG d   1      10.078   2.716 -10.221  0.00  0.00     0.292 HD
ENDBRANCH   2  39
BRANCH   9  41
ATOM     41  C   LIG d   1       6.134  -0.640  -3.252  0.00  0.00     0.021 A 
ATOM     42  C   LIG d   1       4.911  -0.678  -2.563  0.00  0.00     0.127 A 
ATOM     43  C   LIG d   1       4.071  -1.770  -2.713  0.00  0.00    -0.018 A 
ATOM     44  C   LIG d   1       4.441  -2.821  -3.529  0.00  0.00    -0.044 A 
ATOM     45  H   LIG d   1       3.128  -1.801  -2.187  0.00  0.00     0.066 H 
ATOM     46  C   LIG d   1       5.650  -2.793  -4.208  0.00  0.00     0.019 A 
ATOM     47  H   LIG d   1       3.784  -3.672  -3.639  0.00  0.00     0.063 H 
ATOM     48  C   LIG d   1       6.497  -1.713  -4.076  0.00  0.00    -0.037 A 
ATOM     49 BR   LIG d   1       6.139  -4.242  -5.319  0.00  0.00    -0.050 Br
ATOM     50  H   LIG d   1       7.437  -1.695  -4.605  0.00  0.00     0.064 H 
BRANCH  42  51
ATOM     51  O   LIG d   1       4.551   0.354  -1.757  0.00  0.00    -0.494 OA
BRANCH  51  52
ATOM     52  C   LIG d   1       3.629   1.305  -2.295  0.00  0.00     0.079 C 
ATOM     53  H   LIG d   1       3.468   2.112  -1.565  0.00  0.00     0.066 H 
ATOM     54  H   LIG d   1       2.672   0.808  -2.509  0.00  0.00     0.066 H 
ATOM     55  H   LIG d   1       4.038   1.727  -3.225  0.00  0.00     0.066 H 
ENDBRANCH  51  52
ENDBRANCH  42  51
ENDBRANCH   9  41
TORSDOF 8
ENDMDL
MODEL 2
REMARK VINA RESULT:      -6.2      3.766      6.822
REMARK  8 active torsions:
REMARK  status: ('A' for Active; 'I' for Inactive)
REMARK    1  A    between atoms: C_1  and  C_2 
REMARK    2  A    between atoms: C_2  and  N_3 
REMARK    3  A    between atoms: N_6  and  C_9 
REMARK    4  A    between atoms: C_9  and  C_10 
REMARK    5  A    between atoms: C_11  and  O_30 
REMARK    6  A    between atoms: C_18  and  C_19 
REMARK    7  A    between atoms: C_24  and  O_25 
REMARK    8  A    between atoms: O_25  and  C_26 
ROOT
ATOM      1  C   LIG d   1       5.768  -2.138  -5.488  0.00  0.00     0.051 A 
ATOM      2  C   LIG d   1       6.149  -2.362  -4.175  0.00  0.00     0.125 A 
ATOM      3  C   LIG d   1       5.581  -1.626  -3.138  0.00  0.00    -0.019 A 
ATOM      4  C   LIG d   1       4.640  -0.674  -3.408  0.00  0.00    -0.044 A 
ATOM      5  C   LIG d   1       4.247  -0.437  -4.726  0.00  0.00     0.068 A 
ATOM      6  C   LIG d   1       4.813  -1.173  -5.780  0.00  0.00     0.147 A 
ATOM      7  O   LIG d   1       4.284  -0.766  -6.954  0.00  0.00    -0.451 OA
ATOM      8  C   LIG d   1       3.366   0.215  -6.780  0.00  0.00     0.176 A 
ATOM      9  C   LIG d   1       2.655   0.831  -7.759  0.00  0.00    -0.005 C 
ATOM     10  C   LIG d   1       3.283   0.494  -5.340  0.00  0.00     0.232 A 
ATOM     11  O   LIG d   1       2.576   1.312  -4.778  0.00  0.00    -0.283 OA
ATOM     12  H   LIG d   1       5.885  -1.809  -2.119  0.00  0.00     0.065 H 
ATOM     13  H   LIG d   1       4.200  -0.103  -2.603  0.00  0.00     0.063 H 
ATOM     14  H   LIG d   1       1.892   1.578  -7.497  0.00  0.00     0.066 H 
ENDROOT
BRANCH   1  15
ATOM     15  C   LIG d   1       6.393  -2.941  -6.600  0.00  0.00     0.031 C 
ATOM     16  H   LIG d   1       7.436  -3.176  -6.341  0.00  0.00     0.048 H 
ATOM     17  H   LIG d   1       6.370  -2.357  -7.532  0.00  0.00     0.048 H 
BRANCH  15  18
ATOM     18  N   LIG d   1       5.641  -4.189  -6.785  0.00  0.00    -0.295 N 
ATOM     19  C   LIG d   1       4.753  -4.102  -7.953  0.00  0.00     0.012 C 
ATOM     20  C   LIG d   1       3.932  -5.389  -8.064  0.00  0.00     0.012 C 
ATOM     21  H   LIG d   1       5.356  -3.972  -8.864  0.00  0.00     0.044 H 
ATOM     22  H   LIG d   1       4.076  -3.243  -7.836  0.00  0.00     0.044 H 
ATOM     23  N   LIG d   1       4.840  -6.538  -8.181  0.00  0.00    -0.300 N 
ATOM     24  H   LIG d   1       3.288  -5.338  -8.953  0.00  0.00     0.044 H 
ATOM     25  H   LIG d   1       3.308  -5.505  -7.165  0.00  0.00     0.044 H 
ATOM     26  C   LIG d   1       5.729  -6.625  -7.013  0.00  0.00     0.012 C 
ATOM     27  C   LIG d   1       6.550  -5.339  -6.903  0.00  0.00     0.012 C 
ATOM     28  H   LIG d   1       5.125  -6.756  -6.103  0.00  0.00     0.044 H 
ATOM     29  H   LIG d   1       6.406  -7.485  -7.131  0.00  0.00     0.044 H 
ATOM     30  H   LIG d   1       7.174  -5.222  -7.801  0.00  0.00     0.044 H 
ATOM     31  H   LIG d   1       7.194  -5.389  -6.012  0.00  0.00     0.044 H 
BRANCH  23  32
ATOM     32  C   LIG d   1       4.089  -7.786  -8.366  0.00  0.00    -0.004 C 
ATOM     33  H   LIG d   1       4.284  -8.187  -9.371  0.00  0.00     0.042 H 
ATOM     34  H   LIG d   1       3.013  -7.587  -8.254  0.00  0.00     0.042 H 
BRANCH  32  35
ATOM     35  C   LIG d   1       4.530  -8.807  -7.315  0.00  0.00    -0.052 C 
ATOM     36  H   LIG d   1       5.593  -9.050  -7.463  0.00  0.00     0.024 H 
ATOM     37  H   LIG d   1       3.928  -9.722  -7.417  0.00  0.00     0.024 H 
ATOM     38  H   LIG d   1       4.387  -8.384  -6.309  0.00  0.00     0.024 H 
ENDBRANCH  32  35
ENDBRANCH  23  32
ENDBRANCH  15  18
ENDBRANCH   1  15
BRANCH   2  39
ATOM     39  O   LIG d   1       7.084  -3.306  -3.896  0.00  0.00    -0.506 OA
ATOM     40  H   LIG d   1       7.176  -3.704  -2.875  0.00  0.00     0.292 HD
ENDBRANCH   2  39
BRANCH   9  41
ATOM     41  C   LIG d   1       2.907   0.501  -9.167  0.00  0.00     0.021 A 
ATOM     42  C   LIG d   1       3.947   1.133  -9.867  0.00  0.00     0.127 A 
ATOM     43  C   LIG d   1       4.179   0.810 -11.194  0.00  0.00    -0.018 A 
ATOM     44  C   LIG d   1       3.381  -0.122 -11.829  0.00  0.00    -0.044 A 
ATOM     45  H   LIG d   1       4.980   1.292 -11.735  0.00  0.00     0.066 H 
ATOM     46  C   LIG d   1       2.349  -0.746 -11.146  0.00  0.00     0.019 A 
ATOM     47  H   LIG d   1       3.563  -0.367 -12.866  0.00  0.00     0.063 H 
ATOM     48  C   LIG d   1       2.106  -0.443  -9.823  0.00  0.00    -0.037 A 
ATOM     49 BR   LIG d   1       1.267  -2.019 -12.032  0.00  0.00    -0.050 Br
ATOM     50  H   LIG d   1       1.301  -0.930  -9.294  0.00  0.00     0.064 H 
BRANCH  42  51
ATOM     51  O   LIG d   1       4.727   2.053  -9.243  0.00  0.00    -0.494 OA
BRANCH  51  52
ATOM     52  C   LIG d   1       6.081   1.682  -8.977  0.00  0.00     0.079 C 
ATOM     53  H   LIG d   1       6.313   1.874  -7.918  0.00  0.00     0.066 H 
ATOM     54  H   LIG d   1       6.756   2.273  -9.613  0.00  0.00     0.066 H 
ATOM     55  H   LIG d   1       6.218   0.612  -9.194  0.00  0.00     0.066 H 
ENDBRANCH  51  52
ENDBRANCH  42  51
ENDBRANCH   9  41
TORSDOF 8
ENDMDL
MODEL 3
REMARK VINA RESULT:      -6.0      2.343      5.581
REMARK  8 active torsions:
REMARK  status: ('A' for Active; 'I' for Inactive)
REMARK    1  A    between atoms: C_1  and  C_2 
REMARK    2  A    between atoms: C_2  and  N_3 
REMARK    3  A    between atoms: N_6  and  C_9 
REMARK    4  A    between atoms: C_9  and  C_10 
REMARK    5  A    between atoms: C_11  and  O_30 
REMARK    6  A    between atoms: C_18  and  C_19 
REMARK    7  A    between atoms: C_24  and  O_25 
REMARK    8  A    between atoms: O_25  and  C_26 
ROOT
ATOM      1  C   LIG d   1       5.583  -2.312  -4.767  0.00  0.00     0.051 A 
ATOM      2  C   LIG d   1       4.600  -3.098  -4.187  0.00  0.00     0.125 A 
ATOM      3  C   LIG d   1       3.918  -2.657  -3.055  0.00  0.00    -0.019 A 
ATOM      4  C   LIG d   1       4.213  -1.441  -2.507  0.00  0.00    -0.044 A 
ATOM      5  C   LIG d   1       5.200  -0.640  -3.081  0.00  0.00     0.068 A 
ATOM      6  C   LIG d   1       5.895  -1.074  -4.222  0.00  0.00     0.147 A 
ATOM      7  O   LIG d   1       6.798  -0.138  -4.588  0.00  0.00    -0.451 OA
ATOM      8  C   LIG d   1       6.768   0.938  -3.767  0.00  0.00     0.176 A 
ATOM      9  C   LIG d   1       7.548   2.046  -3.868  0.00  0.00    -0.005 C 
ATOM     10  C   LIG d   1       5.745   0.688  -2.743  0.00  0.00     0.232 A 
ATOM     11  O   LIG d   1       5.418   1.415  -1.821  0.00  0.00    -0.283 OA
ATOM     12  H   LIG d   1       3.154  -3.277  -2.612  0.00  0.00     0.065 H 
ATOM     13  H   LIG d   1       3.683  -1.100  -1.629  0.00  0.00     0.063 H 
ATOM     14  H   LIG d   1       7.398   2.888  -3.177  0.00  0.00     0.066 H 
ENDROOT
BRANCH   1  15
ATOM     15  C   LIG d   1       6.313  -2.803  -5.991  0.00  0.00     0.031 C 
ATOM     16  H   LIG d   1       5.989  -3.828  -6.225  0.00  0.00     0.048 H 
ATOM     17  H   LIG d   1       7.396  -2.797  -5.798  0.00  0.00     0.048 H 
BRANCH  15  18
ATOM     18  N   LIG d   1       6.012  -1.924  -7.128  0.00  0.00    -0.295 N 
ATOM     19  C   LIG d   1       7.027  -2.059  -8.182  0.00  0.00     0.012 C 
ATOM     20  C   LIG d   1       6.721  -1.071  -9.311  0.00  0.00     0.012 C 
ATOM     21  H   LIG d   1       7.010  -3.085  -8.579  0.00  0.00     0.044 H 
ATOM     22  H   LIG d   1       8.021  -1.843  -7.766  0.00  0.00     0.044 H 
ATOM     23  N   LIG d   1       5.376  -1.337  -9.841  0.00  0.00    -0.300 N 
ATOM     24  H   LIG d   1       7.462  -1.190 -10.115  0.00  0.00     0.044 H 
ATOM     25  H   LIG d   1       6.765  -0.043  -8.921  0.00  0.00     0.044 H 
ATOM     26  C   LIG d   1       4.361  -1.202  -8.786  0.00  0.00     0.012 C 
ATOM     27  C   LIG d   1       4.667  -2.190  -7.658  0.00  0.00     0.012 C 
ATOM     28  H   LIG d   1       4.378  -0.175  -8.391  0.00  0.00     0.044 H 
ATOM     29  H   LIG d   1       3.367  -1.418  -9.204  0.00  0.00     0.044 H 
ATOM     30  H   LIG d   1       4.623  -3.218  -8.047  0.00  0.00     0.044 H 
ATOM     31  H   LIG d   1       3.926  -2.070  -6.853  0.00  0.00     0.044 H 
BRANCH  23  32
ATOM     32  C   LIG d   1       5.074  -0.458 -10.977  0.00  0.00    -0.004 C 
ATOM     33  H   LIG d   1       4.272  -0.904 -11.584  0.00  0.00     0.042 H 
ATOM     34  H   LIG d   1       5.976  -0.336 -11.597  0.00  0.00     0.042 H 
BRANCH  32  35
ATOM     35  C   LIG d   1       4.623   0.909 -10.459  0.00  0.00    -0.052 C 
ATOM     36  H   LIG d   1       4.453   0.852  -9.374  0.00  0.00     0.024 H 
ATOM     37  H   LIG d   1       3.690   1.202 -10.961  0.00  0.00     0.024 H 
ATOM     38  H   LIG d   1       5.403   1.657 -10.669  0.00  0.00     0.024 H 
ENDBRANCH  32  35
ENDBRANCH  23  32
ENDBRANCH  15  18
ENDBRANCH   1  15
BRANCH   2  39
ATOM     39  O   LIG d   1       4.300  -4.307  -4.725  0.00  0.00    -0.506 OA
ATOM     40  H   LIG d   1       4.788  -5.216  -4.342  0.00  0.00     0.292 HD
ENDBRANCH   2  39
BRANCH   9  41
ATOM     41  C   LIG d   1       8.588   2.119  -4.900  0.00  0.00     0.021 A 
ATOM     42  C   LIG d   1       9.944   2.177  -4.535  0.00  0.00     0.127 A 
ATOM     43  C   LIG d   1      10.918   2.241  -5.518  0.00  0.00    -0.018 A 
ATOM     44  C   LIG d   1      10.557   2.258  -6.851  0.00  0.00    -0.044 A 
ATOM     45  H   LIG d   1      11.961   2.282  -5.241  0.00  0.00     0.066 H 
ATOM     46  C   LIG d   1       9.221   2.207  -7.219  0.00  0.00     0.019 A 
ATOM     47  H   LIG d   1      11.321   2.312  -7.613  0.00  0.00     0.063 H 
ATOM     48  C   LIG d   1       8.237   2.137  -6.256  0.00  0.00    -0.037 A 
ATOM     49 BR   LIG d   1       8.746   2.232  -9.049  0.00  0.00    -0.050 Br
ATOM     50  H   LIG d   1       7.198   2.098  -6.545  0.00  0.00     0.064 H 
BRANCH  42  51
ATOM     51  O   LIG d   1      10.297   2.165  -3.224  0.00  0.00    -0.494 OA
BRANCH  51  52
ATOM     52  C   LIG d   1      10.837   3.374  -2.687  0.00  0.00     0.079 C 
ATOM     53  H   LIG d   1      10.060   4.153  -2.684  0.00  0.00     0.066 H 
ATOM     54  H   LIG d   1      11.685   3.704  -3.305  0.00  0.00     0.066 H 
ATOM     55  H   LIG d   1      11.183   3.196  -1.658  0.00  0.00     0.066 H 
ENDBRANCH  51  52
ENDBRANCH  42  51
ENDBRANCH   9  41
TORSDOF 8
ENDMDL
MODEL 4
REMARK VINA RESULT:      -6.0      4.050      7.356
REMARK  8 active torsions:
REMARK  status: ('A' for Active; 'I' for Inactive)
REMARK    1  A    between atoms: C_1  and  C_2 
REMARK    2  A    between atoms: C_2  and  N_3 
REMARK    3  A    between atoms: N_6  and  C_9 
REMARK    4  A    between atoms: C_9  and  C_10 
REMARK    5  A    between atoms: C_11  and  O_30 
REMARK    6  A    between atoms: C_18  and  C_19 
REMARK    7  A    between atoms: C_24  and  O_25 
REMARK    8  A    between atoms: O_25  and  C_26 
ROOT
ATOM      1  C   LIG d   1       3.011   0.392  -8.594  0.00  0.00     0.051 A 
ATOM      2  C   LIG d   1       3.037   1.776  -8.667  0.00  0.00     0.125 A 
ATOM      3  C   LIG d   1       3.534   2.415  -9.800  0.00  0.00    -0.019 A 
ATOM      4  C   LIG d   1       4.002   1.681 -10.853  0.00  0.00    -0.044 A 
ATOM      5  C   LIG d   1       3.982   0.288 -10.793  0.00  0.00     0.068 A 
ATOM      6  C   LIG d   1       3.483  -0.369  -9.656  0.00  0.00     0.147 A 
ATOM      7  O   LIG d   1       3.571  -1.706  -9.827  0.00  0.00    -0.451 OA
ATOM      8  C   LIG d   1       4.099  -2.025 -11.033  0.00  0.00     0.176 A 
ATOM      9  C   LIG d   1       4.315  -3.279 -11.507  0.00  0.00    -0.005 C 
ATOM     10  C   LIG d   1       4.402  -0.769 -11.732  0.00  0.00     0.232 A 
ATOM     11  O   LIG d   1       4.890  -0.630 -12.840  0.00  0.00    -0.283 OA
ATOM     12  H   LIG d   1       3.549   3.494  -9.846  0.00  0.00     0.065 H 
ATOM     13  H   LIG d   1       4.387   2.179 -11.731  0.00  0.00     0.063 H 
ATOM     14  H   LIG d   1       4.698  -3.422 -12.528  0.00  0.00     0.066 H 
ENDROOT
BRANCH   1  15
ATOM     15  C   LIG d   1       2.471  -0.286  -7.362  0.00  0.00     0.031 C 
ATOM     16  H   LIG d   1       2.470  -1.376  -7.514  0.00  0.00     0.048 H 
ATOM     17  H   LIG d   1       1.443   0.057  -7.175  0.00  0.00     0.048 H 
BRANCH  15  18
ATOM     18  N   LIG d   1       3.316   0.047  -6.208  0.00  0.00    -0.295 N 
ATOM     19  C   LIG d   1       2.512   0.172  -4.984  0.00  0.00     0.012 C 
ATOM     20  C   LIG d   1       3.417   0.597  -3.824  0.00  0.00     0.012 C 
ATOM     21  H   LIG d   1       2.046  -0.795  -4.750  0.00  0.00     0.044 H 
ATOM     22  H   LIG d   1       1.730   0.930  -5.135  0.00  0.00     0.044 H 
ATOM     23  N   LIG d   1       4.485  -0.397  -3.650  0.00  0.00    -0.300 N 
ATOM     24  H   LIG d   1       2.824   0.664  -2.901  0.00  0.00     0.044 H 
ATOM     25  H   LIG d   1       3.862   1.578  -4.046  0.00  0.00     0.044 H 
ATOM     26  C   LIG d   1       5.288  -0.524  -4.874  0.00  0.00     0.012 C 
ATOM     27  C   LIG d   1       4.384  -0.948  -6.033  0.00  0.00     0.012 C 
ATOM     28  H   LIG d   1       5.755   0.444  -5.107  0.00  0.00     0.044 H 
ATOM     29  H   LIG d   1       6.071  -1.282  -4.722  0.00  0.00     0.044 H 
ATOM     30  H   LIG d   1       3.938  -1.930  -5.813  0.00  0.00     0.044 H 
ATOM     31  H   LIG d   1       4.978  -1.015  -6.957  0.00  0.00     0.044 H 
BRANCH  23  32
ATOM     32  C   LIG d   1       5.331  -0.065  -2.497  0.00  0.00    -0.004 C 
ATOM     33  H   LIG d   1       6.277   0.372  -2.849  0.00  0.00     0.042 H 
ATOM     34  H   LIG d   1       5.542  -0.978  -1.920  0.00  0.00     0.042 H 
BRANCH  32  35
ATOM     35  C   LIG d   1       4.604   0.944  -1.605  0.00  0.00    -0.052 C 
ATOM     36  H   LIG d   1       5.306   1.733  -1.296  0.00  0.00     0.024 H 
ATOM     37  H   LIG d   1       4.214   0.431  -0.713  0.00  0.00     0.024 H 
ATOM     38  H   LIG d   1       3.770   1.394  -2.165  0.00  0.00     0.024 H 
ENDBRANCH  32  35
ENDBRANCH  23  32
ENDBRANCH  15  18
ENDBRANCH   1  15
BRANCH   2  39
ATOM     39  O   LIG d   1       2.574   2.514  -7.626  0.00  0.00    -0.506 OA
ATOM     40  H   LIG d   1       1.998   3.432  -7.816  0.00  0.00     0.292 HD
ENDBRANCH   2  39
BRANCH   9  41
ATOM     41  C   LIG d   1       4.036  -4.443 -10.657  0.00  0.00     0.021 A 
ATOM     42  C   LIG d   1       2.745  -4.995 -10.616  0.00  0.00     0.127 A 
ATOM     43  C   LIG d   1       2.494  -6.097  -9.813  0.00  0.00    -0.018 A 
ATOM     44  C   LIG d   1       3.507  -6.641  -9.049  0.00  0.00    -0.044 A 
ATOM     45  H   LIG d   1       1.504  -6.526  -9.782  0.00  0.00     0.066 H 
ATOM     46  C   LIG d   1       4.782  -6.097  -9.080  0.00  0.00     0.019 A 
ATOM     47  H   LIG d   1       3.305  -7.497  -8.421  0.00  0.00     0.063 H 
ATOM     48  C   LIG d   1       5.053  -5.005  -9.876  0.00  0.00    -0.037 A 
ATOM     49 BR   LIG d   1       6.156  -6.856  -8.025  0.00  0.00    -0.050 Br
ATOM     50  H   LIG d   1       6.047  -4.584  -9.898  0.00  0.00     0.064 H 
BRANCH  42  51
ATOM     51  O   LIG d   1       1.749  -4.456 -11.364  0.00  0.00    -0.494 OA
BRANCH  51  52
ATOM     52  C   LIG d   1       0.716  -3.759 -10.664  0.00  0.00     0.079 C 
ATOM     53  H   LIG d   1       0.994  -2.700 -10.559  0.00  0.00     0.066 H 
ATOM     54  H   LIG d   1       0.584  -4.204  -9.666  0.00  0.00     0.066 H 
ATOM     55  H   LIG d   1      -0.226  -3.837 -11.227  0.00  0.00     0.066 H 
ENDBRANCH  51  52
ENDBRANCH  42  51
ENDBRANCH   9  41
TORSDOF 8
ENDMDL
MODEL 5
REMARK VINA RESULT:      -6.0      2.828      6.291
REMARK  8 active torsions:
REMARK  status: ('A' for Active; 'I' for Inactive)
REMARK    1  A    between atoms: C_1  and  C_2 
REMARK    2  A    between atoms: C_2  and  N_3 
REMARK    3  A    between atoms: N_6  and  C_9 
REMARK    4  A    between atoms: C_9  and  C_10 
REMARK    5  A    between atoms: C_11  and  O_30 
REMARK    6  A    between atoms: C_18  and  C_19 
REMARK    7  A    between atoms: C_24  and  O_25 
REMARK    8  A    between atoms: O_25  and  C_26 
ROOT
ATOM      1  C   LIG d   1       6.638  -1.309  -5.493  0.00  0.00     0.051 A 
ATOM      2  C   LIG d   1       7.132  -1.434  -4.205  0.00  0.00     0.125 A 
ATOM      3  C   LIG d   1       6.355  -1.068  -3.109  0.00  0.00    -0.019 A 
ATOM      4  C   LIG d   1       5.093  -0.580  -3.296  0.00  0.00    -0.044 A 
ATOM      5  C   LIG d   1       4.582  -0.449  -4.588  0.00  0.00     0.068 A 
ATOM      6  C   LIG d   1       5.357  -0.815  -5.701  0.00  0.00     0.147 A 
ATOM      7  O   LIG d   1       4.657  -0.594  -6.834  0.00  0.00    -0.451 OA
ATOM      8  C   LIG d   1       3.423  -0.098  -6.576  0.00  0.00     0.176 A 
ATOM      9  C   LIG d   1       2.479   0.225  -7.498  0.00  0.00    -0.005 C 
ATOM     10  C   LIG d   1       3.293   0.032  -5.119  0.00  0.00     0.232 A 
ATOM     11  O   LIG d   1       2.334   0.444  -4.489  0.00  0.00    -0.283 OA
ATOM     12  H   LIG d   1       6.751  -1.170  -2.110  0.00  0.00     0.065 H 
ATOM     13  H   LIG d   1       4.491  -0.297  -2.445  0.00  0.00     0.063 H 
ATOM     14  H   LIG d   1       1.487   0.567  -7.172  0.00  0.00     0.066 H 
ENDROOT
BRANCH   1  15
ATOM     15  C   LIG d   1       7.491  -1.709  -6.669  0.00  0.00     0.031 C 
ATOM     16  H   LIG d   1       6.970  -2.481  -7.255  0.00  0.00     0.048 H 
ATOM     17  H   LIG d   1       8.450  -2.109  -6.308  0.00  0.00     0.048 H 
BRANCH  15  18
ATOM     18  N   LIG d   1       7.738  -0.535  -7.517  0.00  0.00    -0.295 N 
ATOM     19  C   LIG d   1       8.726   0.362  -6.901  0.00  0.00     0.012 C 
ATOM     20  C   LIG d   1       8.895   1.607  -7.775  0.00  0.00     0.012 C 
ATOM     21  H   LIG d   1       9.690  -0.158  -6.814  0.00  0.00     0.044 H 
ATOM     22  H   LIG d   1       8.378   0.660  -5.901  0.00  0.00     0.044 H 
ATOM     23  N   LIG d   1       9.322   1.203  -9.122  0.00  0.00    -0.300 N 
ATOM     24  H   LIG d   1       9.655   2.267  -7.332  0.00  0.00     0.044 H 
ATOM     25  H   LIG d   1       7.936   2.143  -7.840  0.00  0.00     0.044 H 
ATOM     26  C   LIG d   1       8.335   0.305  -9.738  0.00  0.00     0.012 C 
ATOM     27  C   LIG d   1       8.166  -0.939  -8.865  0.00  0.00     0.012 C 
ATOM     28  H   LIG d   1       7.370   0.827  -9.826  0.00  0.00     0.044 H 
ATOM     29  H   LIG d   1       8.683   0.008 -10.738  0.00  0.00     0.044 H 
ATOM     30  H   LIG d   1       9.124  -1.476  -8.799  0.00  0.00     0.044 H 
ATOM     31  H   LIG d   1       7.405  -1.599  -9.308  0.00  0.00     0.044 H 
BRANCH  23  32
ATOM     32  C   LIG d   1       9.569   2.376  -9.970  0.00  0.00    -0.004 C 
ATOM     33  H   LIG d   1       9.000   2.278 -10.907  0.00  0.00     0.042 H 
ATOM     34  H   LIG d   1      10.643   2.444 -10.200  0.00  0.00     0.042 H 
BRANCH  32  35
ATOM     35  C   LIG d   1       9.124   3.641  -9.233  0.00  0.00    -0.052 C 
ATOM     36  H   LIG d   1       9.818   3.845  -8.404  0.00  0.00     0.024 H 
ATOM     37  H   LIG d   1       8.110   3.496  -8.834  0.00  0.00     0.024 H 
ATOM     38  H   LIG d   1       9.126   4.492  -9.931  0.00  0.00     0.024 H 
ENDBRANCH  32  35
ENDBRANCH  23  32
ENDBRANCH  15  18
ENDBRANCH   1  15
BRANCH   2  39
ATOM     39  O   LIG d   1       8.386  -1.918  -4.009  0.00  0.00    -0.506 OA
ATOM     40  H   LIG d   1       8.570  -3.002  -4.051  0.00  0.00     0.292 HD
ENDBRANCH   2  39
BRANCH   9  41
ATOM     41  C   LIG d   1       2.785   0.116  -8.929  0.00  0.00     0.021 A 
ATOM     42  C   LIG d   1       3.635   1.051  -9.543  0.00  0.00     0.127 A 
ATOM     43  C   LIG d   1       3.921   0.936 -10.894  0.00  0.00    -0.018 A 
ATOM     44  C   LIG d   1       3.362  -0.086 -11.636  0.00  0.00    -0.044 A 
ATOM     45  H   LIG d   1       4.577   1.650 -11.369  0.00  0.00     0.066 H 
ATOM     46  C   LIG d   1       2.516  -1.008 -11.038  0.00  0.00     0.019 A 
ATOM     47  H   LIG d   1       3.584  -0.168 -12.690  0.00  0.00     0.063 H 
ATOM     48  C   LIG d   1       2.225  -0.915  -9.694  0.00  0.00    -0.037 A 
ATOM     49 BR   LIG d   1       1.760  -2.400 -12.070  0.00  0.00    -0.050 Br
ATOM     50  H   LIG d   1       1.566  -1.634  -9.231  0.00  0.00     0.064 H 
BRANCH  42  51
ATOM     51  O   LIG d   1       4.181   2.058  -8.814  0.00  0.00    -0.494 OA
BRANCH  51  52
ATOM     52  C   LIG d   1       5.544   2.389  -9.084  0.00  0.00     0.079 C 
ATOM     53  H   LIG d   1       6.150   2.213  -8.183  0.00  0.00     0.066 H 
ATOM     54  H   LIG d   1       5.614   3.449  -9.372  0.00  0.00     0.066 H 
ATOM     55  H   LIG d   1       5.919   1.762  -9.906  0.00  0.00     0.066 H 
ENDBRANCH  51  52
ENDBRANCH  42  51
ENDBRANCH   9  41
TORSDOF 8
ENDMDL
MODEL 6
REMARK VINA RESULT:      -6.0      2.042      5.183
REMARK  8 active torsions:
REMARK  status: ('A' for Active; 'I' for Inactive)
REMARK    1  A    between atoms: C_1  and  C_2 
REMARK    2  A    between atoms: C_2  and  N_3 
REMARK    3  A    between atoms: N_6  and  C_9 
REMARK    4  A    between atoms: C_9  and  C_10 
REMARK    5  A    between atoms: C_11  and  O_30 
REMARK    6  A    between atoms: C_18  and  C_19 
REMARK    7  A    between atoms: C_24  and  O_25 
REMARK    8  A    between atoms: O_25  and  C_26 
ROOT
ATOM      1  C   LIG d   1       4.708  -0.612  -4.377  0.00  0.00     0.051 A 
ATOM      2  C   LIG d   1       3.855  -0.309  -3.328  0.00  0.00     0.125 A 
ATOM      3  C   LIG d   1       4.224   0.624  -2.362  0.00  0.00    -0.019 A 
ATOM      4  C   LIG d   1       5.435   1.252  -2.442  0.00  0.00    -0.044 A 
ATOM      5  C   LIG d   1       6.304   0.956  -3.493  0.00  0.00     0.068 A 
ATOM      6  C   LIG d   1       5.943   0.016  -4.473  0.00  0.00     0.147 A 
ATOM      7  O   LIG d   1       6.939  -0.105  -5.376  0.00  0.00    -0.451 OA
ATOM      8  C   LIG d   1       7.982   0.710  -5.088  0.00  0.00     0.176 A 
ATOM      9  C   LIG d   1       9.131   0.825  -5.802  0.00  0.00    -0.005 C 
ATOM     10  C   LIG d   1       7.647   1.442  -3.859  0.00  0.00     0.232 A 
ATOM     11  O   LIG d   1       8.326   2.268  -3.274  0.00  0.00    -0.283 OA
ATOM     12  H   LIG d   1       3.551   0.853  -1.550  0.00  0.00     0.065 H 
ATOM     13  H   LIG d   1       5.720   1.976  -1.693  0.00  0.00     0.063 H 
ATOM     14  H   LIG d   1       9.890   1.564  -5.507  0.00  0.00     0.066 H 
ENDROOT
BRANCH   1  15
ATOM     15  C   LIG d   1       4.296  -1.626  -5.413  0.00  0.00     0.031 C 
ATOM     16  H   LIG d   1       3.294  -2.012  -5.170  0.00  0.00     0.048 H 
ATOM     17  H   LIG d   1       5.016  -2.457  -5.420  0.00  0.00     0.048 H 
BRANCH  15  18
ATOM     18  N   LIG d   1       4.267  -0.990  -6.736  0.00  0.00    -0.295 N 
ATOM     19  C   LIG d   1       4.294  -1.998  -7.806  0.00  0.00     0.012 C 
ATOM     20  C   LIG d   1       4.344  -1.295  -9.165  0.00  0.00     0.012 C 
ATOM     21  H   LIG d   1       3.390  -2.620  -7.748  0.00  0.00     0.044 H 
ATOM     22  H   LIG d   1       5.184  -2.633  -7.690  0.00  0.00     0.044 H 
ATOM     23  N   LIG d   1       3.173  -0.416  -9.302  0.00  0.00    -0.300 N 
ATOM     24  H   LIG d   1       4.335  -2.045  -9.968  0.00  0.00     0.044 H 
ATOM     25  H   LIG d   1       5.263  -0.694  -9.234  0.00  0.00     0.044 H 
ATOM     26  C   LIG d   1       3.145   0.591  -8.232  0.00  0.00     0.012 C 
ATOM     27  C   LIG d   1       3.096  -0.112  -6.874  0.00  0.00     0.012 C 
ATOM     28  H   LIG d   1       4.051   1.213  -8.292  0.00  0.00     0.044 H 
ATOM     29  H   LIG d   1       2.255   1.226  -8.350  0.00  0.00     0.044 H 
ATOM     30  H   LIG d   1       2.177  -0.712  -6.803  0.00  0.00     0.044 H 
ATOM     31  H   LIG d   1       3.105   0.640  -6.070  0.00  0.00     0.044 H 
BRANCH  23  32
ATOM     32  C   LIG d   1       3.145   0.220 -10.625  0.00  0.00    -0.004 C 
ATOM     33  H   LIG d   1       2.102   0.319 -10.962  0.00  0.00     0.042 H 
ATOM     34  H   LIG d   1       3.703  -0.400 -11.343  0.00  0.00     0.042 H 
BRANCH  32  35
ATOM     35  C   LIG d   1       3.788   1.605 -10.540  0.00  0.00    -0.052 C 
ATOM     36  H   LIG d   1       4.158   1.899 -11.533  0.00  0.00     0.024 H 
ATOM     37  H   LIG d   1       4.628   1.577  -9.830  0.00  0.00     0.024 H 
ATOM     38  H   LIG d   1       3.041   2.336 -10.196  0.00  0.00     0.024 H 
ENDBRANCH  32  35
ENDBRANCH  23  32
ENDBRANCH  15  18
ENDBRANCH   1  15
BRANCH   2  39
ATOM     39  O   LIG d   1       2.650  -0.927  -3.239  0.00  0.00    -0.506 OA
ATOM     40  H   LIG d   1       2.384  -1.488  -2.331  0.00  0.00     0.292 HD
ENDBRANCH   2  39
BRANCH   9  41
ATOM     41  C   LIG d   1       9.359  -0.036  -6.969  0.00  0.00     0.021 A 
ATOM     42  C   LIG d   1       8.945   0.379  -8.246  0.00  0.00     0.127 A 
ATOM     43  C   LIG d   1       9.170  -0.439  -9.341  0.00  0.00    -0.018 A 
ATOM     44  C   LIG d   1       9.787  -1.664  -9.175  0.00  0.00    -0.044 A 
ATOM     45  H   LIG d   1       8.856  -0.122 -10.324  0.00  0.00     0.066 H 
ATOM     46  C   LIG d   1      10.192  -2.083  -7.917  0.00  0.00     0.019 A 
ATOM     47  H   LIG d   1       9.955  -2.300 -10.032  0.00  0.00     0.063 H 
ATOM     48  C   LIG d   1       9.984  -1.280  -6.816  0.00  0.00    -0.037 A 
ATOM     49 BR   LIG d   1      11.035  -3.762  -7.710  0.00  0.00    -0.050 Br
ATOM     50  H   LIG d   1      10.300  -1.609  -5.837  0.00  0.00     0.064 H 
BRANCH  42  51
ATOM     51  O   LIG d   1       8.334   1.581  -8.406  0.00  0.00    -0.494 OA
BRANCH  51  52
ATOM     52  C   LIG d   1       6.924   1.566  -8.635  0.00  0.00     0.079 C 
ATOM     53  H   LIG d   1       6.396   1.740  -7.685  0.00  0.00     0.066 H 
ATOM     54  H   LIG d   1       6.628   0.588  -9.044  0.00  0.00     0.066 H 
ATOM     55  H   LIG d   1       6.659   2.358  -9.351  0.00  0.00     0.066 H 
ENDBRANCH  51  52
ENDBRANCH  42  51
ENDBRANCH   9  41
TORSDOF 8
ENDMDL
MODEL 7
REMARK VINA RESULT:      -5.9      4.219      8.205
REMARK  8 active torsions:
REMARK  status: ('A' for Active; 'I' for Inactive)
REMARK    1  A    between atoms: C_1  and  C_2 
REMARK    2  A    between atoms: C_2  and  N_3 
REMARK    3  A    between atoms: N_6  and  C_9 
REMARK    4  A    between atoms: C_9  and  C_10 
REMARK    5  A    between atoms: C_11  and  O_30 
REMARK    6  A    between atoms: C_18  and  C_19 
REMARK    7  A    between atoms: C_24  and  O_25 
REMARK    8  A    between atoms: O_25  and  C_26 
ROOT
ATOM      1  C   LIG d   1       6.011  -4.153  -6.612  0.00  0.00     0.051 A 
ATOM      2  C   LIG d   1       6.268  -5.267  -5.829  0.00  0.00     0.125 A 
ATOM      3  C   LIG d   1       5.505  -6.423  -5.972  0.00  0.00    -0.019 A 
ATOM      4  C   LIG d   1       4.494  -6.469  -6.889  0.00  0.00    -0.044 A 
ATOM      5  C   LIG d   1       4.225  -5.355  -7.683  0.00  0.00     0.068 A 
ATOM      6  C   LIG d   1       4.987  -4.182  -7.549  0.00  0.00     0.147 A 
ATOM      7  O   LIG d   1       4.539  -3.247  -8.413  0.00  0.00    -0.451 OA
ATOM      8  C   LIG d   1       3.504  -3.703  -9.158  0.00  0.00     0.176 A 
ATOM      9  C   LIG d   1       2.837  -3.009 -10.116  0.00  0.00    -0.005 C 
ATOM     10  C   LIG d   1       3.230  -5.084  -8.738  0.00  0.00     0.232 A 
ATOM     11  O   LIG d   1       2.374  -5.838  -9.166  0.00  0.00    -0.283 OA
ATOM     12  H   LIG d   1       5.715  -7.285  -5.356  0.00  0.00     0.065 H 
ATOM     13  H   LIG d   1       3.903  -7.367  -6.998  0.00  0.00     0.063 H 
ATOM     14  H   LIG d   1       2.046  -3.500 -10.701  0.00  0.00     0.066 H 
ENDROOT
BRANCH   1  15
ATOM     15  C   LIG d   1       6.844  -2.908  -6.445  0.00  0.00     0.031 C 
ATOM     16  H   LIG d   1       6.844  -2.338  -7.387  0.00  0.00     0.048 H 
ATOM     17  H   LIG d   1       7.876  -3.189  -6.189  0.00  0.00     0.048 H 
BRANCH  15  18
ATOM     18  N   LIG d   1       6.280  -2.080  -5.372  0.00  0.00    -0.295 N 
ATOM     19  C   LIG d   1       7.325  -1.653  -4.430  0.00  0.00     0.012 C 
ATOM     20  C   LIG d   1       6.686  -0.862  -3.286  0.00  0.00     0.012 C 
ATOM     21  H   LIG d   1       8.054  -1.018  -4.953  0.00  0.00     0.044 H 
ATOM     22  H   LIG d   1       7.836  -2.538  -4.023  0.00  0.00     0.044 H 
ATOM     23  N   LIG d   1       5.970   0.298  -3.837  0.00  0.00    -0.300 N 
ATOM     24  H   LIG d   1       7.468  -0.517  -2.595  0.00  0.00     0.044 H 
ATOM     25  H   LIG d   1       5.977  -1.507  -2.745  0.00  0.00     0.044 H 
ATOM     26  C   LIG d   1       4.926  -0.128  -4.779  0.00  0.00     0.012 C 
ATOM     27  C   LIG d   1       5.565  -0.919  -5.922  0.00  0.00     0.012 C 
ATOM     28  H   LIG d   1       4.197  -0.763  -4.254  0.00  0.00     0.044 H 
ATOM     29  H   LIG d   1       4.416   0.758  -5.185  0.00  0.00     0.044 H 
ATOM     30  H   LIG d   1       6.274  -0.275  -6.464  0.00  0.00     0.044 H 
ATOM     31  H   LIG d   1       4.782  -1.265  -6.613  0.00  0.00     0.044 H 
BRANCH  23  32
ATOM     32  C   LIG d   1       5.406   1.126  -2.763  0.00  0.00    -0.004 C 
ATOM     33  H   LIG d   1       4.777   1.916  -3.201  0.00  0.00     0.042 H 
ATOM     34  H   LIG d   1       6.222   1.586  -2.187  0.00  0.00     0.042 H 
BRANCH  32  35
ATOM     35  C   LIG d   1       4.558   0.252  -1.838  0.00  0.00    -0.052 C 
ATOM     36  H   LIG d   1       3.582   0.734  -1.671  0.00  0.00     0.024 H 
ATOM     37  H   LIG d   1       5.074   0.129  -0.874  0.00  0.00     0.024 H 
ATOM     38  H   LIG d   1       4.405  -0.733  -2.302  0.00  0.00     0.024 H 
ENDBRANCH  32  35
ENDBRANCH  23  32
ENDBRANCH  15  18
ENDBRANCH   1  15
BRANCH   2  39
ATOM     39  O   LIG d   1       7.271  -5.231  -4.915  0.00  0.00    -0.506 OA
ATOM     40  H   LIG d   1       7.372  -6.041  -4.177  0.00  0.00     0.292 HD
ENDBRANCH   2  39
BRANCH   9  41
ATOM     41  C   LIG d   1       3.173  -1.603 -10.370  0.00  0.00     0.021 A 
ATOM     42  C   LIG d   1       3.804  -1.233 -11.569  0.00  0.00     0.127 A 
ATOM     43  C   LIG d   1       4.112   0.098 -11.801  0.00  0.00    -0.018 A 
ATOM     44  C   LIG d   1       3.811   1.055 -10.851  0.00  0.00    -0.044 A 
ATOM     45  H   LIG d   1       4.595   0.388 -12.723  0.00  0.00     0.066 H 
ATOM     46  C   LIG d   1       3.193   0.695  -9.662  0.00  0.00     0.019 A 
ATOM     47  H   LIG d   1       4.058   2.090 -11.035  0.00  0.00     0.063 H 
ATOM     48  C   LIG d   1       2.873  -0.623  -9.416  0.00  0.00    -0.037 A 
ATOM     49 BR   LIG d   1       2.788   2.018  -8.374  0.00  0.00    -0.050 Br
ATOM     50  H   LIG d   1       2.393  -0.900  -8.490  0.00  0.00     0.064 H 
BRANCH  42  51
ATOM     51  O   LIG d   1       4.105  -2.174 -12.500  0.00  0.00    -0.494 OA
BRANCH  51  52
ATOM     52  C   LIG d   1       3.593  -1.969 -13.818  0.00  0.00     0.079 C 
ATOM     53  H   LIG d   1       2.945  -2.815 -14.096  0.00  0.00     0.066 H 
ATOM     54  H   LIG d   1       4.428  -1.899 -14.530  0.00  0.00     0.066 H 
ATOM     55  H   LIG d   1       3.010  -1.037 -13.845  0.00  0.00     0.066 H 
ENDBRANCH  51  52
ENDBRANCH  42  51
ENDBRANCH   9  41
TORSDOF 8
ENDMDL
MODEL 8
REMARK VINA RESULT:      -5.9      2.509      5.342
REMARK  8 active torsions:
REMARK  status: ('A' for Active; 'I' for Inactive)
REMARK    1  A    between atoms: C_1  and  C_2 
REMARK    2  A    between atoms: C_2  and  N_3 
REMARK    3  A    between atoms: N_6  and  C_9 
REMARK    4  A    between atoms: C_9  and  C_10 
REMARK    5  A    between atoms: C_11  and  O_30 
REMARK    6  A    between atoms: C_18  and  C_19 
REMARK    7  A    between atoms: C_24  and  O_25 
REMARK    8  A    between atoms: O_25  and  C_26 
ROOT
ATOM      1  C   LIG d   1       4.613  -0.594  -4.319  0.00  0.00     0.051 A 
ATOM      2  C   LIG d   1       3.749  -0.244  -3.292  0.00  0.00     0.125 A 
ATOM      3  C   LIG d   1       4.123   0.708  -2.347  0.00  0.00    -0.019 A 
ATOM      4  C   LIG d   1       5.347   1.308  -2.425  0.00  0.00    -0.044 A 
ATOM      5  C   LIG d   1       6.226   0.966  -3.452  0.00  0.00     0.068 A 
ATOM      6  C   LIG d   1       5.861   0.007  -4.411  0.00  0.00     0.147 A 
ATOM      7  O   LIG d   1       6.869  -0.159  -5.295  0.00  0.00    -0.451 OA
ATOM      8  C   LIG d   1       7.924   0.642  -5.012  0.00  0.00     0.176 A 
ATOM      9  C   LIG d   1       9.087   0.714  -5.710  0.00  0.00    -0.005 C 
ATOM     10  C   LIG d   1       7.585   1.415  -3.809  0.00  0.00     0.232 A 
ATOM     11  O   LIG d   1       8.271   2.242  -3.236  0.00  0.00    -0.283 OA
ATOM     12  H   LIG d   1       3.442   0.973  -1.552  0.00  0.00     0.065 H 
ATOM     13  H   LIG d   1       5.635   2.047  -1.691  0.00  0.00     0.063 H 
ATOM     14  H   LIG d   1       9.856   1.445  -5.422  0.00  0.00     0.066 H 
ENDROOT
BRANCH   1  15
ATOM     15  C   LIG d   1       4.196  -1.627  -5.333  0.00  0.00     0.031 C 
ATOM     16  H   LIG d   1       3.185  -1.989  -5.094  0.00  0.00     0.048 H 
ATOM     17  H   LIG d   1       4.901  -2.470  -5.309  0.00  0.00     0.048 H 
BRANCH  15  18
ATOM     18  N   LIG d   1       4.195  -1.026  -6.673  0.00  0.00    -0.295 N 
ATOM     19  C   LIG d   1       4.157  -2.062  -7.715  0.00  0.00     0.012 C 
ATOM     20  C   LIG d   1       4.238  -1.399  -9.093  0.00  0.00     0.012 C 
ATOM     21  H   LIG d   1       3.218  -2.628  -7.636  0.00  0.00     0.044 H 
ATOM     22  H   LIG d   1       5.009  -2.744  -7.587  0.00  0.00     0.044 H 
ATOM     23  N   LIG d   1       3.119  -0.458  -9.248  0.00  0.00    -0.300 N 
ATOM     24  H   LIG d   1       4.180  -2.169  -9.876  0.00  0.00     0.044 H 
ATOM     25  H   LIG d   1       5.190  -0.855  -9.183  0.00  0.00     0.044 H 
ATOM     26  C   LIG d   1       3.157   0.577  -8.205  0.00  0.00     0.012 C 
ATOM     27  C   LIG d   1       3.076  -0.085  -6.829  0.00  0.00     0.012 C 
ATOM     28  H   LIG d   1       4.096   1.144  -8.286  0.00  0.00     0.044 H 
ATOM     29  H   LIG d   1       2.304   1.260  -8.336  0.00  0.00     0.044 H 
ATOM     30  H   LIG d   1       2.124  -0.629  -6.737  0.00  0.00     0.044 H 
ATOM     31  H   LIG d   1       3.134   0.686  -6.045  0.00  0.00     0.044 H 
BRANCH  23  32
ATOM     32  C   LIG d   1       3.119   0.143 -10.588  0.00  0.00    -0.004 C 
ATOM     33  H   LIG d   1       2.083   0.353 -10.895  0.00  0.00     0.042 H 
ATOM     34  H   LIG d   1       3.578  -0.555 -11.303  0.00  0.00     0.042 H 
BRANCH  32  35
ATOM     35  C   LIG d   1       3.918   1.447 -10.562  0.00  0.00    -0.052 C 
ATOM     36  H   LIG d   1       3.282   2.260 -10.179  0.00  0.00     0.024 H 
ATOM     37  H   LIG d   1       4.252   1.693 -11.581  0.00  0.00     0.024 H 
ATOM     38  H   LIG d   1       4.794   1.328  -9.907  0.00  0.00     0.024 H 
ENDBRANCH  32  35
ENDBRANCH  23  32
ENDBRANCH  15  18
ENDBRANCH   1  15
BRANCH   2  39
ATOM     39  O   LIG d   1       2.530  -0.835  -3.207  0.00  0.00    -0.506 OA
ATOM     40  H   LIG d   1       2.239  -1.365  -2.288  0.00  0.00     0.292 HD
ENDBRANCH   2  39
BRANCH   9  41
ATOM     41  C   LIG d   1       9.315  -0.183  -6.849  0.00  0.00     0.021 A 
ATOM     42  C   LIG d   1       9.889  -1.450  -6.647  0.00  0.00     0.127 A 
ATOM     43  C   LIG d   1      10.096  -2.291  -7.728  0.00  0.00    -0.018 A 
ATOM     44  C   LIG d   1       9.750  -1.880  -9.001  0.00  0.00    -0.044 A 
ATOM     45  H   LIG d   1      10.534  -3.266  -7.576  0.00  0.00     0.066 H 
ATOM     46  C   LIG d   1       9.188  -0.630  -9.208  0.00  0.00     0.019 A 
ATOM     47  H   LIG d   1       9.918  -2.539  -9.841  0.00  0.00     0.063 H 
ATOM     48  C   LIG d   1       8.969   0.219  -8.145  0.00  0.00    -0.037 A 
ATOM     49 BR   LIG d   1       8.722  -0.085 -10.958  0.00  0.00    -0.050 Br
ATOM     50  H   LIG d   1       8.532   1.193  -8.309  0.00  0.00     0.064 H 
BRANCH  42  51
ATOM     51  O   LIG d   1      10.233  -1.850  -5.396  0.00  0.00    -0.494 OA
BRANCH  51  52
ATOM     52  C   LIG d   1      11.618  -2.105  -5.155  0.00  0.00     0.079 C 
ATOM     53  H   LIG d   1      12.081  -1.219  -4.696  0.00  0.00     0.066 H 
ATOM     54  H   LIG d   1      12.122  -2.329  -6.107  0.00  0.00     0.066 H 
ATOM     55  H   LIG d   1      11.721  -2.965  -4.476  0.00  0.00     0.066 H 
ENDBRANCH  51  52
ENDBRANCH  42  51
ENDBRANCH   9  41
TORSDOF 8
ENDMDL
MODEL 9
REMARK VINA RESULT:      -5.8      3.036      5.729
REMARK  8 active torsions:
REMARK  status: ('A' for Active; 'I' for Inactive)
REMARK    1  A    between atoms: C_1  and  C_2 
REMARK    2  A    between atoms: C_2  and  N_3 
REMARK    3  A    between atoms: N_6  and  C_9 
REMARK    4  A    between atoms: C_9  and  C_10 
REMARK    5  A    between atoms: C_11  and  O_30 
REMARK    6  A    between atoms: C_18  and  C_19 
REMARK    7  A    between atoms: C_24  and  O_25 
REMARK    8  A    between atoms: O_25  and  C_26 
ROOT
ATOM      1  C   LIG d   1       3.714  -2.401  -8.703  0.00  0.00     0.051 A 
ATOM      2  C   LIG d   1       3.230  -3.268  -9.669  0.00  0.00     0.125 A 
ATOM      3  C   LIG d   1       3.128  -4.633  -9.408  0.00  0.00    -0.019 A 
ATOM      4  C   LIG d   1       3.505  -5.128  -8.193  0.00  0.00    -0.044 A 
ATOM      5  C   LIG d   1       3.994  -4.266  -7.211  0.00  0.00     0.068 A 
ATOM      6  C   LIG d   1       4.102  -2.889  -7.462  0.00  0.00     0.147 A 
ATOM      7  O   LIG d   1       4.602  -2.266  -6.373  0.00  0.00    -0.451 OA
ATOM      8  C   LIG d   1       4.844  -3.134  -5.363  0.00  0.00     0.176 A 
ATOM      9  C   LIG d   1       5.343  -2.821  -4.139  0.00  0.00    -0.005 C 
ATOM     10  C   LIG d   1       4.474  -4.476  -5.832  0.00  0.00     0.232 A 
ATOM     11  O   LIG d   1       4.547  -5.527  -5.220  0.00  0.00    -0.283 OA
ATOM     12  H   LIG d   1       2.749  -5.299 -10.168  0.00  0.00     0.065 H 
ATOM     13  H   LIG d   1       3.425  -6.187  -7.991  0.00  0.00     0.063 H 
ATOM     14  H   LIG d   1       5.445  -3.602  -3.371  0.00  0.00     0.066 H 
ENDROOT
BRANCH   1  15
ATOM     15  C   LIG d   1       3.820  -0.927  -9.000  0.00  0.00     0.031 C 
ATOM     16  H   LIG d   1       3.287  -0.357  -8.225  0.00  0.00     0.048 H 
ATOM     17  H   LIG d   1       3.370  -0.718  -9.982  0.00  0.00     0.048 H 
BRANCH  15  18
ATOM     18  N   LIG d   1       5.234  -0.530  -9.014  0.00  0.00    -0.295 N 
ATOM     19  C   LIG d   1       5.691  -0.255 -10.384  0.00  0.00     0.012 C 
ATOM     20  C   LIG d   1       7.185   0.077 -10.363  0.00  0.00     0.012 C 
ATOM     21  H   LIG d   1       5.132   0.599 -10.793  0.00  0.00     0.044 H 
ATOM     22  H   LIG d   1       5.521  -1.140 -11.013  0.00  0.00     0.044 H 
ATOM     23  N   LIG d   1       7.415   1.238  -9.490  0.00  0.00    -0.300 N 
ATOM     24  H   LIG d   1       7.524   0.312 -11.382  0.00  0.00     0.044 H 
ATOM     25  H   LIG d   1       7.748  -0.787  -9.979  0.00  0.00     0.044 H 
ATOM     26  C   LIG d   1       6.957   0.963  -8.121  0.00  0.00     0.012 C 
ATOM     27  C   LIG d   1       5.464   0.631  -8.142  0.00  0.00     0.012 C 
ATOM     28  H   LIG d   1       7.518   0.109  -7.712  0.00  0.00     0.044 H 
ATOM     29  H   LIG d   1       7.128   1.850  -7.492  0.00  0.00     0.044 H 
ATOM     30  H   LIG d   1       4.900   1.494  -8.525  0.00  0.00     0.044 H 
ATOM     31  H   LIG d   1       5.125   0.396  -7.122  0.00  0.00     0.044 H 
BRANCH  23  32
ATOM     32  C   LIG d   1       8.828   1.635  -9.503  0.00  0.00    -0.004 C 
ATOM     33  H   LIG d   1       9.258   1.429 -10.495  0.00  0.00     0.042 H 
ATOM     34  H   LIG d   1       9.378   1.062  -8.741  0.00  0.00     0.042 H 
BRANCH  32  35
ATOM     35  C   LIG d   1       8.941   3.129  -9.198  0.00  0.00    -0.052 C 
ATOM     36  H   LIG d   1       9.801   3.304  -8.534  0.00  0.00     0.024 H 
ATOM     37  H   LIG d   1       8.021   3.474  -8.704  0.00  0.00     0.024 H 
ATOM     38  H   LIG d   1       9.084   3.686 -10.136  0.00  0.00     0.024 H 
ENDBRANCH  32  35
ENDBRANCH  23  32
ENDBRANCH  15  18
ENDBRANCH   1  15
BRANCH   2  39
ATOM     39  O   LIG d   1       2.853  -2.785 -10.880  0.00  0.00    -0.506 OA
ATOM     40  H   LIG d   1       2.320  -1.825 -10.948  0.00  0.00     0.292 HD
ENDBRANCH   2  39
BRANCH   9  41
ATOM     41  C   LIG d   1       5.744  -1.441  -3.841  0.00  0.00     0.021 A 
ATOM     42  C   LIG d   1       4.925  -0.622  -3.046  0.00  0.00     0.127 A 
ATOM     43  C   LIG d   1       5.316   0.677  -2.768  0.00  0.00    -0.018 A 
ATOM     44  C   LIG d   1       6.501   1.169  -3.279  0.00  0.00    -0.044 A 
ATOM     45  H   LIG d   1       4.690   1.309  -2.154  0.00  0.00     0.066 H 
ATOM     46  C   LIG d   1       7.311   0.368  -4.070  0.00  0.00     0.019 A 
ATOM     47  H   LIG d   1       6.798   2.185  -3.063  0.00  0.00     0.063 H 
ATOM     48  C   LIG d   1       6.943  -0.930  -4.353  0.00  0.00    -0.037 A 
ATOM     49 BR   LIG d   1       8.930   1.059  -4.762  0.00  0.00    -0.050 Br
ATOM     50  H   LIG d   1       7.576  -1.550  -4.969  0.00  0.00     0.064 H 
BRANCH  42  51
ATOM     51  O   LIG d   1       3.758  -1.105  -2.548  0.00  0.00    -0.494 OA
BRANCH  51  52
ATOM     52  C   LIG d   1       2.551  -0.626  -3.144  0.00  0.00     0.079 C 
ATOM     53  H   LIG d   1       1.687  -1.103  -2.657  0.00  0.00     0.066 H 
ATOM     54  H   LIG d   1       2.548  -0.871  -4.216  0.00  0.00     0.066 H 
ATOM     55  H   LIG d   1       2.487   0.465  -3.017  0.00  0.00     0.066 H 
ENDBRANCH  51  52
ENDBRANCH  42  51
ENDBRANCH   9  41
TORSDOF 8
ENDMDL
