MODEL 1
REMARK VINA RESULT:      -6.9      0.000      0.000
REMARK  8 active torsions:
REMARK  status: ('A' for Active; 'I' for Inactive)
REMARK    1  A    between atoms: CG1_1  and  CB_2 
REMARK    2  A    between atoms: CB_2  and  CG2_3 
REMARK    3  A    between atoms: CB_2  and  CA_4 
REMARK       I    between atoms: CA_4  and  C_6 
REMARK       I    between atoms: CA_4  and  N_20 
REMARK       I    between atoms: C_6  and  N_8 
REMARK       I    between atoms: N_8  and  CA_9 
REMARK    4  A    between atoms: CA_9  and  CB_11 
REMARK       I    between atoms: CA_9  and  C_18 
REMARK    5  A    between atoms: CB_11  and  CG_12 
REMARK       I    between atoms: N_20  and  C_21 
REMARK       I    between atoms: C_21  and  CA_23 
REMARK    6  A    between atoms: CA_23  and  CB_25 
REMARK       I    between atoms: CA_23  and  N_53 
REMARK    7  A    between atoms: CB_25  and  CG_26 
REMARK    8  A    between atoms: CG_26  and  CD_27 
ROOT
ATOM      1  CA  VAL d   2       7.860  -0.004  -4.155  0.00  0.00     0.102 C 
ATOM      2  HA  VAL d   2       8.349  -0.483  -3.307  0.00  0.00     0.060 H 
ATOM      3  C   VAL d   2       8.072   1.486  -4.082  0.00  0.00     0.234 C 
ATOM      4  O   VAL d   2       7.118   2.231  -4.006  0.00  0.00    -0.274 OA
ATOM      5  N   VAL d   2       6.424  -0.296  -4.118  0.00  0.00    -0.299 N 
ATOM      6  H   VAL d   2       5.786   0.372  -4.414  0.00  0.00     0.150 HD
ATOM      7  N   PHE d   3       9.321   1.991  -4.101  0.00  0.00    -0.305 N 
ATOM      8  CA  PHE d   3       9.527   3.440  -4.029  0.00  0.00     0.067 C 
ATOM      9  HA  PHE d   3       8.767   3.884  -3.387  0.00  0.00     0.056 H 
ATOM     10  C   PHE d   3       9.424   4.030  -5.413  0.00  0.00     0.062 C 
ATOM     11  O   PHE d   3       9.200   3.314  -6.360  0.00  0.00    -0.548 OA
ATOM     12  H   PHE d   3      10.084   1.395  -4.161  0.00  0.00     0.149 HD
ATOM     13  OXT PHE d   3       9.579   5.352  -5.592  0.00  0.00    -0.548 OA
ATOM     14  C   GLU d   1       5.990  -1.491  -3.673  0.00  0.00     0.262 C 
ATOM     15  O   GLU d   1       6.790  -2.327  -3.302  0.00  0.00    -0.270 OA
ATOM     16  CA  GLU d   1       4.515  -1.791  -3.635  0.00  0.00     0.053 C 
ATOM     17  HA  GLU d   1       4.039  -1.388  -4.529  0.00  0.00     0.095 H 
ATOM     18  H1  GLU d   1       4.743  -3.643  -2.764  0.00  0.00     0.200 HD
ATOM     19  H2  GLU d   1       3.330  -3.475  -3.624  0.00  0.00     0.200 HD
ATOM     20  N   GLU d   1       4.323  -3.252  -3.606  0.00  0.00     0.227 N 
ATOM     21  H3  GLU d   1       4.775  -3.668  -4.430  0.00  0.00     0.200 HD
ENDROOT
BRANCH   1  22
ATOM     22  CB  VAL d   2       8.456  -0.541  -5.457  0.00  0.00    -0.020 C 
ATOM     23  HB  VAL d   2       9.107   0.214  -5.898  0.00  0.00     0.032 H 
BRANCH  22  24
ATOM     24  CG1 VAL d   2       9.265  -1.805  -5.165  0.00  0.00    -0.060 C 
ATOM     25 1HG1 VAL d   2       9.890  -2.044  -6.026  0.00  0.00     0.023 H 
ATOM     26 2HG1 VAL d   2       9.898  -1.639  -4.293  0.00  0.00     0.023 H 
ATOM     27 3HG1 VAL d   2       8.586  -2.635  -4.968  0.00  0.00     0.023 H 
ENDBRANCH  22  24
BRANCH  22  28
ATOM     28  CG2 VAL d   2       7.326  -0.874  -6.435  0.00  0.00    -0.060 C 
ATOM     29 1HG2 VAL d   2       6.937   0.048  -6.868  0.00  0.00     0.023 H 
ATOM     30 2HG2 VAL d   2       7.711  -1.514  -7.229  0.00  0.00     0.023 H 
ATOM     31 3HG2 VAL d   2       6.527  -1.393  -5.905  0.00  0.00     0.023 H 
ENDBRANCH  22  28
ENDBRANCH   1  22
BRANCH   8  32
ATOM     32  CB  PHE d   3      10.914   3.730  -3.454  0.00  0.00    -0.004 C 
ATOM     33  HB1 PHE d   3      11.559   4.119  -4.241  0.00  0.00     0.034 H 
ATOM     34  HB2 PHE d   3      11.343   2.810  -3.055  0.00  0.00     0.034 H 
BRANCH  32  35
ATOM     35  CG  PHE d   3      10.797   4.749  -2.350  0.00  0.00    -0.045 A 
ATOM     36  CD1 PHE d   3      11.621   4.668  -1.243  0.00  0.00    -0.059 A 
ATOM     37  CE1 PHE d   3      11.514   5.602  -0.230  0.00  0.00    -0.061 A 
ATOM     38  HD1 PHE d   3      12.350   3.873  -1.169  0.00  0.00     0.062 H 
ATOM     39  CZ  PHE d   3      10.582   6.619  -0.325  0.00  0.00    -0.062 A 
ATOM     40  HE1 PHE d   3      12.158   5.539   0.634  0.00  0.00     0.062 H 
ATOM     41  CE2 PHE d   3       9.759   6.701  -1.432  0.00  0.00    -0.061 A 
ATOM     42  HZ  PHE d   3      10.498   7.350   0.466  0.00  0.00     0.062 H 
ATOM     43  CD2 PHE d   3       9.869   5.770  -2.447  0.00  0.00    -0.059 A 
ATOM     44  HE2 PHE d   3       9.030   7.496  -1.506  0.00  0.00     0.062 H 
ATOM     45  HD2 PHE d   3       9.228   5.836  -3.314  0.00  0.00     0.062 H 
ENDBRANCH  32  35
ENDBRANCH   8  32
BRANCH  16  46
ATOM     46  CB  GLU d   1       3.895  -1.147  -2.393  0.00  0.00     0.004 C 
ATOM     47  HB1 GLU d   1       3.257  -1.872  -1.888  0.00  0.00     0.033 H 
ATOM     48  HB2 GLU d   1       4.687  -0.826  -1.717  0.00  0.00     0.033 H 
BRANCH  46  49
ATOM     49  CG  GLU d   1       3.059   0.065  -2.810  0.00  0.00    -0.008 C 
ATOM     50  HG1 GLU d   1       2.764  -0.039  -3.854  0.00  0.00     0.033 H 
ATOM     51  HG2 GLU d   1       2.168   0.124  -2.185  0.00  0.00     0.033 H 
BRANCH  49  52
ATOM     52  CD  GLU d   1       3.875   1.320  -2.641  0.00  0.00     0.042 C 
ATOM     53  OE1 GLU d   1       3.631   2.295  -3.312  0.00  0.00    -0.550 OA
ATOM     54  OE2 GLU d   1       4.871   1.357  -1.743  0.00  0.00    -0.550 OA
ENDBRANCH  49  52
ENDBRANCH  46  49
ENDBRANCH  16  46
TORSDOF 14
ENDMDL
MODEL 2
REMARK VINA RESULT:      -6.5      2.863      7.980
REMARK  8 active torsions:
REMARK  status: ('A' for Active; 'I' for Inactive)
REMARK    1  A    between atoms: CG1_1  and  CB_2 
REMARK    2  A    between atoms: CB_2  and  CG2_3 
REMARK    3  A    between atoms: CB_2  and  CA_4 
REMARK       I    between atoms: CA_4  and  C_6 
REMARK       I    between atoms: CA_4  and  N_20 
REMARK       I    between atoms: C_6  and  N_8 
REMARK       I    between atoms: N_8  and  CA_9 
REMARK    4  A    between atoms: CA_9  and  CB_11 
REMARK       I    between atoms: CA_9  and  C_18 
REMARK    5  A    between atoms: CB_11  and  CG_12 
REMARK       I    between atoms: N_20  and  C_21 
REMARK       I    between atoms: C_21  and  CA_23 
REMARK    6  A    between atoms: CA_23  and  CB_25 
REMARK       I    between atoms: CA_23  and  N_53 
REMARK    7  A    between atoms: CB_25  and  CG_26 
REMARK    8  A    between atoms: CG_26  and  CD_27 
ROOT
ATOM      1  CA  VAL d   2       9.178   4.130  -4.558  0.00  0.00     0.102 C 
ATOM      2  HA  VAL d   2       8.258   4.712  -4.626  0.00  0.00     0.060 H 
ATOM      3  C   VAL d   2       8.851   2.720  -4.141  0.00  0.00     0.234 C 
ATOM      4  O   VAL d   2       9.316   2.268  -3.116  0.00  0.00    -0.274 OA
ATOM      5  N   VAL d   2      10.067   4.740  -3.566  0.00  0.00    -0.299 N 
ATOM      6  H   VAL d   2      10.632   4.179  -3.011  0.00  0.00     0.150 HD
ATOM      7  N   PHE d   3       8.043   1.961  -4.908  0.00  0.00    -0.305 N 
ATOM      8  CA  PHE d   3       7.726   0.589  -4.502  0.00  0.00     0.067 C 
ATOM      9  HA  PHE d   3       7.657   0.538  -3.416  0.00  0.00     0.056 H 
ATOM     10  C   PHE d   3       8.812  -0.340  -4.981  0.00  0.00     0.062 C 
ATOM     11  O   PHE d   3       9.755   0.099  -5.596  0.00  0.00    -0.548 OA
ATOM     12  H   PHE d   3       7.672   2.323  -5.727  0.00  0.00     0.149 HD
ATOM     13  OXT PHE d   3       8.733  -1.655  -4.722  0.00  0.00    -0.548 OA
ATOM     14  C   GLU d   1      10.101   6.079  -3.422  0.00  0.00     0.262 C 
ATOM     15  O   GLU d   1       9.394   6.781  -4.116  0.00  0.00    -0.270 OA
ATOM     16  CA  GLU d   1      11.015   6.705  -2.402  0.00  0.00     0.053 C 
ATOM     17  HA  GLU d   1      11.969   6.178  -2.396  0.00  0.00     0.095 H 
ATOM     18  H1  GLU d   1      10.368   8.628  -2.754  0.00  0.00     0.200 HD
ATOM     19  H2  GLU d   1      11.898   8.542  -2.111  0.00  0.00     0.200 HD
ATOM     20  N   GLU d   1      11.247   8.114  -2.767  0.00  0.00     0.227 N 
ATOM     21  H3  GLU d   1      11.647   8.156  -3.712  0.00  0.00     0.200 HD
ENDROOT
BRANCH   1  22
ATOM     22  CB  VAL d   2       9.872   4.113  -5.921  0.00  0.00    -0.020 C 
ATOM     23  HB  VAL d   2       9.465   3.302  -6.526  0.00  0.00     0.032 H 
BRANCH  22  24
ATOM     24  CG1 VAL d   2       9.637   5.447  -6.631  0.00  0.00    -0.060 C 
ATOM     25 1HG1 VAL d   2       8.771   5.362  -7.287  0.00  0.00     0.023 H 
ATOM     26 2HG1 VAL d   2       9.458   6.227  -5.890  0.00  0.00     0.023 H 
ATOM     27 3HG1 VAL d   2      10.517   5.704  -7.222  0.00  0.00     0.023 H 
ENDBRANCH  22  24
BRANCH  22  28
ATOM     28  CG2 VAL d   2      11.375   3.896  -5.725  0.00  0.00    -0.060 C 
ATOM     29 1HG2 VAL d   2      11.918   4.769  -6.088  0.00  0.00     0.023 H 
ATOM     30 2HG2 VAL d   2      11.585   3.752  -4.665  0.00  0.00     0.023 H 
ATOM     31 3HG2 VAL d   2      11.690   3.013  -6.281  0.00  0.00     0.023 H 
ENDBRANCH  22  28
ENDBRANCH   1  22
BRANCH   8  32
ATOM     32  CB  PHE d   3       6.390   0.171  -5.119  0.00  0.00    -0.004 C 
ATOM     33  HB1 PHE d   3       6.570  -0.523  -5.939  0.00  0.00     0.034 H 
ATOM     34  HB2 PHE d   3       5.872   1.053  -5.497  0.00  0.00     0.034 H 
BRANCH  32  35
ATOM     35  CG  PHE d   3       5.540  -0.499  -4.071  0.00  0.00    -0.045 A 
ATOM     36  CD1 PHE d   3       5.204   0.180  -2.914  0.00  0.00    -0.059 A 
ATOM     37  CE1 PHE d   3       4.424  -0.434  -1.953  0.00  0.00    -0.061 A 
ATOM     38  HD1 PHE d   3       5.550   1.193  -2.763  0.00  0.00     0.062 H 
ATOM     39  CZ  PHE d   3       3.981  -1.729  -2.148  0.00  0.00    -0.062 A 
ATOM     40  HE1 PHE d   3       4.162   0.097  -1.050  0.00  0.00     0.062 H 
ATOM     41  CE2 PHE d   3       4.316  -2.408  -3.303  0.00  0.00    -0.061 A 
ATOM     42  HZ  PHE d   3       3.371  -2.209  -1.396  0.00  0.00     0.062 H 
ATOM     43  CD2 PHE d   3       5.091  -1.792  -4.268  0.00  0.00    -0.059 A 
ATOM     44  HE2 PHE d   3       3.969  -3.420  -3.455  0.00  0.00     0.062 H 
ATOM     45  HD2 PHE d   3       5.351  -2.321  -5.172  0.00  0.00     0.062 H 
ENDBRANCH  32  35
ENDBRANCH   8  32
BRANCH  16  46
ATOM     46  CB  GLU d   1      10.373   6.612  -1.016  0.00  0.00     0.004 C 
ATOM     47  HB1 GLU d   1      10.312   7.607  -0.576  0.00  0.00     0.033 H 
ATOM     48  HB2 GLU d   1       9.371   6.192  -1.107  0.00  0.00     0.033 H 
BRANCH  46  49
ATOM     49  CG  GLU d   1      11.224   5.709  -0.119  0.00  0.00    -0.008 C 
ATOM     50  HG1 GLU d   1      10.877   4.679  -0.208  0.00  0.00     0.033 H 
ATOM     51  HG2 GLU d   1      12.267   5.769  -0.428  0.00  0.00     0.033 H 
BRANCH  49  52
ATOM     52  CD  GLU d   1      11.097   6.160   1.312  0.00  0.00     0.042 C 
ATOM     53  OE1 GLU d   1      10.644   5.410   2.145  0.00  0.00    -0.550 OA
ATOM     54  OE2 GLU d   1      11.487   7.395   1.664  0.00  0.00    -0.550 OA
ENDBRANCH  49  52
ENDBRANCH  46  49
ENDBRANCH  16  46
TORSDOF 14
ENDMDL
MODEL 3
REMARK VINA RESULT:      -6.4      4.062      6.584
REMARK  8 active torsions:
REMARK  status: ('A' for Active; 'I' for Inactive)
REMARK    1  A    between atoms: CG1_1  and  CB_2 
REMARK    2  A    between atoms: CB_2  and  CG2_3 
REMARK    3  A    between atoms: CB_2  and  CA_4 
REMARK       I    between atoms: CA_4  and  C_6 
REMARK       I    between atoms: CA_4  and  N_20 
REMARK       I    between atoms: C_6  and  N_8 
REMARK       I    between atoms: N_8  and  CA_9 
REMARK    4  A    between atoms: CA_9  and  CB_11 
REMARK       I    between atoms: CA_9  and  C_18 
REMARK    5  A    between atoms: CB_11  and  CG_12 
REMARK       I    between atoms: N_20  and  C_21 
REMARK       I    between atoms: C_21  and  CA_23 
REMARK    6  A    between atoms: CA_23  and  CB_25 
REMARK       I    between atoms: CA_23  and  N_53 
REMARK    7  A    between atoms: CB_25  and  CG_26 
REMARK    8  A    between atoms: CG_26  and  CD_27 
ROOT
ATOM      1  CA  VAL d   2       5.513  -1.529  -7.420  0.00  0.00     0.102 C 
ATOM      2  HA  VAL d   2       4.594  -1.842  -6.923  0.00  0.00     0.060 H 
ATOM      3  C   VAL d   2       6.154  -0.414  -6.635  0.00  0.00     0.234 C 
ATOM      4  O   VAL d   2       6.332   0.667  -7.154  0.00  0.00    -0.274 OA
ATOM      5  N   VAL d   2       5.200  -1.059  -8.772  0.00  0.00    -0.299 N 
ATOM      6  H   VAL d   2       5.704  -0.324  -9.158  0.00  0.00     0.150 HD
ATOM      7  N   PHE d   3       6.529  -0.619  -5.357  0.00  0.00    -0.305 N 
ATOM      8  CA  PHE d   3       7.152   0.466  -4.594  0.00  0.00     0.067 C 
ATOM      9  HA  PHE d   3       6.712   1.418  -4.890  0.00  0.00     0.056 H 
ATOM     10  C   PHE d   3       8.633   0.489  -4.873  0.00  0.00     0.062 C 
ATOM     11  O   PHE d   3       9.118  -0.317  -5.631  0.00  0.00    -0.548 OA
ATOM     12  H   PHE d   3       6.386  -1.483  -4.942  0.00  0.00     0.149 HD
ATOM     13  OXT PHE d   3       9.414   1.407  -4.279  0.00  0.00    -0.548 OA
ATOM     14  C   GLU d   1       4.215  -1.645  -9.479  0.00  0.00     0.262 C 
ATOM     15  O   GLU d   1       3.586  -2.564  -8.995  0.00  0.00    -0.270 OA
ATOM     16  CA  GLU d   1       3.894  -1.161 -10.869  0.00  0.00     0.053 C 
ATOM     17  HA  GLU d   1       4.819  -0.933 -11.397  0.00  0.00     0.095 H 
ATOM     18  H1  GLU d   1       2.299  -2.437 -11.126  0.00  0.00     0.200 HD
ATOM     19  H2  GLU d   1       2.991  -1.933 -12.551  0.00  0.00     0.200 HD
ATOM     20  N   GLU d   1       3.179  -2.226 -11.594  0.00  0.00     0.227 N 
ATOM     21  H3  GLU d   1       3.761  -3.072 -11.610  0.00  0.00     0.200 HD
ENDROOT
BRANCH   1  22
ATOM     22  CB  VAL d   2       6.476  -2.715  -7.503  0.00  0.00    -0.020 C 
ATOM     23  HB  VAL d   2       7.296  -2.567  -6.799  0.00  0.00     0.032 H 
BRANCH  22  24
ATOM     24  CG1 VAL d   2       5.731  -4.004  -7.154  0.00  0.00    -0.060 C 
ATOM     25 1HG1 VAL d   2       4.668  -3.876  -7.359  0.00  0.00     0.023 H 
ATOM     26 2HG1 VAL d   2       6.121  -4.824  -7.758  0.00  0.00     0.023 H 
ATOM     27 3HG1 VAL d   2       5.873  -4.231  -6.098  0.00  0.00     0.023 H 
ENDBRANCH  22  24
BRANCH  22  28
ATOM     28  CG2 VAL d   2       7.037  -2.817  -8.923  0.00  0.00    -0.060 C 
ATOM     29 1HG2 VAL d   2       8.113  -2.644  -8.903  0.00  0.00     0.023 H 
ATOM     30 2HG2 VAL d   2       6.836  -3.812  -9.321  0.00  0.00     0.023 H 
ATOM     31 3HG2 VAL d   2       6.560  -2.070  -9.557  0.00  0.00     0.023 H 
ENDBRANCH  22  28
ENDBRANCH   1  22
BRANCH   8  32
ATOM     32  CB  PHE d   3       6.918   0.238  -3.100  0.00  0.00    -0.004 C 
ATOM     33  HB1 PHE d   3       7.095   1.168  -2.558  0.00  0.00     0.034 H 
ATOM     34  HB2 PHE d   3       7.603  -0.529  -2.737  0.00  0.00     0.034 H 
BRANCH  32  35
ATOM     35  CG  PHE d   3       5.497  -0.211  -2.876  0.00  0.00    -0.045 A 
ATOM     36  CD1 PHE d   3       5.221  -1.548  -2.656  0.00  0.00    -0.059 A 
ATOM     37  CE1 PHE d   3       3.918  -1.960  -2.450  0.00  0.00    -0.061 A 
ATOM     38  HD1 PHE d   3       6.024  -2.270  -2.642  0.00  0.00     0.062 H 
ATOM     39  CZ  PHE d   3       2.891  -1.036  -2.467  0.00  0.00    -0.062 A 
ATOM     40  HE1 PHE d   3       3.702  -3.004  -2.277  0.00  0.00     0.062 H 
ATOM     41  CE2 PHE d   3       3.166   0.300  -2.687  0.00  0.00    -0.061 A 
ATOM     42  HZ  PHE d   3       1.872  -1.358  -2.306  0.00  0.00     0.062 H 
ATOM     43  CD2 PHE d   3       4.470   0.714  -2.886  0.00  0.00    -0.059 A 
ATOM     44  HE2 PHE d   3       2.363   1.023  -2.699  0.00  0.00     0.062 H 
ATOM     45  HD2 PHE d   3       4.686   1.758  -3.055  0.00  0.00     0.062 H 
ENDBRANCH  32  35
ENDBRANCH   8  32
BRANCH  16  46
ATOM     46  CB  GLU d   1       3.031   0.099 -10.784  0.00  0.00     0.004 C 
ATOM     47  HB1 GLU d   1       2.287   0.085 -11.580  0.00  0.00     0.033 H 
ATOM     48  HB2 GLU d   1       2.528   0.130  -9.817  0.00  0.00     0.033 H 
BRANCH  46  49
ATOM     49  CG  GLU d   1       3.918   1.337 -10.937  0.00  0.00    -0.008 C 
ATOM     50  HG1 GLU d   1       4.885   1.042 -11.344  0.00  0.00     0.033 H 
ATOM     51  HG2 GLU d   1       3.439   2.045 -11.613  0.00  0.00     0.033 H 
BRANCH  49  52
ATOM     52  CD  GLU d   1       4.115   1.984  -9.591  0.00  0.00     0.042 C 
ATOM     53  OE1 GLU d   1       3.416   1.664  -8.658  0.00  0.00    -0.550 OA
ATOM     54  OE2 GLU d   1       5.067   2.915  -9.427  0.00  0.00    -0.550 OA
ENDBRANCH  49  52
ENDBRANCH  46  49
ENDBRANCH  16  46
TORSDOF 14
ENDMDL
MODEL 4
REMARK VINA RESULT:      -6.4      3.135      8.135
REMARK  8 active torsions:
REMARK  status: ('A' for Active; 'I' for Inactive)
REMARK    1  A    between atoms: CG1_1  and  CB_2 
REMARK    2  A    between atoms: CB_2  and  CG2_3 
REMARK    3  A    between atoms: CB_2  and  CA_4 
REMARK       I    between atoms: CA_4  and  C_6 
REMARK       I    between atoms: CA_4  and  N_20 
REMARK       I    between atoms: C_6  and  N_8 
REMARK       I    between atoms: N_8  and  CA_9 
REMARK    4  A    between atoms: CA_9  and  CB_11 
REMARK       I    between atoms: CA_9  and  C_18 
REMARK    5  A    between atoms: CB_11  and  CG_12 
REMARK       I    between atoms: N_20  and  C_21 
REMARK       I    between atoms: C_21  and  CA_23 
REMARK    6  A    between atoms: CA_23  and  CB_25 
REMARK       I    between atoms: CA_23  and  N_53 
REMARK    7  A    between atoms: CB_25  and  CG_26 
REMARK    8  A    between atoms: CG_26  and  CD_27 
ROOT
ATOM      1  CA  VAL d   2       9.644   4.414  -4.171  0.00  0.00     0.102 C 
ATOM      2  HA  VAL d   2       8.713   4.970  -4.058  0.00  0.00     0.060 H 
ATOM      3  C   VAL d   2       9.390   2.952  -3.914  0.00  0.00     0.234 C 
ATOM      4  O   VAL d   2       9.975   2.384  -3.017  0.00  0.00    -0.274 OA
ATOM      5  N   VAL d   2      10.630   4.916  -3.209  0.00  0.00    -0.299 N 
ATOM      6  H   VAL d   2      11.263   4.305  -2.801  0.00  0.00     0.150 HD
ATOM      7  N   PHE d   3       8.514   2.275  -4.682  0.00  0.00    -0.305 N 
ATOM      8  CA  PHE d   3       8.267   0.852  -4.432  0.00  0.00     0.067 C 
ATOM      9  HA  PHE d   3       8.322   0.657  -3.361  0.00  0.00     0.056 H 
ATOM     10  C   PHE d   3       9.307   0.029  -5.148  0.00  0.00     0.062 C 
ATOM     11  O   PHE d   3      10.167   0.575  -5.798  0.00  0.00    -0.548 OA
ATOM     12  H   PHE d   3       8.046   2.730  -5.399  0.00  0.00     0.149 HD
ATOM     13  OXT PHE d   3       9.280  -1.310  -5.061  0.00  0.00    -0.548 OA
ATOM     14  C   GLU d   1      10.657   6.225  -2.892  0.00  0.00     0.262 C 
ATOM     15  O   GLU d   1       9.865   6.989  -3.403  0.00  0.00    -0.270 OA
ATOM     16  CA  GLU d   1      11.671   6.740  -1.904  0.00  0.00     0.053 C 
ATOM     17  HA  GLU d   1      12.628   6.247  -2.074  0.00  0.00     0.095 H 
ATOM     18  H1  GLU d   1      10.955   8.670  -1.922  0.00  0.00     0.200 HD
ATOM     19  H2  GLU d   1      12.550   8.550  -1.468  0.00  0.00     0.200 HD
ATOM     20  N   GLU d   1      11.837   8.191  -2.100  0.00  0.00     0.227 N 
ATOM     21  H3  GLU d   1      12.125   8.370  -3.069  0.00  0.00     0.200 HD
ENDROOT
BRANCH   1  22
ATOM     22  CB  VAL d   2      10.179   4.598  -5.592  0.00  0.00    -0.020 C 
ATOM     23  HB  VAL d   2       9.828   3.781  -6.222  0.00  0.00     0.032 H 
BRANCH  22  24
ATOM     24  CG1 VAL d   2       9.680   5.929  -6.157  0.00  0.00    -0.060 C 
ATOM     25 1HG1 VAL d   2       8.627   5.839  -6.424  0.00  0.00     0.023 H 
ATOM     26 2HG1 VAL d   2       9.799   6.711  -5.407  0.00  0.00     0.023 H 
ATOM     27 3HG1 VAL d   2      10.259   6.187  -7.045  0.00  0.00     0.023 H 
ENDBRANCH  22  24
BRANCH  22  28
ATOM     28  CG2 VAL d   2      11.710   4.598  -5.564  0.00  0.00    -0.060 C 
ATOM     29 1HG2 VAL d   2      12.084   3.773  -6.170  0.00  0.00     0.023 H 
ATOM     30 2HG2 VAL d   2      12.080   5.541  -5.966  0.00  0.00     0.023 H 
ATOM     31 3HG2 VAL d   2      12.054   4.481  -4.537  0.00  0.00     0.023 H 
ENDBRANCH  22  28
ENDBRANCH   1  22
BRANCH   8  32
ATOM     32  CB  PHE d   3       6.877   0.478  -4.948  0.00  0.00    -0.004 C 
ATOM     33  HB1 PHE d   3       6.959  -0.371  -5.627  0.00  0.00     0.034 H 
ATOM     34  HB2 PHE d   3       6.444   1.327  -5.478  0.00  0.00     0.034 H 
BRANCH  32  35
ATOM     35  CG  PHE d   3       5.992   0.107  -3.786  0.00  0.00    -0.045 A 
ATOM     36  CD1 PHE d   3       5.647  -1.214  -3.572  0.00  0.00    -0.059 A 
ATOM     37  CE1 PHE d   3       4.836  -1.554  -2.506  0.00  0.00    -0.061 A 
ATOM     38  HD1 PHE d   3       6.013  -1.982  -4.238  0.00  0.00     0.062 H 
ATOM     39  CZ  PHE d   3       4.368  -0.571  -1.654  0.00  0.00    -0.062 A 
ATOM     40  HE1 PHE d   3       4.567  -2.586  -2.339  0.00  0.00     0.062 H 
ATOM     41  CE2 PHE d   3       4.712   0.750  -1.867  0.00  0.00    -0.061 A 
ATOM     42  HZ  PHE d   3       3.734  -0.836  -0.821  0.00  0.00     0.062 H 
ATOM     43  CD2 PHE d   3       5.529   1.089  -2.930  0.00  0.00    -0.059 A 
ATOM     44  HE2 PHE d   3       4.347   1.519  -1.201  0.00  0.00     0.062 H 
ATOM     45  HD2 PHE d   3       5.801   2.121  -3.095  0.00  0.00     0.062 H 
ENDBRANCH  32  35
ENDBRANCH   8  32
BRANCH  16  46
ATOM     46  CB  GLU d   1      11.192   6.444  -0.481  0.00  0.00     0.004 C 
ATOM     47  HB1 GLU d   1      10.348   5.756  -0.518  0.00  0.00     0.033 H 
ATOM     48  HB2 GLU d   1      12.004   5.994   0.089  0.00  0.00     0.033 H 
BRANCH  46  49
ATOM     49  CG  GLU d   1      10.757   7.748   0.193  0.00  0.00    -0.008 C 
ATOM     50  HG1 GLU d   1      10.741   8.550  -0.545  0.00  0.00     0.033 H 
ATOM     51  HG2 GLU d   1       9.761   7.624   0.616  0.00  0.00     0.033 H 
BRANCH  49  52
ATOM     52  CD  GLU d   1      11.729   8.095   1.290  0.00  0.00     0.042 C 
ATOM     53  OE1 GLU d   1      12.785   8.617   1.020  0.00  0.00    -0.550 OA
ATOM     54  OE2 GLU d   1      11.423   7.825   2.568  0.00  0.00    -0.550 OA
ENDBRANCH  49  52
ENDBRANCH  46  49
ENDBRANCH  16  46
TORSDOF 14
ENDMDL
MODEL 5
REMARK VINA RESULT:      -6.3      6.238     10.491
REMARK  8 active torsions:
REMARK  status: ('A' for Active; 'I' for Inactive)
REMARK    1  A    between atoms: CG1_1  and  CB_2 
REMARK    2  A    between atoms: CB_2  and  CG2_3 
REMARK    3  A    between atoms: CB_2  and  CA_4 
REMARK       I    between atoms: CA_4  and  C_6 
REMARK       I    between atoms: CA_4  and  N_20 
REMARK       I    between atoms: C_6  and  N_8 
REMARK       I    between atoms: N_8  and  CA_9 
REMARK    4  A    between atoms: CA_9  and  CB_11 
REMARK       I    between atoms: CA_9  and  C_18 
REMARK    5  A    between atoms: CB_11  and  CG_12 
REMARK       I    between atoms: N_20  and  C_21 
REMARK       I    between atoms: C_21  and  CA_23 
REMARK    6  A    between atoms: CA_23  and  CB_25 
REMARK       I    between atoms: CA_23  and  N_53 
REMARK    7  A    between atoms: CB_25  and  CG_26 
REMARK    8  A    between atoms: CG_26  and  CD_27 
ROOT
ATOM      1  CA  VAL d   2       2.914   0.198  -7.443  0.00  0.00     0.102 C 
ATOM      2  HA  VAL d   2       1.883   0.523  -7.301  0.00  0.00     0.060 H 
ATOM      3  C   VAL d   2       2.946  -0.971  -8.392  0.00  0.00     0.234 C 
ATOM      4  O   VAL d   2       3.398  -2.036  -8.028  0.00  0.00    -0.274 OA
ATOM      5  N   VAL d   2       3.479  -0.204  -6.152  0.00  0.00    -0.299 N 
ATOM      6  H   VAL d   2       4.111  -0.940  -6.108  0.00  0.00     0.150 HD
ATOM      7  N   PHE d   3       2.474  -0.833  -9.647  0.00  0.00    -0.305 N 
ATOM      8  CA  PHE d   3       2.506  -1.970 -10.571  0.00  0.00     0.067 C 
ATOM      9  HA  PHE d   3       2.330  -2.892 -10.018  0.00  0.00     0.056 H 
ATOM     10  C   PHE d   3       3.855  -2.035 -11.241  0.00  0.00     0.062 C 
ATOM     11  O   PHE d   3       4.702  -1.217 -10.973  0.00  0.00    -0.548 OA
ATOM     12  H   PHE d   3       2.113   0.018  -9.938  0.00  0.00     0.149 HD
ATOM     13  OXT PHE d   3       4.114  -3.004 -12.134  0.00  0.00    -0.548 OA
ATOM     14  C   GLU d   1       3.124   0.446  -5.027  0.00  0.00     0.262 C 
ATOM     15  O   GLU d   1       2.333   1.366  -5.083  0.00  0.00    -0.270 OA
ATOM     16  CA  GLU d   1       3.705   0.032  -3.701  0.00  0.00     0.053 C 
ATOM     17  HA  GLU d   1       4.761  -0.208  -3.826  0.00  0.00     0.095 H 
ATOM     18  H1  GLU d   1       2.594   1.374  -2.605  0.00  0.00     0.200 HD
ATOM     19  H2  GLU d   1       4.004   0.904  -1.860  0.00  0.00     0.200 HD
ATOM     20  N   GLU d   1       3.577   1.151  -2.751  0.00  0.00     0.227 N 
ATOM     21  H3  GLU d   1       4.054   1.975  -3.135  0.00  0.00     0.200 HD
ENDROOT
BRANCH   1  22
ATOM     22  CB  VAL d   2       3.736   1.351  -8.022  0.00  0.00    -0.020 C 
ATOM     23  HB  VAL d   2       3.874   2.118  -7.260  0.00  0.00     0.032 H 
BRANCH  22  24
ATOM     24  CG1 VAL d   2       5.101   0.828  -8.472  0.00  0.00    -0.060 C 
ATOM     25 1HG1 VAL d   2       5.310   1.178  -9.483  0.00  0.00     0.023 H 
ATOM     26 2HG1 VAL d   2       5.873   1.194  -7.794  0.00  0.00     0.023 H 
ATOM     27 3HG1 VAL d   2       5.095  -0.263  -8.459  0.00  0.00     0.023 H 
ENDBRANCH  22  24
BRANCH  22  28
ATOM     28  CG2 VAL d   2       2.999   1.950  -9.222  0.00  0.00    -0.060 C 
ATOM     29 1HG2 VAL d   2       2.988   3.037  -9.136  0.00  0.00     0.023 H 
ATOM     30 2HG2 VAL d   2       3.509   1.663 -10.142  0.00  0.00     0.023 H 
ATOM     31 3HG2 VAL d   2       1.975   1.576  -9.243  0.00  0.00     0.023 H 
ENDBRANCH  22  28
ENDBRANCH   1  22
BRANCH   8  32
ATOM     32  CB  PHE d   3       1.418  -1.796 -11.632  0.00  0.00    -0.004 C 
ATOM     33  HB1 PHE d   3       1.881  -1.687 -12.612  0.00  0.00     0.034 H 
ATOM     34  HB2 PHE d   3       0.829  -0.906 -11.407  0.00  0.00     0.034 H 
BRANCH  32  35
ATOM     35  CG  PHE d   3       0.518  -3.005 -11.632  0.00  0.00    -0.045 A 
ATOM     36  CD1 PHE d   3      -0.366  -3.208 -12.675  0.00  0.00    -0.059 A 
ATOM     37  CE1 PHE d   3      -1.191  -4.317 -12.676  0.00  0.00    -0.061 A 
ATOM     38  HD1 PHE d   3      -0.412  -2.501 -13.491  0.00  0.00     0.062 H 
ATOM     39  CZ  PHE d   3      -1.132  -5.222 -11.633  0.00  0.00    -0.062 A 
ATOM     40  HE1 PHE d   3      -1.882  -4.476 -13.491  0.00  0.00     0.062 H 
ATOM     41  CE2 PHE d   3      -0.249  -5.019 -10.590  0.00  0.00    -0.061 A 
ATOM     42  HZ  PHE d   3      -1.777  -6.089 -11.634  0.00  0.00     0.062 H 
ATOM     43  CD2 PHE d   3       0.581  -3.913 -10.592  0.00  0.00    -0.059 A 
ATOM     44  HE2 PHE d   3      -0.202  -5.727  -9.775  0.00  0.00     0.062 H 
ATOM     45  HD2 PHE d   3       1.274  -3.756  -9.779  0.00  0.00     0.062 H 
ENDBRANCH  32  35
ENDBRANCH   8  32
BRANCH  16  46
ATOM     46  CB  GLU d   1       2.961  -1.199  -3.179  0.00  0.00     0.004 C 
ATOM     47  HB1 GLU d   1       2.326  -0.912  -2.341  0.00  0.00     0.033 H 
ATOM     48  HB2 GLU d   1       2.344  -1.615  -3.976  0.00  0.00     0.033 H 
BRANCH  46  49
ATOM     49  CG  GLU d   1       3.973  -2.250  -2.716  0.00  0.00    -0.008 C 
ATOM     50  HG1 GLU d   1       4.620  -1.819  -1.952  0.00  0.00     0.033 H 
ATOM     51  HG2 GLU d   1       3.442  -3.107  -2.302  0.00  0.00     0.033 H 
BRANCH  49  52
ATOM     52  CD  GLU d   1       4.807  -2.695  -3.889  0.00  0.00     0.042 C 
ATOM     53  OE1 GLU d   1       4.274  -3.162  -4.867  0.00  0.00    -0.550 OA
ATOM     54  OE2 GLU d   1       6.143  -2.572  -3.847  0.00  0.00    -0.550 OA
ENDBRANCH  49  52
ENDBRANCH  46  49
ENDBRANCH  16  46
TORSDOF 14
ENDMDL
MODEL 6
REMARK VINA RESULT:      -6.2      1.672      2.890
REMARK  8 active torsions:
REMARK  status: ('A' for Active; 'I' for Inactive)
REMARK    1  A    between atoms: CG1_1  and  CB_2 
REMARK    2  A    between atoms: CB_2  and  CG2_3 
REMARK    3  A    between atoms: CB_2  and  CA_4 
REMARK       I    between atoms: CA_4  and  C_6 
REMARK       I    between atoms: CA_4  and  N_20 
REMARK       I    between atoms: C_6  and  N_8 
REMARK       I    between atoms: N_8  and  CA_9 
REMARK    4  A    between atoms: CA_9  and  CB_11 
REMARK       I    between atoms: CA_9  and  C_18 
REMARK    5  A    between atoms: CB_11  and  CG_12 
REMARK       I    between atoms: N_20  and  C_21 
REMARK       I    between atoms: C_21  and  CA_23 
REMARK    6  A    between atoms: CA_23  and  CB_25 
REMARK       I    between atoms: CA_23  and  N_53 
REMARK    7  A    between atoms: CB_25  and  CG_26 
REMARK    8  A    between atoms: CG_26  and  CD_27 
ROOT
ATOM      1  CA  VAL d   2       7.787  -0.282  -4.291  0.00  0.00     0.102 C 
ATOM      2  HA  VAL d   2       8.322  -0.941  -3.608  0.00  0.00     0.060 H 
ATOM      3  C   VAL d   2       7.993   1.151  -3.872  0.00  0.00     0.234 C 
ATOM      4  O   VAL d   2       7.039   1.838  -3.574  0.00  0.00    -0.274 OA
ATOM      5  N   VAL d   2       6.357  -0.601  -4.256  0.00  0.00    -0.299 N 
ATOM      6  H   VAL d   2       5.700   0.107  -4.351  0.00  0.00     0.150 HD
ATOM      7  N   PHE d   3       9.237   1.669  -3.830  0.00  0.00    -0.305 N 
ATOM      8  CA  PHE d   3       9.436   3.062  -3.423  0.00  0.00     0.067 C 
ATOM      9  HA  PHE d   3       8.707   3.325  -2.657  0.00  0.00     0.056 H 
ATOM     10  C   PHE d   3       9.258   3.964  -4.617  0.00  0.00     0.062 C 
ATOM     11  O   PHE d   3       8.990   3.492  -5.696  0.00  0.00    -0.548 OA
ATOM     12  H   PHE d   3       9.999   1.119  -4.068  0.00  0.00     0.149 HD
ATOM     13  OXT PHE d   3       9.395   5.293  -4.480  0.00  0.00    -0.548 OA
ATOM     14  C   GLU d   1       5.955  -1.876  -4.091  0.00  0.00     0.262 C 
ATOM     15  O   GLU d   1       6.777  -2.761  -3.971  0.00  0.00    -0.270 OA
ATOM     16  CA  GLU d   1       4.485  -2.203  -4.054  0.00  0.00     0.053 C 
ATOM     17  HA  GLU d   1       3.961  -1.607  -4.801  0.00  0.00     0.095 H 
ATOM     18  H1  GLU d   1       4.769  -4.205  -3.666  0.00  0.00     0.200 HD
ATOM     19  H2  GLU d   1       3.313  -3.862  -4.391  0.00  0.00     0.200 HD
ATOM     20  N   GLU d   1       4.304  -3.632  -4.368  0.00  0.00     0.227 N 
ATOM     21  H3  GLU d   1       4.716  -3.829  -5.288  0.00  0.00     0.200 HD
ENDROOT
BRANCH   1  22
ATOM     22  CB  VAL d   2       8.318  -0.480  -5.712  0.00  0.00    -0.020 C 
ATOM     23  HB  VAL d   2       8.123  -1.503  -6.033  0.00  0.00     0.032 H 
BRANCH  22  24
ATOM     24  CG1 VAL d   2       7.618   0.495  -6.660  0.00  0.00    -0.060 C 
ATOM     25 1HG1 VAL d   2       8.183   0.568  -7.589  0.00  0.00     0.023 H 
ATOM     26 2HG1 VAL d   2       6.611   0.134  -6.874  0.00  0.00     0.023 H 
ATOM     27 3HG1 VAL d   2       7.559   1.478  -6.192  0.00  0.00     0.023 H 
ENDBRANCH  22  24
BRANCH  22  28
ATOM     28  CG2 VAL d   2       9.826  -0.218  -5.733  0.00  0.00    -0.060 C 
ATOM     29 1HG2 VAL d   2      10.030   0.688  -6.305  0.00  0.00     0.023 H 
ATOM     30 2HG2 VAL d   2      10.187  -0.092  -4.712  0.00  0.00     0.023 H 
ATOM     31 3HG2 VAL d   2      10.335  -1.063  -6.197  0.00  0.00     0.023 H 
ENDBRANCH  22  28
ENDBRANCH   1  22
BRANCH   8  32
ATOM     32  CB  PHE d   3      10.849   3.232  -2.862  0.00  0.00    -0.004 C 
ATOM     33  HB1 PHE d   3      10.914   2.748  -1.888  0.00  0.00     0.034 H 
ATOM     34  HB2 PHE d   3      11.075   4.293  -2.757  0.00  0.00     0.034 H 
BRANCH  32  35
ATOM     35  CG  PHE d   3      11.842   2.600  -3.804  0.00  0.00    -0.045 A 
ATOM     36  CD1 PHE d   3      12.285   1.309  -3.579  0.00  0.00    -0.059 A 
ATOM     37  CE1 PHE d   3      13.195   0.730  -4.443  0.00  0.00    -0.061 A 
ATOM     38  HD1 PHE d   3      11.917   0.753  -2.728  0.00  0.00     0.062 H 
ATOM     39  CZ  PHE d   3      13.663   1.441  -5.531  0.00  0.00    -0.062 A 
ATOM     40  HE1 PHE d   3      13.540  -0.278  -4.267  0.00  0.00     0.062 H 
ATOM     41  CE2 PHE d   3      13.222   2.731  -5.756  0.00  0.00    -0.061 A 
ATOM     42  HZ  PHE d   3      14.375   0.988  -6.206  0.00  0.00     0.062 H 
ATOM     43  CD2 PHE d   3      12.307   3.309  -4.896  0.00  0.00    -0.059 A 
ATOM     44  HE2 PHE d   3      13.588   3.287  -6.608  0.00  0.00     0.062 H 
ATOM     45  HD2 PHE d   3      11.959   4.315  -5.074  0.00  0.00     0.062 H 
ENDBRANCH  32  35
ENDBRANCH   8  32
BRANCH  16  46
ATOM     46  CB  GLU d   1       3.926  -1.887  -2.666  0.00  0.00     0.004 C 
ATOM     47  HB1 GLU d   1       3.529  -2.798  -2.218  0.00  0.00     0.033 H 
ATOM     48  HB2 GLU d   1       4.721  -1.489  -2.036  0.00  0.00     0.033 H 
BRANCH  46  49
ATOM     49  CG  GLU d   1       2.806  -0.851  -2.789  0.00  0.00    -0.008 C 
ATOM     50  HG1 GLU d   1       2.235  -1.040  -3.698  0.00  0.00     0.033 H 
ATOM     51  HG2 GLU d   1       2.148  -0.923  -1.924  0.00  0.00     0.033 H 
BRANCH  49  52
ATOM     52  CD  GLU d   1       3.405   0.530  -2.851  0.00  0.00     0.042 C 
ATOM     53  OE1 GLU d   1       3.633   1.136  -1.831  0.00  0.00    -0.550 OA
ATOM     54  OE2 GLU d   1       3.687   1.088  -4.039  0.00  0.00    -0.550 OA
ENDBRANCH  49  52
ENDBRANCH  46  49
ENDBRANCH  16  46
TORSDOF 14
ENDMDL
MODEL 7
REMARK VINA RESULT:      -6.2      4.131      7.246
REMARK  8 active torsions:
REMARK  status: ('A' for Active; 'I' for Inactive)
REMARK    1  A    between atoms: CG1_1  and  CB_2 
REMARK    2  A    between atoms: CB_2  and  CG2_3 
REMARK    3  A    between atoms: CB_2  and  CA_4 
REMARK       I    between atoms: CA_4  and  C_6 
REMARK       I    between atoms: CA_4  and  N_20 
REMARK       I    between atoms: C_6  and  N_8 
REMARK       I    between atoms: N_8  and  CA_9 
REMARK    4  A    between atoms: CA_9  and  CB_11 
REMARK       I    between atoms: CA_9  and  C_18 
REMARK    5  A    between atoms: CB_11  and  CG_12 
REMARK       I    between atoms: N_20  and  C_21 
REMARK       I    between atoms: C_21  and  CA_23 
REMARK    6  A    between atoms: CA_23  and  CB_25 
REMARK       I    between atoms: CA_23  and  N_53 
REMARK    7  A    between atoms: CB_25  and  CG_26 
REMARK    8  A    between atoms: CG_26  and  CD_27 
ROOT
ATOM      1  CA  VAL d   2       7.615  -0.062  -6.312  0.00  0.00     0.102 C 
ATOM      2  HA  VAL d   2       7.757   0.068  -5.239  0.00  0.00     0.060 H 
ATOM      3  C   VAL d   2       6.224  -0.578  -6.576  0.00  0.00     0.234 C 
ATOM      4  O   VAL d   2       6.069  -1.643  -7.134  0.00  0.00    -0.274 OA
ATOM      5  N   VAL d   2       8.598  -1.023  -6.820  0.00  0.00    -0.299 N 
ATOM      6  H   VAL d   2       8.356  -1.630  -7.538  0.00  0.00     0.150 HD
ATOM      7  N   PHE d   3       5.154   0.145  -6.192  0.00  0.00    -0.305 N 
ATOM      8  CA  PHE d   3       3.801  -0.357  -6.450  0.00  0.00     0.067 C 
ATOM      9  HA  PHE d   3       3.792  -1.442  -6.354  0.00  0.00     0.056 H 
ATOM     10  C   PHE d   3       3.380   0.028  -7.845  0.00  0.00     0.062 C 
ATOM     11  O   PHE d   3       4.132   0.656  -8.551  0.00  0.00    -0.548 OA
ATOM     12  H   PHE d   3       5.278   0.996  -5.746  0.00  0.00     0.149 HD
ATOM     13  OXT PHE d   3       2.169  -0.327  -8.302  0.00  0.00    -0.548 OA
ATOM     14  C   GLU d   1       9.836  -1.065  -6.291  0.00  0.00     0.262 C 
ATOM     15  O   GLU d   1      10.138  -0.307  -5.392  0.00  0.00    -0.270 OA
ATOM     16  CA  GLU d   1      10.846  -2.053  -6.813  0.00  0.00     0.053 C 
ATOM     17  HA  GLU d   1      10.764  -2.117  -7.898  0.00  0.00     0.095 H 
ATOM     18  H1  GLU d   1      12.301  -1.543  -5.449  0.00  0.00     0.200 HD
ATOM     19  H2  GLU d   1      12.898  -2.222  -6.844  0.00  0.00     0.200 HD
ATOM     20  N   GLU d   1      12.199  -1.588  -6.461  0.00  0.00     0.227 N 
ATOM     21  H3  GLU d   1      12.346  -0.650  -6.854  0.00  0.00     0.200 HD
ENDROOT
BRANCH   1  22
ATOM     22  CB  VAL d   2       7.805   1.282  -7.018  0.00  0.00    -0.020 C 
ATOM     23  HB  VAL d   2       6.831   1.694  -7.283  0.00  0.00     0.032 H 
BRANCH  22  24
ATOM     24  CG1 VAL d   2       8.532   2.251  -6.084  0.00  0.00    -0.060 C 
ATOM     25 1HG1 VAL d   2       8.339   1.972  -5.048  0.00  0.00     0.023 H 
ATOM     26 2HG1 VAL d   2       9.604   2.208  -6.278  0.00  0.00     0.023 H 
ATOM     27 3HG1 VAL d   2       8.172   3.265  -6.261  0.00  0.00     0.023 H 
ENDBRANCH  22  24
BRANCH  22  28
ATOM     28  CG2 VAL d   2       8.634   1.077  -8.288  0.00  0.00    -0.060 C 
ATOM     29 1HG2 VAL d   2       9.303   0.227  -8.153  0.00  0.00     0.023 H 
ATOM     30 2HG2 VAL d   2       7.967   0.886  -9.129  0.00  0.00     0.023 H 
ATOM     31 3HG2 VAL d   2       9.221   1.974  -8.487  0.00  0.00     0.023 H 
ENDBRANCH  22  28
ENDBRANCH   1  22
BRANCH   8  32
ATOM     32  CB  PHE d   3       2.830   0.253  -5.438  0.00  0.00    -0.004 C 
ATOM     33  HB1 PHE d   3       1.861  -0.239  -5.522  0.00  0.00     0.034 H 
ATOM     34  HB2 PHE d   3       2.715   1.319  -5.639  0.00  0.00     0.034 H 
BRANCH  32  35
ATOM     35  CG  PHE d   3       3.371   0.062  -4.044  0.00  0.00    -0.045 A 
ATOM     36  CD1 PHE d   3       3.577  -1.213  -3.550  0.00  0.00    -0.059 A 
ATOM     37  CE1 PHE d   3       4.073  -1.388  -2.273  0.00  0.00    -0.061 A 
ATOM     38  HD1 PHE d   3       3.351  -2.073  -4.165  0.00  0.00     0.062 H 
ATOM     39  CZ  PHE d   3       4.363  -0.288  -1.488  0.00  0.00    -0.062 A 
ATOM     40  HE1 PHE d   3       4.234  -2.384  -1.888  0.00  0.00     0.062 H 
ATOM     41  CE2 PHE d   3       4.157   0.986  -1.980  0.00  0.00    -0.061 A 
ATOM     42  HZ  PHE d   3       4.751  -0.425  -0.489  0.00  0.00     0.062 H 
ATOM     43  CD2 PHE d   3       3.667   1.162  -3.260  0.00  0.00    -0.059 A 
ATOM     44  HE2 PHE d   3       4.384   1.846  -1.366  0.00  0.00     0.062 H 
ATOM     45  HD2 PHE d   3       3.509   2.158  -3.647  0.00  0.00     0.062 H 
ENDBRANCH  32  35
ENDBRANCH   8  32
BRANCH  16  46
ATOM     46  CB  GLU d   1      10.578  -3.429  -6.200  0.00  0.00     0.004 C 
ATOM     47  HB1 GLU d   1       9.511  -3.541  -6.009  0.00  0.00     0.033 H 
ATOM     48  HB2 GLU d   1      10.907  -4.205  -6.890  0.00  0.00     0.033 H 
BRANCH  46  49
ATOM     49  CG  GLU d   1      11.348  -3.559  -4.883  0.00  0.00    -0.008 C 
ATOM     50  HG1 GLU d   1      12.037  -4.401  -4.947  0.00  0.00     0.033 H 
ATOM     51  HG2 GLU d   1      11.909  -2.643  -4.698  0.00  0.00     0.033 H 
BRANCH  49  52
ATOM     52  CD  GLU d   1      10.377  -3.789  -3.754  0.00  0.00     0.042 C 
ATOM     53  OE1 GLU d   1      10.764  -4.253  -2.708  0.00  0.00    -0.550 OA
ATOM     54  OE2 GLU d   1       9.081  -3.477  -3.910  0.00  0.00    -0.550 OA
ENDBRANCH  49  52
ENDBRANCH  46  49
ENDBRANCH  16  46
TORSDOF 14
ENDMDL
MODEL 8
REMARK VINA RESULT:      -6.2      6.507      8.924
REMARK  8 active torsions:
REMARK  status: ('A' for Active; 'I' for Inactive)
REMARK    1  A    between atoms: CG1_1  and  CB_2 
REMARK    2  A    between atoms: CB_2  and  CG2_3 
REMARK    3  A    between atoms: CB_2  and  CA_4 
REMARK       I    between atoms: CA_4  and  C_6 
REMARK       I    between atoms: CA_4  and  N_20 
REMARK       I    between atoms: C_6  and  N_8 
REMARK       I    between atoms: N_8  and  CA_9 
REMARK    4  A    between atoms: CA_9  and  CB_11 
REMARK       I    between atoms: CA_9  and  C_18 
REMARK    5  A    between atoms: CB_11  and  CG_12 
REMARK       I    between atoms: N_20  and  C_21 
REMARK       I    between atoms: C_21  and  CA_23 
REMARK    6  A    between atoms: CA_23  and  CB_25 
REMARK       I    between atoms: CA_23  and  N_53 
REMARK    7  A    between atoms: CB_25  and  CG_26 
REMARK    8  A    between atoms: CG_26  and  CD_27 
ROOT
ATOM      1  CA  VAL d   2       3.425  -4.033  -9.042  0.00  0.00     0.102 C 
ATOM      2  HA  VAL d   2       3.244  -4.716  -8.212  0.00  0.00     0.060 H 
ATOM      3  C   VAL d   2       3.633  -2.639  -8.510  0.00  0.00     0.234 C 
ATOM      4  O   VAL d   2       2.890  -1.743  -8.850  0.00  0.00    -0.274 OA
ATOM      5  N   VAL d   2       2.269  -4.045  -9.943  0.00  0.00    -0.299 N 
ATOM      6  H   VAL d   2       1.999  -3.230 -10.396  0.00  0.00     0.150 HD
ATOM      7  N   PHE d   3       4.646  -2.388  -7.657  0.00  0.00    -0.305 N 
ATOM      8  CA  PHE d   3       4.849  -1.032  -7.140  0.00  0.00     0.067 C 
ATOM      9  HA  PHE d   3       3.883  -0.548  -7.001  0.00  0.00     0.056 H 
ATOM     10  C   PHE d   3       5.672  -0.238  -8.123  0.00  0.00     0.062 C 
ATOM     11  O   PHE d   3       6.049  -0.752  -9.149  0.00  0.00    -0.548 OA
ATOM     12  H   PHE d   3       5.240  -3.104  -7.386  0.00  0.00     0.149 HD
ATOM     13  OXT PHE d   3       5.985   1.041  -7.857  0.00  0.00    -0.548 OA
ATOM     14  C   GLU d   1       1.581  -5.186 -10.142  0.00  0.00     0.262 C 
ATOM     15  O   GLU d   1       1.919  -6.205  -9.575  0.00  0.00    -0.270 OA
ATOM     16  CA  GLU d   1       0.393  -5.197 -11.068  0.00  0.00     0.053 C 
ATOM     17  HA  GLU d   1       0.608  -4.585 -11.943  0.00  0.00     0.095 H 
ATOM     18  H1  GLU d   1      -0.088  -7.165 -10.699  0.00  0.00     0.200 HD
ATOM     19  H2  GLU d   1      -0.636  -6.604 -12.164  0.00  0.00     0.200 HD
ATOM     20  N   GLU d   1       0.138  -6.582 -11.503  0.00  0.00     0.227 N 
ATOM     21  H3  GLU d   1       0.980  -6.953 -11.960  0.00  0.00     0.200 HD
ENDROOT
BRANCH   1  22
ATOM     22  CB  VAL d   2       4.672  -4.480  -9.807  0.00  0.00    -0.020 C 
ATOM     23  HB  VAL d   2       4.491  -5.456 -10.259  0.00  0.00     0.032 H 
BRANCH  22  24
ATOM     24  CG1 VAL d   2       4.991  -3.462 -10.903  0.00  0.00    -0.060 C 
ATOM     25 1HG1 VAL d   2       4.175  -3.438 -11.626  0.00  0.00     0.023 H 
ATOM     26 2HG1 VAL d   2       5.111  -2.474 -10.458  0.00  0.00     0.023 H 
ATOM     27 3HG1 VAL d   2       5.915  -3.747 -11.407  0.00  0.00     0.023 H 
ENDBRANCH  22  24
BRANCH  22  28
ATOM     28  CG2 VAL d   2       5.855  -4.578  -8.841  0.00  0.00    -0.060 C 
ATOM     29 1HG2 VAL d   2       6.677  -5.104  -9.326  0.00  0.00     0.023 H 
ATOM     30 2HG2 VAL d   2       6.179  -3.575  -8.562  0.00  0.00     0.023 H 
ATOM     31 3HG2 VAL d   2       5.550  -5.123  -7.948  0.00  0.00     0.023 H 
ENDBRANCH  22  28
ENDBRANCH   1  22
BRANCH   8  32
ATOM     32  CB  PHE d   3       5.583  -1.102  -5.800  0.00  0.00    -0.004 C 
ATOM     33  HB1 PHE d   3       6.254  -0.247  -5.708  0.00  0.00     0.034 H 
ATOM     34  HB2 PHE d   3       6.162  -2.025  -5.749  0.00  0.00     0.034 H 
BRANCH  32  35
ATOM     35  CG  PHE d   3       4.580  -1.076  -4.676  0.00  0.00    -0.045 A 
ATOM     36  CD1 PHE d   3       4.697  -1.965  -3.624  0.00  0.00    -0.059 A 
ATOM     37  CE1 PHE d   3       3.778  -1.942  -2.592  0.00  0.00    -0.061 A 
ATOM     38  HD1 PHE d   3       5.509  -2.679  -3.607  0.00  0.00     0.062 H 
ATOM     39  CZ  PHE d   3       2.740  -1.030  -2.613  0.00  0.00    -0.062 A 
ATOM     40  HE1 PHE d   3       3.870  -2.637  -1.770  0.00  0.00     0.062 H 
ATOM     41  CE2 PHE d   3       2.622  -0.141  -3.665  0.00  0.00    -0.061 A 
ATOM     42  HZ  PHE d   3       2.021  -1.011  -1.808  0.00  0.00     0.062 H 
ATOM     43  CD2 PHE d   3       3.545  -0.160  -4.693  0.00  0.00    -0.059 A 
ATOM     44  HE2 PHE d   3       1.811   0.573  -3.681  0.00  0.00     0.062 H 
ATOM     45  HD2 PHE d   3       3.455   0.537  -5.513  0.00  0.00     0.062 H 
ENDBRANCH  32  35
ENDBRANCH   8  32
BRANCH  16  46
ATOM     46  CB  GLU d   1      -0.828  -4.634 -10.339  0.00  0.00     0.004 C 
ATOM     47  HB1 GLU d   1      -0.600  -4.525  -9.278  0.00  0.00     0.033 H 
ATOM     48  HB2 GLU d   1      -1.083  -3.660 -10.757  0.00  0.00     0.033 H 
BRANCH  46  49
ATOM     49  CG  GLU d   1      -2.012  -5.589 -10.511  0.00  0.00    -0.008 C 
ATOM     50  HG1 GLU d   1      -2.894  -5.023 -10.811  0.00  0.00     0.033 H 
ATOM     51  HG2 GLU d   1      -1.775  -6.326 -11.277  0.00  0.00     0.033 H 
BRANCH  49  52
ATOM     52  CD  GLU d   1      -2.285  -6.290  -9.206  0.00  0.00     0.042 C 
ATOM     53  OE1 GLU d   1      -3.322  -6.091  -8.618  0.00  0.00    -0.550 OA
ATOM     54  OE2 GLU d   1      -1.378  -7.137  -8.697  0.00  0.00    -0.550 OA
ENDBRANCH  49  52
ENDBRANCH  46  49
ENDBRANCH  16  46
TORSDOF 14
ENDMDL
MODEL 9
REMARK VINA RESULT:      -6.2      6.962      9.215
REMARK  8 active torsions:
REMARK  status: ('A' for Active; 'I' for Inactive)
REMARK    1  A    between atoms: CG1_1  and  CB_2 
REMARK    2  A    between atoms: CB_2  and  CG2_3 
REMARK    3  A    between atoms: CB_2  and  CA_4 
REMARK       I    between atoms: CA_4  and  C_6 
REMARK       I    between atoms: CA_4  and  N_20 
REMARK       I    between atoms: C_6  and  N_8 
REMARK       I    between atoms: N_8  and  CA_9 
REMARK    4  A    between atoms: CA_9  and  CB_11 
REMARK       I    between atoms: CA_9  and  C_18 
REMARK    5  A    between atoms: CB_11  and  CG_12 
REMARK       I    between atoms: N_20  and  C_21 
REMARK       I    between atoms: C_21  and  CA_23 
REMARK    6  A    between atoms: CA_23  and  CB_25 
REMARK       I    between atoms: CA_23  and  N_53 
REMARK    7  A    between atoms: CB_25  and  CG_26 
REMARK    8  A    between atoms: CG_26  and  CD_27 
ROOT
ATOM      1  CA  VAL d   2       7.171  -6.597  -5.296  0.00  0.00     0.102 C 
ATOM      2  HA  VAL d   2       7.687  -6.179  -4.431  0.00  0.00     0.060 H 
ATOM      3  C   VAL d   2       5.966  -5.752  -5.620  0.00  0.00     0.234 C 
ATOM      4  O   VAL d   2       4.858  -6.245  -5.601  0.00  0.00    -0.274 OA
ATOM      5  N   VAL d   2       6.743  -7.965  -4.993  0.00  0.00    -0.299 N 
ATOM      6  H   VAL d   2       5.908  -8.302  -5.355  0.00  0.00     0.150 HD
ATOM      7  N   PHE d   3       6.120  -4.450  -5.932  0.00  0.00    -0.305 N 
ATOM      8  CA  PHE d   3       4.948  -3.629  -6.247  0.00  0.00     0.067 C 
ATOM      9  HA  PHE d   3       4.105  -3.950  -5.636  0.00  0.00     0.056 H 
ATOM     10  C   PHE d   3       4.601  -3.788  -7.705  0.00  0.00     0.062 C 
ATOM     11  O   PHE d   3       5.264  -4.513  -8.408  0.00  0.00    -0.548 OA
ATOM     12  H   PHE d   3       7.006  -4.057  -5.947  0.00  0.00     0.149 HD
ATOM     13  OXT PHE d   3       3.554  -3.125  -8.223  0.00  0.00    -0.548 OA
ATOM     14  C   GLU d   1       7.507  -8.755  -4.214  0.00  0.00     0.262 C 
ATOM     15  O   GLU d   1       8.552  -8.332  -3.763  0.00  0.00    -0.270 OA
ATOM     16  CA  GLU d   1       7.066 -10.161  -3.903  0.00  0.00     0.053 C 
ATOM     17  HA  GLU d   1       6.631 -10.611  -4.795  0.00  0.00     0.095 H 
ATOM     18  H1  GLU d   1       8.647 -10.557  -2.645  0.00  0.00     0.200 HD
ATOM     19  H2  GLU d   1       7.968 -11.917  -3.319  0.00  0.00     0.200 HD
ATOM     20  N   GLU d   1       8.240 -10.951  -3.492  0.00  0.00     0.227 N 
ATOM     21  H3  GLU d   1       8.941 -10.929  -4.241  0.00  0.00     0.200 HD
ENDROOT
BRANCH   1  22
ATOM     22  CB  VAL d   2       8.121  -6.614  -6.496  0.00  0.00    -0.020 C 
ATOM     23  HB  VAL d   2       7.829  -5.836  -7.202  0.00  0.00     0.032 H 
BRANCH  22  24
ATOM     24  CG1 VAL d   2       9.551  -6.359  -6.019  0.00  0.00    -0.060 C 
ATOM     25 1HG1 VAL d   2       9.529  -5.767  -5.104  0.00  0.00     0.023 H 
ATOM     26 2HG1 VAL d   2      10.045  -7.311  -5.823  0.00  0.00     0.023 H 
ATOM     27 3HG1 VAL d   2      10.100  -5.818  -6.789  0.00  0.00     0.023 H 
ENDBRANCH  22  24
BRANCH  22  28
ATOM     28  CG2 VAL d   2       8.048  -7.979  -7.184  0.00  0.00    -0.060 C 
ATOM     29 1HG2 VAL d   2       8.487  -7.909  -8.179  0.00  0.00     0.023 H 
ATOM     30 2HG2 VAL d   2       8.598  -8.712  -6.594  0.00  0.00     0.023 H 
ATOM     31 3HG2 VAL d   2       7.006  -8.289  -7.267  0.00  0.00     0.023 H 
ENDBRANCH  22  28
ENDBRANCH   1  22
BRANCH   8  32
ATOM     32  CB  PHE d   3       5.261  -2.161  -5.955  0.00  0.00    -0.004 C 
ATOM     33  HB1 PHE d   3       5.030  -1.559  -6.833  0.00  0.00     0.034 H 
ATOM     34  HB2 PHE d   3       6.318  -2.055  -5.709  0.00  0.00     0.034 H 
BRANCH  32  35
ATOM     35  CG  PHE d   3       4.427  -1.692  -4.790  0.00  0.00    -0.045 A 
ATOM     36  CD1 PHE d   3       3.629  -0.570  -4.918  0.00  0.00    -0.059 A 
ATOM     37  CE1 PHE d   3       2.864  -0.139  -3.851  0.00  0.00    -0.061 A 
ATOM     38  HD1 PHE d   3       3.603  -0.029  -5.854  0.00  0.00     0.062 H 
ATOM     39  CZ  PHE d   3       2.897  -0.831  -2.655  0.00  0.00    -0.062 A 
ATOM     40  HE1 PHE d   3       2.241   0.737  -3.951  0.00  0.00     0.062 H 
ATOM     41  CE2 PHE d   3       3.694  -1.952  -2.526  0.00  0.00    -0.061 A 
ATOM     42  HZ  PHE d   3       2.300  -0.495  -1.820  0.00  0.00     0.062 H 
ATOM     43  CD2 PHE d   3       4.455  -2.386  -3.595  0.00  0.00    -0.059 A 
ATOM     44  HE2 PHE d   3       3.720  -2.493  -1.591  0.00  0.00     0.062 H 
ATOM     45  HD2 PHE d   3       5.075  -3.265  -3.496  0.00  0.00     0.062 H 
ENDBRANCH  32  35
ENDBRANCH   8  32
BRANCH  16  46
ATOM     46  CB  GLU d   1       6.022 -10.133  -2.785  0.00  0.00     0.004 C 
ATOM     47  HB1 GLU d   1       6.487 -10.434  -1.846  0.00  0.00     0.033 H 
ATOM     48  HB2 GLU d   1       5.623  -9.123  -2.686  0.00  0.00     0.033 H 
BRANCH  46  49
ATOM     49  CG  GLU d   1       4.885 -11.099  -3.124  0.00  0.00    -0.008 C 
ATOM     50  HG1 GLU d   1       5.243 -11.848  -3.831  0.00  0.00     0.033 H 
ATOM     51  HG2 GLU d   1       4.545 -11.593  -2.213  0.00  0.00     0.033 H 
BRANCH  49  52
ATOM     52  CD  GLU d   1       3.741 -10.335  -3.737  0.00  0.00     0.042 C 
ATOM     53  OE1 GLU d   1       3.925  -9.227  -4.183  0.00  0.00    -0.550 OA
ATOM     54  OE2 GLU d   1       2.518 -10.883  -3.787  0.00  0.00    -0.550 OA
ENDBRANCH  49  52
ENDBRANCH  46  49
ENDBRANCH  16  46
TORSDOF 14
ENDMDL
MODEL 10
REMARK VINA RESULT:      -5.7      2.475      7.834
REMARK  8 active torsions:
REMARK  status: ('A' for Active; 'I' for Inactive)
REMARK    1  A    between atoms: CG1_1  and  CB_2 
REMARK    2  A    between atoms: CB_2  and  CG2_3 
REMARK    3  A    between atoms: CB_2  and  CA_4 
REMARK       I    between atoms: CA_4  and  C_6 
REMARK       I    between atoms: CA_4  and  N_20 
REMARK       I    between atoms: C_6  and  N_8 
REMARK       I    between atoms: N_8  and  CA_9 
REMARK    4  A    between atoms: CA_9  and  CB_11 
REMARK       I    between atoms: CA_9  and  C_18 
REMARK    5  A    between atoms: CB_11  and  CG_12 
REMARK       I    between atoms: N_20  and  C_21 
REMARK       I    between atoms: C_21  and  CA_23 
REMARK    6  A    between atoms: CA_23  and  CB_25 
REMARK       I    between atoms: CA_23  and  N_53 
REMARK    7  A    between atoms: CB_25  and  CG_26 
REMARK    8  A    between atoms: CG_26  and  CD_27 
ROOT
ATOM      1  CA  VAL d   2       8.910   2.546  -5.653  0.00  0.00     0.102 C 
ATOM      2  HA  VAL d   2       8.052   3.196  -5.823  0.00  0.00     0.060 H 
ATOM      3  C   VAL d   2       8.443   1.241  -5.060  0.00  0.00     0.234 C 
ATOM      4  O   VAL d   2       8.847   0.892  -3.971  0.00  0.00    -0.274 OA
ATOM      5  N   VAL d   2       9.839   3.199  -4.727  0.00  0.00    -0.299 N 
ATOM      6  H   VAL d   2      10.339   2.668  -4.087  0.00  0.00     0.150 HD
ATOM      7  N   PHE d   3       7.577   0.464  -5.740  0.00  0.00    -0.305 N 
ATOM      8  CA  PHE d   3       7.123  -0.804  -5.163  0.00  0.00     0.067 C 
ATOM      9  HA  PHE d   3       7.034  -0.701  -4.082  0.00  0.00     0.056 H 
ATOM     10  C   PHE d   3       8.122  -1.887  -5.483  0.00  0.00     0.062 C 
ATOM     11  O   PHE d   3       9.111  -1.626  -6.125  0.00  0.00    -0.548 OA
ATOM     12  H   PHE d   3       7.254   0.744  -6.610  0.00  0.00     0.149 HD
ATOM     13  OXT PHE d   3       7.912  -3.142  -5.052  0.00  0.00    -0.548 OA
ATOM     14  C   GLU d   1      10.000   4.536  -4.763  0.00  0.00     0.262 C 
ATOM     15  O   GLU d   1       9.373   5.200  -5.564  0.00  0.00    -0.270 OA
ATOM     16  CA  GLU d   1      10.955   5.207  -3.812  0.00  0.00     0.053 C 
ATOM     17  HA  GLU d   1      11.853   4.599  -3.710  0.00  0.00     0.095 H 
ATOM     18  H1  GLU d   1      10.500   7.115  -4.436  0.00  0.00     0.200 HD
ATOM     19  H2  GLU d   1      12.006   6.976  -3.746  0.00  0.00     0.200 HD
ATOM     20  N   GLU d   1      11.327   6.525  -4.356  0.00  0.00     0.227 N 
ATOM     21  H3  GLU d   1      11.742   6.401  -5.287  0.00  0.00     0.200 HD
ENDROOT
BRANCH   1  22
ATOM     22  CB  VAL d   2       9.619   2.278  -6.982  0.00  0.00    -0.020 C 
ATOM     23  HB  VAL d   2       9.368   1.277  -7.332  0.00  0.00     0.032 H 
BRANCH  22  24
ATOM     24  CG1 VAL d   2       9.168   3.309  -8.018  0.00  0.00    -0.060 C 
ATOM     25 1HG1 VAL d   2       8.093   3.220  -8.175  0.00  0.00     0.023 H 
ATOM     26 2HG1 VAL d   2       9.401   4.312  -7.658  0.00  0.00     0.023 H 
ATOM     27 3HG1 VAL d   2       9.690   3.131  -8.958  0.00  0.00     0.023 H 
ENDBRANCH  22  24
BRANCH  22  28
ATOM     28  CG2 VAL d   2      11.132   2.383  -6.782  0.00  0.00    -0.060 C 
ATOM     29 1HG2 VAL d   2      11.391   3.400  -6.486  0.00  0.00     0.023 H 
ATOM     30 2HG2 VAL d   2      11.445   1.687  -6.003  0.00  0.00     0.023 H 
ATOM     31 3HG2 VAL d   2      11.640   2.136  -7.714  0.00  0.00     0.023 H 
ENDBRANCH  22  28
ENDBRANCH   1  22
BRANCH   8  32
ATOM     32  CB  PHE d   3       5.762  -1.175  -5.754  0.00  0.00    -0.004 C 
ATOM     33  HB1 PHE d   3       5.810  -2.181  -6.172  0.00  0.00     0.034 H 
ATOM     34  HB2 PHE d   3       5.502  -0.467  -6.542  0.00  0.00     0.034 H 
BRANCH  32  35
ATOM     35  CG  PHE d   3       4.714  -1.129  -4.672  0.00  0.00    -0.045 A 
ATOM     36  CD1 PHE d   3       3.681  -0.214  -4.748  0.00  0.00    -0.059 A 
ATOM     37  CE1 PHE d   3       2.720  -0.172  -3.756  0.00  0.00    -0.061 A 
ATOM     38  HD1 PHE d   3       3.624   0.468  -5.585  0.00  0.00     0.062 H 
ATOM     39  CZ  PHE d   3       2.793  -1.045  -2.687  0.00  0.00    -0.062 A 
ATOM     40  HE1 PHE d   3       1.912   0.543  -3.816  0.00  0.00     0.062 H 
ATOM     41  CE2 PHE d   3       3.825  -1.960  -2.610  0.00  0.00    -0.061 A 
ATOM     42  HZ  PHE d   3       2.042  -1.012  -1.912  0.00  0.00     0.062 H 
ATOM     43  CD2 PHE d   3       4.783  -2.006  -3.605  0.00  0.00    -0.059 A 
ATOM     44  HE2 PHE d   3       3.882  -2.642  -1.774  0.00  0.00     0.062 H 
ATOM     45  HD2 PHE d   3       5.589  -2.723  -3.547  0.00  0.00     0.062 H 
ENDBRANCH  32  35
ENDBRANCH   8  32
BRANCH  16  46
ATOM     46  CB  GLU d   1      10.287   5.363  -2.444  0.00  0.00     0.004 C 
ATOM     47  HB1 GLU d   1       9.306   5.821  -2.569  0.00  0.00     0.033 H 
ATOM     48  HB2 GLU d   1      10.174   4.383  -1.981  0.00  0.00     0.033 H 
BRANCH  46  49
ATOM     49  CG  GLU d   1      11.155   6.252  -1.550  0.00  0.00    -0.008 C 
ATOM     50  HG1 GLU d   1      11.922   5.645  -1.070  0.00  0.00     0.033 H 
ATOM     51  HG2 GLU d   1      11.628   7.024  -2.157  0.00  0.00     0.033 H 
BRANCH  49  52
ATOM     52  CD  GLU d   1      10.293   6.899  -0.497  0.00  0.00     0.042 C 
ATOM     53  OE1 GLU d   1       9.265   7.449  -0.812  0.00  0.00    -0.550 OA
ATOM     54  OE2 GLU d   1      10.668   6.864   0.791  0.00  0.00    -0.550 OA
ENDBRANCH  49  52
ENDBRANCH  46  49
ENDBRANCH  16  46
TORSDOF 14
ENDMDL
