MODEL 1
REMARK VINA RESULT:      -7.2      0.000      0.000
REMARK  8 active torsions:
REMARK  status: ('A' for Active; 'I' for Inactive)
REMARK    1  A    between atoms: C_1  and  C_2 
REMARK    2  A    between atoms: C_7  and  C_8 
REMARK    3  A    between atoms: N_27  and  C_30 
REMARK    4  A    between atoms: C_30  and  C_31 
REMARK    5  A    between atoms: C_31  and  O_32 
REMARK    6  A    between atoms: C_31  and  O_34 
REMARK    7  A    between atoms: O_32  and  C_33 
REMARK    8  A    between atoms: O_34  and  C_35 
ROOT
ATOM      1  C   LIG d   1       5.954  -1.230  -5.548  0.00  0.00     0.093 C 
ATOM      2  H   LIG d   1       7.007  -0.958  -5.478  0.00  0.00     0.062 H 
ATOM      3  C   LIG d   1       5.354  -0.647  -6.808  0.00  0.00     0.046 A 
ATOM      4  C   LIG d   1       4.611  -1.362  -7.680  0.00  0.00    -0.015 A 
ATOM      5  C   LIG d   1       4.220  -0.460  -8.744  0.00  0.00     0.003 A 
ATOM      6  C   LIG d   1       3.456  -0.634  -9.902  0.00  0.00    -0.052 A 
ATOM      7  C   LIG d   1       3.287   0.466 -10.705  0.00  0.00    -0.061 A 
ATOM      8  C   LIG d   1       3.843   1.696 -10.394  0.00  0.00    -0.060 A 
ATOM      9  C   LIG d   1       4.603   1.897  -9.254  0.00  0.00    -0.038 A 
ATOM     10  C   LIG d   1       4.791   0.798  -8.419  0.00  0.00     0.047 A 
ATOM     11  N   LIG d   1       5.468   0.646  -7.243  0.00  0.00    -0.356 N 
ATOM     12  H   LIG d   1       5.955   1.349  -6.786  0.00  0.00     0.166 HD
ATOM     13  C   LIG d   1       4.281  -2.826  -7.528  0.00  0.00     0.002 C 
ATOM     14  C   LIG d   1       4.535  -3.243  -6.073  0.00  0.00     0.107 A 
ATOM     15  H   LIG d   1       3.745  -2.831  -5.445  0.00  0.00     0.060 H 
ATOM     16  N   LIG d   1       5.819  -2.700  -5.635  0.00  0.00    -0.276 N 
ATOM     17  C   LIG d   1       6.865  -3.465  -5.316  0.00  0.00     0.234 A 
ATOM     18  O   LIG d   1       7.906  -2.912  -5.029  0.00  0.00    -0.274 OA
ATOM     19  C   LIG d   1       6.841  -4.959  -5.290  0.00  0.00     0.091 A 
ATOM     20  N   LIG d   1       5.527  -5.491  -5.617  0.00  0.00    -0.286 N 
ATOM     21  C   LIG d   1       4.489  -4.734  -5.965  0.00  0.00     0.237 A 
ATOM     22  O   LIG d   1       3.439  -5.288  -6.209  0.00  0.00    -0.274 OA
ATOM     23  H   LIG d   1       3.019  -1.590 -10.152  0.00  0.00     0.062 H 
ATOM     24  H   LIG d   1       2.702   0.370 -11.607  0.00  0.00     0.062 H 
ATOM     25  H   LIG d   1       3.678   2.528 -11.063  0.00  0.00     0.062 H 
ATOM     26  H   LIG d   1       5.029   2.862  -9.023  0.00  0.00     0.064 H 
ATOM     27  H   LIG d   1       4.914  -3.413  -8.192  0.00  0.00     0.034 H 
ATOM     28  H   LIG d   1       3.233  -2.993  -7.779  0.00  0.00     0.034 H 
ATOM     29  H   LIG d   1       7.122  -5.301  -4.294  0.00  0.00     0.056 H 
ATOM     30  H   LIG d   1       7.566  -5.338  -6.011  0.00  0.00     0.056 H 
ENDROOT
BRANCH   1  31
ATOM     31  C   LIG d   1       5.211  -0.718  -4.342  0.00  0.00    -0.018 A 
ATOM     32  C   LIG d   1       5.806   0.205  -3.503  0.00  0.00    -0.045 A 
ATOM     33  C   LIG d   1       5.124   0.675  -2.397  0.00  0.00    -0.059 A 
ATOM     34  C   LIG d   1       3.848   0.218  -2.126  0.00  0.00    -0.061 A 
ATOM     35  H   LIG d   1       5.590   1.396  -1.741  0.00  0.00     0.062 H 
ATOM     36  C   LIG d   1       3.250  -0.703  -2.967  0.00  0.00    -0.061 A 
ATOM     37  H   LIG d   1       3.317   0.581  -1.258  0.00  0.00     0.062 H 
ATOM     38  C   LIG d   1       3.931  -1.172  -4.073  0.00  0.00    -0.056 A 
ATOM     39  H   LIG d   1       2.252  -1.058  -2.757  0.00  0.00     0.062 H 
ATOM     40  H   LIG d   1       3.467  -1.893  -4.729  0.00  0.00     0.062 H 
BRANCH  32  41
ATOM     41  C   LIG d   1       7.199   0.699  -3.795  0.00  0.00    -0.039 C 
ATOM     42  H   LIG d   1       7.779   0.719  -2.872  0.00  0.00     0.028 H 
ATOM     43  H   LIG d   1       7.679   0.032  -4.511  0.00  0.00     0.028 H 
ATOM     44  H   LIG d   1       7.148   1.704  -4.215  0.00  0.00     0.028 H 
ENDBRANCH  32  41
ENDBRANCH   1  31
BRANCH  20  45
ATOM     45  C   LIG d   1       5.337  -6.942  -5.562  0.00  0.00     0.066 C 
ATOM     46  H   LIG d   1       5.482  -7.289  -4.540  0.00  0.00     0.051 H 
ATOM     47  H   LIG d   1       4.328  -7.188  -5.891  0.00  0.00     0.051 H 
BRANCH  45  48
ATOM     48  C   LIG d   1       6.353  -7.624  -6.481  0.00  0.00     0.174 C 
ATOM     49  H   LIG d   1       7.191  -6.950  -6.662  0.00  0.00     0.092 H 
BRANCH  48  50
ATOM     50  O   LIG d   1       6.832  -8.819  -5.859  0.00  0.00    -0.353 OA
BRANCH  50  51
ATOM     51  C   LIG d   1       6.589  -8.880  -4.452  0.00  0.00     0.040 C 
ATOM     52  H   LIG d   1       7.382  -8.353  -3.923  0.00  0.00     0.052 H 
ATOM     53  H   LIG d   1       5.629  -8.412  -4.228  0.00  0.00     0.052 H 
ATOM     54  H   LIG d   1       6.567  -9.922  -4.133  0.00  0.00     0.052 H 
ENDBRANCH  50  51
ENDBRANCH  48  50
BRANCH  48  55
ATOM     55  O   LIG d   1       5.728  -7.952  -7.723  0.00  0.00    -0.353 OA
BRANCH  55  56
ATOM     56  C   LIG d   1       4.404  -8.474  -7.588  0.00  0.00     0.040 C 
ATOM     57  H   LIG d   1       3.701  -7.815  -8.098  0.00  0.00     0.052 H 
ATOM     58  H   LIG d   1       4.359  -9.468  -8.032  0.00  0.00     0.052 H 
ATOM     59  H   LIG d   1       4.145  -8.535  -6.531  0.00  0.00     0.052 H 
ENDBRANCH  55  56
ENDBRANCH  48  55
ENDBRANCH  45  48
ENDBRANCH  20  45
TORSDOF 8
ENDMDL
MODEL 2
REMARK VINA RESULT:      -6.8      2.006      2.648
REMARK  8 active torsions:
REMARK  status: ('A' for Active; 'I' for Inactive)
REMARK    1  A    between atoms: C_1  and  C_2 
REMARK    2  A    between atoms: C_7  and  C_8 
REMARK    3  A    between atoms: N_27  and  C_30 
REMARK    4  A    between atoms: C_30  and  C_31 
REMARK    5  A    between atoms: C_31  and  O_32 
REMARK    6  A    between atoms: C_31  and  O_34 
REMARK    7  A    between atoms: O_32  and  C_33 
REMARK    8  A    between atoms: O_34  and  C_35 
ROOT
ATOM      1  C   LIG d   1       5.836  -0.626  -5.583  0.00  0.00     0.093 C 
ATOM      2  H   LIG d   1       6.625   0.098  -5.787  0.00  0.00     0.062 H 
ATOM      3  C   LIG d   1       4.826  -0.617  -6.707  0.00  0.00     0.046 A 
ATOM      4  C   LIG d   1       4.379  -1.737  -7.317  0.00  0.00    -0.015 A 
ATOM      5  C   LIG d   1       3.429  -1.319  -8.328  0.00  0.00     0.003 A 
ATOM      6  C   LIG d   1       2.656  -2.027  -9.253  0.00  0.00    -0.052 A 
ATOM      7  C   LIG d   1       1.847  -1.288 -10.080  0.00  0.00    -0.061 A 
ATOM      8  C   LIG d   1       1.790   0.094 -10.011  0.00  0.00    -0.060 A 
ATOM      9  C   LIG d   1       2.543   0.820  -9.105  0.00  0.00    -0.038 A 
ATOM     10  C   LIG d   1       3.374   0.097  -8.251  0.00  0.00     0.047 A 
ATOM     11  N   LIG d   1       4.230   0.484  -7.261  0.00  0.00    -0.356 N 
ATOM     12  H   LIG d   1       4.392   1.402  -6.991  0.00  0.00     0.166 HD
ATOM     13  C   LIG d   1       4.821  -3.137  -6.972  0.00  0.00     0.002 C 
ATOM     14  C   LIG d   1       5.487  -3.120  -5.590  0.00  0.00     0.107 A 
ATOM     15  H   LIG d   1       4.717  -2.999  -4.828  0.00  0.00     0.060 H 
ATOM     16  N   LIG d   1       6.409  -1.988  -5.515  0.00  0.00    -0.276 N 
ATOM     17  C   LIG d   1       7.730  -2.128  -5.392  0.00  0.00     0.234 A 
ATOM     18  O   LIG d   1       8.411  -1.125  -5.406  0.00  0.00    -0.274 OA
ATOM     19  C   LIG d   1       8.429  -3.441  -5.239  0.00  0.00     0.091 A 
ATOM     20  N   LIG d   1       7.496  -4.555  -5.201  0.00  0.00    -0.286 N 
ATOM     21  C   LIG d   1       6.180  -4.424  -5.353  0.00  0.00     0.237 A 
ATOM     22  O   LIG d   1       5.499  -5.426  -5.295  0.00  0.00    -0.274 OA
ATOM     23  H   LIG d   1       2.694  -3.105  -9.314  0.00  0.00     0.062 H 
ATOM     24  H   LIG d   1       1.235  -1.801 -10.807  0.00  0.00     0.062 H 
ATOM     25  H   LIG d   1       1.136   0.624 -10.688  0.00  0.00     0.062 H 
ATOM     26  H   LIG d   1       2.488   1.898  -9.061  0.00  0.00     0.064 H 
ATOM     27  H   LIG d   1       5.534  -3.488  -7.718  0.00  0.00     0.034 H 
ATOM     28  H   LIG d   1       3.955  -3.799  -6.953  0.00  0.00     0.034 H 
ATOM     29  H   LIG d   1       9.004  -3.430  -4.314  0.00  0.00     0.056 H 
ATOM     30  H   LIG d   1       9.111  -3.578  -6.078  0.00  0.00     0.056 H 
ENDROOT
BRANCH   1  31
ATOM     31  C   LIG d   1       5.157  -0.291  -4.281  0.00  0.00    -0.018 A 
ATOM     32  C   LIG d   1       5.745   0.601  -3.403  0.00  0.00    -0.045 A 
ATOM     33  C   LIG d   1       5.121   0.909  -2.209  0.00  0.00    -0.059 A 
ATOM     34  C   LIG d   1       3.912   0.321  -1.889  0.00  0.00    -0.061 A 
ATOM     35  H   LIG d   1       5.581   1.605  -1.523  0.00  0.00     0.062 H 
ATOM     36  C   LIG d   1       3.321  -0.569  -2.768  0.00  0.00    -0.061 A 
ATOM     37  H   LIG d   1       3.427   0.558  -0.953  0.00  0.00     0.062 H 
ATOM     38  C   LIG d   1       3.944  -0.876  -3.962  0.00  0.00    -0.056 A 
ATOM     39  H   LIG d   1       2.375  -1.025  -2.519  0.00  0.00     0.062 H 
ATOM     40  H   LIG d   1       3.486  -1.572  -4.648  0.00  0.00     0.062 H 
BRANCH  32  41
ATOM     41  C   LIG d   1       7.066   1.237  -3.749  0.00  0.00    -0.039 C 
ATOM     42  H   LIG d   1       6.941   2.318  -3.821  0.00  0.00     0.028 H 
ATOM     43  H   LIG d   1       7.796   1.007  -2.973  0.00  0.00     0.028 H 
ATOM     44  H   LIG d   1       7.418   0.847  -4.704  0.00  0.00     0.028 H 
ENDBRANCH  32  41
ENDBRANCH   1  31
BRANCH  20  45
ATOM     45  C   LIG d   1       8.036  -5.900  -4.985  0.00  0.00     0.066 C 
ATOM     46  H   LIG d   1       7.352  -6.470  -4.357  0.00  0.00     0.051 H 
ATOM     47  H   LIG d   1       8.154  -6.402  -5.945  0.00  0.00     0.051 H 
BRANCH  45  48
ATOM     48  C   LIG d   1       9.397  -5.797  -4.292  0.00  0.00     0.174 C 
ATOM     49  H   LIG d   1       9.746  -4.764  -4.328  0.00  0.00     0.092 H 
BRANCH  48  50
ATOM     50  O   LIG d   1       9.271  -6.210  -2.930  0.00  0.00    -0.353 OA
BRANCH  50  51
ATOM     51  C   LIG d   1       9.826  -5.289  -1.989  0.00  0.00     0.040 C 
ATOM     52  H   LIG d   1       9.112  -4.488  -1.800  0.00  0.00     0.052 H 
ATOM     53  H   LIG d   1      10.043  -5.810  -1.056  0.00  0.00     0.052 H 
ATOM     54  H   LIG d   1      10.747  -4.869  -2.393  0.00  0.00     0.052 H 
ENDBRANCH  50  51
ENDBRANCH  48  50
BRANCH  48  55
ATOM     55  O   LIG d   1      10.337  -6.641  -4.961  0.00  0.00    -0.353 OA
BRANCH  55  56
ATOM     56  C   LIG d   1      11.499  -5.956  -5.434  0.00  0.00     0.040 C 
ATOM     57  H   LIG d   1      11.299  -4.885  -5.471  0.00  0.00     0.052 H 
ATOM     58  H   LIG d   1      12.333  -6.148  -4.759  0.00  0.00     0.052 H 
ATOM     59  H   LIG d   1      11.750  -6.314  -6.433  0.00  0.00     0.052 H 
ENDBRANCH  55  56
ENDBRANCH  48  55
ENDBRANCH  45  48
ENDBRANCH  20  45
TORSDOF 8
ENDMDL
MODEL 3
REMARK VINA RESULT:      -6.7      2.574      5.583
REMARK  8 active torsions:
REMARK  status: ('A' for Active; 'I' for Inactive)
REMARK    1  A    between atoms: C_1  and  C_2 
REMARK    2  A    between atoms: C_7  and  C_8 
REMARK    3  A    between atoms: N_27  and  C_30 
REMARK    4  A    between atoms: C_30  and  C_31 
REMARK    5  A    between atoms: C_31  and  O_32 
REMARK    6  A    between atoms: C_31  and  O_34 
REMARK    7  A    between atoms: O_32  and  C_33 
REMARK    8  A    between atoms: O_34  and  C_35 
ROOT
ATOM      1  C   LIG d   1       3.657  -0.279  -7.538  0.00  0.00     0.093 C 
ATOM      2  H   LIG d   1       2.688   0.170  -7.753  0.00  0.00     0.062 H 
ATOM      3  C   LIG d   1       3.845  -0.407  -6.043  0.00  0.00     0.046 A 
ATOM      4  C   LIG d   1       4.256  -1.543  -5.437  0.00  0.00    -0.015 A 
ATOM      5  C   LIG d   1       4.316  -1.267  -4.016  0.00  0.00     0.003 A 
ATOM      6  C   LIG d   1       4.671  -2.051  -2.914  0.00  0.00    -0.052 A 
ATOM      7  C   LIG d   1       4.609  -1.450  -1.681  0.00  0.00    -0.061 A 
ATOM      8  C   LIG d   1       4.213  -0.132  -1.524  0.00  0.00    -0.060 A 
ATOM      9  C   LIG d   1       3.857   0.666  -2.597  0.00  0.00    -0.038 A 
ATOM     10  C   LIG d   1       3.912   0.084  -3.862  0.00  0.00     0.047 A 
ATOM     11  N   LIG d   1       3.636   0.570  -5.107  0.00  0.00    -0.356 N 
ATOM     12  H   LIG d   1       3.337   1.473  -5.299  0.00  0.00     0.166 HD
ATOM     13  C   LIG d   1       4.576  -2.830  -6.154  0.00  0.00     0.002 C 
ATOM     14  C   LIG d   1       4.783  -2.529  -7.646  0.00  0.00     0.107 A 
ATOM     15  H   LIG d   1       5.741  -2.026  -7.775  0.00  0.00     0.060 H 
ATOM     16  N   LIG d   1       3.717  -1.642  -8.108  0.00  0.00    -0.276 N 
ATOM     17  C   LIG d   1       2.804  -2.006  -9.011  0.00  0.00     0.234 A 
ATOM     18  O   LIG d   1       1.923  -1.217  -9.276  0.00  0.00    -0.274 OA
ATOM     19  C   LIG d   1       2.794  -3.323  -9.717  0.00  0.00     0.091 A 
ATOM     20  N   LIG d   1       3.923  -4.157  -9.335  0.00  0.00    -0.286 N 
ATOM     21  C   LIG d   1       4.819  -3.811  -8.414  0.00  0.00     0.237 A 
ATOM     22  O   LIG d   1       5.723  -4.586  -8.183  0.00  0.00    -0.274 OA
ATOM     23  H   LIG d   1       4.981  -3.079  -3.027  0.00  0.00     0.062 H 
ATOM     24  H   LIG d   1       4.877  -2.023  -0.806  0.00  0.00     0.062 H 
ATOM     25  H   LIG d   1       4.182   0.288  -0.529  0.00  0.00     0.062 H 
ATOM     26  H   LIG d   1       3.552   1.693  -2.460  0.00  0.00     0.064 H 
ATOM     27  H   LIG d   1       3.750  -3.530  -6.034  0.00  0.00     0.034 H 
ATOM     28  H   LIG d   1       5.487  -3.263  -5.739  0.00  0.00     0.034 H 
ATOM     29  H   LIG d   1       2.832  -3.149 -10.793  0.00  0.00     0.056 H 
ATOM     30  H   LIG d   1       1.869  -3.847  -9.476  0.00  0.00     0.056 H 
ENDROOT
BRANCH   1  31
ATOM     31  C   LIG d   1       4.756   0.569  -8.122  0.00  0.00    -0.018 A 
ATOM     32  C   LIG d   1       4.445   1.730  -8.805  0.00  0.00    -0.045 A 
ATOM     33  C   LIG d   1       5.454   2.509  -9.340  0.00  0.00    -0.059 A 
ATOM     34  C   LIG d   1       6.774   2.124  -9.197  0.00  0.00    -0.061 A 
ATOM     35  H   LIG d   1       5.210   3.415  -9.874  0.00  0.00     0.062 H 
ATOM     36  C   LIG d   1       7.086   0.964  -8.511  0.00  0.00    -0.061 A 
ATOM     37  H   LIG d   1       7.561   2.730  -9.621  0.00  0.00     0.062 H 
ATOM     38  C   LIG d   1       6.078   0.187  -7.975  0.00  0.00    -0.056 A 
ATOM     39  H   LIG d   1       8.117   0.665  -8.397  0.00  0.00     0.062 H 
ATOM     40  H   LIG d   1       6.320  -0.720  -7.442  0.00  0.00     0.062 H 
BRANCH  32  41
ATOM     41  C   LIG d   1       3.006   2.147  -8.965  0.00  0.00    -0.039 C 
ATOM     42  H   LIG d   1       2.941   2.956  -9.692  0.00  0.00     0.028 H 
ATOM     43  H   LIG d   1       2.418   1.297  -9.313  0.00  0.00     0.028 H 
ATOM     44  H   LIG d   1       2.618   2.487  -8.006  0.00  0.00     0.028 H 
ENDBRANCH  32  41
ENDBRANCH   1  31
BRANCH  20  45
ATOM     45  C   LIG d   1       4.080  -5.451 -10.002  0.00  0.00     0.066 C 
ATOM     46  H   LIG d   1       4.351  -5.293 -11.045  0.00  0.00     0.051 H 
ATOM     47  H   LIG d   1       4.865  -6.022  -9.505  0.00  0.00     0.051 H 
BRANCH  45  48
ATOM     48  C   LIG d   1       2.762  -6.226  -9.930  0.00  0.00     0.174 C 
ATOM     49  H   LIG d   1       1.938  -5.528  -9.779  0.00  0.00     0.092 H 
BRANCH  48  50
ATOM     50  O   LIG d   1       2.563  -6.942 -11.150  0.00  0.00    -0.353 OA
BRANCH  50  51
ATOM     51  C   LIG d   1       1.933  -6.175 -12.178  0.00  0.00     0.040 C 
ATOM     52  H   LIG d   1       0.924  -6.550 -12.345  0.00  0.00     0.052 H 
ATOM     53  H   LIG d   1       1.887  -5.129 -11.875  0.00  0.00     0.052 H 
ATOM     54  H   LIG d   1       2.510  -6.261 -13.099  0.00  0.00     0.052 H 
ENDBRANCH  50  51
ENDBRANCH  48  50
BRANCH  48  55
ATOM     55  O   LIG d   1       2.811  -7.148  -8.839  0.00  0.00    -0.353 OA
BRANCH  55  56
ATOM     56  C   LIG d   1       4.091  -7.754  -8.646  0.00  0.00     0.040 C 
ATOM     57  H   LIG d   1       4.860  -6.983  -8.640  0.00  0.00     0.052 H 
ATOM     58  H   LIG d   1       4.101  -8.287  -7.695  0.00  0.00     0.052 H 
ATOM     59  H   LIG d   1       4.286  -8.456  -9.458  0.00  0.00     0.052 H 
ENDBRANCH  55  56
ENDBRANCH  48  55
ENDBRANCH  45  48
ENDBRANCH  20  45
TORSDOF 8
ENDMDL
MODEL 4
REMARK VINA RESULT:      -6.4      3.238      7.196
REMARK  8 active torsions:
REMARK  status: ('A' for Active; 'I' for Inactive)
REMARK    1  A    between atoms: C_1  and  C_2 
REMARK    2  A    between atoms: C_7  and  C_8 
REMARK    3  A    between atoms: N_27  and  C_30 
REMARK    4  A    between atoms: C_30  and  C_31 
REMARK    5  A    between atoms: C_31  and  O_32 
REMARK    6  A    between atoms: C_31  and  O_34 
REMARK    7  A    between atoms: O_32  and  C_33 
REMARK    8  A    between atoms: O_34  and  C_35 
ROOT
ATOM      1  C   LIG d   1       5.086  -1.210  -5.780  0.00  0.00     0.093 C 
ATOM      2  H   LIG d   1       4.336  -0.996  -6.542  0.00  0.00     0.062 H 
ATOM      3  C   LIG d   1       5.332  -2.700  -5.705  0.00  0.00     0.046 A 
ATOM      4  C   LIG d   1       6.564  -3.254  -5.709  0.00  0.00    -0.015 A 
ATOM      5  C   LIG d   1       6.384  -4.689  -5.621  0.00  0.00     0.003 A 
ATOM      6  C   LIG d   1       7.287  -5.756  -5.584  0.00  0.00    -0.052 A 
ATOM      7  C   LIG d   1       6.751  -7.018  -5.499  0.00  0.00    -0.061 A 
ATOM      8  C   LIG d   1       5.384  -7.235  -5.452  0.00  0.00    -0.060 A 
ATOM      9  C   LIG d   1       4.469  -6.198  -5.486  0.00  0.00    -0.038 A 
ATOM     10  C   LIG d   1       4.983  -4.905  -5.572  0.00  0.00     0.047 A 
ATOM     11  N   LIG d   1       4.380  -3.682  -5.624  0.00  0.00    -0.356 N 
ATOM     12  H   LIG d   1       3.422  -3.531  -5.607  0.00  0.00     0.166 HD
ATOM     13  C   LIG d   1       7.853  -2.477  -5.794  0.00  0.00     0.002 C 
ATOM     14  C   LIG d   1       7.573  -1.010  -5.440  0.00  0.00     0.107 A 
ATOM     15  H   LIG d   1       7.405  -0.932  -4.366  0.00  0.00     0.060 H 
ATOM     16  N   LIG d   1       6.368  -0.569  -6.142  0.00  0.00    -0.276 N 
ATOM     17  C   LIG d   1       6.376   0.374  -7.085  0.00  0.00     0.234 A 
ATOM     18  O   LIG d   1       5.332   0.618  -7.652  0.00  0.00    -0.274 OA
ATOM     19  C   LIG d   1       7.587   1.150  -7.492  0.00  0.00     0.091 A 
ATOM     20  N   LIG d   1       8.758   0.785  -6.712  0.00  0.00    -0.286 N 
ATOM     21  C   LIG d   1       8.763  -0.175  -5.790  0.00  0.00     0.237 A 
ATOM     22  O   LIG d   1       9.799  -0.386  -5.195  0.00  0.00    -0.274 OA
ATOM     23  H   LIG d   1       8.354  -5.596  -5.620  0.00  0.00     0.062 H 
ATOM     24  H   LIG d   1       7.417  -7.867  -5.467  0.00  0.00     0.062 H 
ATOM     25  H   LIG d   1       5.019  -8.250  -5.386  0.00  0.00     0.062 H 
ATOM     26  H   LIG d   1       3.405  -6.382  -5.448  0.00  0.00     0.064 H 
ATOM     27  H   LIG d   1       8.251  -2.540  -6.806  0.00  0.00     0.034 H 
ATOM     28  H   LIG d   1       8.576  -2.891  -5.091  0.00  0.00     0.034 H 
ATOM     29  H   LIG d   1       7.389   2.213  -7.356  0.00  0.00     0.056 H 
ATOM     30  H   LIG d   1       7.791   0.961  -8.546  0.00  0.00     0.056 H 
ENDROOT
BRANCH   1  31
ATOM     31  C   LIG d   1       4.617  -0.700  -4.442  0.00  0.00    -0.018 A 
ATOM     32  C   LIG d   1       3.471   0.068  -4.357  0.00  0.00    -0.045 A 
ATOM     33  C   LIG d   1       3.041   0.536  -3.130  0.00  0.00    -0.059 A 
ATOM     34  C   LIG d   1       3.760   0.240  -1.987  0.00  0.00    -0.061 A 
ATOM     35  H   LIG d   1       2.146   1.136  -3.065  0.00  0.00     0.062 H 
ATOM     36  C   LIG d   1       4.905  -0.531  -2.071  0.00  0.00    -0.061 A 
ATOM     37  H   LIG d   1       3.427   0.610  -1.029  0.00  0.00     0.062 H 
ATOM     38  C   LIG d   1       5.335  -0.999  -3.298  0.00  0.00    -0.056 A 
ATOM     39  H   LIG d   1       5.465  -0.764  -1.177  0.00  0.00     0.062 H 
ATOM     40  H   LIG d   1       6.230  -1.599  -3.364  0.00  0.00     0.062 H 
BRANCH  32  41
ATOM     41  C   LIG d   1       2.690   0.395  -5.604  0.00  0.00    -0.039 C 
ATOM     42  H   LIG d   1       3.381   0.596  -6.423  0.00  0.00     0.028 H 
ATOM     43  H   LIG d   1       2.052  -0.450  -5.866  0.00  0.00     0.028 H 
ATOM     44  H   LIG d   1       2.071   1.274  -5.425  0.00  0.00     0.028 H 
ENDBRANCH  32  41
ENDBRANCH   1  31
BRANCH  20  45
ATOM     45  C   LIG d   1      10.004   1.516  -6.955  0.00  0.00     0.066 C 
ATOM     46  H   LIG d   1      10.829   1.002  -6.463  0.00  0.00     0.051 H 
ATOM     47  H   LIG d   1      10.193   1.565  -8.027  0.00  0.00     0.051 H 
BRANCH  45  48
ATOM     48  C   LIG d   1       9.880   2.935  -6.393  0.00  0.00     0.174 C 
ATOM     49  H   LIG d   1       8.827   3.197  -6.296  0.00  0.00     0.092 H 
BRANCH  48  50
ATOM     50  O   LIG d   1      10.506   2.996  -5.110  0.00  0.00    -0.353 OA
BRANCH  50  51
ATOM     51  C   LIG d   1       9.591   3.143  -4.023  0.00  0.00     0.040 C 
ATOM     52  H   LIG d   1       9.865   4.018  -3.433  0.00  0.00     0.052 H 
ATOM     53  H   LIG d   1       8.581   3.270  -4.413  0.00  0.00     0.052 H 
ATOM     54  H   LIG d   1       9.628   2.254  -3.394  0.00  0.00     0.052 H 
ENDBRANCH  50  51
ENDBRANCH  48  50
BRANCH  48  55
ATOM     55  O   LIG d   1      10.521   3.855  -7.280  0.00  0.00    -0.353 OA
BRANCH  55  56
ATOM     56  C   LIG d   1       9.646   4.427  -8.255  0.00  0.00     0.040 C 
ATOM     57  H   LIG d   1       9.280   5.388  -7.895  0.00  0.00     0.052 H 
ATOM     58  H   LIG d   1      10.189   4.571  -9.189  0.00  0.00     0.052 H 
ATOM     59  H   LIG d   1       8.803   3.756  -8.424  0.00  0.00     0.052 H 
ENDBRANCH  55  56
ENDBRANCH  48  55
ENDBRANCH  45  48
ENDBRANCH  20  45
TORSDOF 8
ENDMDL
MODEL 5
REMARK VINA RESULT:      -6.2      3.281      5.321
REMARK  8 active torsions:
REMARK  status: ('A' for Active; 'I' for Inactive)
REMARK    1  A    between atoms: C_1  and  C_2 
REMARK    2  A    between atoms: C_7  and  C_8 
REMARK    3  A    between atoms: N_27  and  C_30 
REMARK    4  A    between atoms: C_30  and  C_31 
REMARK    5  A    between atoms: C_31  and  O_32 
REMARK    6  A    between atoms: C_31  and  O_34 
REMARK    7  A    between atoms: O_32  and  C_33 
REMARK    8  A    between atoms: O_34  and  C_35 
ROOT
ATOM      1  C   LIG d   1       5.047  -1.621  -6.535  0.00  0.00     0.093 C 
ATOM      2  H   LIG d   1       5.630  -2.517  -6.320  0.00  0.00     0.062 H 
ATOM      3  C   LIG d   1       5.970  -0.489  -6.929  0.00  0.00     0.046 A 
ATOM      4  C   LIG d   1       5.777   0.284  -8.019  0.00  0.00    -0.015 A 
ATOM      5  C   LIG d   1       6.859   1.248  -8.051  0.00  0.00     0.003 A 
ATOM      6  C   LIG d   1       7.177   2.286  -8.933  0.00  0.00    -0.052 A 
ATOM      7  C   LIG d   1       8.306   3.014  -8.651  0.00  0.00    -0.061 A 
ATOM      8  C   LIG d   1       9.100   2.743  -7.549  0.00  0.00    -0.060 A 
ATOM      9  C   LIG d   1       8.808   1.723  -6.660  0.00  0.00    -0.038 A 
ATOM     10  C   LIG d   1       7.667   0.967  -6.920  0.00  0.00     0.047 A 
ATOM     11  N   LIG d   1       7.099  -0.088  -6.266  0.00  0.00    -0.356 N 
ATOM     12  H   LIG d   1       7.444  -0.492  -5.455  0.00  0.00     0.166 HD
ATOM     13  C   LIG d   1       4.635   0.129  -8.991  0.00  0.00     0.002 C 
ATOM     14  C   LIG d   1       3.534  -0.714  -8.332  0.00  0.00     0.107 A 
ATOM     15  H   LIG d   1       3.029  -0.108  -7.579  0.00  0.00     0.060 H 
ATOM     16  N   LIG d   1       4.143  -1.871  -7.678  0.00  0.00    -0.276 N 
ATOM     17  C   LIG d   1       3.922  -3.129  -8.064  0.00  0.00     0.234 A 
ATOM     18  O   LIG d   1       4.530  -4.011  -7.496  0.00  0.00    -0.274 OA
ATOM     19  C   LIG d   1       2.978  -3.523  -9.153  0.00  0.00     0.091 A 
ATOM     20  N   LIG d   1       2.291  -2.375  -9.724  0.00  0.00    -0.286 N 
ATOM     21  C   LIG d   1       2.528  -1.117  -9.362  0.00  0.00     0.237 A 
ATOM     22  O   LIG d   1       1.888  -0.240  -9.903  0.00  0.00    -0.274 OA
ATOM     23  H   LIG d   1       6.564   2.504  -9.794  0.00  0.00     0.062 H 
ATOM     24  H   LIG d   1       8.583   3.825  -9.308  0.00  0.00     0.062 H 
ATOM     25  H   LIG d   1       9.978   3.349  -7.376  0.00  0.00     0.062 H 
ATOM     26  H   LIG d   1       9.436   1.524  -5.804  0.00  0.00     0.064 H 
ATOM     27  H   LIG d   1       4.988  -0.371  -9.892  0.00  0.00     0.034 H 
ATOM     28  H   LIG d   1       4.238   1.111  -9.248  0.00  0.00     0.034 H 
ATOM     29  H   LIG d   1       2.237  -4.212  -8.747  0.00  0.00     0.056 H 
ATOM     30  H   LIG d   1       3.537  -4.029  -9.941  0.00  0.00     0.056 H 
ENDROOT
BRANCH   1  31
ATOM     31  C   LIG d   1       4.244  -1.229  -5.322  0.00  0.00    -0.018 A 
ATOM     32  C   LIG d   1       4.272  -2.020  -4.189  0.00  0.00    -0.045 A 
ATOM     33  C   LIG d   1       3.535  -1.661  -3.076  0.00  0.00    -0.059 A 
ATOM     34  C   LIG d   1       2.766  -0.512  -3.098  0.00  0.00    -0.061 A 
ATOM     35  H   LIG d   1       3.557  -2.279  -2.191  0.00  0.00     0.062 H 
ATOM     36  C   LIG d   1       2.740   0.282  -4.230  0.00  0.00    -0.061 A 
ATOM     37  H   LIG d   1       2.186  -0.234  -2.230  0.00  0.00     0.062 H 
ATOM     38  C   LIG d   1       3.478  -0.077  -5.342  0.00  0.00    -0.056 A 
ATOM     39  H   LIG d   1       2.142   1.181  -4.246  0.00  0.00     0.062 H 
ATOM     40  H   LIG d   1       3.456   0.540  -6.227  0.00  0.00     0.062 H 
BRANCH  32  41
ATOM     41  C   LIG d   1       5.106  -3.275  -4.167  0.00  0.00    -0.039 C 
ATOM     42  H   LIG d   1       5.323  -3.549  -3.135  0.00  0.00     0.028 H 
ATOM     43  H   LIG d   1       4.558  -4.084  -4.650  0.00  0.00     0.028 H 
ATOM     44  H   LIG d   1       6.039  -3.100  -4.702  0.00  0.00     0.028 H 
ENDBRANCH  32  41
ENDBRANCH   1  31
BRANCH  20  45
ATOM     45  C   LIG d   1       1.280  -2.619 -10.756  0.00  0.00     0.066 C 
ATOM     46  H   LIG d   1       0.630  -3.435 -10.443  0.00  0.00     0.051 H 
ATOM     47  H   LIG d   1       0.687  -1.717 -10.903  0.00  0.00     0.051 H 
BRANCH  45  48
ATOM     48  C   LIG d   1       1.973  -2.995 -12.068  0.00  0.00     0.174 C 
ATOM     49  H   LIG d   1       2.994  -3.316 -11.862  0.00  0.00     0.092 H 
BRANCH  48  50
ATOM     50  O   LIG d   1       1.257  -4.060 -12.697  0.00  0.00    -0.353 OA
BRANCH  50  51
ATOM     51  C   LIG d   1       0.577  -4.924 -11.784  0.00  0.00     0.040 C 
ATOM     52  H   LIG d   1       0.041  -5.692 -12.340  0.00  0.00     0.052 H 
ATOM     53  H   LIG d   1       1.303  -5.395 -11.121  0.00  0.00     0.052 H 
ATOM     54  H   LIG d   1      -0.130  -4.342 -11.192  0.00  0.00     0.052 H 
ENDBRANCH  50  51
ENDBRANCH  48  50
BRANCH  48  55
ATOM     55  O   LIG d   1       1.996  -1.859 -12.936  0.00  0.00    -0.353 OA
BRANCH  55  56
ATOM     56  C   LIG d   1       3.287  -1.260 -13.074  0.00  0.00     0.040 C 
ATOM     57  H   LIG d   1       3.363  -0.406 -12.402  0.00  0.00     0.052 H 
ATOM     58  H   LIG d   1       4.055  -1.991 -12.822  0.00  0.00     0.052 H 
ATOM     59  H   LIG d   1       3.424  -0.928 -14.103  0.00  0.00     0.052 H 
ENDBRANCH  55  56
ENDBRANCH  48  55
ENDBRANCH  45  48
ENDBRANCH  20  45
TORSDOF 8
ENDMDL
MODEL 6
REMARK VINA RESULT:      -6.1      1.914      4.928
REMARK  8 active torsions:
REMARK  status: ('A' for Active; 'I' for Inactive)
REMARK    1  A    between atoms: C_1  and  C_2 
REMARK    2  A    between atoms: C_7  and  C_8 
REMARK    3  A    between atoms: N_27  and  C_30 
REMARK    4  A    between atoms: C_30  and  C_31 
REMARK    5  A    between atoms: C_31  and  O_32 
REMARK    6  A    between atoms: C_31  and  O_34 
REMARK    7  A    between atoms: O_32  and  C_33 
REMARK    8  A    between atoms: O_34  and  C_35 
ROOT
ATOM      1  C   LIG d   1       4.375  -2.481  -7.262  0.00  0.00     0.093 C 
ATOM      2  H   LIG d   1       3.414  -2.456  -7.775  0.00  0.00     0.062 H 
ATOM      3  C   LIG d   1       4.276  -1.746  -5.945  0.00  0.00     0.046 A 
ATOM      4  C   LIG d   1       4.718  -2.252  -4.773  0.00  0.00    -0.015 A 
ATOM      5  C   LIG d   1       4.451  -1.257  -3.754  0.00  0.00     0.003 A 
ATOM      6  C   LIG d   1       4.688  -1.224  -2.377  0.00  0.00    -0.052 A 
ATOM      7  C   LIG d   1       4.292  -0.094  -1.706  0.00  0.00    -0.061 A 
ATOM      8  C   LIG d   1       3.685   0.970  -2.352  0.00  0.00    -0.060 A 
ATOM      9  C   LIG d   1       3.439   0.965  -3.714  0.00  0.00    -0.038 A 
ATOM     10  C   LIG d   1       3.831  -0.169  -4.422  0.00  0.00     0.047 A 
ATOM     11  N   LIG d   1       3.742  -0.501  -5.743  0.00  0.00    -0.356 N 
ATOM     12  H   LIG d   1       3.360   0.062  -6.435  0.00  0.00     0.166 HD
ATOM     13  C   LIG d   1       5.361  -3.606  -4.611  0.00  0.00     0.002 C 
ATOM     14  C   LIG d   1       5.816  -4.107  -5.989  0.00  0.00     0.107 A 
ATOM     15  H   LIG d   1       6.697  -3.543  -6.296  0.00  0.00     0.060 H 
ATOM     16  N   LIG d   1       4.747  -3.880  -6.959  0.00  0.00    -0.276 N 
ATOM     17  C   LIG d   1       4.097  -4.870  -7.576  0.00  0.00     0.234 A 
ATOM     18  O   LIG d   1       3.181  -4.574  -8.313  0.00  0.00    -0.274 OA
ATOM     19  C   LIG d   1       4.422  -6.320  -7.416  0.00  0.00     0.091 A 
ATOM     20  N   LIG d   1       5.560  -6.532  -6.536  0.00  0.00    -0.286 N 
ATOM     21  C   LIG d   1       6.193  -5.551  -5.896  0.00  0.00     0.237 A 
ATOM     22  O   LIG d   1       7.136  -5.847  -5.193  0.00  0.00    -0.274 OA
ATOM     23  H   LIG d   1       5.161  -2.049  -1.864  0.00  0.00     0.062 H 
ATOM     24  H   LIG d   1       4.459  -0.032  -0.641  0.00  0.00     0.062 H 
ATOM     25  H   LIG d   1       3.393   1.835  -1.773  0.00  0.00     0.062 H 
ATOM     26  H   LIG d   1       2.966   1.802  -4.206  0.00  0.00     0.064 H 
ATOM     27  H   LIG d   1       4.639  -4.304  -4.189  0.00  0.00     0.034 H 
ATOM     28  H   LIG d   1       6.222  -3.525  -3.948  0.00  0.00     0.034 H 
ATOM     29  H   LIG d   1       4.649  -6.741  -8.395  0.00  0.00     0.056 H 
ATOM     30  H   LIG d   1       3.554  -6.833  -7.002  0.00  0.00     0.056 H 
ENDROOT
BRANCH   1  31
ATOM     31  C   LIG d   1       5.433  -1.846  -8.126  0.00  0.00    -0.018 A 
ATOM     32  C   LIG d   1       5.123  -1.429  -9.406  0.00  0.00    -0.045 A 
ATOM     33  C   LIG d   1       6.093  -0.845 -10.199  0.00  0.00    -0.059 A 
ATOM     34  C   LIG d   1       7.377  -0.683  -9.712  0.00  0.00    -0.061 A 
ATOM     35  H   LIG d   1       5.850  -0.520 -11.199  0.00  0.00     0.062 H 
ATOM     36  C   LIG d   1       7.688  -1.097  -8.430  0.00  0.00    -0.061 A 
ATOM     37  H   LIG d   1       8.137  -0.232 -10.333  0.00  0.00     0.062 H 
ATOM     38  C   LIG d   1       6.717  -1.679  -7.637  0.00  0.00    -0.056 A 
ATOM     39  H   LIG d   1       8.690  -0.967  -8.048  0.00  0.00     0.062 H 
ATOM     40  H   LIG d   1       6.960  -2.005  -6.637  0.00  0.00     0.062 H 
BRANCH  32  41
ATOM     41  C   LIG d   1       3.725  -1.610  -9.939  0.00  0.00    -0.039 C 
ATOM     42  H   LIG d   1       3.438  -2.659  -9.857  0.00  0.00     0.028 H 
ATOM     43  H   LIG d   1       3.033  -0.998  -9.360  0.00  0.00     0.028 H 
ATOM     44  H   LIG d   1       3.692  -1.304 -10.984  0.00  0.00     0.028 H 
ENDBRANCH  32  41
ENDBRANCH   1  31
BRANCH  20  45
ATOM     45  C   LIG d   1       6.036  -7.903  -6.342  0.00  0.00     0.066 C 
ATOM     46  H   LIG d   1       6.097  -8.407  -7.306  0.00  0.00     0.051 H 
ATOM     47  H   LIG d   1       7.023  -7.883  -5.879  0.00  0.00     0.051 H 
BRANCH  45  48
ATOM     48  C   LIG d   1       5.062  -8.658  -5.435  0.00  0.00     0.174 C 
ATOM     49  H   LIG d   1       4.382  -7.948  -4.961  0.00  0.00     0.092 H 
BRANCH  48  50
ATOM     50  O   LIG d   1       4.309  -9.589  -6.213  0.00  0.00    -0.353 OA
BRANCH  50  51
ATOM     51  C   LIG d   1       4.284 -10.913  -5.675  0.00  0.00     0.040 C 
ATOM     52  H   LIG d   1       4.896 -11.568  -6.293  0.00  0.00     0.052 H 
ATOM     53  H   LIG d   1       4.679 -10.899  -4.659  0.00  0.00     0.052 H 
ATOM     54  H   LIG d   1       3.258 -11.279  -5.660  0.00  0.00     0.052 H 
ENDBRANCH  50  51
ENDBRANCH  48  50
BRANCH  48  55
ATOM     55  O   LIG d   1       5.795  -9.360  -4.429  0.00  0.00    -0.353 OA
BRANCH  55  56
ATOM     56  C   LIG d   1       7.210  -9.173  -4.502  0.00  0.00     0.040 C 
ATOM     57  H   LIG d   1       7.710  -9.960  -3.938  0.00  0.00     0.052 H 
ATOM     58  H   LIG d   1       7.527  -9.214  -5.544  0.00  0.00     0.052 H 
ATOM     59  H   LIG d   1       7.469  -8.201  -4.081  0.00  0.00     0.052 H 
ENDBRANCH  55  56
ENDBRANCH  48  55
ENDBRANCH  45  48
ENDBRANCH  20  45
TORSDOF 8
ENDMDL
MODEL 7
REMARK VINA RESULT:      -6.0      4.929      9.240
REMARK  8 active torsions:
REMARK  status: ('A' for Active; 'I' for Inactive)
REMARK    1  A    between atoms: C_1  and  C_2 
REMARK    2  A    between atoms: C_7  and  C_8 
REMARK    3  A    between atoms: N_27  and  C_30 
REMARK    4  A    between atoms: C_30  and  C_31 
REMARK    5  A    between atoms: C_31  and  O_32 
REMARK    6  A    between atoms: C_31  and  O_34 
REMARK    7  A    between atoms: O_32  and  C_33 
REMARK    8  A    between atoms: O_34  and  C_35 
ROOT
ATOM      1  C   LIG d   1       9.123  -0.277  -5.267  0.00  0.00     0.093 C 
ATOM      2  H   LIG d   1       9.772  -1.104  -4.979  0.00  0.00     0.062 H 
ATOM      3  C   LIG d   1       7.851  -0.313  -4.451  0.00  0.00     0.046 A 
ATOM      4  C   LIG d   1       7.341   0.765  -3.816  0.00  0.00    -0.015 A 
ATOM      5  C   LIG d   1       6.126   0.332  -3.155  0.00  0.00     0.003 A 
ATOM      6  C   LIG d   1       5.189   1.001  -2.362  0.00  0.00    -0.052 A 
ATOM      7  C   LIG d   1       4.136   0.260  -1.888  0.00  0.00    -0.061 A 
ATOM      8  C   LIG d   1       3.997  -1.089  -2.175  0.00  0.00    -0.060 A 
ATOM      9  C   LIG d   1       4.909  -1.775  -2.957  0.00  0.00    -0.038 A 
ATOM     10  C   LIG d   1       5.989  -1.048  -3.453  0.00  0.00     0.047 A 
ATOM     11  N   LIG d   1       7.048  -1.402  -4.238  0.00  0.00    -0.356 N 
ATOM     12  H   LIG d   1       7.208  -2.291  -4.592  0.00  0.00     0.166 HD
ATOM     13  C   LIG d   1       7.962   2.139  -3.824  0.00  0.00     0.002 C 
ATOM     14  C   LIG d   1       8.971   2.220  -4.978  0.00  0.00     0.107 A 
ATOM     15  H   LIG d   1       8.426   2.281  -5.920  0.00  0.00     0.060 H 
ATOM     16  N   LIG d   1       9.792   1.011  -4.983  0.00  0.00    -0.276 N 
ATOM     17  C   LIG d   1      11.105   1.018  -4.743  0.00  0.00     0.234 A 
ATOM     18  O   LIG d   1      11.681  -0.049  -4.705  0.00  0.00    -0.274 OA
ATOM     19  C   LIG d   1      11.914   2.254  -4.515  0.00  0.00     0.091 A 
ATOM     20  N   LIG d   1      11.111   3.461  -4.623  0.00  0.00    -0.286 N 
ATOM     21  C   LIG d   1       9.797   3.459  -4.833  0.00  0.00     0.237 A 
ATOM     22  O   LIG d   1       9.233   4.529  -4.913  0.00  0.00    -0.274 OA
ATOM     23  H   LIG d   1       5.290   2.052  -2.133  0.00  0.00     0.062 H 
ATOM     24  H   LIG d   1       3.391   0.742  -1.273  0.00  0.00     0.062 H 
ATOM     25  H   LIG d   1       3.148  -1.622  -1.774  0.00  0.00     0.062 H 
ATOM     26  H   LIG d   1       4.788  -2.826  -3.174  0.00  0.00     0.064 H 
ATOM     27  H   LIG d   1       8.473   2.313  -2.878  0.00  0.00     0.034 H 
ATOM     28  H   LIG d   1       7.185   2.890  -3.964  0.00  0.00     0.034 H 
ATOM     29  H   LIG d   1      12.714   2.294  -5.254  0.00  0.00     0.056 H 
ATOM     30  H   LIG d   1      12.355   2.209  -3.519  0.00  0.00     0.056 H 
ENDROOT
BRANCH   1  31
ATOM     31  C   LIG d   1       8.795  -0.370  -6.734  0.00  0.00    -0.018 A 
ATOM     32  C   LIG d   1       9.382  -1.349  -7.514  0.00  0.00    -0.045 A 
ATOM     33  C   LIG d   1       9.080  -1.435  -8.860  0.00  0.00    -0.059 A 
ATOM     34  C   LIG d   1       8.194  -0.539  -9.428  0.00  0.00    -0.061 A 
ATOM     35  H   LIG d   1       9.540  -2.200  -9.468  0.00  0.00     0.062 H 
ATOM     36  C   LIG d   1       7.603   0.438  -8.648  0.00  0.00    -0.061 A 
ATOM     37  H   LIG d   1       7.963  -0.603 -10.481  0.00  0.00     0.062 H 
ATOM     38  C   LIG d   1       7.904   0.524  -7.302  0.00  0.00    -0.056 A 
ATOM     39  H   LIG d   1       6.909   1.137  -9.091  0.00  0.00     0.062 H 
ATOM     40  H   LIG d   1       7.446   1.288  -6.693  0.00  0.00     0.062 H 
BRANCH  32  41
ATOM     41  C   LIG d   1      10.352  -2.322  -6.895  0.00  0.00    -0.039 C 
ATOM     42  H   LIG d   1      10.964  -1.806  -6.156  0.00  0.00     0.028 H 
ATOM     43  H   LIG d   1       9.800  -3.128  -6.411  0.00  0.00     0.028 H 
ATOM     44  H   LIG d   1      10.993  -2.739  -7.672  0.00  0.00     0.028 H 
ENDBRANCH  32  41
ENDBRANCH   1  31
BRANCH  20  45
ATOM     45  C   LIG d   1      11.788   4.753  -4.492  0.00  0.00     0.066 C 
ATOM     46  H   LIG d   1      12.664   4.773  -5.139  0.00  0.00     0.051 H 
ATOM     47  H   LIG d   1      11.104   5.552  -4.780  0.00  0.00     0.051 H 
BRANCH  45  48
ATOM     48  C   LIG d   1      12.224   4.955  -3.039  0.00  0.00     0.174 C 
ATOM     49  H   LIG d   1      12.032   4.045  -2.471  0.00  0.00     0.092 H 
BRANCH  48  50
ATOM     50  O   LIG d   1      13.620   5.255  -2.998  0.00  0.00    -0.353 OA
BRANCH  50  51
ATOM     51  C   LIG d   1      14.205   5.127  -1.701  0.00  0.00     0.040 C 
ATOM     52  H   LIG d   1      13.893   5.964  -1.077  0.00  0.00     0.052 H 
ATOM     53  H   LIG d   1      13.878   4.192  -1.245  0.00  0.00     0.052 H 
ATOM     54  H   LIG d   1      15.292   5.125  -1.791  0.00  0.00     0.052 H 
ENDBRANCH  50  51
ENDBRANCH  48  50
BRANCH  48  55
ATOM     55  O   LIG d   1      11.487   6.038  -2.467  0.00  0.00    -0.353 OA
BRANCH  55  56
ATOM     56  C   LIG d   1      10.384   5.627  -1.656  0.00  0.00     0.040 C 
ATOM     57  H   LIG d   1      10.754   5.079  -0.790  0.00  0.00     0.052 H 
ATOM     58  H   LIG d   1       9.831   6.505  -1.323  0.00  0.00     0.052 H 
ATOM     59  H   LIG d   1       9.726   4.983  -2.240  0.00  0.00     0.052 H 
ENDBRANCH  55  56
ENDBRANCH  48  55
ENDBRANCH  45  48
ENDBRANCH  20  45
TORSDOF 8
ENDMDL
MODEL 8
REMARK VINA RESULT:      -6.0      2.828      6.195
REMARK  8 active torsions:
REMARK  status: ('A' for Active; 'I' for Inactive)
REMARK    1  A    between atoms: C_1  and  C_2 
REMARK    2  A    between atoms: C_7  and  C_8 
REMARK    3  A    between atoms: N_27  and  C_30 
REMARK    4  A    between atoms: C_30  and  C_31 
REMARK    5  A    between atoms: C_31  and  O_32 
REMARK    6  A    between atoms: C_31  and  O_34 
REMARK    7  A    between atoms: O_32  and  C_33 
REMARK    8  A    between atoms: O_34  and  C_35 
ROOT
ATOM      1  C   LIG d   1       5.867  -2.205  -6.730  0.00  0.00     0.093 C 
ATOM      2  H   LIG d   1       6.941  -2.067  -6.859  0.00  0.00     0.062 H 
ATOM      3  C   LIG d   1       5.376  -1.364  -5.574  0.00  0.00     0.046 A 
ATOM      4  C   LIG d   1       4.296  -0.556  -5.646  0.00  0.00    -0.015 A 
ATOM      5  C   LIG d   1       4.148   0.071  -4.348  0.00  0.00     0.003 A 
ATOM      6  C   LIG d   1       3.222   0.986  -3.837  0.00  0.00    -0.052 A 
ATOM      7  C   LIG d   1       3.390   1.375  -2.531  0.00  0.00    -0.061 A 
ATOM      8  C   LIG d   1       4.425   0.891  -1.747  0.00  0.00    -0.060 A 
ATOM      9  C   LIG d   1       5.354  -0.016  -2.226  0.00  0.00    -0.038 A 
ATOM     10  C   LIG d   1       5.208  -0.430  -3.549  0.00  0.00     0.047 A 
ATOM     11  N   LIG d   1       5.928  -1.293  -4.323  0.00  0.00    -0.356 N 
ATOM     12  H   LIG d   1       6.712  -1.783  -4.030  0.00  0.00     0.166 HD
ATOM     13  C   LIG d   1       3.440  -0.374  -6.874  0.00  0.00     0.002 C 
ATOM     14  C   LIG d   1       3.710  -1.534  -7.843  0.00  0.00     0.107 A 
ATOM     15  H   LIG d   1       3.244  -2.437  -7.450  0.00  0.00     0.060 H 
ATOM     16  N   LIG d   1       5.152  -1.749  -7.942  0.00  0.00    -0.276 N 
ATOM     17  C   LIG d   1       5.845  -1.553  -9.066  0.00  0.00     0.234 A 
ATOM     18  O   LIG d   1       7.048  -1.697  -9.023  0.00  0.00    -0.274 OA
ATOM     19  C   LIG d   1       5.237  -1.166 -10.375  0.00  0.00     0.091 A 
ATOM     20  N   LIG d   1       3.788  -1.063 -10.296  0.00  0.00    -0.286 N 
ATOM     21  C   LIG d   1       3.095  -1.229  -9.171  0.00  0.00     0.237 A 
ATOM     22  O   LIG d   1       1.888  -1.126  -9.228  0.00  0.00    -0.274 OA
ATOM     23  H   LIG d   1       2.413   1.369  -4.442  0.00  0.00     0.062 H 
ATOM     24  H   LIG d   1       2.695   2.080  -2.102  0.00  0.00     0.062 H 
ATOM     25  H   LIG d   1       4.509   1.233  -0.726  0.00  0.00     0.062 H 
ATOM     26  H   LIG d   1       6.154  -0.386  -1.603  0.00  0.00     0.064 H 
ATOM     27  H   LIG d   1       3.689   0.571  -7.356  0.00  0.00     0.034 H 
ATOM     28  H   LIG d   1       2.388  -0.373  -6.589  0.00  0.00     0.034 H 
ATOM     29  H   LIG d   1       5.497  -1.916 -11.122  0.00  0.00     0.056 H 
ATOM     30  H   LIG d   1       5.644  -0.203 -10.683  0.00  0.00     0.056 H 
ENDROOT
BRANCH   1  31
ATOM     31  C   LIG d   1       5.564  -3.658  -6.473  0.00  0.00    -0.018 A 
ATOM     32  C   LIG d   1       6.565  -4.507  -6.041  0.00  0.00    -0.045 A 
ATOM     33  C   LIG d   1       6.287  -5.840  -5.804  0.00  0.00    -0.059 A 
ATOM     34  C   LIG d   1       5.008  -6.326  -6.004  0.00  0.00    -0.061 A 
ATOM     35  H   LIG d   1       7.070  -6.504  -5.467  0.00  0.00     0.062 H 
ATOM     36  C   LIG d   1       4.005  -5.476  -6.433  0.00  0.00    -0.061 A 
ATOM     37  H   LIG d   1       4.792  -7.368  -5.824  0.00  0.00     0.062 H 
ATOM     38  C   LIG d   1       4.283  -4.143  -6.668  0.00  0.00    -0.056 A 
ATOM     39  H   LIG d   1       3.005  -5.854  -6.586  0.00  0.00     0.062 H 
ATOM     40  H   LIG d   1       3.501  -3.479  -7.006  0.00  0.00     0.062 H 
BRANCH  32  41
ATOM     41  C   LIG d   1       7.960  -3.980  -5.828  0.00  0.00    -0.039 C 
ATOM     42  H   LIG d   1       8.655  -4.521  -6.471  0.00  0.00     0.028 H 
ATOM     43  H   LIG d   1       7.990  -2.918  -6.074  0.00  0.00     0.028 H 
ATOM     44  H   LIG d   1       8.246  -4.118  -4.786  0.00  0.00     0.028 H 
ENDBRANCH  32  41
ENDBRANCH   1  31
BRANCH  20  45
ATOM     45  C   LIG d   1       3.050  -0.758 -11.524  0.00  0.00     0.066 C 
ATOM     46  H   LIG d   1       2.014  -0.531 -11.278  0.00  0.00     0.051 H 
ATOM     47  H   LIG d   1       3.505   0.101 -12.016  0.00  0.00     0.051 H 
BRANCH  45  48
ATOM     48  C   LIG d   1       3.099  -1.967 -12.461  0.00  0.00     0.174 C 
ATOM     49  H   LIG d   1       4.042  -1.967 -13.007  0.00  0.00     0.092 H 
BRANCH  48  50
ATOM     50  O   LIG d   1       2.993  -3.169 -11.694  0.00  0.00    -0.353 OA
BRANCH  50  51
ATOM     51  C   LIG d   1       3.812  -4.238 -12.172  0.00  0.00     0.040 C 
ATOM     52  H   LIG d   1       4.239  -3.965 -13.137  0.00  0.00     0.052 H 
ATOM     53  H   LIG d   1       4.616  -4.426 -11.459  0.00  0.00     0.052 H 
ATOM     54  H   LIG d   1       3.207  -5.137 -12.283  0.00  0.00     0.052 H 
ENDBRANCH  50  51
ENDBRANCH  48  50
BRANCH  48  55
ATOM     55  O   LIG d   1       2.012  -1.896 -13.387  0.00  0.00    -0.353 OA
BRANCH  55  56
ATOM     56  C   LIG d   1       0.723  -2.017 -12.781  0.00  0.00     0.040 C 
ATOM     57  H   LIG d   1       0.839  -2.320 -11.741  0.00  0.00     0.052 H 
ATOM     58  H   LIG d   1       0.210  -1.057 -12.826  0.00  0.00     0.052 H 
ATOM     59  H   LIG d   1       0.140  -2.767 -13.316  0.00  0.00     0.052 H 
ENDBRANCH  55  56
ENDBRANCH  48  55
ENDBRANCH  45  48
ENDBRANCH  20  45
TORSDOF 8
ENDMDL
MODEL 9
REMARK VINA RESULT:      -5.9      2.085      5.212
REMARK  8 active torsions:
REMARK  status: ('A' for Active; 'I' for Inactive)
REMARK    1  A    between atoms: C_1  and  C_2 
REMARK    2  A    between atoms: C_7  and  C_8 
REMARK    3  A    between atoms: N_27  and  C_30 
REMARK    4  A    between atoms: C_30  and  C_31 
REMARK    5  A    between atoms: C_31  and  O_32 
REMARK    6  A    between atoms: C_31  and  O_34 
REMARK    7  A    between atoms: O_32  and  C_33 
REMARK    8  A    between atoms: O_34  and  C_35 
ROOT
ATOM      1  C   LIG d   1       4.819  -3.209  -6.406  0.00  0.00     0.093 C 
ATOM      2  H   LIG d   1       3.876  -3.729  -6.581  0.00  0.00     0.062 H 
ATOM      3  C   LIG d   1       4.627  -2.133  -5.362  0.00  0.00     0.046 A 
ATOM      4  C   LIG d   1       5.444  -1.973  -4.298  0.00  0.00    -0.015 A 
ATOM      5  C   LIG d   1       4.937  -0.846  -3.541  0.00  0.00     0.003 A 
ATOM      6  C   LIG d   1       5.367  -0.225  -2.364  0.00  0.00    -0.052 A 
ATOM      7  C   LIG d   1       4.627   0.843  -1.920  0.00  0.00    -0.061 A 
ATOM      8  C   LIG d   1       3.505   1.292  -2.597  0.00  0.00    -0.060 A 
ATOM      9  C   LIG d   1       3.058   0.697  -3.763  0.00  0.00    -0.038 A 
ATOM     10  C   LIG d   1       3.790  -0.389  -4.239  0.00  0.00     0.047 A 
ATOM     11  N   LIG d   1       3.634  -1.190  -5.333  0.00  0.00    -0.356 N 
ATOM     12  H   LIG d   1       2.927  -1.104  -5.991  0.00  0.00     0.166 HD
ATOM     13  C   LIG d   1       6.644  -2.835  -3.999  0.00  0.00     0.002 C 
ATOM     14  C   LIG d   1       7.032  -3.603  -5.271  0.00  0.00     0.107 A 
ATOM     15  H   LIG d   1       7.498  -2.911  -5.973  0.00  0.00     0.060 H 
ATOM     16  N   LIG d   1       5.826  -4.157  -5.883  0.00  0.00    -0.276 N 
ATOM     17  C   LIG d   1       5.596  -5.468  -5.987  0.00  0.00     0.234 A 
ATOM     18  O   LIG d   1       4.533  -5.822  -6.452  0.00  0.00    -0.274 OA
ATOM     19  C   LIG d   1       6.560  -6.529  -5.567  0.00  0.00     0.091 A 
ATOM     20  N   LIG d   1       7.804  -5.970  -5.063  0.00  0.00    -0.286 N 
ATOM     21  C   LIG d   1       8.028  -4.665  -4.930  0.00  0.00     0.237 A 
ATOM     22  O   LIG d   1       9.108  -4.314  -4.505  0.00  0.00    -0.274 OA
ATOM     23  H   LIG d   1       6.241  -0.569  -1.830  0.00  0.00     0.062 H 
ATOM     24  H   LIG d   1       4.929   1.348  -1.015  0.00  0.00     0.062 H 
ATOM     25  H   LIG d   1       2.960   2.137  -2.201  0.00  0.00     0.062 H 
ATOM     26  H   LIG d   1       2.182   1.059  -4.282  0.00  0.00     0.064 H 
ATOM     27  H   LIG d   1       6.398  -3.541  -3.207  0.00  0.00     0.034 H 
ATOM     28  H   LIG d   1       7.477  -2.206  -3.684  0.00  0.00     0.034 H 
ATOM     29  H   LIG d   1       6.780  -7.167  -6.424  0.00  0.00     0.056 H 
ATOM     30  H   LIG d   1       6.101  -7.135  -4.785  0.00  0.00     0.056 H 
ENDROOT
BRANCH   1  31
ATOM     31  C   LIG d   1       5.311  -2.596  -7.691  0.00  0.00    -0.018 A 
ATOM     32  C   LIG d   1       4.623  -2.812  -8.869  0.00  0.00    -0.045 A 
ATOM     33  C   LIG d   1       5.075  -2.248 -10.048  0.00  0.00    -0.059 A 
ATOM     34  C   LIG d   1       6.219  -1.472 -10.048  0.00  0.00    -0.061 A 
ATOM     35  H   LIG d   1       4.537  -2.417 -10.969  0.00  0.00     0.062 H 
ATOM     36  C   LIG d   1       6.907  -1.253  -8.869  0.00  0.00    -0.061 A 
ATOM     37  H   LIG d   1       6.575  -1.036 -10.970  0.00  0.00     0.062 H 
ATOM     38  C   LIG d   1       6.454  -1.815  -7.691  0.00  0.00    -0.056 A 
ATOM     39  H   LIG d   1       7.799  -0.644  -8.868  0.00  0.00     0.062 H 
ATOM     40  H   LIG d   1       6.992  -1.647  -6.770  0.00  0.00     0.062 H 
BRANCH  32  41
ATOM     41  C   LIG d   1       3.379  -3.662  -8.870  0.00  0.00    -0.039 C 
ATOM     42  H   LIG d   1       3.185  -4.021  -9.880  0.00  0.00     0.028 H 
ATOM     43  H   LIG d   1       3.520  -4.513  -8.203  0.00  0.00     0.028 H 
ATOM     44  H   LIG d   1       2.533  -3.068  -8.525  0.00  0.00     0.028 H 
ENDBRANCH  32  41
ENDBRANCH   1  31
BRANCH  20  45
ATOM     45  C   LIG d   1       8.871  -6.897  -4.679  0.00  0.00     0.066 C 
ATOM     46  H   LIG d   1       9.443  -7.179  -5.563  0.00  0.00     0.051 H 
ATOM     47  H   LIG d   1       9.530  -6.413  -3.959  0.00  0.00     0.051 H 
BRANCH  45  48
ATOM     48  C   LIG d   1       8.257  -8.149  -4.048  0.00  0.00     0.174 C 
ATOM     49  H   LIG d   1       7.175  -8.129  -4.181  0.00  0.00     0.092 H 
BRANCH  48  50
ATOM     50  O   LIG d   1       8.792  -9.313  -4.681  0.00  0.00    -0.353 OA
BRANCH  50  51
ATOM     51  C   LIG d   1      10.076  -9.114  -5.275  0.00  0.00     0.040 C 
ATOM     52  H   LIG d   1      10.714  -9.970  -5.056  0.00  0.00     0.052 H 
ATOM     53  H   LIG d   1       9.965  -9.011  -6.355  0.00  0.00     0.052 H 
ATOM     54  H   LIG d   1      10.528  -8.209  -4.869  0.00  0.00     0.052 H 
ENDBRANCH  50  51
ENDBRANCH  48  50
BRANCH  48  55
ATOM     55  O   LIG d   1       8.566  -8.180  -2.653  0.00  0.00    -0.353 OA
BRANCH  55  56
ATOM     56  C   LIG d   1       7.897  -9.216  -1.932  0.00  0.00     0.040 C 
ATOM     57  H   LIG d   1       8.362 -10.175  -2.160  0.00  0.00     0.052 H 
ATOM     58  H   LIG d   1       7.971  -9.021  -0.863  0.00  0.00     0.052 H 
ATOM     59  H   LIG d   1       6.847  -9.242  -2.225  0.00  0.00     0.052 H 
ENDBRANCH  55  56
ENDBRANCH  48  55
ENDBRANCH  45  48
ENDBRANCH  20  45
TORSDOF 8
ENDMDL
MODEL 10
REMARK VINA RESULT:      -5.7      2.058      5.035
REMARK  8 active torsions:
REMARK  status: ('A' for Active; 'I' for Inactive)
REMARK    1  A    between atoms: C_1  and  C_2 
REMARK    2  A    between atoms: C_7  and  C_8 
REMARK    3  A    between atoms: N_27  and  C_30 
REMARK    4  A    between atoms: C_30  and  C_31 
REMARK    5  A    between atoms: C_31  and  O_32 
REMARK    6  A    between atoms: C_31  and  O_34 
REMARK    7  A    between atoms: O_32  and  C_33 
REMARK    8  A    between atoms: O_34  and  C_35 
ROOT
ATOM      1  C   LIG d   1       4.378  -1.581  -7.548  0.00  0.00     0.093 C 
ATOM      2  H   LIG d   1       3.499  -1.169  -8.043  0.00  0.00     0.062 H 
ATOM      3  C   LIG d   1       4.368  -1.204  -6.084  0.00  0.00     0.046 A 
ATOM      4  C   LIG d   1       4.571  -2.090  -5.084  0.00  0.00    -0.015 A 
ATOM      5  C   LIG d   1       4.490  -1.352  -3.840  0.00  0.00     0.003 A 
ATOM      6  C   LIG d   1       4.618  -1.734  -2.501  0.00  0.00    -0.052 A 
ATOM      7  C   LIG d   1       4.475  -0.747  -1.558  0.00  0.00    -0.061 A 
ATOM      8  C   LIG d   1       4.216   0.569  -1.904  0.00  0.00    -0.060 A 
ATOM      9  C   LIG d   1       4.085   0.975  -3.221  0.00  0.00    -0.038 A 
ATOM     10  C   LIG d   1       4.226  -0.005  -4.201  0.00  0.00     0.047 A 
ATOM     11  N   LIG d   1       4.159   0.045  -5.563  0.00  0.00    -0.356 N 
ATOM     12  H   LIG d   1       3.990   0.846  -6.084  0.00  0.00     0.166 HD
ATOM     13  C   LIG d   1       4.828  -3.563  -5.282  0.00  0.00     0.002 C 
ATOM     14  C   LIG d   1       5.246  -3.802  -6.739  0.00  0.00     0.107 A 
ATOM     15  H   LIG d   1       6.264  -3.438  -6.878  0.00  0.00     0.060 H 
ATOM     16  N   LIG d   1       4.351  -3.058  -7.623  0.00  0.00    -0.276 N 
ATOM     17  C   LIG d   1       3.519  -3.646  -8.485  0.00  0.00     0.234 A 
ATOM     18  O   LIG d   1       2.771  -2.938  -9.125  0.00  0.00    -0.274 OA
ATOM     19  C   LIG d   1       3.446  -5.121  -8.713  0.00  0.00     0.091 A 
ATOM     20  N   LIG d   1       4.417  -5.848  -7.911  0.00  0.00    -0.286 N 
ATOM     21  C   LIG d   1       5.229  -5.269  -7.029  0.00  0.00     0.237 A 
ATOM     22  O   LIG d   1       6.005  -5.976  -6.423  0.00  0.00    -0.274 OA
ATOM     23  H   LIG d   1       4.820  -2.758  -2.222  0.00  0.00     0.062 H 
ATOM     24  H   LIG d   1       4.568  -1.003  -0.514  0.00  0.00     0.062 H 
ATOM     25  H   LIG d   1       4.112   1.305  -1.120  0.00  0.00     0.062 H 
ATOM     26  H   LIG d   1       3.884   2.005  -3.477  0.00  0.00     0.064 H 
ATOM     27  H   LIG d   1       3.919  -4.124  -5.065  0.00  0.00     0.034 H 
ATOM     28  H   LIG d   1       5.626  -3.887  -4.614  0.00  0.00     0.034 H 
ATOM     29  H   LIG d   1       3.633  -5.327  -9.767  0.00  0.00     0.056 H 
ATOM     30  H   LIG d   1       2.445  -5.470  -8.457  0.00  0.00     0.056 H 
ENDROOT
BRANCH   1  31
ATOM     31  C   LIG d   1       5.629  -1.057  -8.204  0.00  0.00    -0.018 A 
ATOM     32  C   LIG d   1       5.537  -0.241  -9.315  0.00  0.00    -0.045 A 
ATOM     33  C   LIG d   1       6.685   0.240  -9.917  0.00  0.00    -0.059 A 
ATOM     34  C   LIG d   1       7.925  -0.099  -9.409  0.00  0.00    -0.061 A 
ATOM     35  H   LIG d   1       6.613   0.878 -10.785  0.00  0.00     0.062 H 
ATOM     36  C   LIG d   1       8.018  -0.913  -8.295  0.00  0.00    -0.061 A 
ATOM     37  H   LIG d   1       8.822   0.273  -9.883  0.00  0.00     0.062 H 
ATOM     38  C   LIG d   1       6.870  -1.393  -7.693  0.00  0.00    -0.056 A 
ATOM     39  H   LIG d   1       8.986  -1.175  -7.897  0.00  0.00     0.062 H 
ATOM     40  H   LIG d   1       6.941  -2.031  -6.825  0.00  0.00     0.062 H 
BRANCH  32  41
ATOM     41  C   LIG d   1       4.185   0.124  -9.871  0.00  0.00    -0.039 C 
ATOM     42  H   LIG d   1       3.876  -0.627 -10.597  0.00  0.00     0.028 H 
ATOM     43  H   LIG d   1       3.458   0.168  -9.061  0.00  0.00     0.028 H 
ATOM     44  H   LIG d   1       4.244   1.098 -10.358  0.00  0.00     0.028 H 
ENDBRANCH  32  41
ENDBRANCH   1  31
BRANCH  20  45
ATOM     45  C   LIG d   1       4.507  -7.299  -8.084  0.00  0.00     0.066 C 
ATOM     46  H   LIG d   1       5.170  -7.716  -7.326  0.00  0.00     0.051 H 
ATOM     47  H   LIG d   1       3.515  -7.739  -7.981  0.00  0.00     0.051 H 
BRANCH  45  48
ATOM     48  C   LIG d   1       5.062  -7.614  -9.475  0.00  0.00     0.174 C 
ATOM     49  H   LIG d   1       4.946  -6.742 -10.119  0.00  0.00     0.092 H 
BRANCH  48  50
ATOM     50  O   LIG d   1       6.448  -7.947  -9.371  0.00  0.00    -0.353 OA
BRANCH  50  51
ATOM     51  C   LIG d   1       7.329  -6.914  -9.816  0.00  0.00     0.040 C 
ATOM     52  H   LIG d   1       7.999  -7.312 -10.578  0.00  0.00     0.052 H 
ATOM     53  H   LIG d   1       6.746  -6.095 -10.236  0.00  0.00     0.052 H 
ATOM     54  H   LIG d   1       7.914  -6.548  -8.972  0.00  0.00     0.052 H 
ENDBRANCH  50  51
ENDBRANCH  48  50
BRANCH  48  55
ATOM     55  O   LIG d   1       4.347  -8.718 -10.035  0.00  0.00    -0.353 OA
BRANCH  55  56
ATOM     56  C   LIG d   1       4.647  -9.975  -9.423  0.00  0.00     0.040 C 
ATOM     57  H   LIG d   1       4.586 -10.765 -10.171  0.00  0.00     0.052 H 
ATOM     58  H   LIG d   1       5.653  -9.944  -9.006  0.00  0.00     0.052 H 
ATOM     59  H   LIG d   1       3.929 -10.170  -8.627  0.00  0.00     0.052 H 
ENDBRANCH  55  56
ENDBRANCH  48  55
ENDBRANCH  45  48
ENDBRANCH  20  45
TORSDOF 8
ENDMDL
