MODEL 1
REMARK VINA RESULT:      -5.5      0.000      0.000
REMARK  16 active torsions:
REMARK  status: ('A' for Active; 'I' for Inactive)
REMARK    1  A    between atoms: C_1  and  C_2 
REMARK    2  A    between atoms: C_4  and  N_33 
REMARK    3  A    between atoms: C_8  and  C_32 
REMARK    4  A    between atoms: C_11  and  O_31 
REMARK    5  A    between atoms: C_13  and  C_17 
REMARK    6  A    between atoms: C_17  and  C_19 
REMARK    7  A    between atoms: C_17  and  C_20 
REMARK       I    between atoms: C_20  and  N_22 
REMARK    8  A    between atoms: N_22  and  C_23 
REMARK    9  A    between atoms: N_22  and  C_27 
REMARK   10  A    between atoms: C_23  and  C_24 
REMARK   11  A    between atoms: C_24  and  O_25 
REMARK   12  A    between atoms: O_25  and  C_26 
REMARK   13  A    between atoms: C_27  and  C_28 
REMARK   14  A    between atoms: C_28  and  O_29 
REMARK   15  A    between atoms: O_29  and  C_30 
REMARK       I    between atoms: N_33  and  C_34 
REMARK   16  A    between atoms: C_34  and  C_36 
ROOT
ATOM      1  C   LIG d   1       9.346   2.141  -5.605  0.00  0.00    -0.020 C 
ATOM      2  H   LIG d   1      10.105   1.346  -5.659  0.00  0.00     0.032 H 
ATOM      3  C   LIG d   1       8.783   2.213  -4.185  0.00  0.00     0.026 C 
ATOM      4  H   LIG d   1       7.993   2.977  -4.120  0.00  0.00     0.050 H 
ATOM      5  C   LIG d   1       9.914   2.521  -3.203  0.00  0.00    -0.034 C 
ATOM      6  C   LIG d   1      10.554   3.863  -3.566  0.00  0.00    -0.046 C 
ATOM      7  C   LIG d   1      11.117   3.791  -4.987  0.00  0.00    -0.026 C 
ATOM      8  C   LIG d   1       9.985   3.482  -5.969  0.00  0.00    -0.005 C 
ATOM      9  H   LIG d   1       9.227   4.276  -5.915  0.00  0.00     0.033 H 
ATOM     10  C   LIG d   1      10.549   3.410  -7.390  0.00  0.00     0.062 C 
ATOM     11  H   LIG d   1      11.269   2.584  -7.493  0.00  0.00     0.060 H 
ATOM     12  C   LIG d   1      11.189   4.751  -7.753  0.00  0.00    -0.004 C 
ATOM     13  H   LIG d   1      11.594   4.699  -8.775  0.00  0.00     0.033 H 
ATOM     14  C   LIG d   1      12.321   5.060  -6.771  0.00  0.00    -0.047 C 
ATOM     15  C   LIG d   1      11.758   5.132  -5.350  0.00  0.00    -0.047 C 
ATOM     16  H   LIG d   1       9.509   2.573  -2.181  0.00  0.00     0.028 H 
ATOM     17  H   LIG d   1      10.672   1.727  -3.256  0.00  0.00     0.028 H 
ATOM     18  H   LIG d   1       9.795   4.658  -3.512  0.00  0.00     0.027 H 
ATOM     19  H   LIG d   1      11.367   4.084  -2.859  0.00  0.00     0.027 H 
ATOM     20  H   LIG d   1      13.080   4.265  -6.825  0.00  0.00     0.027 H 
ATOM     21  H   LIG d   1      12.781   6.024  -7.033  0.00  0.00     0.027 H 
ATOM     22  H   LIG d   1      10.999   5.927  -5.297  0.00  0.00     0.027 H 
ATOM     23  H   LIG d   1      12.571   5.354  -4.644  0.00  0.00     0.027 H 
ENDROOT
BRANCH  12  24
ATOM     24  C   LIG d   1      10.134   5.857  -7.679  0.00  0.00     0.038 C 
ATOM     25  H   LIG d   1       9.599   5.799  -6.719  0.00  0.00     0.040 H 
BRANCH  24  26
ATOM     26  C   LIG d   1       9.146   5.696  -8.836  0.00  0.00    -0.054 C 
ATOM     27  H   LIG d   1       8.877   4.634  -8.944  0.00  0.00     0.024 H 
ATOM     28  H   LIG d   1       9.610   6.053  -9.768  0.00  0.00     0.024 H 
ATOM     29  H   LIG d   1       8.240   6.284  -8.629  0.00  0.00     0.024 H 
ENDBRANCH  24  26
BRANCH  24  30
ATOM     30  C   LIG d   1      10.807   7.202  -7.776  0.00  0.00     0.219 C 
ATOM     31  O   LIG d   1      11.600   7.419  -8.668  0.00  0.00    -0.275 OA
ATOM     32  N   LIG d   1      10.529   8.161  -6.872  0.00  0.00    -0.297 N 
BRANCH  32  33
ATOM     33  C   LIG d   1      11.252   9.435  -6.910  0.00  0.00     0.038 C 
ATOM     34  H   LIG d   1      11.550   9.718  -5.889  0.00  0.00     0.049 H 
ATOM     35  H   LIG d   1      12.148   9.330  -7.538  0.00  0.00     0.049 H 
BRANCH  33  36
ATOM     36  C   LIG d   1      10.344  10.519  -7.495  0.00  0.00     0.063 C 
ATOM     37  H   LIG d   1       9.297  10.180  -7.459  0.00  0.00     0.058 H 
ATOM     38  H   LIG d   1      10.449  11.443  -6.906  0.00  0.00     0.058 H 
BRANCH  36  39
ATOM     39  O   LIG d   1      10.717  10.773  -8.851  0.00  0.00    -0.381 OA
BRANCH  39  40
ATOM     40  C   LIG d   1      12.122  10.942  -9.044  0.00  0.00     0.036 C 
ATOM     41  H   LIG d   1      12.542  11.515  -8.204  0.00  0.00     0.052 H 
ATOM     42  H   LIG d   1      12.300  11.486  -9.984  0.00  0.00     0.052 H 
ATOM     43  H   LIG d   1      12.607   9.956  -9.093  0.00  0.00     0.052 H 
ENDBRANCH  39  40
ENDBRANCH  36  39
ENDBRANCH  33  36
ENDBRANCH  32  33
BRANCH  32  44
ATOM     44  C   LIG d   1       9.504   7.931  -5.851  0.00  0.00     0.038 C 
ATOM     45  H   LIG d   1       8.618   8.541  -6.077  0.00  0.00     0.049 H 
ATOM     46  H   LIG d   1       9.226   6.866  -5.845  0.00  0.00     0.049 H 
BRANCH  44  47
ATOM     47  C   LIG d   1      10.056   8.320  -4.478  0.00  0.00     0.063 C 
ATOM     48  H   LIG d   1      11.151   8.402  -4.532  0.00  0.00     0.058 H 
ATOM     49  H   LIG d   1       9.631   9.288  -4.172  0.00  0.00     0.058 H 
BRANCH  47  50
ATOM     50  O   LIG d   1       9.700   7.320  -3.521  0.00  0.00    -0.381 OA
BRANCH  50  51
ATOM     51  C   LIG d   1      10.194   7.572  -2.204  0.00  0.00     0.036 C 
ATOM     52  H   LIG d   1      11.072   6.937  -2.014  0.00  0.00     0.052 H 
ATOM     53  H   LIG d   1       9.409   7.343  -1.468  0.00  0.00     0.052 H 
ATOM     54  H   LIG d   1      10.480   8.631  -2.117  0.00  0.00     0.052 H 
ENDBRANCH  50  51
ENDBRANCH  47  50
ENDBRANCH  44  47
ENDBRANCH  32  44
ENDBRANCH  24  30
ENDBRANCH  12  24
BRANCH  10  55
ATOM     55  O   LIG d   1       9.492   3.122  -8.307  0.00  0.00    -0.391 OA
ATOM     56  H   LIG d   1       9.666   2.432  -9.146  0.00  0.00     0.210 HD
ENDBRANCH  10  55
BRANCH   1  57
ATOM     57  C   LIG d   1       8.214   1.832  -6.589  0.00  0.00    -0.060 C 
ATOM     58  H   LIG d   1       7.731   0.886  -6.305  0.00  0.00     0.023 H 
ATOM     59  H   LIG d   1       8.625   1.745  -7.605  0.00  0.00     0.023 H 
ATOM     60  H   LIG d   1       7.474   2.645  -6.561  0.00  0.00     0.023 H 
ENDBRANCH   1  57
BRANCH   7  61
ATOM     61  C   LIG d   1      12.172   2.685  -5.061  0.00  0.00    -0.059 C 
ATOM     62  H   LIG d   1      12.516   2.437  -4.045  0.00  0.00     0.024 H 
ATOM     63  H   LIG d   1      13.025   3.031  -5.662  0.00  0.00     0.024 H 
ATOM     64  H   LIG d   1      11.733   1.790  -5.527  0.00  0.00     0.024 H 
ENDBRANCH   7  61
BRANCH   3  65
ATOM     65  N   LIG d   1       8.170   0.929  -3.837  0.00  0.00    -0.312 N 
ATOM     66  C   LIG d   1       6.887   0.884  -3.424  0.00  0.00     0.216 C 
ATOM     67  O   LIG d   1       6.241   1.906  -3.341  0.00  0.00    -0.276 OA
ATOM     68  H   LIG d   1       8.756   0.001  -3.912  0.00  0.00     0.149 HD
BRANCH  66  69
ATOM     69  C   LIG d   1       6.257  -0.437  -3.066  0.00  0.00     0.036 C 
ATOM     70  C   LIG d   1       4.975  -0.191  -2.267  0.00  0.00    -0.042 C 
ATOM     71  C   LIG d   1       4.336  -1.533  -1.903  0.00  0.00    -0.052 C 
ATOM     72  H   LIG d   1       5.217   0.361  -1.347  0.00  0.00     0.027 H 
ATOM     73  H   LIG d   1       4.273   0.398  -2.874  0.00  0.00     0.027 H 
ATOM     74  C   LIG d   1       3.999  -2.300  -3.182  0.00  0.00    -0.053 C 
ATOM     75  H   LIG d   1       3.415  -1.355  -1.329  0.00  0.00     0.026 H 
ATOM     76  H   LIG d   1       5.039  -2.122  -1.296  0.00  0.00     0.026 H 
ATOM     77  C   LIG d   1       5.281  -2.547  -3.981  0.00  0.00    -0.052 C 
ATOM     78  H   LIG d   1       3.296  -1.712  -3.790  0.00  0.00     0.026 H 
ATOM     79  H   LIG d   1       3.539  -3.265  -2.921  0.00  0.00     0.026 H 
ATOM     80  C   LIG d   1       5.920  -1.206  -4.346  0.00  0.00    -0.042 C 
ATOM     81  H   LIG d   1       5.039  -3.100  -4.901  0.00  0.00     0.026 H 
ATOM     82  H   LIG d   1       5.984  -3.137  -3.374  0.00  0.00     0.026 H 
ATOM     83  H   LIG d   1       5.217  -0.616  -4.952  0.00  0.00     0.027 H 
ATOM     84  H   LIG d   1       6.843  -1.383  -4.920  0.00  0.00     0.027 H 
ATOM     85  H   LIG d   1       6.971  -1.014  -2.459  0.00  0.00     0.039 H 
ENDBRANCH  66  69
ENDBRANCH   3  65
TORSDOF 16
ENDMDL
MODEL 2
REMARK VINA RESULT:      -4.8      2.277      3.174
REMARK  16 active torsions:
REMARK  status: ('A' for Active; 'I' for Inactive)
REMARK    1  A    between atoms: C_1  and  C_2 
REMARK    2  A    between atoms: C_4  and  N_33 
REMARK    3  A    between atoms: C_8  and  C_32 
REMARK    4  A    between atoms: C_11  and  O_31 
REMARK    5  A    between atoms: C_13  and  C_17 
REMARK    6  A    between atoms: C_17  and  C_19 
REMARK    7  A    between atoms: C_17  and  C_20 
REMARK       I    between atoms: C_20  and  N_22 
REMARK    8  A    between atoms: N_22  and  C_23 
REMARK    9  A    between atoms: N_22  and  C_27 
REMARK   10  A    between atoms: C_23  and  C_24 
REMARK   11  A    between atoms: C_24  and  O_25 
REMARK   12  A    between atoms: O_25  and  C_26 
REMARK   13  A    between atoms: C_27  and  C_28 
REMARK   14  A    between atoms: C_28  and  O_29 
REMARK   15  A    between atoms: O_29  and  C_30 
REMARK       I    between atoms: N_33  and  C_34 
REMARK   16  A    between atoms: C_34  and  C_36 
ROOT
ATOM      1  C   LIG d   1      10.031   3.488  -4.917  0.00  0.00    -0.020 C 
ATOM      2  H   LIG d   1      10.869   2.932  -5.364  0.00  0.00     0.032 H 
ATOM      3  C   LIG d   1       9.524   2.742  -3.682  0.00  0.00     0.026 C 
ATOM      4  H   LIG d   1       8.659   3.263  -3.243  0.00  0.00     0.050 H 
ATOM      5  C   LIG d   1      10.655   2.619  -2.660  0.00  0.00    -0.034 C 
ATOM      6  C   LIG d   1      11.129   4.016  -2.253  0.00  0.00    -0.046 C 
ATOM      7  C   LIG d   1      11.637   4.762  -3.488  0.00  0.00    -0.026 C 
ATOM      8  C   LIG d   1      10.505   4.885  -4.510  0.00  0.00    -0.005 C 
ATOM      9  H   LIG d   1       9.667   5.440  -4.065  0.00  0.00     0.033 H 
ATOM     10  C   LIG d   1      11.012   5.631  -5.746  0.00  0.00     0.062 C 
ATOM     11  H   LIG d   1      11.813   5.070  -6.251  0.00  0.00     0.060 H 
ATOM     12  C   LIG d   1      11.487   7.028  -5.339  0.00  0.00    -0.004 C 
ATOM     13  H   LIG d   1      11.852   7.564  -6.227  0.00  0.00     0.033 H 
ATOM     14  C   LIG d   1      12.619   6.905  -4.317  0.00  0.00    -0.047 C 
ATOM     15  C   LIG d   1      12.112   6.158  -3.082  0.00  0.00    -0.047 C 
ATOM     16  H   LIG d   1      10.291   2.082  -1.772  0.00  0.00     0.028 H 
ATOM     17  H   LIG d   1      11.493   2.063  -3.106  0.00  0.00     0.028 H 
ATOM     18  H   LIG d   1      10.292   4.572  -1.807  0.00  0.00     0.027 H 
ATOM     19  H   LIG d   1      11.943   3.926  -1.518  0.00  0.00     0.027 H 
ATOM     20  H   LIG d   1      13.457   6.348  -4.763  0.00  0.00     0.027 H 
ATOM     21  H   LIG d   1      12.960   7.908  -4.025  0.00  0.00     0.027 H 
ATOM     22  H   LIG d   1      11.274   6.714  -2.635  0.00  0.00     0.027 H 
ATOM     23  H   LIG d   1      12.925   6.070  -2.347  0.00  0.00     0.027 H 
ENDROOT
BRANCH  12  24
ATOM     24  C   LIG d   1      10.322   7.802  -4.719  0.00  0.00     0.038 C 
ATOM     25  H   LIG d   1       9.852   7.199  -3.927  0.00  0.00     0.040 H 
BRANCH  24  26
ATOM     26  C   LIG d   1       9.294   8.130  -5.803  0.00  0.00    -0.054 C 
ATOM     27  H   LIG d   1       8.612   7.275  -5.932  0.00  0.00     0.024 H 
ATOM     28  H   LIG d   1       9.812   8.331  -6.753  0.00  0.00     0.024 H 
ATOM     29  H   LIG d   1       8.716   9.017  -5.505  0.00  0.00     0.024 H 
ENDBRANCH  24  26
BRANCH  24  30
ATOM     30  C   LIG d   1      10.835   9.081  -4.111  0.00  0.00     0.219 C 
ATOM     31  O   LIG d   1      11.484   9.855  -4.783  0.00  0.00    -0.275 OA
ATOM     32  N   LIG d   1      10.575   9.365  -2.819  0.00  0.00    -0.297 N 
BRANCH  32  33
ATOM     33  C   LIG d   1      11.153  10.561  -2.202  0.00  0.00     0.038 C 
ATOM     34  H   LIG d   1      11.483  10.324  -1.179  0.00  0.00     0.049 H 
ATOM     35  H   LIG d   1      12.014  10.902  -2.795  0.00  0.00     0.049 H 
BRANCH  33  36
ATOM     36  C   LIG d   1      10.098  11.669  -2.152  0.00  0.00     0.063 C 
ATOM     37  H   LIG d   1       9.099  11.231  -2.297  0.00  0.00     0.058 H 
ATOM     38  H   LIG d   1      10.139  12.171  -1.174  0.00  0.00     0.058 H 
BRANCH  36  39
ATOM     39  O   LIG d   1      10.356  12.620  -3.187  0.00  0.00    -0.381 OA
BRANCH  39  40
ATOM     40  C   LIG d   1       9.350  12.664  -4.200  0.00  0.00     0.036 C 
ATOM     41  H   LIG d   1       9.245  11.669  -4.657  0.00  0.00     0.052 H 
ATOM     42  H   LIG d   1       9.637  13.393  -4.971  0.00  0.00     0.052 H 
ATOM     43  H   LIG d   1       8.391  12.964  -3.751  0.00  0.00     0.052 H 
ENDBRANCH  39  40
ENDBRANCH  36  39
ENDBRANCH  33  36
ENDBRANCH  32  33
BRANCH  32  44
ATOM     44  C   LIG d   1       9.716   8.477  -2.032  0.00  0.00     0.038 C 
ATOM     45  H   LIG d   1       8.706   8.908  -1.967  0.00  0.00     0.049 H 
ATOM     46  H   LIG d   1       9.663   7.492  -2.520  0.00  0.00     0.049 H 
BRANCH  44  47
ATOM     47  C   LIG d   1      10.297   8.319  -0.626  0.00  0.00     0.063 C 
ATOM     48  H   LIG d   1      11.387   8.461  -0.661  0.00  0.00     0.058 H 
ATOM     49  H   LIG d   1       9.850   9.070   0.043  0.00  0.00     0.058 H 
BRANCH  47  50
ATOM     50  O   LIG d   1      10.003   7.009  -0.135  0.00  0.00    -0.381 OA
BRANCH  50  51
ATOM     51  C   LIG d   1      11.068   6.415   0.611  0.00  0.00     0.036 C 
ATOM     52  H   LIG d   1      12.029   6.663   0.139  0.00  0.00     0.052 H 
ATOM     53  H   LIG d   1      10.938   5.323   0.629  0.00  0.00     0.052 H 
ATOM     54  H   LIG d   1      11.054   6.802   1.641  0.00  0.00     0.052 H 
ENDBRANCH  50  51
ENDBRANCH  47  50
ENDBRANCH  44  47
ENDBRANCH  32  44
ENDBRANCH  24  30
ENDBRANCH  12  24
BRANCH  10  55
ATOM     55  O   LIG d   1       9.955   5.746  -6.701  0.00  0.00    -0.391 OA
ATOM     56  H   LIG d   1       8.939   5.417  -6.438  0.00  0.00     0.210 HD
ENDBRANCH  10  55
BRANCH   1  57
ATOM     57  C   LIG d   1       8.899   3.612  -5.940  0.00  0.00    -0.060 C 
ATOM     58  H   LIG d   1       8.639   4.672  -6.071  0.00  0.00     0.023 H 
ATOM     59  H   LIG d   1       8.018   3.059  -5.581  0.00  0.00     0.023 H 
ATOM     60  H   LIG d   1       9.228   3.193  -6.903  0.00  0.00     0.023 H 
ENDBRANCH   1  57
BRANCH   7  61
ATOM     61  C   LIG d   1      12.802   3.987  -4.109  0.00  0.00    -0.059 C 
ATOM     62  H   LIG d   1      13.708   4.141  -3.503  0.00  0.00     0.024 H 
ATOM     63  H   LIG d   1      12.979   4.348  -5.132  0.00  0.00     0.024 H 
ATOM     64  H   LIG d   1      12.556   2.915  -4.134  0.00  0.00     0.024 H 
ENDBRANCH   7  61
BRANCH   3  65
ATOM     65  N   LIG d   1       9.070   1.405  -4.071  0.00  0.00    -0.312 N 
ATOM     66  C   LIG d   1       7.775   1.060  -3.915  0.00  0.00     0.216 C 
ATOM     67  O   LIG d   1       6.988   1.857  -3.452  0.00  0.00    -0.276 OA
ATOM     68  H   LIG d   1       9.784   0.681  -4.492  0.00  0.00     0.149 HD
BRANCH  66  69
ATOM     69  C   LIG d   1       7.308  -0.315  -4.316  0.00  0.00     0.036 C 
ATOM     70  C   LIG d   1       6.357  -0.862  -3.249  0.00  0.00    -0.042 C 
ATOM     71  C   LIG d   1       5.884  -2.259  -3.656  0.00  0.00    -0.052 C 
ATOM     72  H   LIG d   1       6.882  -0.919  -2.285  0.00  0.00     0.027 H 
ATOM     73  H   LIG d   1       5.490  -0.192  -3.155  0.00  0.00     0.027 H 
ATOM     74  C   LIG d   1       5.153  -2.178  -4.997  0.00  0.00    -0.053 C 
ATOM     75  H   LIG d   1       5.199  -2.651  -2.889  0.00  0.00     0.026 H 
ATOM     76  H   LIG d   1       6.751  -2.927  -3.751  0.00  0.00     0.026 H 
ATOM     77  C   LIG d   1       6.104  -1.632  -6.065  0.00  0.00    -0.052 C 
ATOM     78  H   LIG d   1       4.285  -1.510  -4.904  0.00  0.00     0.026 H 
ATOM     79  H   LIG d   1       4.812  -3.183  -5.290  0.00  0.00     0.026 H 
ATOM     80  C   LIG d   1       6.578  -0.235  -5.658  0.00  0.00    -0.042 C 
ATOM     81  H   LIG d   1       5.579  -1.575  -7.029  0.00  0.00     0.026 H 
ATOM     82  H   LIG d   1       6.972  -2.301  -6.159  0.00  0.00     0.026 H 
ATOM     83  H   LIG d   1       5.710   0.434  -5.563  0.00  0.00     0.027 H 
ATOM     84  H   LIG d   1       7.262   0.158  -6.425  0.00  0.00     0.027 H 
ATOM     85  H   LIG d   1       8.186  -0.972  -4.406  0.00  0.00     0.039 H 
ENDBRANCH  66  69
ENDBRANCH   3  65
TORSDOF 16
ENDMDL
MODEL 3
REMARK VINA RESULT:      -4.8      6.797     11.848
REMARK  16 active torsions:
REMARK  status: ('A' for Active; 'I' for Inactive)
REMARK    1  A    between atoms: C_1  and  C_2 
REMARK    2  A    between atoms: C_4  and  N_33 
REMARK    3  A    between atoms: C_8  and  C_32 
REMARK    4  A    between atoms: C_11  and  O_31 
REMARK    5  A    between atoms: C_13  and  C_17 
REMARK    6  A    between atoms: C_17  and  C_19 
REMARK    7  A    between atoms: C_17  and  C_20 
REMARK       I    between atoms: C_20  and  N_22 
REMARK    8  A    between atoms: N_22  and  C_23 
REMARK    9  A    between atoms: N_22  and  C_27 
REMARK   10  A    between atoms: C_23  and  C_24 
REMARK   11  A    between atoms: C_24  and  O_25 
REMARK   12  A    between atoms: O_25  and  C_26 
REMARK   13  A    between atoms: C_27  and  C_28 
REMARK   14  A    between atoms: C_28  and  O_29 
REMARK   15  A    between atoms: O_29  and  C_30 
REMARK       I    between atoms: N_33  and  C_34 
REMARK   16  A    between atoms: C_34  and  C_36 
ROOT
ATOM      1  C   LIG d   1       5.242   0.495  -9.237  0.00  0.00    -0.020 C 
ATOM      2  H   LIG d   1       4.933   1.550  -9.271  0.00  0.00     0.032 H 
ATOM      3  C   LIG d   1       5.451   0.072  -7.781  0.00  0.00     0.026 C 
ATOM      4  H   LIG d   1       5.799  -0.972  -7.728  0.00  0.00     0.050 H 
ATOM      5  C   LIG d   1       4.144   0.245  -7.007  0.00  0.00    -0.034 C 
ATOM      6  C   LIG d   1       3.057  -0.627  -7.641  0.00  0.00    -0.046 C 
ATOM      7  C   LIG d   1       2.847  -0.204  -9.096  0.00  0.00    -0.026 C 
ATOM      8  C   LIG d   1       4.156  -0.377  -9.870  0.00  0.00    -0.005 C 
ATOM      9  H   LIG d   1       4.466  -1.431  -9.836  0.00  0.00     0.033 H 
ATOM     10  C   LIG d   1       3.947   0.046 -11.326  0.00  0.00     0.062 C 
ATOM     11  H   LIG d   1       3.694   1.115 -11.399  0.00  0.00     0.060 H 
ATOM     12  C   LIG d   1       2.860  -0.824 -11.959  0.00  0.00    -0.004 C 
ATOM     13  H   LIG d   1       2.710  -0.520 -13.005  0.00  0.00     0.033 H 
ATOM     14  C   LIG d   1       1.551  -0.651 -11.185  0.00  0.00    -0.047 C 
ATOM     15  C   LIG d   1       1.761  -1.074  -9.729  0.00  0.00    -0.047 C 
ATOM     16  H   LIG d   1       4.294  -0.060  -5.961  0.00  0.00     0.028 H 
ATOM     17  H   LIG d   1       3.834   1.299  -7.042  0.00  0.00     0.028 H 
ATOM     18  H   LIG d   1       3.366  -1.682  -7.606  0.00  0.00     0.027 H 
ATOM     19  H   LIG d   1       2.117  -0.502  -7.083  0.00  0.00     0.027 H 
ATOM     20  H   LIG d   1       1.242   0.404 -11.219  0.00  0.00     0.027 H 
ATOM     21  H   LIG d   1       0.771  -1.277 -11.640  0.00  0.00     0.027 H 
ATOM     22  H   LIG d   1       2.070  -2.130  -9.695  0.00  0.00     0.027 H 
ATOM     23  H   LIG d   1       0.820  -0.951  -9.173  0.00  0.00     0.027 H 
ENDROOT
BRANCH  12  24
ATOM     24  C   LIG d   1       3.290  -2.292 -11.912  0.00  0.00     0.038 C 
ATOM     25  H   LIG d   1       3.640  -2.546 -10.900  0.00  0.00     0.040 H 
BRANCH  24  26
ATOM     26  C   LIG d   1       4.412  -2.527 -12.925  0.00  0.00    -0.054 C 
ATOM     27  H   LIG d   1       4.069  -3.236 -13.694  0.00  0.00     0.024 H 
ATOM     28  H   LIG d   1       5.291  -2.942 -12.410  0.00  0.00     0.024 H 
ATOM     29  H   LIG d   1       4.682  -1.573 -13.401  0.00  0.00     0.024 H 
ENDBRANCH  24  26
BRANCH  24  30
ATOM     30  C   LIG d   1       2.115  -3.172 -12.251  0.00  0.00     0.219 C 
ATOM     31  O   LIG d   1       1.487  -2.978 -13.271  0.00  0.00    -0.275 OA
ATOM     32  N   LIG d   1       1.761  -4.173 -11.421  0.00  0.00    -0.297 N 
BRANCH  32  33
ATOM     33  C   LIG d   1       0.563  -4.968 -11.702  0.00  0.00     0.038 C 
ATOM     34  H   LIG d   1       0.140  -4.664 -12.672  0.00  0.00     0.049 H 
ATOM     35  H   LIG d   1       0.829  -6.034 -11.736  0.00  0.00     0.049 H 
BRANCH  33  36
ATOM     36  C   LIG d   1      -0.473  -4.736 -10.599  0.00  0.00     0.063 C 
ATOM     37  H   LIG d   1      -0.132  -3.923  -9.941  0.00  0.00     0.058 H 
ATOM     38  H   LIG d   1      -1.437  -4.460 -11.054  0.00  0.00     0.058 H 
BRANCH  36  39
ATOM     39  O   LIG d   1      -0.632  -5.933  -9.836  0.00  0.00    -0.381 OA
BRANCH  39  40
ATOM     40  C   LIG d   1      -1.964  -6.150  -9.366  0.00  0.00     0.036 C 
ATOM     41  H   LIG d   1      -2.676  -5.652 -10.042  0.00  0.00     0.052 H 
ATOM     42  H   LIG d   1      -2.068  -5.735  -8.353  0.00  0.00     0.052 H 
ATOM     43  H   LIG d   1      -2.174  -7.230  -9.344  0.00  0.00     0.052 H 
ENDBRANCH  39  40
ENDBRANCH  36  39
ENDBRANCH  33  36
ENDBRANCH  32  33
BRANCH  32  44
ATOM     44  C   LIG d   1       2.573  -4.466 -10.238  0.00  0.00     0.038 C 
ATOM     45  H   LIG d   1       3.470  -3.829 -10.242  0.00  0.00     0.049 H 
ATOM     46  H   LIG d   1       1.984  -4.264  -9.330  0.00  0.00     0.049 H 
BRANCH  44  47
ATOM     47  C   LIG d   1       2.990  -5.937 -10.256  0.00  0.00     0.063 C 
ATOM     48  H   LIG d   1       2.350  -6.491 -10.957  0.00  0.00     0.058 H 
ATOM     49  H   LIG d   1       4.040  -6.018 -10.576  0.00  0.00     0.058 H 
BRANCH  47  50
ATOM     50  O   LIG d   1       2.849  -6.488  -8.945  0.00  0.00    -0.381 OA
BRANCH  50  51
ATOM     51  C   LIG d   1       4.061  -6.506  -8.188  0.00  0.00     0.036 C 
ATOM     52  H   LIG d   1       3.830  -6.697  -7.130  0.00  0.00     0.052 H 
ATOM     53  H   LIG d   1       4.566  -5.533  -8.283  0.00  0.00     0.052 H 
ATOM     54  H   LIG d   1       4.720  -7.300  -8.569  0.00  0.00     0.052 H 
ENDBRANCH  50  51
ENDBRANCH  47  50
ENDBRANCH  44  47
ENDBRANCH  32  44
ENDBRANCH  24  30
ENDBRANCH  12  24
BRANCH  10  55
ATOM     55  O   LIG d   1       5.169  -0.115 -12.049  0.00  0.00    -0.391 OA
ATOM     56  H   LIG d   1       5.196  -0.748 -12.948  0.00  0.00     0.210 HD
ENDBRANCH  10  55
BRANCH   1  57
ATOM     57  C   LIG d   1       6.551   0.321 -10.012  0.00  0.00    -0.060 C 
ATOM     58  H   LIG d   1       6.442  -0.501 -10.734  0.00  0.00     0.023 H 
ATOM     59  H   LIG d   1       7.365   0.088  -9.310  0.00  0.00     0.023 H 
ATOM     60  H   LIG d   1       6.785   1.253 -10.549  0.00  0.00     0.023 H 
ENDBRANCH   1  57
BRANCH   7  61
ATOM     61  C   LIG d   1       2.418   1.264  -9.143  0.00  0.00    -0.059 C 
ATOM     62  H   LIG d   1       3.187   1.855  -9.661  0.00  0.00     0.024 H 
ATOM     63  H   LIG d   1       2.292   1.643  -8.119  0.00  0.00     0.024 H 
ATOM     64  H   LIG d   1       1.464   1.349  -9.686  0.00  0.00     0.024 H 
ENDBRANCH   7  61
BRANCH   3  65
ATOM     65  N   LIG d   1       6.492   0.905  -7.175  0.00  0.00    -0.312 N 
ATOM     66  C   LIG d   1       7.339   0.375  -6.270  0.00  0.00     0.216 C 
ATOM     67  O   LIG d   1       7.240  -0.793  -5.959  0.00  0.00    -0.276 OA
ATOM     68  H   LIG d   1       6.582   1.965  -7.458  0.00  0.00     0.149 HD
BRANCH  66  69
ATOM     69  C   LIG d   1       8.409   1.232  -5.647  0.00  0.00     0.036 C 
ATOM     70  C   LIG d   1       8.704   2.425  -6.560  0.00  0.00    -0.042 C 
ATOM     71  C   LIG d   1       9.791   3.295  -5.927  0.00  0.00    -0.052 C 
ATOM     72  H   LIG d   1       9.049   2.060  -7.538  0.00  0.00     0.027 H 
ATOM     73  H   LIG d   1       7.788   3.019  -6.693  0.00  0.00     0.027 H 
ATOM     74  C   LIG d   1       9.309   3.802  -4.566  0.00  0.00    -0.053 C 
ATOM     75  H   LIG d   1      10.002   4.152  -6.583  0.00  0.00     0.026 H 
ATOM     76  H   LIG d   1      10.706   2.701  -5.793  0.00  0.00     0.026 H 
ATOM     77  C   LIG d   1       9.016   2.610  -3.652  0.00  0.00    -0.052 C 
ATOM     78  H   LIG d   1       8.394   4.397  -4.698  0.00  0.00     0.026 H 
ATOM     79  H   LIG d   1      10.091   4.429  -4.111  0.00  0.00     0.026 H 
ATOM     80  C   LIG d   1       7.928   1.739  -4.286  0.00  0.00    -0.042 C 
ATOM     81  H   LIG d   1       8.670   2.974  -2.674  0.00  0.00     0.026 H 
ATOM     82  H   LIG d   1       9.931   2.016  -3.519  0.00  0.00     0.026 H 
ATOM     83  H   LIG d   1       7.013   2.334  -4.419  0.00  0.00     0.027 H 
ATOM     84  H   LIG d   1       7.717   0.881  -3.629  0.00  0.00     0.027 H 
ATOM     85  H   LIG d   1       9.318   0.625  -5.521  0.00  0.00     0.039 H 
ENDBRANCH  66  69
ENDBRANCH   3  65
TORSDOF 16
ENDMDL
MODEL 4
REMARK VINA RESULT:      -4.7      2.237      3.438
REMARK  16 active torsions:
REMARK  status: ('A' for Active; 'I' for Inactive)
REMARK    1  A    between atoms: C_1  and  C_2 
REMARK    2  A    between atoms: C_4  and  N_33 
REMARK    3  A    between atoms: C_8  and  C_32 
REMARK    4  A    between atoms: C_11  and  O_31 
REMARK    5  A    between atoms: C_13  and  C_17 
REMARK    6  A    between atoms: C_17  and  C_19 
REMARK    7  A    between atoms: C_17  and  C_20 
REMARK       I    between atoms: C_20  and  N_22 
REMARK    8  A    between atoms: N_22  and  C_23 
REMARK    9  A    between atoms: N_22  and  C_27 
REMARK   10  A    between atoms: C_23  and  C_24 
REMARK   11  A    between atoms: C_24  and  O_25 
REMARK   12  A    between atoms: O_25  and  C_26 
REMARK   13  A    between atoms: C_27  and  C_28 
REMARK   14  A    between atoms: C_28  and  O_29 
REMARK   15  A    between atoms: O_29  and  C_30 
REMARK       I    between atoms: N_33  and  C_34 
REMARK   16  A    between atoms: C_34  and  C_36 
ROOT
ATOM      1  C   LIG d   1      10.180   1.248  -4.969  0.00  0.00    -0.020 C 
ATOM      2  H   LIG d   1      10.731   1.074  -4.033  0.00  0.00     0.032 H 
ATOM      3  C   LIG d   1       8.764   1.730  -4.645  0.00  0.00     0.026 C 
ATOM      4  H   LIG d   1       8.183   1.874  -5.569  0.00  0.00     0.050 H 
ATOM      5  C   LIG d   1       8.839   3.033  -3.847  0.00  0.00    -0.034 C 
ATOM      6  C   LIG d   1       9.563   4.097  -4.675  0.00  0.00    -0.046 C 
ATOM      7  C   LIG d   1      10.979   3.615  -5.000  0.00  0.00    -0.026 C 
ATOM      8  C   LIG d   1      10.903   2.312  -5.798  0.00  0.00    -0.005 C 
ATOM      9  H   LIG d   1      10.352   2.486  -6.733  0.00  0.00     0.033 H 
ATOM     10  C   LIG d   1      12.318   1.830  -6.122  0.00  0.00     0.062 C 
ATOM     11  H   LIG d   1      12.878   1.588  -5.206  0.00  0.00     0.060 H 
ATOM     12  C   LIG d   1      13.042   2.894  -6.949  0.00  0.00    -0.004 C 
ATOM     13  H   LIG d   1      14.060   2.547  -7.183  0.00  0.00     0.033 H 
ATOM     14  C   LIG d   1      13.118   4.197  -6.151  0.00  0.00    -0.047 C 
ATOM     15  C   LIG d   1      11.703   4.679  -5.827  0.00  0.00    -0.047 C 
ATOM     16  H   LIG d   1       7.822   3.380  -3.614  0.00  0.00     0.028 H 
ATOM     17  H   LIG d   1       9.391   2.859  -2.912  0.00  0.00     0.028 H 
ATOM     18  H   LIG d   1       9.012   4.272  -5.611  0.00  0.00     0.027 H 
ATOM     19  H   LIG d   1       9.617   5.034  -4.101  0.00  0.00     0.027 H 
ATOM     20  H   LIG d   1      13.670   4.023  -5.215  0.00  0.00     0.027 H 
ATOM     21  H   LIG d   1      13.639   4.962  -6.746  0.00  0.00     0.027 H 
ATOM     22  H   LIG d   1      11.151   4.854  -6.763  0.00  0.00     0.027 H 
ATOM     23  H   LIG d   1      11.757   5.616  -5.254  0.00  0.00     0.027 H 
ENDROOT
BRANCH  12  24
ATOM     24  C   LIG d   1      12.276   3.137  -8.251  0.00  0.00     0.038 C 
ATOM     25  H   LIG d   1      11.193   3.109  -8.057  0.00  0.00     0.040 H 
BRANCH  24  26
ATOM     26  C   LIG d   1      12.650   2.059  -9.271  0.00  0.00    -0.054 C 
ATOM     27  H   LIG d   1      11.740   1.702  -9.777  0.00  0.00     0.024 H 
ATOM     28  H   LIG d   1      13.136   1.217  -8.755  0.00  0.00     0.024 H 
ATOM     29  H   LIG d   1      13.341   2.482 -10.015  0.00  0.00     0.024 H 
ENDBRANCH  24  26
BRANCH  24  30
ATOM     30  C   LIG d   1      12.634   4.493  -8.800  0.00  0.00     0.219 C 
ATOM     31  O   LIG d   1      13.798   4.819  -8.899  0.00  0.00    -0.275 OA
ATOM     32  N   LIG d   1      11.661   5.344  -9.180  0.00  0.00    -0.297 N 
BRANCH  32  33
ATOM     33  C   LIG d   1      12.005   6.698  -9.625  0.00  0.00     0.038 C 
ATOM     34  H   LIG d   1      13.099   6.813  -9.639  0.00  0.00     0.049 H 
ATOM     35  H   LIG d   1      11.606   6.864 -10.637  0.00  0.00     0.049 H 
BRANCH  33  36
ATOM     36  C   LIG d   1      11.396   7.720  -8.663  0.00  0.00     0.063 C 
ATOM     37  H   LIG d   1      11.073   7.211  -7.743  0.00  0.00     0.058 H 
ATOM     38  H   LIG d   1      12.150   8.482  -8.413  0.00  0.00     0.058 H 
BRANCH  36  39
ATOM     39  O   LIG d   1      10.271   8.347  -9.282  0.00  0.00    -0.381 OA
BRANCH  39  40
ATOM     40  C   LIG d   1       9.120   8.436  -8.440  0.00  0.00     0.036 C 
ATOM     41  H   LIG d   1       8.351   7.734  -8.796  0.00  0.00     0.052 H 
ATOM     42  H   LIG d   1       8.723   9.461  -8.469  0.00  0.00     0.052 H 
ATOM     43  H   LIG d   1       9.400   8.180  -7.407  0.00  0.00     0.052 H 
ENDBRANCH  39  40
ENDBRANCH  36  39
ENDBRANCH  33  36
ENDBRANCH  32  33
BRANCH  32  44
ATOM     44  C   LIG d   1      10.260   4.918  -9.148  0.00  0.00     0.038 C 
ATOM     45  H   LIG d   1      10.172   3.993  -8.560  0.00  0.00     0.049 H 
ATOM     46  H   LIG d   1       9.648   5.707  -8.686  0.00  0.00     0.049 H 
BRANCH  44  47
ATOM     47  C   LIG d   1       9.771   4.664 -10.575  0.00  0.00     0.063 C 
ATOM     48  H   LIG d   1      10.615   4.757 -11.274  0.00  0.00     0.058 H 
ATOM     49  H   LIG d   1       9.347   3.652 -10.644  0.00  0.00     0.058 H 
BRANCH  47  50
ATOM     50  O   LIG d   1       8.767   5.625 -10.911  0.00  0.00    -0.381 OA
BRANCH  50  51
ATOM     51  C   LIG d   1       9.080   6.416 -12.059  0.00  0.00     0.036 C 
ATOM     52  H   LIG d   1       8.249   7.105 -12.267  0.00  0.00     0.052 H 
ATOM     53  H   LIG d   1       9.239   5.758 -12.926  0.00  0.00     0.052 H 
ATOM     54  H   LIG d   1       9.997   6.994 -11.866  0.00  0.00     0.052 H 
ENDBRANCH  50  51
ENDBRANCH  47  50
ENDBRANCH  44  47
ENDBRANCH  32  44
ENDBRANCH  24  30
ENDBRANCH  12  24
BRANCH  10  55
ATOM     55  O   LIG d   1      12.248   0.613  -6.867  0.00  0.00    -0.391 OA
ATOM     56  H   LIG d   1      11.347   0.378  -7.454  0.00  0.00     0.210 HD
ENDBRANCH  10  55
BRANCH   1  57
ATOM     57  C   LIG d   1      10.105  -0.055  -5.768  0.00  0.00    -0.060 C 
ATOM     58  H   LIG d   1       9.539  -0.804  -5.195  0.00  0.00     0.023 H 
ATOM     59  H   LIG d   1      11.122  -0.430  -5.956  0.00  0.00     0.023 H 
ATOM     60  H   LIG d   1       9.599   0.131  -6.727  0.00  0.00     0.023 H 
ENDBRANCH   1  57
BRANCH   7  61
ATOM     61  C   LIG d   1      11.745   3.372  -3.698  0.00  0.00    -0.059 C 
ATOM     62  H   LIG d   1      12.800   3.653  -3.835  0.00  0.00     0.024 H 
ATOM     63  H   LIG d   1      11.680   2.309  -3.426  0.00  0.00     0.024 H 
ATOM     64  H   LIG d   1      11.306   3.983  -2.894  0.00  0.00     0.024 H 
ENDBRANCH   7  61
BRANCH   3  65
ATOM     65  N   LIG d   1       8.071   0.712  -3.853  0.00  0.00    -0.312 N 
ATOM     66  C   LIG d   1       6.873   0.242  -4.257  0.00  0.00     0.216 C 
ATOM     67  O   LIG d   1       6.370   0.663  -5.277  0.00  0.00    -0.276 OA
ATOM     68  H   LIG d   1       8.527   0.329  -2.927  0.00  0.00     0.149 HD
BRANCH  66  69
ATOM     69  C   LIG d   1       6.161  -0.806  -3.442  0.00  0.00     0.036 C 
ATOM     70  C   LIG d   1       5.223  -0.124  -2.443  0.00  0.00    -0.042 C 
ATOM     71  C   LIG d   1       4.500  -1.188  -1.615  0.00  0.00    -0.052 C 
ATOM     72  H   LIG d   1       5.809   0.525  -1.776  0.00  0.00     0.027 H 
ATOM     73  H   LIG d   1       4.485   0.482  -2.989  0.00  0.00     0.027 H 
ATOM     74  C   LIG d   1       3.686  -2.090  -2.544  0.00  0.00    -0.053 C 
ATOM     75  H   LIG d   1       3.826  -0.698  -0.898  0.00  0.00     0.026 H 
ATOM     76  H   LIG d   1       5.239  -1.794  -1.071  0.00  0.00     0.026 H 
ATOM     77  C   LIG d   1       4.624  -2.773  -3.543  0.00  0.00    -0.052 C 
ATOM     78  H   LIG d   1       2.947  -1.485  -3.090  0.00  0.00     0.026 H 
ATOM     79  H   LIG d   1       3.165  -2.856  -1.949  0.00  0.00     0.026 H 
ATOM     80  C   LIG d   1       5.347  -1.709  -4.372  0.00  0.00    -0.042 C 
ATOM     81  H   LIG d   1       4.038  -3.422  -4.211  0.00  0.00     0.026 H 
ATOM     82  H   LIG d   1       5.362  -3.379  -2.998  0.00  0.00     0.026 H 
ATOM     83  H   LIG d   1       4.608  -1.103  -4.916  0.00  0.00     0.027 H 
ATOM     84  H   LIG d   1       6.021  -2.199  -5.090  0.00  0.00     0.027 H 
ATOM     85  H   LIG d   1       6.912  -1.403  -2.903  0.00  0.00     0.039 H 
ENDBRANCH  66  69
ENDBRANCH   3  65
TORSDOF 16
ENDMDL
MODEL 5
REMARK VINA RESULT:      -4.7      7.671     11.526
REMARK  16 active torsions:
REMARK  status: ('A' for Active; 'I' for Inactive)
REMARK    1  A    between atoms: C_1  and  C_2 
REMARK    2  A    between atoms: C_4  and  N_33 
REMARK    3  A    between atoms: C_8  and  C_32 
REMARK    4  A    between atoms: C_11  and  O_31 
REMARK    5  A    between atoms: C_13  and  C_17 
REMARK    6  A    between atoms: C_17  and  C_19 
REMARK    7  A    between atoms: C_17  and  C_20 
REMARK       I    between atoms: C_20  and  N_22 
REMARK    8  A    between atoms: N_22  and  C_23 
REMARK    9  A    between atoms: N_22  and  C_27 
REMARK   10  A    between atoms: C_23  and  C_24 
REMARK   11  A    between atoms: C_24  and  O_25 
REMARK   12  A    between atoms: O_25  and  C_26 
REMARK   13  A    between atoms: C_27  and  C_28 
REMARK   14  A    between atoms: C_28  and  O_29 
REMARK   15  A    between atoms: O_29  and  C_30 
REMARK       I    between atoms: N_33  and  C_34 
REMARK   16  A    between atoms: C_34  and  C_36 
ROOT
ATOM      1  C   LIG d   1       5.033  -0.655  -8.756  0.00  0.00    -0.020 C 
ATOM      2  H   LIG d   1       5.250   0.423  -8.727  0.00  0.00     0.032 H 
ATOM      3  C   LIG d   1       3.910  -0.977  -7.768  0.00  0.00     0.026 C 
ATOM      4  H   LIG d   1       3.705  -2.059  -7.754  0.00  0.00     0.050 H 
ATOM      5  C   LIG d   1       2.653  -0.195  -8.153  0.00  0.00    -0.034 C 
ATOM      6  C   LIG d   1       2.219  -0.591  -9.566  0.00  0.00    -0.046 C 
ATOM      7  C   LIG d   1       3.342  -0.269 -10.554  0.00  0.00    -0.026 C 
ATOM      8  C   LIG d   1       4.599  -1.051 -10.169  0.00  0.00    -0.005 C 
ATOM      9  H   LIG d   1       4.384  -2.129 -10.197  0.00  0.00     0.033 H 
ATOM     10  C   LIG d   1       5.722  -0.729 -11.156  0.00  0.00     0.062 C 
ATOM     11  H   LIG d   1       6.004   0.334 -11.108  0.00  0.00     0.060 H 
ATOM     12  C   LIG d   1       5.288  -1.124 -12.569  0.00  0.00    -0.004 C 
ATOM     13  H   LIG d   1       6.096  -0.892 -13.279  0.00  0.00     0.033 H 
ATOM     14  C   LIG d   1       4.031  -0.341 -12.954  0.00  0.00    -0.047 C 
ATOM     15  C   LIG d   1       2.908  -0.663 -11.967  0.00  0.00    -0.047 C 
ATOM     16  H   LIG d   1       1.846  -0.427  -7.443  0.00  0.00     0.028 H 
ATOM     17  H   LIG d   1       2.869   0.882  -8.124  0.00  0.00     0.028 H 
ATOM     18  H   LIG d   1       2.003  -1.669  -9.595  0.00  0.00     0.027 H 
ATOM     19  H   LIG d   1       1.315  -0.028  -9.842  0.00  0.00     0.027 H 
ATOM     20  H   LIG d   1       4.247   0.737 -12.925  0.00  0.00     0.027 H 
ATOM     21  H   LIG d   1       3.719  -0.625 -13.970  0.00  0.00     0.027 H 
ATOM     22  H   LIG d   1       2.692  -1.742 -11.996  0.00  0.00     0.027 H 
ATOM     23  H   LIG d   1       2.004  -0.101 -12.244  0.00  0.00     0.027 H 
ENDROOT
BRANCH  12  24
ATOM     24  C   LIG d   1       4.988  -2.624 -12.610  0.00  0.00     0.038 C 
ATOM     25  H   LIG d   1       4.360  -2.902 -11.751  0.00  0.00     0.040 H 
BRANCH  24  26
ATOM     26  C   LIG d   1       6.302  -3.407 -12.571  0.00  0.00    -0.054 C 
ATOM     27  H   LIG d   1       6.498  -3.845 -13.561  0.00  0.00     0.024 H 
ATOM     28  H   LIG d   1       6.228  -4.212 -11.823  0.00  0.00     0.024 H 
ATOM     29  H   LIG d   1       7.125  -2.730 -12.300  0.00  0.00     0.024 H 
ENDBRANCH  24  26
BRANCH  24  30
ATOM     30  C   LIG d   1       4.245  -2.953 -13.878  0.00  0.00     0.219 C 
ATOM     31  O   LIG d   1       4.693  -2.608 -14.951  0.00  0.00    -0.275 OA
ATOM     32  N   LIG d   1       3.081  -3.631 -13.821  0.00  0.00    -0.297 N 
BRANCH  32  33
ATOM     33  C   LIG d   1       2.311  -3.869 -15.044  0.00  0.00     0.038 C 
ATOM     34  H   LIG d   1       2.976  -3.790 -15.918  0.00  0.00     0.049 H 
ATOM     35  H   LIG d   1       1.869  -4.876 -15.010  0.00  0.00     0.049 H 
BRANCH  33  36
ATOM     36  C   LIG d   1       1.197  -2.826 -15.156  0.00  0.00     0.063 C 
ATOM     37  H   LIG d   1       1.410  -1.987 -14.476  0.00  0.00     0.058 H 
ATOM     38  H   LIG d   1       1.145  -2.455 -16.191  0.00  0.00     0.058 H 
BRANCH  36  39
ATOM     39  O   LIG d   1      -0.052  -3.423 -14.801  0.00  0.00    -0.381 OA
BRANCH  39  40
ATOM     40  C   LIG d   1      -1.153  -2.512 -14.804  0.00  0.00     0.036 C 
ATOM     41  H   LIG d   1      -1.563  -2.429 -13.786  0.00  0.00     0.052 H 
ATOM     42  H   LIG d   1      -1.933  -2.881 -15.485  0.00  0.00     0.052 H 
ATOM     43  H   LIG d   1      -0.809  -1.522 -15.141  0.00  0.00     0.052 H 
ENDBRANCH  39  40
ENDBRANCH  36  39
ENDBRANCH  33  36
ENDBRANCH  32  33
BRANCH  32  44
ATOM     44  C   LIG d   1       2.586  -4.128 -12.535  0.00  0.00     0.038 C 
ATOM     45  H   LIG d   1       3.405  -4.125 -11.801  0.00  0.00     0.049 H 
ATOM     46  H   LIG d   1       1.772  -3.478 -12.180  0.00  0.00     0.049 H 
BRANCH  44  47
ATOM     47  C   LIG d   1       2.059  -5.554 -12.708  0.00  0.00     0.063 C 
ATOM     48  H   LIG d   1       2.120  -5.842 -13.768  0.00  0.00     0.058 H 
ATOM     49  H   LIG d   1       2.666  -6.246 -12.105  0.00  0.00     0.058 H 
BRANCH  47  50
ATOM     50  O   LIG d   1       0.698  -5.614 -12.276  0.00  0.00    -0.381 OA
BRANCH  50  51
ATOM     51  C   LIG d   1       0.509  -6.313 -11.044  0.00  0.00     0.036 C 
ATOM     52  H   LIG d   1       1.468  -6.380 -10.510  0.00  0.00     0.052 H 
ATOM     53  H   LIG d   1       0.132  -7.326 -11.251  0.00  0.00     0.052 H 
ATOM     54  H   LIG d   1      -0.220  -5.771 -10.424  0.00  0.00     0.052 H 
ENDBRANCH  50  51
ENDBRANCH  47  50
ENDBRANCH  44  47
ENDBRANCH  32  44
ENDBRANCH  24  30
ENDBRANCH  12  24
BRANCH  10  55
ATOM     55  O   LIG d   1       6.897  -1.459 -10.797  0.00  0.00    -0.391 OA
ATOM     56  H   LIG d   1       7.008  -1.853  -9.775  0.00  0.00     0.210 HD
ENDBRANCH  10  55
BRANCH   1  57
ATOM     57  C   LIG d   1       6.291  -1.438  -8.371  0.00  0.00    -0.060 C 
ATOM     58  H   LIG d   1       6.125  -1.949  -7.412  0.00  0.00     0.023 H 
ATOM     59  H   LIG d   1       7.140  -0.745  -8.275  0.00  0.00     0.023 H 
ATOM     60  H   LIG d   1       6.512  -2.182  -9.151  0.00  0.00     0.023 H 
ENDBRANCH   1  57
BRANCH   7  61
ATOM     61  C   LIG d   1       3.642   1.231 -10.512  0.00  0.00    -0.059 C 
ATOM     62  H   LIG d   1       2.796   1.787 -10.944  0.00  0.00     0.024 H 
ATOM     63  H   LIG d   1       4.552   1.440 -11.093  0.00  0.00     0.024 H 
ATOM     64  H   LIG d   1       3.792   1.546  -9.469  0.00  0.00     0.024 H 
ENDBRANCH   7  61
BRANCH   3  65
ATOM     65  N   LIG d   1       4.326  -0.599  -6.416  0.00  0.00    -0.312 N 
ATOM     66  C   LIG d   1       4.549  -1.552  -5.488  0.00  0.00     0.216 C 
ATOM     67  O   LIG d   1       4.404  -2.721  -5.773  0.00  0.00    -0.276 OA
ATOM     68  H   LIG d   1       4.457   0.462  -6.157  0.00  0.00     0.149 HD
BRANCH  66  69
ATOM     69  C   LIG d   1       4.976  -1.162  -4.096  0.00  0.00     0.036 C 
ATOM     70  C   LIG d   1       5.069   0.362  -3.999  0.00  0.00    -0.042 C 
ATOM     71  C   LIG d   1       5.504   0.757  -2.586  0.00  0.00    -0.052 C 
ATOM     72  H   LIG d   1       5.806   0.732  -4.726  0.00  0.00     0.027 H 
ATOM     73  H   LIG d   1       4.085   0.803  -4.218  0.00  0.00     0.027 H 
ATOM     74  C   LIG d   1       4.477   0.243  -1.575  0.00  0.00    -0.053 C 
ATOM     75  H   LIG d   1       5.569   1.853  -2.516  0.00  0.00     0.026 H 
ATOM     76  H   LIG d   1       6.486   0.315  -2.367  0.00  0.00     0.026 H 
ATOM     77  C   LIG d   1       4.385  -1.282  -1.672  0.00  0.00    -0.052 C 
ATOM     78  H   LIG d   1       3.494   0.684  -1.793  0.00  0.00     0.026 H 
ATOM     79  H   LIG d   1       4.789   0.527  -0.558  0.00  0.00     0.026 H 
ATOM     80  C   LIG d   1       3.950  -1.677  -3.084  0.00  0.00    -0.042 C 
ATOM     81  H   LIG d   1       3.648  -1.652  -0.944  0.00  0.00     0.026 H 
ATOM     82  H   LIG d   1       5.369  -1.723  -1.453  0.00  0.00     0.026 H 
ATOM     83  H   LIG d   1       2.967  -1.235  -3.303  0.00  0.00     0.027 H 
ATOM     84  H   LIG d   1       3.884  -2.773  -3.154  0.00  0.00     0.027 H 
ATOM     85  H   LIG d   1       5.960  -1.610  -3.893  0.00  0.00     0.039 H 
ENDBRANCH  66  69
ENDBRANCH   3  65
TORSDOF 16
ENDMDL
MODEL 6
REMARK VINA RESULT:      -4.7      6.997     10.828
REMARK  16 active torsions:
REMARK  status: ('A' for Active; 'I' for Inactive)
REMARK    1  A    between atoms: C_1  and  C_2 
REMARK    2  A    between atoms: C_4  and  N_33 
REMARK    3  A    between atoms: C_8  and  C_32 
REMARK    4  A    between atoms: C_11  and  O_31 
REMARK    5  A    between atoms: C_13  and  C_17 
REMARK    6  A    between atoms: C_17  and  C_19 
REMARK    7  A    between atoms: C_17  and  C_20 
REMARK       I    between atoms: C_20  and  N_22 
REMARK    8  A    between atoms: N_22  and  C_23 
REMARK    9  A    between atoms: N_22  and  C_27 
REMARK   10  A    between atoms: C_23  and  C_24 
REMARK   11  A    between atoms: C_24  and  O_25 
REMARK   12  A    between atoms: O_25  and  C_26 
REMARK   13  A    between atoms: C_27  and  C_28 
REMARK   14  A    between atoms: C_28  and  O_29 
REMARK   15  A    between atoms: O_29  and  C_30 
REMARK       I    between atoms: N_33  and  C_34 
REMARK   16  A    between atoms: C_34  and  C_36 
ROOT
ATOM      1  C   LIG d   1       9.508  -7.322  -3.523  0.00  0.00    -0.020 C 
ATOM      2  H   LIG d   1      10.586  -7.499  -3.651  0.00  0.00     0.032 H 
ATOM      3  C   LIG d   1       9.142  -7.446  -2.043  0.00  0.00     0.026 C 
ATOM      4  H   LIG d   1       8.059  -7.310  -1.899  0.00  0.00     0.050 H 
ATOM      5  C   LIG d   1       9.928  -6.411  -1.236  0.00  0.00    -0.034 C 
ATOM      6  C   LIG d   1       9.579  -5.005  -1.732  0.00  0.00    -0.046 C 
ATOM      7  C   LIG d   1       9.944  -4.882  -3.213  0.00  0.00    -0.026 C 
ATOM      8  C   LIG d   1       9.158  -5.918  -4.020  0.00  0.00    -0.005 C 
ATOM      9  H   LIG d   1       8.081  -5.741  -3.892  0.00  0.00     0.033 H 
ATOM     10  C   LIG d   1       9.524  -5.794  -5.500  0.00  0.00     0.062 C 
ATOM     11  H   LIG d   1      10.587  -6.025  -5.670  0.00  0.00     0.060 H 
ATOM     12  C   LIG d   1       9.176  -4.390  -5.996  0.00  0.00    -0.004 C 
ATOM     13  H   LIG d   1       9.439  -4.301  -7.061  0.00  0.00     0.033 H 
ATOM     14  C   LIG d   1       9.962  -3.354  -5.189  0.00  0.00    -0.047 C 
ATOM     15  C   LIG d   1       9.596  -3.477  -3.709  0.00  0.00    -0.047 C 
ATOM     16  H   LIG d   1       9.665  -6.499  -0.172  0.00  0.00     0.028 H 
ATOM     17  H   LIG d   1      11.005  -6.587  -1.364  0.00  0.00     0.028 H 
ATOM     18  H   LIG d   1       8.501  -4.828  -1.604  0.00  0.00     0.027 H 
ATOM     19  H   LIG d   1      10.144  -4.262  -1.151  0.00  0.00     0.027 H 
ATOM     20  H   LIG d   1      11.040  -3.531  -5.317  0.00  0.00     0.027 H 
ATOM     21  H   LIG d   1       9.711  -2.344  -5.546  0.00  0.00     0.027 H 
ATOM     22  H   LIG d   1       8.518  -3.300  -3.581  0.00  0.00     0.027 H 
ATOM     23  H   LIG d   1      10.161  -2.733  -3.129  0.00  0.00     0.027 H 
ENDROOT
BRANCH  12  24
ATOM     24  C   LIG d   1       7.676  -4.143  -5.819  0.00  0.00     0.038 C 
ATOM     25  H   LIG d   1       7.381  -4.366  -4.783  0.00  0.00     0.040 H 
BRANCH  24  26
ATOM     26  C   LIG d   1       6.896  -5.036  -6.786  0.00  0.00    -0.054 C 
ATOM     27  H   LIG d   1       6.698  -4.483  -7.717  0.00  0.00     0.024 H 
ATOM     28  H   LIG d   1       5.941  -5.330  -6.325  0.00  0.00     0.024 H 
ATOM     29  H   LIG d   1       7.487  -5.935  -7.013  0.00  0.00     0.024 H 
ENDBRANCH  24  26
BRANCH  24  30
ATOM     30  C   LIG d   1       7.367  -2.698  -6.109  0.00  0.00     0.219 C 
ATOM     31  O   LIG d   1       7.776  -2.183  -7.129  0.00  0.00    -0.275 OA
ATOM     32  N   LIG d   1       6.636  -1.977  -5.236  0.00  0.00    -0.297 N 
BRANCH  32  33
ATOM     33  C   LIG d   1       6.414  -0.548  -5.471  0.00  0.00     0.038 C 
ATOM     34  H   LIG d   1       7.192  -0.162  -6.149  0.00  0.00     0.049 H 
ATOM     35  H   LIG d   1       5.424  -0.399  -5.927  0.00  0.00     0.049 H 
BRANCH  33  36
ATOM     36  C   LIG d   1       6.481   0.204  -4.140  0.00  0.00     0.063 C 
ATOM     37  H   LIG d   1       6.573  -0.518  -3.315  0.00  0.00     0.058 H 
ATOM     38  H   LIG d   1       7.354   0.873  -4.140  0.00  0.00     0.058 H 
BRANCH  36  39
ATOM     39  O   LIG d   1       5.290   0.975  -3.968  0.00  0.00    -0.381 OA
BRANCH  39  40
ATOM     40  C   LIG d   1       5.030   1.348  -2.614  0.00  0.00     0.036 C 
ATOM     41  H   LIG d   1       3.980   1.127  -2.368  0.00  0.00     0.052 H 
ATOM     42  H   LIG d   1       5.217   2.424  -2.487  0.00  0.00     0.052 H 
ATOM     43  H   LIG d   1       5.691   0.778  -1.943  0.00  0.00     0.052 H 
ENDBRANCH  39  40
ENDBRANCH  36  39
ENDBRANCH  33  36
ENDBRANCH  32  33
BRANCH  32  44
ATOM     44  C   LIG d   1       6.064  -2.621  -4.052  0.00  0.00     0.038 C 
ATOM     45  H   LIG d   1       6.695  -3.473  -3.758  0.00  0.00     0.049 H 
ATOM     46  H   LIG d   1       6.020  -1.895  -3.225  0.00  0.00     0.049 H 
BRANCH  44  47
ATOM     47  C   LIG d   1       4.652  -3.115  -4.370  0.00  0.00     0.063 C 
ATOM     48  H   LIG d   1       4.496  -3.103  -5.459  0.00  0.00     0.058 H 
ATOM     49  H   LIG d   1       4.528  -4.141  -3.994  0.00  0.00     0.058 H 
BRANCH  47  50
ATOM     50  O   LIG d   1       3.695  -2.259  -3.743  0.00  0.00    -0.381 OA
BRANCH  50  51
ATOM     51  C   LIG d   1       3.936  -2.037  -2.352  0.00  0.00     0.036 C 
ATOM     52  H   LIG d   1       3.181  -2.572  -1.759  0.00  0.00     0.052 H 
ATOM     53  H   LIG d   1       3.878  -0.960  -2.137  0.00  0.00     0.052 H 
ATOM     54  H   LIG d   1       4.939  -2.409  -2.090  0.00  0.00     0.052 H 
ENDBRANCH  50  51
ENDBRANCH  47  50
ENDBRANCH  44  47
ENDBRANCH  32  44
ENDBRANCH  24  30
ENDBRANCH  12  24
BRANCH  10  55
ATOM     55  O   LIG d   1       8.790  -6.762  -6.254  0.00  0.00    -0.391 OA
ATOM     56  H   LIG d   1       8.377  -7.650  -5.754  0.00  0.00     0.210 HD
ENDBRANCH  10  55
BRANCH   1  57
ATOM     57  C   LIG d   1       8.722  -8.358  -4.331  0.00  0.00    -0.060 C 
ATOM     58  H   LIG d   1       7.665  -8.331  -4.031  0.00  0.00     0.023 H 
ATOM     59  H   LIG d   1       9.132  -9.361  -4.140  0.00  0.00     0.023 H 
ATOM     60  H   LIG d   1       8.804  -8.126  -5.404  0.00  0.00     0.023 H 
ENDBRANCH   1  57
BRANCH   7  61
ATOM     61  C   LIG d   1      11.444  -5.129  -3.389  0.00  0.00    -0.059 C 
ATOM     62  H   LIG d   1      12.009  -4.343  -2.867  0.00  0.00     0.024 H 
ATOM     63  H   LIG d   1      11.695  -5.112  -4.460  0.00  0.00     0.024 H 
ATOM     64  H   LIG d   1      11.706  -6.110  -2.966  0.00  0.00     0.024 H 
ENDBRANCH   7  61
BRANCH   3  65
ATOM     65  N   LIG d   1       9.476  -8.790  -1.568  0.00  0.00    -0.312 N 
ATOM     66  C   LIG d   1       8.502  -9.608  -1.118  0.00  0.00     0.216 C 
ATOM     67  O   LIG d   1       7.350  -9.229  -1.107  0.00  0.00    -0.276 OA
ATOM     68  H   LIG d   1      10.521  -9.135  -1.578  0.00  0.00     0.149 HD
BRANCH  66  69
ATOM     69  C   LIG d   1       8.845 -10.991  -0.630  0.00  0.00     0.036 C 
ATOM     70  C   LIG d   1       9.184 -11.884  -1.825  0.00  0.00    -0.042 C 
ATOM     71  C   LIG d   1       9.532 -13.289  -1.329  0.00  0.00    -0.052 C 
ATOM     72  H   LIG d   1       8.318 -11.938  -2.500  0.00  0.00     0.027 H 
ATOM     73  H   LIG d   1      10.044 -11.462  -2.365  0.00  0.00     0.027 H 
ATOM     74  C   LIG d   1      10.738 -13.214  -0.390  0.00  0.00    -0.053 C 
ATOM     75  H   LIG d   1       9.777 -13.931  -2.188  0.00  0.00     0.026 H 
ATOM     76  H   LIG d   1       8.673 -13.711  -0.788  0.00  0.00     0.026 H 
ATOM     77  C   LIG d   1      10.398 -12.321   0.806  0.00  0.00    -0.052 C 
ATOM     78  H   LIG d   1      11.598 -12.792  -0.930  0.00  0.00     0.026 H 
ATOM     79  H   LIG d   1      10.989 -14.224  -0.033  0.00  0.00     0.026 H 
ATOM     80  C   LIG d   1      10.051 -10.916   0.309  0.00  0.00    -0.042 C 
ATOM     81  H   LIG d   1      11.265 -12.267   1.481  0.00  0.00     0.026 H 
ATOM     82  H   LIG d   1       9.539 -12.743   1.346  0.00  0.00     0.026 H 
ATOM     83  H   LIG d   1      10.910 -10.494  -0.232  0.00  0.00     0.027 H 
ATOM     84  H   LIG d   1       9.806 -10.274   1.169  0.00  0.00     0.027 H 
ATOM     85  H   LIG d   1       7.976 -11.400  -0.092  0.00  0.00     0.039 H 
ENDBRANCH  66  69
ENDBRANCH   3  65
TORSDOF 16
ENDMDL
MODEL 7
REMARK VINA RESULT:      -4.6      2.960      8.417
REMARK  16 active torsions:
REMARK  status: ('A' for Active; 'I' for Inactive)
REMARK    1  A    between atoms: C_1  and  C_2 
REMARK    2  A    between atoms: C_4  and  N_33 
REMARK    3  A    between atoms: C_8  and  C_32 
REMARK    4  A    between atoms: C_11  and  O_31 
REMARK    5  A    between atoms: C_13  and  C_17 
REMARK    6  A    between atoms: C_17  and  C_19 
REMARK    7  A    between atoms: C_17  and  C_20 
REMARK       I    between atoms: C_20  and  N_22 
REMARK    8  A    between atoms: N_22  and  C_23 
REMARK    9  A    between atoms: N_22  and  C_27 
REMARK   10  A    between atoms: C_23  and  C_24 
REMARK   11  A    between atoms: C_24  and  O_25 
REMARK   12  A    between atoms: O_25  and  C_26 
REMARK   13  A    between atoms: C_27  and  C_28 
REMARK   14  A    between atoms: C_28  and  O_29 
REMARK   15  A    between atoms: O_29  and  C_30 
REMARK       I    between atoms: N_33  and  C_34 
REMARK   16  A    between atoms: C_34  and  C_36 
ROOT
ATOM      1  C   LIG d   1      11.550   6.294  -3.153  0.00  0.00    -0.020 C 
ATOM      2  H   LIG d   1      12.287   6.963  -3.623  0.00  0.00     0.032 H 
ATOM      3  C   LIG d   1      10.302   7.095  -2.776  0.00  0.00     0.026 C 
ATOM      4  H   LIG d   1       9.568   6.451  -2.269  0.00  0.00     0.050 H 
ATOM      5  C   LIG d   1       9.697   7.718  -4.034  0.00  0.00    -0.034 C 
ATOM      6  C   LIG d   1       9.313   6.610  -5.018  0.00  0.00    -0.046 C 
ATOM      7  C   LIG d   1      10.561   5.809  -5.396  0.00  0.00    -0.026 C 
ATOM      8  C   LIG d   1      11.167   5.186  -4.136  0.00  0.00    -0.005 C 
ATOM      9  H   LIG d   1      10.431   4.518  -3.667  0.00  0.00     0.033 H 
ATOM     10  C   LIG d   1      12.415   4.386  -4.514  0.00  0.00     0.062 C 
ATOM     11  H   LIG d   1      13.197   5.037  -4.932  0.00  0.00     0.060 H 
ATOM     12  C   LIG d   1      12.032   3.278  -5.498  0.00  0.00    -0.004 C 
ATOM     13  H   LIG d   1      12.930   2.703  -5.769  0.00  0.00     0.033 H 
ATOM     14  C   LIG d   1      11.426   3.901  -6.757  0.00  0.00    -0.047 C 
ATOM     15  C   LIG d   1      10.179   4.702  -6.380  0.00  0.00    -0.047 C 
ATOM     16  H   LIG d   1       8.799   8.294  -3.763  0.00  0.00     0.028 H 
ATOM     17  H   LIG d   1      10.433   8.386  -4.504  0.00  0.00     0.028 H 
ATOM     18  H   LIG d   1       8.576   5.941  -4.549  0.00  0.00     0.027 H 
ATOM     19  H   LIG d   1       8.877   7.059  -5.923  0.00  0.00     0.027 H 
ATOM     20  H   LIG d   1      12.163   4.570  -7.226  0.00  0.00     0.027 H 
ATOM     21  H   LIG d   1      11.151   3.105  -7.464  0.00  0.00     0.027 H 
ATOM     22  H   LIG d   1       9.441   4.033  -5.910  0.00  0.00     0.027 H 
ATOM     23  H   LIG d   1       9.743   5.149  -7.285  0.00  0.00     0.027 H 
ENDROOT
BRANCH  12  24
ATOM     24  C   LIG d   1      11.008   2.347  -4.845  0.00  0.00     0.038 C 
ATOM     25  H   LIG d   1      10.233   2.943  -4.338  0.00  0.00     0.040 H 
BRANCH  24  26
ATOM     26  C   LIG d   1      11.714   1.442  -3.834  0.00  0.00    -0.054 C 
ATOM     27  H   LIG d   1      12.549   1.990  -3.372  0.00  0.00     0.024 H 
ATOM     28  H   LIG d   1      12.101   0.549  -4.347  0.00  0.00     0.024 H 
ATOM     29  H   LIG d   1      11.000   1.136  -3.055  0.00  0.00     0.024 H 
ENDBRANCH  24  26
BRANCH  24  30
ATOM     30  C   LIG d   1      10.351   1.501  -5.904  0.00  0.00     0.219 C 
ATOM     31  O   LIG d   1      11.032   0.886  -6.697  0.00  0.00    -0.275 OA
ATOM     32  N   LIG d   1       9.007   1.429  -5.971  0.00  0.00    -0.297 N 
BRANCH  32  33
ATOM     33  C   LIG d   1       8.367   0.683  -7.058  0.00  0.00     0.038 C 
ATOM     34  H   LIG d   1       9.138   0.182  -7.663  0.00  0.00     0.049 H 
ATOM     35  H   LIG d   1       7.686  -0.071  -6.635  0.00  0.00     0.049 H 
BRANCH  33  36
ATOM     36  C   LIG d   1       7.574   1.648  -7.941  0.00  0.00     0.063 C 
ATOM     37  H   LIG d   1       7.732   2.680  -7.591  0.00  0.00     0.058 H 
ATOM     38  H   LIG d   1       7.917   1.558  -8.983  0.00  0.00     0.058 H 
BRANCH  36  39
ATOM     39  O   LIG d   1       6.183   1.328  -7.868  0.00  0.00    -0.381 OA
BRANCH  39  40
ATOM     40  C   LIG d   1       5.917  -0.008  -7.437  0.00  0.00     0.036 C 
ATOM     41  H   LIG d   1       5.700  -0.640  -8.311  0.00  0.00     0.052 H 
ATOM     42  H   LIG d   1       5.051  -0.009  -6.760  0.00  0.00     0.052 H 
ATOM     43  H   LIG d   1       6.797  -0.405  -6.908  0.00  0.00     0.052 H 
ENDBRANCH  39  40
ENDBRANCH  36  39
ENDBRANCH  33  36
ENDBRANCH  32  33
BRANCH  32  44
ATOM     44  C   LIG d   1       8.186   2.097  -4.959  0.00  0.00     0.038 C 
ATOM     45  H   LIG d   1       8.827   2.724  -4.322  0.00  0.00     0.049 H 
ATOM     46  H   LIG d   1       7.433   2.727  -5.456  0.00  0.00     0.049 H 
BRANCH  44  47
ATOM     47  C   LIG d   1       7.482   1.046  -4.098  0.00  0.00     0.063 C 
ATOM     48  H   LIG d   1       7.021   0.288  -4.748  0.00  0.00     0.058 H 
ATOM     49  H   LIG d   1       8.215   0.563  -3.435  0.00  0.00     0.058 H 
BRANCH  47  50
ATOM     50  O   LIG d   1       6.470   1.677  -3.310  0.00  0.00    -0.381 OA
BRANCH  50  51
ATOM     51  C   LIG d   1       5.511   0.771  -2.761  0.00  0.00     0.036 C 
ATOM     52  H   LIG d   1       4.694   0.621  -3.481  0.00  0.00     0.052 H 
ATOM     53  H   LIG d   1       5.106   1.188  -1.827  0.00  0.00     0.052 H 
ATOM     54  H   LIG d   1       5.997  -0.194  -2.550  0.00  0.00     0.052 H 
ENDBRANCH  50  51
ENDBRANCH  47  50
ENDBRANCH  44  47
ENDBRANCH  32  44
ENDBRANCH  24  30
ENDBRANCH  12  24
BRANCH  10  55
ATOM     55  O   LIG d   1      12.981   3.804  -3.338  0.00  0.00    -0.391 OA
ATOM     56  H   LIG d   1      13.462   4.445  -2.584  0.00  0.00     0.210 HD
ENDBRANCH  10  55
BRANCH   1  57
ATOM     57  C   LIG d   1      12.157   5.671  -1.894  0.00  0.00    -0.060 C 
ATOM     58  H   LIG d   1      13.205   5.402  -2.087  0.00  0.00     0.023 H 
ATOM     59  H   LIG d   1      11.591   4.767  -1.622  0.00  0.00     0.023 H 
ATOM     60  H   LIG d   1      12.110   6.395  -1.067  0.00  0.00     0.023 H 
ENDBRANCH   1  57
BRANCH   7  61
ATOM     61  C   LIG d   1      11.586   6.740  -6.048  0.00  0.00    -0.059 C 
ATOM     62  H   LIG d   1      11.067   7.451  -6.708  0.00  0.00     0.024 H 
ATOM     63  H   LIG d   1      12.299   6.146  -6.637  0.00  0.00     0.024 H 
ATOM     64  H   LIG d   1      12.127   7.294  -5.266  0.00  0.00     0.024 H 
ENDBRANCH   7  61
BRANCH   3  65
ATOM     65  N   LIG d   1      10.669   8.155  -1.834  0.00  0.00    -0.312 N 
ATOM     66  C   LIG d   1       9.821   8.500  -0.844  0.00  0.00     0.216 C 
ATOM     67  O   LIG d   1       8.755   7.933  -0.733  0.00  0.00    -0.276 OA
ATOM     68  H   LIG d   1      11.636   8.670  -1.934  0.00  0.00     0.149 HD
BRANCH  66  69
ATOM     69  C   LIG d   1      10.198   9.591   0.125  0.00  0.00     0.036 C 
ATOM     70  C   LIG d   1      11.571   9.285   0.728  0.00  0.00    -0.042 C 
ATOM     71  C   LIG d   1      11.954  10.393   1.712  0.00  0.00    -0.052 C 
ATOM     72  H   LIG d   1      11.533   8.322   1.257  0.00  0.00     0.027 H 
ATOM     73  H   LIG d   1      12.320   9.232  -0.076  0.00  0.00     0.027 H 
ATOM     74  C   LIG d   1      12.008  11.732   0.975  0.00  0.00    -0.053 C 
ATOM     75  H   LIG d   1      12.941  10.173   2.144  0.00  0.00     0.026 H 
ATOM     76  H   LIG d   1      11.204  10.446   2.514  0.00  0.00     0.026 H 
ATOM     77  C   LIG d   1      10.634  12.039   0.373  0.00  0.00    -0.052 C 
ATOM     78  H   LIG d   1      12.757  11.681   0.172  0.00  0.00     0.026 H 
ATOM     79  H   LIG d   1      12.283  12.529   1.683  0.00  0.00     0.026 H 
ATOM     80  C   LIG d   1      10.252  10.931  -0.611  0.00  0.00    -0.042 C 
ATOM     81  H   LIG d   1      10.672  13.002  -0.156  0.00  0.00     0.026 H 
ATOM     82  H   LIG d   1       9.885  12.091   1.176  0.00  0.00     0.026 H 
ATOM     83  H   LIG d   1      11.001  10.878  -1.414  0.00  0.00     0.027 H 
ATOM     84  H   LIG d   1       9.264  11.151  -1.044  0.00  0.00     0.027 H 
ATOM     85  H   LIG d   1       9.441   9.631   0.922  0.00  0.00     0.039 H 
ENDBRANCH  66  69
ENDBRANCH   3  65
TORSDOF 16
ENDMDL
MODEL 8
REMARK VINA RESULT:      -4.5      1.549      2.481
REMARK  16 active torsions:
REMARK  status: ('A' for Active; 'I' for Inactive)
REMARK    1  A    between atoms: C_1  and  C_2 
REMARK    2  A    between atoms: C_4  and  N_33 
REMARK    3  A    between atoms: C_8  and  C_32 
REMARK    4  A    between atoms: C_11  and  O_31 
REMARK    5  A    between atoms: C_13  and  C_17 
REMARK    6  A    between atoms: C_17  and  C_19 
REMARK    7  A    between atoms: C_17  and  C_20 
REMARK       I    between atoms: C_20  and  N_22 
REMARK    8  A    between atoms: N_22  and  C_23 
REMARK    9  A    between atoms: N_22  and  C_27 
REMARK   10  A    between atoms: C_23  and  C_24 
REMARK   11  A    between atoms: C_24  and  O_25 
REMARK   12  A    between atoms: O_25  and  C_26 
REMARK   13  A    between atoms: C_27  and  C_28 
REMARK   14  A    between atoms: C_28  and  O_29 
REMARK   15  A    between atoms: O_29  and  C_30 
REMARK       I    between atoms: N_33  and  C_34 
REMARK   16  A    between atoms: C_34  and  C_36 
ROOT
ATOM      1  C   LIG d   1       9.002   1.956  -5.921  0.00  0.00    -0.020 C 
ATOM      2  H   LIG d   1       9.555   1.012  -5.808  0.00  0.00     0.032 H 
ATOM      3  C   LIG d   1       8.044   2.132  -4.741  0.00  0.00     0.026 C 
ATOM      4  H   LIG d   1       7.453   3.053  -4.856  0.00  0.00     0.050 H 
ATOM      5  C   LIG d   1       8.843   2.163  -3.437  0.00  0.00    -0.034 C 
ATOM      6  C   LIG d   1       9.830   3.332  -3.471  0.00  0.00    -0.046 C 
ATOM      7  C   LIG d   1      10.788   3.156  -4.651  0.00  0.00    -0.026 C 
ATOM      8  C   LIG d   1       9.988   3.125  -5.956  0.00  0.00    -0.005 C 
ATOM      9  H   LIG d   1       9.435   4.068  -6.069  0.00  0.00     0.033 H 
ATOM     10  C   LIG d   1      10.946   2.949  -7.136  0.00  0.00     0.062 C 
ATOM     11  H   LIG d   1      11.472   1.984  -7.084  0.00  0.00     0.060 H 
ATOM     12  C   LIG d   1      11.933   4.117  -7.170  0.00  0.00    -0.004 C 
ATOM     13  H   LIG d   1      12.621   3.991  -8.019  0.00  0.00     0.033 H 
ATOM     14  C   LIG d   1      12.733   4.148  -5.865  0.00  0.00    -0.047 C 
ATOM     15  C   LIG d   1      11.775   4.324  -4.685  0.00  0.00    -0.047 C 
ATOM     16  H   LIG d   1       8.154   2.289  -2.588  0.00  0.00     0.028 H 
ATOM     17  H   LIG d   1       9.396   1.219  -3.323  0.00  0.00     0.028 H 
ATOM     18  H   LIG d   1       9.277   4.276  -3.584  0.00  0.00     0.027 H 
ATOM     19  H   LIG d   1      10.404   3.353  -2.533  0.00  0.00     0.027 H 
ATOM     20  H   LIG d   1      13.286   3.204  -5.752  0.00  0.00     0.027 H 
ATOM     21  H   LIG d   1      13.442   4.988  -5.890  0.00  0.00     0.027 H 
ATOM     22  H   LIG d   1      11.222   5.268  -4.799  0.00  0.00     0.027 H 
ATOM     23  H   LIG d   1      12.349   4.347  -3.748  0.00  0.00     0.027 H 
ENDROOT
BRANCH  12  24
ATOM     24  C   LIG d   1      11.165   5.431  -7.328  0.00  0.00     0.038 C 
ATOM     25  H   LIG d   1      10.261   5.412  -6.701  0.00  0.00     0.040 H 
BRANCH  24  26
ATOM     26  C   LIG d   1      10.776   5.619  -8.796  0.00  0.00    -0.054 C 
ATOM     27  H   LIG d   1      10.131   6.506  -8.894  0.00  0.00     0.024 H 
ATOM     28  H   LIG d   1      10.231   4.731  -9.149  0.00  0.00     0.024 H 
ATOM     29  H   LIG d   1      11.684   5.758  -9.401  0.00  0.00     0.024 H 
ENDBRANCH  24  26
BRANCH  24  30
ATOM     30  C   LIG d   1      12.035   6.579  -6.888  0.00  0.00     0.219 C 
ATOM     31  O   LIG d   1      13.186   6.647  -7.265  0.00  0.00    -0.275 OA
ATOM     32  N   LIG d   1      11.535   7.530  -6.074  0.00  0.00    -0.297 N 
BRANCH  32  33
ATOM     33  C   LIG d   1      12.406   8.594  -5.570  0.00  0.00     0.038 C 
ATOM     34  H   LIG d   1      13.232   8.759  -6.278  0.00  0.00     0.049 H 
ATOM     35  H   LIG d   1      11.826   9.523  -5.461  0.00  0.00     0.049 H 
BRANCH  33  36
ATOM     36  C   LIG d   1      12.975   8.186  -4.209  0.00  0.00     0.063 C 
ATOM     37  H   LIG d   1      13.168   7.103  -4.203  0.00  0.00     0.058 H 
ATOM     38  H   LIG d   1      13.916   8.727  -4.027  0.00  0.00     0.058 H 
BRANCH  36  39
ATOM     39  O   LIG d   1      12.034   8.508  -3.183  0.00  0.00    -0.381 OA
BRANCH  39  40
ATOM     40  C   LIG d   1      11.884   9.910  -2.953  0.00  0.00     0.036 C 
ATOM     41  H   LIG d   1      11.288  10.071  -2.041  0.00  0.00     0.052 H 
ATOM     42  H   LIG d   1      11.372  10.370  -3.810  0.00  0.00     0.052 H 
ATOM     43  H   LIG d   1      12.876  10.370  -2.827  0.00  0.00     0.052 H 
ENDBRANCH  39  40
ENDBRANCH  36  39
ENDBRANCH  33  36
ENDBRANCH  32  33
BRANCH  32  44
ATOM     44  C   LIG d   1      10.121   7.499  -5.692  0.00  0.00     0.038 C 
ATOM     45  H   LIG d   1       9.569   6.846  -6.384  0.00  0.00     0.049 H 
ATOM     46  H   LIG d   1      10.027   7.110  -4.667  0.00  0.00     0.049 H 
BRANCH  44  47
ATOM     47  C   LIG d   1       9.544   8.914  -5.755  0.00  0.00     0.063 C 
ATOM     48  H   LIG d   1       8.513   8.907  -5.370  0.00  0.00     0.058 H 
ATOM     49  H   LIG d   1      10.159   9.589  -5.143  0.00  0.00     0.058 H 
BRANCH  47  50
ATOM     50  O   LIG d   1       9.543   9.368  -7.110  0.00  0.00    -0.381 OA
BRANCH  50  51
ATOM     51  C   LIG d   1       8.793   8.540  -8.001  0.00  0.00     0.036 C 
ATOM     52  H   LIG d   1       8.702   9.039  -8.977  0.00  0.00     0.052 H 
ATOM     53  H   LIG d   1       7.791   8.365  -7.583  0.00  0.00     0.052 H 
ATOM     54  H   LIG d   1       9.310   7.576  -8.128  0.00  0.00     0.052 H 
ENDBRANCH  50  51
ENDBRANCH  47  50
ENDBRANCH  44  47
ENDBRANCH  32  44
ENDBRANCH  24  30
ENDBRANCH  12  24
BRANCH  10  55
ATOM     55  O   LIG d   1      10.200   2.920  -8.354  0.00  0.00    -0.391 OA
ATOM     56  H   LIG d   1      10.549   2.306  -9.198  0.00  0.00     0.210 HD
ENDBRANCH  10  55
BRANCH   1  57
ATOM     57  C   LIG d   1       8.203   1.925  -7.226  0.00  0.00    -0.060 C 
ATOM     58  H   LIG d   1       7.360   2.629  -7.157  0.00  0.00     0.023 H 
ATOM     59  H   LIG d   1       7.819   0.909  -7.398  0.00  0.00     0.023 H 
ATOM     60  H   LIG d   1       8.856   2.217  -8.063  0.00  0.00     0.023 H 
ENDBRANCH   1  57
BRANCH   7  61
ATOM     61  C   LIG d   1      11.556   1.842  -4.493  0.00  0.00    -0.059 C 
ATOM     62  H   LIG d   1      12.635   2.034  -4.591  0.00  0.00     0.024 H 
ATOM     63  H   LIG d   1      11.237   1.134  -5.270  0.00  0.00     0.024 H 
ATOM     64  H   LIG d   1      11.350   1.415  -3.500  0.00  0.00     0.024 H 
ENDBRANCH   7  61
BRANCH   3  65
ATOM     65  N   LIG d   1       7.099   1.014  -4.708  0.00  0.00    -0.312 N 
ATOM     66  C   LIG d   1       6.078   1.018  -3.827  0.00  0.00     0.216 C 
ATOM     67  O   LIG d   1       5.943   1.949  -3.062  0.00  0.00    -0.276 OA
ATOM     68  H   LIG d   1       7.221   0.169  -5.403  0.00  0.00     0.149 HD
BRANCH  66  69
ATOM     69  C   LIG d   1       5.106  -0.132  -3.794  0.00  0.00     0.036 C 
ATOM     70  C   LIG d   1       5.857  -1.425  -3.469  0.00  0.00    -0.042 C 
ATOM     71  C   LIG d   1       4.870  -2.594  -3.436  0.00  0.00    -0.052 C 
ATOM     72  H   LIG d   1       6.619  -1.610  -4.241  0.00  0.00     0.027 H 
ATOM     73  H   LIG d   1       6.345  -1.328  -2.488  0.00  0.00     0.027 H 
ATOM     74  C   LIG d   1       3.811  -2.336  -2.362  0.00  0.00    -0.053 C 
ATOM     75  H   LIG d   1       5.410  -3.523  -3.201  0.00  0.00     0.026 H 
ATOM     76  H   LIG d   1       4.381  -2.690  -4.416  0.00  0.00     0.026 H 
ATOM     77  C   LIG d   1       3.059  -1.043  -2.688  0.00  0.00    -0.052 C 
ATOM     78  H   LIG d   1       4.298  -2.239  -1.381  0.00  0.00     0.026 H 
ATOM     79  H   LIG d   1       3.101  -3.176  -2.338  0.00  0.00     0.026 H 
ATOM     80  C   LIG d   1       4.046   0.126  -2.720  0.00  0.00    -0.042 C 
ATOM     81  H   LIG d   1       2.297  -0.858  -1.916  0.00  0.00     0.026 H 
ATOM     82  H   LIG d   1       2.571  -1.139  -3.668  0.00  0.00     0.026 H 
ATOM     83  H   LIG d   1       4.535   0.222  -1.740  0.00  0.00     0.027 H 
ATOM     84  H   LIG d   1       3.506   1.056  -2.955  0.00  0.00     0.027 H 
ATOM     85  H   LIG d   1       4.626  -0.216  -4.781  0.00  0.00     0.039 H 
ENDBRANCH  66  69
ENDBRANCH   3  65
TORSDOF 16
ENDMDL
MODEL 9
REMARK VINA RESULT:      -4.5      1.654      1.971
REMARK  16 active torsions:
REMARK  status: ('A' for Active; 'I' for Inactive)
REMARK    1  A    between atoms: C_1  and  C_2 
REMARK    2  A    between atoms: C_4  and  N_33 
REMARK    3  A    between atoms: C_8  and  C_32 
REMARK    4  A    between atoms: C_11  and  O_31 
REMARK    5  A    between atoms: C_13  and  C_17 
REMARK    6  A    between atoms: C_17  and  C_19 
REMARK    7  A    between atoms: C_17  and  C_20 
REMARK       I    between atoms: C_20  and  N_22 
REMARK    8  A    between atoms: N_22  and  C_23 
REMARK    9  A    between atoms: N_22  and  C_27 
REMARK   10  A    between atoms: C_23  and  C_24 
REMARK   11  A    between atoms: C_24  and  O_25 
REMARK   12  A    between atoms: O_25  and  C_26 
REMARK   13  A    between atoms: C_27  and  C_28 
REMARK   14  A    between atoms: C_28  and  O_29 
REMARK   15  A    between atoms: O_29  and  C_30 
REMARK       I    between atoms: N_33  and  C_34 
REMARK   16  A    between atoms: C_34  and  C_36 
ROOT
ATOM      1  C   LIG d   1       8.868   1.386  -6.821  0.00  0.00    -0.020 C 
ATOM      2  H   LIG d   1       9.251   0.417  -7.175  0.00  0.00     0.032 H 
ATOM      3  C   LIG d   1       8.930   1.432  -5.293  0.00  0.00     0.026 C 
ATOM      4  H   LIG d   1       8.514   2.379  -4.917  0.00  0.00     0.050 H 
ATOM      5  C   LIG d   1      10.379   1.260  -4.836  0.00  0.00    -0.034 C 
ATOM      6  C   LIG d   1      11.234   2.389  -5.416  0.00  0.00    -0.046 C 
ATOM      7  C   LIG d   1      11.173   2.343  -6.944  0.00  0.00    -0.026 C 
ATOM      8  C   LIG d   1       9.722   2.515  -7.400  0.00  0.00    -0.005 C 
ATOM      9  H   LIG d   1       9.339   3.483  -7.047  0.00  0.00     0.033 H 
ATOM     10  C   LIG d   1       9.661   2.469  -8.928  0.00  0.00     0.062 C 
ATOM     11  H   LIG d   1       9.981   1.488  -9.312  0.00  0.00     0.060 H 
ATOM     12  C   LIG d   1      10.516   3.597  -9.508  0.00  0.00    -0.004 C 
ATOM     13  H   LIG d   1      10.471   3.564 -10.606  0.00  0.00     0.033 H 
ATOM     14  C   LIG d   1      11.966   3.425  -9.051  0.00  0.00    -0.047 C 
ATOM     15  C   LIG d   1      12.028   3.471  -7.523  0.00  0.00    -0.047 C 
ATOM     16  H   LIG d   1      10.424   1.293  -3.738  0.00  0.00     0.028 H 
ATOM     17  H   LIG d   1      10.762   0.292  -5.190  0.00  0.00     0.028 H 
ATOM     18  H   LIG d   1      10.851   3.358  -5.062  0.00  0.00     0.027 H 
ATOM     19  H   LIG d   1      12.276   2.264  -5.086  0.00  0.00     0.027 H 
ATOM     20  H   LIG d   1      12.349   2.456  -9.405  0.00  0.00     0.027 H 
ATOM     21  H   LIG d   1      12.580   4.236  -9.468  0.00  0.00     0.027 H 
ATOM     22  H   LIG d   1      11.645   4.440  -7.169  0.00  0.00     0.027 H 
ATOM     23  H   LIG d   1      13.070   3.348  -7.194  0.00  0.00     0.027 H 
ENDROOT
BRANCH  12  24
ATOM     24  C   LIG d   1       9.983   4.945  -9.017  0.00  0.00     0.038 C 
ATOM     25  H   LIG d   1      10.028   4.986  -7.918  0.00  0.00     0.040 H 
BRANCH  24  26
ATOM     26  C   LIG d   1       8.538   5.123  -9.486  0.00  0.00    -0.054 C 
ATOM     27  H   LIG d   1       8.475   5.991 -10.159  0.00  0.00     0.024 H 
ATOM     28  H   LIG d   1       7.886   5.288  -8.615  0.00  0.00     0.024 H 
ATOM     29  H   LIG d   1       8.212   4.219 -10.022  0.00  0.00     0.024 H 
ENDBRANCH  24  26
BRANCH  24  30
ATOM     30  C   LIG d   1      10.833   6.056  -9.576  0.00  0.00     0.219 C 
ATOM     31  O   LIG d   1      10.965   6.172 -10.776  0.00  0.00    -0.275 OA
ATOM     32  N   LIG d   1      11.447   6.920  -8.743  0.00  0.00    -0.297 N 
BRANCH  32  33
ATOM     33  C   LIG d   1      12.348   7.941  -9.282  0.00  0.00     0.038 C 
ATOM     34  H   LIG d   1      13.184   8.098  -8.584  0.00  0.00     0.049 H 
ATOM     35  H   LIG d   1      12.739   7.610 -10.255  0.00  0.00     0.049 H 
BRANCH  33  36
ATOM     36  C   LIG d   1      11.581   9.254  -9.461  0.00  0.00     0.063 C 
ATOM     37  H   LIG d   1      11.368   9.411 -10.529  0.00  0.00     0.058 H 
ATOM     38  H   LIG d   1      10.635   9.205  -8.902  0.00  0.00     0.058 H 
BRANCH  36  39
ATOM     39  O   LIG d   1      12.371  10.338  -8.967  0.00  0.00    -0.381 OA
BRANCH  39  40
ATOM     40  C   LIG d   1      11.992  11.615  -9.485  0.00  0.00     0.036 C 
ATOM     41  H   LIG d   1      12.015  12.360  -8.676  0.00  0.00     0.052 H 
ATOM     42  H   LIG d   1      10.976  11.556  -9.900  0.00  0.00     0.052 H 
ATOM     43  H   LIG d   1      12.696  11.913 -10.277  0.00  0.00     0.052 H 
ENDBRANCH  39  40
ENDBRANCH  36  39
ENDBRANCH  33  36
ENDBRANCH  32  33
BRANCH  32  44
ATOM     44  C   LIG d   1      11.214   6.837  -7.300  0.00  0.00     0.038 C 
ATOM     45  H   LIG d   1      10.956   5.802  -7.029  0.00  0.00     0.049 H 
ATOM     46  H   LIG d   1      12.126   7.140  -6.763  0.00  0.00     0.049 H 
BRANCH  44  47
ATOM     47  C   LIG d   1      10.063   7.768  -6.914  0.00  0.00     0.063 C 
ATOM     48  H   LIG d   1      10.469   8.686  -6.466  0.00  0.00     0.058 H 
ATOM     49  H   LIG d   1       9.480   8.024  -7.811  0.00  0.00     0.058 H 
BRANCH  47  50
ATOM     50  O   LIG d   1       9.216   7.111  -5.968  0.00  0.00    -0.381 OA
BRANCH  50  51
ATOM     51  C   LIG d   1       9.780   5.923  -5.409  0.00  0.00     0.036 C 
ATOM     52  H   LIG d   1       9.661   5.091  -6.118  0.00  0.00     0.052 H 
ATOM     53  H   LIG d   1       9.264   5.680  -4.468  0.00  0.00     0.052 H 
ATOM     54  H   LIG d   1      10.850   6.084  -5.208  0.00  0.00     0.052 H 
ENDBRANCH  50  51
ENDBRANCH  47  50
ENDBRANCH  44  47
ENDBRANCH  32  44
ENDBRANCH  24  30
ENDBRANCH  12  24
BRANCH  10  55
ATOM     55  O   LIG d   1       8.306   2.629  -9.355  0.00  0.00    -0.391 OA
ATOM     56  H   LIG d   1       7.692   1.745  -9.578  0.00  0.00     0.210 HD
ENDBRANCH  10  55
BRANCH   1  57
ATOM     57  C   LIG d   1       7.418   1.558  -7.279  0.00  0.00    -0.060 C 
ATOM     58  H   LIG d   1       7.368   1.482  -8.375  0.00  0.00     0.023 H 
ATOM     59  H   LIG d   1       7.048   2.545  -6.963  0.00  0.00     0.023 H 
ATOM     60  H   LIG d   1       6.795   0.771  -6.828  0.00  0.00     0.023 H 
ENDBRANCH   1  57
BRANCH   7  61
ATOM     61  C   LIG d   1      11.705   0.995  -7.435  0.00  0.00    -0.059 C 
ATOM     62  H   LIG d   1      12.688   1.139  -7.907  0.00  0.00     0.024 H 
ATOM     63  H   LIG d   1      11.005   0.568  -8.167  0.00  0.00     0.024 H 
ATOM     64  H   LIG d   1      11.807   0.308  -6.581  0.00  0.00     0.024 H 
ENDBRANCH   7  61
BRANCH   3  65
ATOM     65  N   LIG d   1       8.111   0.352  -4.739  0.00  0.00    -0.312 N 
ATOM     66  C   LIG d   1       7.164   0.627  -3.819  0.00  0.00     0.216 C 
ATOM     67  O   LIG d   1       6.990   1.769  -3.452  0.00  0.00    -0.276 OA
ATOM     68  H   LIG d   1       8.269  -0.685  -5.072  0.00  0.00     0.149 HD
BRANCH  66  69
ATOM     69  C   LIG d   1       6.322  -0.485  -3.249  0.00  0.00     0.036 C 
ATOM     70  C   LIG d   1       5.184   0.112  -2.418  0.00  0.00    -0.042 C 
ATOM     71  C   LIG d   1       4.329  -1.017  -1.838  0.00  0.00    -0.052 C 
ATOM     72  H   LIG d   1       5.605   0.712  -1.598  0.00  0.00     0.027 H 
ATOM     73  H   LIG d   1       4.561   0.753  -3.058  0.00  0.00     0.027 H 
ATOM     74  C   LIG d   1       3.744  -1.850  -2.980  0.00  0.00    -0.053 C 
ATOM     75  H   LIG d   1       3.511  -0.588  -1.242  0.00  0.00     0.026 H 
ATOM     76  H   LIG d   1       4.953  -1.659  -1.199  0.00  0.00     0.026 H 
ATOM     77  C   LIG d   1       4.882  -2.448  -3.811  0.00  0.00    -0.052 C 
ATOM     78  H   LIG d   1       3.120  -1.210  -3.620  0.00  0.00     0.026 H 
ATOM     79  H   LIG d   1       3.129  -2.663  -2.564  0.00  0.00     0.026 H 
ATOM     80  C   LIG d   1       5.736  -1.319  -4.391  0.00  0.00    -0.042 C 
ATOM     81  H   LIG d   1       4.461  -3.048  -4.631  0.00  0.00     0.026 H 
ATOM     82  H   LIG d   1       5.505  -3.089  -3.171  0.00  0.00     0.026 H 
ATOM     83  H   LIG d   1       5.113  -0.677  -5.030  0.00  0.00     0.027 H 
ATOM     84  H   LIG d   1       6.555  -1.749  -4.988  0.00  0.00     0.027 H 
ATOM     85  H   LIG d   1       6.958  -1.117  -2.612  0.00  0.00     0.039 H 
ENDBRANCH  66  69
ENDBRANCH   3  65
TORSDOF 16
ENDMDL
