MODEL 1
REMARK VINA RESULT:      -8.2      0.000      0.000
REMARK  2 active torsions:
REMARK  status: ('A' for Active; 'I' for Inactive)
REMARK    1  A    between atoms: C_1  and  C_2 
REMARK    2  A    between atoms: C_5  and  C_8 
ROOT
ATOM      1  C   LIG d   1      10.136   2.776  -4.314  0.00  0.00     0.028 A 
ATOM      2  C   LIG d   1      11.191   2.285  -5.000  0.00  0.00     0.101 A 
ATOM      3  O   LIG d   1      10.928   1.033  -5.415  0.00  0.00    -0.462 OA
ATOM      4  C   LIG d   1       9.700   0.638  -5.021  0.00  0.00     0.139 A 
ATOM      5  C   LIG d   1       9.125   1.702  -4.302  0.00  0.00     0.029 A 
ATOM      6  C   LIG d   1       7.849   1.581  -3.770  0.00  0.00    -0.039 A 
ATOM      7  C   LIG d   1       7.141   0.398  -3.952  0.00  0.00     0.026 A 
ATOM      8  C   LIG d   1       5.782   0.247  -3.394  0.00  0.00    -0.000 A 
ATOM      9  C   LIG d   1       5.163   1.262  -2.676  0.00  0.00    -0.053 A 
ATOM     10  C   LIG d   1       3.891   1.067  -2.179  0.00  0.00    -0.061 A 
ATOM     11  C   LIG d   1       3.227  -0.133  -2.389  0.00  0.00    -0.061 A 
ATOM     12  C   LIG d   1       3.825  -1.153  -3.098  0.00  0.00    -0.047 A 
ATOM     13  C   LIG d   1       5.109  -0.974  -3.608  0.00  0.00     0.067 A 
ATOM     14  C   LIG d   1       5.794  -2.028  -4.372  0.00  0.00     0.345 A 
ATOM     15  O   LIG d   1       5.235  -3.090  -4.572  0.00  0.00    -0.244 OA
ATOM     16  O   LIG d   1       7.030  -1.824  -4.852  0.00  0.00    -0.422 OA
ATOM     17  C   LIG d   1       7.710  -0.668  -4.668  0.00  0.00     0.143 A 
ATOM     18  C   LIG d   1       8.985  -0.538  -5.196  0.00  0.00     0.024 A 
ATOM     19  H   LIG d   1      12.109   2.821  -5.193  0.00  0.00     0.104 H 
ATOM     20  H   LIG d   1       7.409   2.399  -3.220  0.00  0.00     0.063 H 
ATOM     21  H   LIG d   1       5.673   2.199  -2.509  0.00  0.00     0.062 H 
ATOM     22  H   LIG d   1       3.407   1.854  -1.621  0.00  0.00     0.062 H 
ATOM     23  H   LIG d   1       2.232  -0.271  -1.991  0.00  0.00     0.062 H 
ATOM     24  H   LIG d   1       3.302  -2.084  -3.257  0.00  0.00     0.063 H 
ATOM     25  H   LIG d   1       9.425  -1.357  -5.747  0.00  0.00     0.069 H 
ENDROOT
BRANCH   1  26
ATOM     26  C   LIG d   1      10.020   4.119  -3.695  0.00  0.00    -0.014 A 
ATOM     27  C   LIG d   1      10.439   4.323  -2.382  0.00  0.00    -0.054 A 
ATOM     28  C   LIG d   1      10.328   5.575  -1.811  0.00  0.00    -0.058 A 
ATOM     29  H   LIG d   1      10.849   3.503  -1.811  0.00  0.00     0.062 H 
ATOM     30  C   LIG d   1       9.804   6.626  -2.541  0.00  0.00    -0.050 A 
ATOM     31  H   LIG d   1      10.653   5.734  -0.794  0.00  0.00     0.062 H 
ATOM     32  C   LIG d   1       9.387   6.430  -3.845  0.00  0.00    -0.058 A 
ATOM     33  C   LIG d   1       9.495   5.184  -4.427  0.00  0.00    -0.054 A 
ATOM     34  H   LIG d   1       8.977   7.254  -4.411  0.00  0.00     0.062 H 
ATOM     35  H   LIG d   1       9.173   5.032  -5.447  0.00  0.00     0.062 H 
BRANCH  30  36
ATOM     36  C   LIG d   1       9.686   7.991  -1.913  0.00  0.00    -0.040 C 
ATOM     37  H   LIG d   1       8.800   8.025  -1.279  0.00  0.00     0.028 H 
ATOM     38  H   LIG d   1      10.573   8.190  -1.309  0.00  0.00     0.028 H 
ATOM     39  H   LIG d   1       9.602   8.745  -2.695  0.00  0.00     0.028 H 
ENDBRANCH  30  36
ENDBRANCH   1  26
TORSDOF 2
ENDMDL
MODEL 2
REMARK VINA RESULT:      -7.8      3.823      8.529
REMARK  2 active torsions:
REMARK  status: ('A' for Active; 'I' for Inactive)
REMARK    1  A    between atoms: C_1  and  C_2 
REMARK    2  A    between atoms: C_5  and  C_8 
ROOT
ATOM      1  C   LIG d   1       7.998  -5.317  -5.689  0.00  0.00     0.028 A 
ATOM      2  C   LIG d   1       9.134  -5.333  -6.420  0.00  0.00     0.101 A 
ATOM      3  O   LIG d   1       9.676  -4.104  -6.456  0.00  0.00    -0.462 OA
ATOM      4  C   LIG d   1       8.928  -3.222  -5.760  0.00  0.00     0.139 A 
ATOM      5  C   LIG d   1       7.826  -3.923  -5.238  0.00  0.00     0.029 A 
ATOM      6  C   LIG d   1       6.876  -3.265  -4.470  0.00  0.00    -0.039 A 
ATOM      7  C   LIG d   1       7.019  -1.905  -4.220  0.00  0.00     0.026 A 
ATOM      8  C   LIG d   1       6.021  -1.185  -3.405  0.00  0.00    -0.000 A 
ATOM      9  C   LIG d   1       4.913  -1.824  -2.863  0.00  0.00    -0.053 A 
ATOM     10  C   LIG d   1       4.011  -1.102  -2.109  0.00  0.00    -0.061 A 
ATOM     11  C   LIG d   1       4.201   0.255  -1.888  0.00  0.00    -0.061 A 
ATOM     12  C   LIG d   1       5.294   0.907  -2.419  0.00  0.00    -0.047 A 
ATOM     13  C   LIG d   1       6.215   0.194  -3.183  0.00  0.00     0.067 A 
ATOM     14  C   LIG d   1       7.399   0.839  -3.772  0.00  0.00     0.345 A 
ATOM     15  O   LIG d   1       7.590   2.027  -3.595  0.00  0.00    -0.244 OA
ATOM     16  O   LIG d   1       8.269   0.125  -4.502  0.00  0.00    -0.422 OA
ATOM     17  C   LIG d   1       8.118  -1.199  -4.739  0.00  0.00     0.143 A 
ATOM     18  C   LIG d   1       9.062  -1.865  -5.505  0.00  0.00     0.024 A 
ATOM     19  H   LIG d   1       9.549  -6.207  -6.902  0.00  0.00     0.104 H 
ATOM     20  H   LIG d   1       6.031  -3.806  -4.069  0.00  0.00     0.063 H 
ATOM     21  H   LIG d   1       4.758  -2.880  -3.030  0.00  0.00     0.062 H 
ATOM     22  H   LIG d   1       3.149  -1.596  -1.686  0.00  0.00     0.062 H 
ATOM     23  H   LIG d   1       3.485   0.806  -1.296  0.00  0.00     0.062 H 
ATOM     24  H   LIG d   1       5.435   1.963  -2.243  0.00  0.00     0.063 H 
ATOM     25  H   LIG d   1       9.907  -1.324  -5.907  0.00  0.00     0.069 H 
ENDROOT
BRANCH   1  26
ATOM     26  C   LIG d   1       7.105  -6.465  -5.401  0.00  0.00    -0.014 A 
ATOM     27  C   LIG d   1       5.761  -6.416  -5.770  0.00  0.00    -0.054 A 
ATOM     28  C   LIG d   1       4.934  -7.488  -5.499  0.00  0.00    -0.058 A 
ATOM     29  H   LIG d   1       5.368  -5.541  -6.266  0.00  0.00     0.062 H 
ATOM     30  C   LIG d   1       5.437  -8.609  -4.865  0.00  0.00    -0.050 A 
ATOM     31  H   LIG d   1       3.894  -7.451  -5.785  0.00  0.00     0.062 H 
ATOM     32  C   LIG d   1       6.769  -8.665  -4.498  0.00  0.00    -0.058 A 
ATOM     33  C   LIG d   1       7.607  -7.601  -4.766  0.00  0.00    -0.054 A 
ATOM     34  H   LIG d   1       7.157  -9.543  -4.002  0.00  0.00     0.062 H 
ATOM     35  H   LIG d   1       8.648  -7.646  -4.482  0.00  0.00     0.062 H 
BRANCH  30  36
ATOM     36  C   LIG d   1       4.529  -9.777  -4.574  0.00  0.00    -0.040 C 
ATOM     37  H   LIG d   1       3.904  -9.545  -3.711  0.00  0.00     0.028 H 
ATOM     38  H   LIG d   1       3.896  -9.970  -5.440  0.00  0.00     0.028 H 
ATOM     39  H   LIG d   1       5.131 -10.660  -4.359  0.00  0.00     0.028 H 
ENDBRANCH  30  36
ENDBRANCH   1  26
TORSDOF 2
ENDMDL
MODEL 3
REMARK VINA RESULT:      -7.4      5.505      7.566
REMARK  2 active torsions:
REMARK  status: ('A' for Active; 'I' for Inactive)
REMARK    1  A    between atoms: C_1  and  C_2 
REMARK    2  A    between atoms: C_5  and  C_8 
ROOT
ATOM      1  C   LIG d   1       7.907  -4.962  -5.608  0.00  0.00     0.028 A 
ATOM      2  C   LIG d   1       8.059  -5.362  -6.890  0.00  0.00     0.101 A 
ATOM      3  O   LIG d   1       7.287  -4.616  -7.699  0.00  0.00    -0.462 OA
ATOM      4  C   LIG d   1       6.589  -3.699  -6.998  0.00  0.00     0.139 A 
ATOM      5  C   LIG d   1       6.929  -3.859  -5.642  0.00  0.00     0.029 A 
ATOM      6  C   LIG d   1       6.359  -3.042  -4.675  0.00  0.00    -0.039 A 
ATOM      7  C   LIG d   1       5.447  -2.063  -5.056  0.00  0.00     0.026 A 
ATOM      8  C   LIG d   1       4.829  -1.183  -4.045  0.00  0.00    -0.000 A 
ATOM      9  C   LIG d   1       5.125  -1.293  -2.692  0.00  0.00    -0.053 A 
ATOM     10  C   LIG d   1       4.517  -0.444  -1.790  0.00  0.00    -0.061 A 
ATOM     11  C   LIG d   1       3.615   0.517  -2.223  0.00  0.00    -0.061 A 
ATOM     12  C   LIG d   1       3.307   0.641  -3.561  0.00  0.00    -0.047 A 
ATOM     13  C   LIG d   1       3.911  -0.208  -4.487  0.00  0.00     0.067 A 
ATOM     14  C   LIG d   1       3.620  -0.119  -5.926  0.00  0.00     0.345 A 
ATOM     15  O   LIG d   1       2.833   0.714  -6.333  0.00  0.00    -0.244 OA
ATOM     16  O   LIG d   1       4.219  -0.950  -6.792  0.00  0.00    -0.422 OA
ATOM     17  C   LIG d   1       5.104  -1.899  -6.409  0.00  0.00     0.143 A 
ATOM     18  C   LIG d   1       5.679  -2.720  -7.367  0.00  0.00     0.024 A 
ATOM     19  H   LIG d   1       8.709  -6.160  -7.218  0.00  0.00     0.104 H 
ATOM     20  H   LIG d   1       6.621  -3.165  -3.635  0.00  0.00     0.063 H 
ATOM     21  H   LIG d   1       5.826  -2.038  -2.348  0.00  0.00     0.062 H 
ATOM     22  H   LIG d   1       4.746  -0.527  -0.739  0.00  0.00     0.062 H 
ATOM     23  H   LIG d   1       3.147   1.174  -1.504  0.00  0.00     0.062 H 
ATOM     24  H   LIG d   1       2.603   1.391  -3.890  0.00  0.00     0.063 H 
ATOM     25  H   LIG d   1       5.416  -2.596  -8.408  0.00  0.00     0.069 H 
ENDROOT
BRANCH   1  26
ATOM     26  C   LIG d   1       8.582  -5.521  -4.412  0.00  0.00    -0.014 A 
ATOM     27  C   LIG d   1       8.618  -6.899  -4.209  0.00  0.00    -0.054 A 
ATOM     28  C   LIG d   1       9.248  -7.414  -3.093  0.00  0.00    -0.058 A 
ATOM     29  H   LIG d   1       8.153  -7.564  -4.922  0.00  0.00     0.062 H 
ATOM     30  C   LIG d   1       9.844  -6.564  -2.180  0.00  0.00    -0.050 A 
ATOM     31  H   LIG d   1       9.276  -8.482  -2.935  0.00  0.00     0.062 H 
ATOM     32  C   LIG d   1       9.813  -5.195  -2.377  0.00  0.00    -0.058 A 
ATOM     33  C   LIG d   1       9.189  -4.669  -3.489  0.00  0.00    -0.054 A 
ATOM     34  H   LIG d   1      10.280  -4.536  -1.660  0.00  0.00     0.062 H 
ATOM     35  H   LIG d   1       9.168  -3.600  -3.645  0.00  0.00     0.062 H 
BRANCH  30  36
ATOM     36  C   LIG d   1      10.532  -7.132  -0.964  0.00  0.00    -0.040 C 
ATOM     37  H   LIG d   1      10.596  -6.365  -0.192  0.00  0.00     0.028 H 
ATOM     38  H   LIG d   1       9.961  -7.981  -0.587  0.00  0.00     0.028 H 
ATOM     39  H   LIG d   1      11.535  -7.460  -1.235  0.00  0.00     0.028 H 
ENDBRANCH  30  36
ENDBRANCH   1  26
TORSDOF 2
ENDMDL
MODEL 4
REMARK VINA RESULT:      -7.2      5.912      9.530
REMARK  2 active torsions:
REMARK  status: ('A' for Active; 'I' for Inactive)
REMARK    1  A    between atoms: C_1  and  C_2 
REMARK    2  A    between atoms: C_5  and  C_8 
ROOT
ATOM      1  C   LIG d   1       5.840  -6.632  -6.648  0.00  0.00     0.028 A 
ATOM      2  C   LIG d   1       5.991  -6.833  -7.976  0.00  0.00     0.101 A 
ATOM      3  O   LIG d   1       5.704  -5.704  -8.647  0.00  0.00    -0.462 OA
ATOM      4  C   LIG d   1       5.348  -4.713  -7.804  0.00  0.00     0.139 A 
ATOM      5  C   LIG d   1       5.406  -5.231  -6.497  0.00  0.00     0.029 A 
ATOM      6  C   LIG d   1       5.088  -4.428  -5.410  0.00  0.00    -0.039 A 
ATOM      7  C   LIG d   1       4.711  -3.107  -5.621  0.00  0.00     0.026 A 
ATOM      8  C   LIG d   1       4.369  -2.235  -4.480  0.00  0.00    -0.000 A 
ATOM      9  C   LIG d   1       4.407  -2.690  -3.168  0.00  0.00    -0.053 A 
ATOM     10  C   LIG d   1       4.078  -1.831  -2.139  0.00  0.00    -0.061 A 
ATOM     11  C   LIG d   1       3.708  -0.520  -2.404  0.00  0.00    -0.061 A 
ATOM     12  C   LIG d   1       3.663  -0.051  -3.700  0.00  0.00    -0.047 A 
ATOM     13  C   LIG d   1       3.992  -0.903  -4.752  0.00  0.00     0.067 A 
ATOM     14  C   LIG d   1       3.961  -0.455  -6.152  0.00  0.00     0.345 A 
ATOM     15  O   LIG d   1       3.641   0.689  -6.413  0.00  0.00    -0.244 OA
ATOM     16  O   LIG d   1       4.285  -1.299  -7.143  0.00  0.00    -0.422 OA
ATOM     17  C   LIG d   1       4.651  -2.584  -6.924  0.00  0.00     0.143 A 
ATOM     18  C   LIG d   1       4.970  -3.393  -8.004  0.00  0.00     0.024 A 
ATOM     19  H   LIG d   1       6.302  -7.762  -8.431  0.00  0.00     0.104 H 
ATOM     20  H   LIG d   1       5.134  -4.827  -4.408  0.00  0.00     0.063 H 
ATOM     21  H   LIG d   1       4.694  -3.708  -2.954  0.00  0.00     0.062 H 
ATOM     22  H   LIG d   1       4.108  -2.182  -1.119  0.00  0.00     0.062 H 
ATOM     23  H   LIG d   1       3.453   0.139  -1.587  0.00  0.00     0.062 H 
ATOM     24  H   LIG d   1       3.374   0.970  -3.898  0.00  0.00     0.063 H 
ATOM     25  H   LIG d   1       4.924  -2.994  -9.007  0.00  0.00     0.069 H 
ENDROOT
BRANCH   1  26
ATOM     26  C   LIG d   1       6.062  -7.619  -5.564  0.00  0.00    -0.014 A 
ATOM     27  C   LIG d   1       5.026  -8.458  -5.159  0.00  0.00    -0.054 A 
ATOM     28  C   LIG d   1       5.238  -9.376  -4.149  0.00  0.00    -0.058 A 
ATOM     29  H   LIG d   1       4.057  -8.390  -5.632  0.00  0.00     0.062 H 
ATOM     30  C   LIG d   1       6.478  -9.464  -3.542  0.00  0.00    -0.050 A 
ATOM     31  H   LIG d   1       4.436 -10.026  -3.834  0.00  0.00     0.062 H 
ATOM     32  C   LIG d   1       7.511  -8.636  -3.941  0.00  0.00    -0.058 A 
ATOM     33  C   LIG d   1       7.311  -7.717  -4.951  0.00  0.00    -0.054 A 
ATOM     34  H   LIG d   1       8.477  -8.709  -3.464  0.00  0.00     0.062 H 
ATOM     35  H   LIG d   1       8.119  -7.073  -5.266  0.00  0.00     0.062 H 
BRANCH  30  36
ATOM     36  C   LIG d   1       6.704 -10.470  -2.442  0.00  0.00    -0.040 C 
ATOM     37  H   LIG d   1       6.658  -9.967  -1.476  0.00  0.00     0.028 H 
ATOM     38  H   LIG d   1       5.933 -11.239  -2.488  0.00  0.00     0.028 H 
ATOM     39  H   LIG d   1       7.684 -10.929  -2.566  0.00  0.00     0.028 H 
ENDBRANCH  30  36
ENDBRANCH   1  26
TORSDOF 2
ENDMDL
MODEL 5
REMARK VINA RESULT:      -6.7      6.240      9.003
REMARK  2 active torsions:
REMARK  status: ('A' for Active; 'I' for Inactive)
REMARK    1  A    between atoms: C_1  and  C_2 
REMARK    2  A    between atoms: C_5  and  C_8 
ROOT
ATOM      1  C   LIG d   1       3.081   0.311  -7.460  0.00  0.00     0.028 A 
ATOM      2  C   LIG d   1       2.895   1.554  -7.955  0.00  0.00     0.101 A 
ATOM      3  O   LIG d   1       2.639   1.491  -9.273  0.00  0.00    -0.462 OA
ATOM      4  C   LIG d   1       2.649   0.215  -9.711  0.00  0.00     0.139 A 
ATOM      5  C   LIG d   1       2.930  -0.607  -8.605  0.00  0.00     0.029 A 
ATOM      6  C   LIG d   1       3.003  -1.985  -8.756  0.00  0.00    -0.039 A 
ATOM      7  C   LIG d   1       2.797  -2.549 -10.010  0.00  0.00     0.026 A 
ATOM      8  C   LIG d   1       2.870  -4.012 -10.193  0.00  0.00    -0.000 A 
ATOM      9  C   LIG d   1       3.143  -4.875  -9.139  0.00  0.00    -0.053 A 
ATOM     10  C   LIG d   1       3.199  -6.234  -9.368  0.00  0.00    -0.061 A 
ATOM     11  C   LIG d   1       2.985  -6.746 -10.639  0.00  0.00    -0.061 A 
ATOM     12  C   LIG d   1       2.713  -5.906 -11.699  0.00  0.00    -0.047 A 
ATOM     13  C   LIG d   1       2.653  -4.530 -11.487  0.00  0.00     0.067 A 
ATOM     14  C   LIG d   1       2.366  -3.589 -12.580  0.00  0.00     0.345 A 
ATOM     15  O   LIG d   1       2.174  -4.010 -13.705  0.00  0.00    -0.244 OA
ATOM     16  O   LIG d   1       2.313  -2.269 -12.344  0.00  0.00    -0.422 OA
ATOM     17  C   LIG d   1       2.516  -1.733 -11.118  0.00  0.00     0.143 A 
ATOM     18  C   LIG d   1       2.445  -0.357 -10.958  0.00  0.00     0.024 A 
ATOM     19  H   LIG d   1       2.940   2.465  -7.376  0.00  0.00     0.104 H 
ATOM     20  H   LIG d   1       3.218  -2.615  -7.905  0.00  0.00     0.063 H 
ATOM     21  H   LIG d   1       3.311  -4.483  -8.147  0.00  0.00     0.062 H 
ATOM     22  H   LIG d   1       3.411  -6.906  -8.550  0.00  0.00     0.062 H 
ATOM     23  H   LIG d   1       3.033  -7.812 -10.802  0.00  0.00     0.062 H 
ATOM     24  H   LIG d   1       2.548  -6.312 -12.686  0.00  0.00     0.063 H 
ATOM     25  H   LIG d   1       2.230   0.273 -11.809  0.00  0.00     0.069 H 
ENDROOT
BRANCH   1  26
ATOM     26  C   LIG d   1       3.379  -0.056  -6.055  0.00  0.00    -0.014 A 
ATOM     27  C   LIG d   1       2.488   0.285  -5.039  0.00  0.00    -0.054 A 
ATOM     28  C   LIG d   1       2.770  -0.059  -3.732  0.00  0.00    -0.058 A 
ATOM     29  H   LIG d   1       1.578   0.818  -5.273  0.00  0.00     0.062 H 
ATOM     30  C   LIG d   1       3.935  -0.742  -3.431  0.00  0.00    -0.050 A 
ATOM     31  H   LIG d   1       2.080   0.204  -2.944  0.00  0.00     0.062 H 
ATOM     32  C   LIG d   1       4.822  -1.084  -4.434  0.00  0.00    -0.058 A 
ATOM     33  C   LIG d   1       4.549  -0.749  -5.745  0.00  0.00    -0.054 A 
ATOM     34  H   LIG d   1       5.730  -1.618  -4.194  0.00  0.00     0.062 H 
ATOM     35  H   LIG d   1       5.240  -1.019  -6.530  0.00  0.00     0.062 H 
BRANCH  30  36
ATOM     36  C   LIG d   1       4.237  -1.116  -2.002  0.00  0.00    -0.040 C 
ATOM     37  H   LIG d   1       5.128  -0.585  -1.668  0.00  0.00     0.028 H 
ATOM     38  H   LIG d   1       3.392  -0.843  -1.369  0.00  0.00     0.028 H 
ATOM     39  H   LIG d   1       4.408  -2.191  -1.936  0.00  0.00     0.028 H 
ENDBRANCH  30  36
ENDBRANCH   1  26
TORSDOF 2
ENDMDL
MODEL 6
REMARK VINA RESULT:      -6.7      5.628      8.480
REMARK  2 active torsions:
REMARK  status: ('A' for Active; 'I' for Inactive)
REMARK    1  A    between atoms: C_1  and  C_2 
REMARK    2  A    between atoms: C_5  and  C_8 
ROOT
ATOM      1  C   LIG d   1       5.512  -4.550  -7.221  0.00  0.00     0.028 A 
ATOM      2  C   LIG d   1       5.223  -4.599  -8.540  0.00  0.00     0.101 A 
ATOM      3  O   LIG d   1       4.549  -3.495  -8.904  0.00  0.00    -0.462 OA
ATOM      4  C   LIG d   1       4.356  -2.672  -7.852  0.00  0.00     0.139 A 
ATOM      5  C   LIG d   1       4.943  -3.282  -6.729  0.00  0.00     0.029 A 
ATOM      6  C   LIG d   1       4.901  -2.658  -5.490  0.00  0.00    -0.039 A 
ATOM      7  C   LIG d   1       4.271  -1.424  -5.366  0.00  0.00     0.026 A 
ATOM      8  C   LIG d   1       4.214  -0.742  -4.057  0.00  0.00    -0.000 A 
ATOM      9  C   LIG d   1       4.776  -1.294  -2.913  0.00  0.00    -0.053 A 
ATOM     10  C   LIG d   1       4.693  -0.612  -1.716  0.00  0.00    -0.061 A 
ATOM     11  C   LIG d   1       4.055   0.617  -1.646  0.00  0.00    -0.061 A 
ATOM     12  C   LIG d   1       3.490   1.181  -2.771  0.00  0.00    -0.047 A 
ATOM     13  C   LIG d   1       3.563   0.508  -3.989  0.00  0.00     0.067 A 
ATOM     14  C   LIG d   1       2.980   1.063  -5.219  0.00  0.00     0.345 A 
ATOM     15  O   LIG d   1       2.414   2.139  -5.187  0.00  0.00    -0.244 OA
ATOM     16  O   LIG d   1       3.068   0.390  -6.376  0.00  0.00    -0.422 OA
ATOM     17  C   LIG d   1       3.683  -0.811  -6.484  0.00  0.00     0.143 A 
ATOM     18  C   LIG d   1       3.731  -1.442  -7.718  0.00  0.00     0.024 A 
ATOM     19  H   LIG d   1       5.498  -5.404  -9.206  0.00  0.00     0.104 H 
ATOM     20  H   LIG d   1       5.353  -3.126  -4.628  0.00  0.00     0.063 H 
ATOM     21  H   LIG d   1       5.275  -2.250  -2.960  0.00  0.00     0.062 H 
ATOM     22  H   LIG d   1       5.129  -1.039  -0.826  0.00  0.00     0.062 H 
ATOM     23  H   LIG d   1       3.998   1.138  -0.702  0.00  0.00     0.062 H 
ATOM     24  H   LIG d   1       2.994   2.138  -2.709  0.00  0.00     0.063 H 
ATOM     25  H   LIG d   1       3.278  -0.972  -8.579  0.00  0.00     0.069 H 
ENDROOT
BRANCH   1  26
ATOM     26  C   LIG d   1       6.248  -5.566  -6.430  0.00  0.00    -0.014 A 
ATOM     27  C   LIG d   1       5.587  -6.700  -5.960  0.00  0.00    -0.054 A 
ATOM     28  C   LIG d   1       6.278  -7.642  -5.223  0.00  0.00    -0.058 A 
ATOM     29  H   LIG d   1       4.538  -6.840  -6.170  0.00  0.00     0.062 H 
ATOM     30  C   LIG d   1       7.622  -7.463  -4.954  0.00  0.00    -0.050 A 
ATOM     31  H   LIG d   1       5.767  -8.521  -4.859  0.00  0.00     0.062 H 
ATOM     32  C   LIG d   1       8.283  -6.341  -5.419  0.00  0.00    -0.058 A 
ATOM     33  C   LIG d   1       7.605  -5.394  -6.158  0.00  0.00    -0.054 A 
ATOM     34  H   LIG d   1       9.334  -6.206  -5.205  0.00  0.00     0.062 H 
ATOM     35  H   LIG d   1       8.123  -4.519  -6.525  0.00  0.00     0.062 H 
BRANCH  30  36
ATOM     36  C   LIG d   1       8.370  -8.497  -4.151  0.00  0.00    -0.040 C 
ATOM     37  H   LIG d   1       7.793  -8.754  -3.263  0.00  0.00     0.028 H 
ATOM     38  H   LIG d   1       8.521  -9.390  -4.758  0.00  0.00     0.028 H 
ATOM     39  H   LIG d   1       9.338  -8.093  -3.851  0.00  0.00     0.028 H 
ENDBRANCH  30  36
ENDBRANCH   1  26
TORSDOF 2
ENDMDL
MODEL 7
REMARK VINA RESULT:      -6.7      6.195      9.100
REMARK  2 active torsions:
REMARK  status: ('A' for Active; 'I' for Inactive)
REMARK    1  A    between atoms: C_1  and  C_2 
REMARK    2  A    between atoms: C_5  and  C_8 
ROOT
ATOM      1  C   LIG d   1       9.627   8.146  -4.864  0.00  0.00     0.028 A 
ATOM      2  C   LIG d   1       9.229   6.974  -5.406  0.00  0.00     0.101 A 
ATOM      3  O   LIG d   1       9.280   5.999  -4.482  0.00  0.00    -0.462 OA
ATOM      4  C   LIG d   1       9.716   6.474  -3.296  0.00  0.00     0.139 A 
ATOM      5  C   LIG d   1       9.966   7.849  -3.460  0.00  0.00     0.029 A 
ATOM      6  C   LIG d   1      10.429   8.609  -2.394  0.00  0.00    -0.039 A 
ATOM      7  C   LIG d   1      10.645   8.002  -1.163  0.00  0.00     0.026 A 
ATOM      8  C   LIG d   1      11.137   8.791  -0.016  0.00  0.00    -0.000 A 
ATOM      9  C   LIG d   1      11.401  10.151  -0.116  0.00  0.00    -0.053 A 
ATOM     10  C   LIG d   1      11.859  10.839   0.988  0.00  0.00    -0.061 A 
ATOM     11  C   LIG d   1      12.058  10.186   2.196  0.00  0.00    -0.061 A 
ATOM     12  C   LIG d   1      11.802   8.836   2.315  0.00  0.00    -0.047 A 
ATOM     13  C   LIG d   1      11.339   8.124   1.211  0.00  0.00     0.067 A 
ATOM     14  C   LIG d   1      11.049   6.684   1.282  0.00  0.00     0.345 A 
ATOM     15  O   LIG d   1      11.214   6.085   2.328  0.00  0.00    -0.244 OA
ATOM     16  O   LIG d   1      10.603   6.026   0.201  0.00  0.00    -0.422 OA
ATOM     17  C   LIG d   1      10.397   6.629  -0.993  0.00  0.00     0.143 A 
ATOM     18  C   LIG d   1       9.934   5.878  -2.063  0.00  0.00     0.024 A 
ATOM     19  H   LIG d   1       8.911   6.841  -6.429  0.00  0.00     0.104 H 
ATOM     20  H   LIG d   1      10.619   9.664  -2.521  0.00  0.00     0.063 H 
ATOM     21  H   LIG d   1      11.249  10.666  -1.052  0.00  0.00     0.062 H 
ATOM     22  H   LIG d   1      12.065  11.896   0.913  0.00  0.00     0.062 H 
ATOM     23  H   LIG d   1      12.418  10.739   3.051  0.00  0.00     0.062 H 
ATOM     24  H   LIG d   1      11.959   8.334   3.258  0.00  0.00     0.063 H 
ATOM     25  H   LIG d   1       9.744   4.822  -1.936  0.00  0.00     0.069 H 
ENDROOT
BRANCH   1  26
ATOM     26  C   LIG d   1       9.711   9.462  -5.543  0.00  0.00    -0.014 A 
ATOM     27  C   LIG d   1       9.345  10.623  -4.866  0.00  0.00    -0.054 A 
ATOM     28  C   LIG d   1       9.425  11.846  -5.504  0.00  0.00    -0.058 A 
ATOM     29  H   LIG d   1       8.998  10.568  -3.845  0.00  0.00     0.062 H 
ATOM     30  C   LIG d   1       9.869  11.918  -6.811  0.00  0.00    -0.050 A 
ATOM     31  H   LIG d   1       9.142  12.746  -4.979  0.00  0.00     0.062 H 
ATOM     32  C   LIG d   1      10.235  10.769  -7.488  0.00  0.00    -0.058 A 
ATOM     33  C   LIG d   1      10.162   9.542  -6.861  0.00  0.00    -0.054 A 
ATOM     34  H   LIG d   1      10.581  10.831  -8.510  0.00  0.00     0.062 H 
ATOM     35  H   LIG d   1      10.452   8.645  -7.388  0.00  0.00     0.062 H 
BRANCH  30  36
ATOM     36  C   LIG d   1       9.956  13.256  -7.501  0.00  0.00    -0.040 C 
ATOM     37  H   LIG d   1      10.413  13.129  -8.483  0.00  0.00     0.028 H 
ATOM     38  H   LIG d   1       8.954  13.669  -7.618  0.00  0.00     0.028 H 
ATOM     39  H   LIG d   1      10.562  13.935  -6.902  0.00  0.00     0.028 H 
ENDBRANCH  30  36
ENDBRANCH   1  26
TORSDOF 2
ENDMDL
MODEL 8
REMARK VINA RESULT:      -6.6      5.196      9.158
REMARK  2 active torsions:
REMARK  status: ('A' for Active; 'I' for Inactive)
REMARK    1  A    between atoms: C_1  and  C_2 
REMARK    2  A    between atoms: C_5  and  C_8 
ROOT
ATOM      1  C   LIG d   1      10.206   5.612  -3.773  0.00  0.00     0.028 A 
ATOM      2  C   LIG d   1      10.233   4.285  -3.521  0.00  0.00     0.101 A 
ATOM      3  O   LIG d   1      10.512   4.067  -2.224  0.00  0.00    -0.462 OA
ATOM      4  C   LIG d   1      10.687   5.230  -1.562  0.00  0.00     0.139 A 
ATOM      5  C   LIG d   1      10.511   6.273  -2.490  0.00  0.00     0.029 A 
ATOM      6  C   LIG d   1      10.632   7.596  -2.088  0.00  0.00    -0.039 A 
ATOM      7  C   LIG d   1      10.930   7.885  -0.762  0.00  0.00     0.026 A 
ATOM      8  C   LIG d   1      11.063   9.285  -0.313  0.00  0.00    -0.000 A 
ATOM      9  C   LIG d   1      10.901  10.357  -1.182  0.00  0.00    -0.053 A 
ATOM     10  C   LIG d   1      11.037  11.645  -0.708  0.00  0.00    -0.061 A 
ATOM     11  C   LIG d   1      11.334  11.880   0.627  0.00  0.00    -0.061 A 
ATOM     12  C   LIG d   1      11.500  10.829   1.505  0.00  0.00    -0.047 A 
ATOM     13  C   LIG d   1      11.367   9.521   1.045  0.00  0.00     0.067 A 
ATOM     14  C   LIG d   1      11.532   8.364   1.937  0.00  0.00     0.345 A 
ATOM     15  O   LIG d   1      11.793   8.540   3.112  0.00  0.00    -0.244 OA
ATOM     16  O   LIG d   1      11.396   7.116   1.464  0.00  0.00    -0.422 OA
ATOM     17  C   LIG d   1      11.107   6.848   0.169  0.00  0.00     0.143 A 
ATOM     18  C   LIG d   1      10.983   5.529  -0.241  0.00  0.00     0.024 A 
ATOM     19  H   LIG d   1      10.052   3.511  -4.253  0.00  0.00     0.104 H 
ATOM     20  H   LIG d   1      10.496   8.396  -2.801  0.00  0.00     0.063 H 
ATOM     21  H   LIG d   1      10.669  10.182  -2.222  0.00  0.00     0.062 H 
ATOM     22  H   LIG d   1      10.910  12.480  -1.381  0.00  0.00     0.062 H 
ATOM     23  H   LIG d   1      11.438  12.894   0.982  0.00  0.00     0.062 H 
ATOM     24  H   LIG d   1      11.732  11.019   2.542  0.00  0.00     0.063 H 
ATOM     25  H   LIG d   1      11.120   4.729   0.473  0.00  0.00     0.069 H 
ENDROOT
BRANCH   1  26
ATOM     26  C   LIG d   1       9.931   6.269  -5.073  0.00  0.00    -0.014 A 
ATOM     27  C   LIG d   1      10.176   5.591  -6.265  0.00  0.00    -0.054 A 
ATOM     28  C   LIG d   1       9.918   6.209  -7.473  0.00  0.00    -0.058 A 
ATOM     29  H   LIG d   1      10.569   4.586  -6.245  0.00  0.00     0.062 H 
ATOM     30  C   LIG d   1       9.415   7.497  -7.500  0.00  0.00    -0.050 A 
ATOM     31  H   LIG d   1      10.108   5.684  -8.398  0.00  0.00     0.062 H 
ATOM     32  C   LIG d   1       9.168   8.174  -6.320  0.00  0.00    -0.058 A 
ATOM     33  C   LIG d   1       9.419   7.567  -5.107  0.00  0.00    -0.054 A 
ATOM     34  H   LIG d   1       8.775   9.180  -6.347  0.00  0.00     0.062 H 
ATOM     35  H   LIG d   1       9.223   8.094  -4.185  0.00  0.00     0.062 H 
BRANCH  30  36
ATOM     36  C   LIG d   1       9.133   8.165  -8.822  0.00  0.00    -0.040 C 
ATOM     37  H   LIG d   1       9.783   9.032  -8.936  0.00  0.00     0.028 H 
ATOM     38  H   LIG d   1       9.322   7.460  -9.632  0.00  0.00     0.028 H 
ATOM     39  H   LIG d   1       8.092   8.484  -8.853  0.00  0.00     0.028 H 
ENDBRANCH  30  36
ENDBRANCH   1  26
TORSDOF 2
ENDMDL
MODEL 9
REMARK VINA RESULT:      -6.5      5.716     10.802
REMARK  2 active torsions:
REMARK  status: ('A' for Active; 'I' for Inactive)
REMARK    1  A    between atoms: C_1  and  C_2 
REMARK    2  A    between atoms: C_5  and  C_8 
ROOT
ATOM      1  C   LIG d   1      10.863   6.431  -0.511  0.00  0.00     0.028 A 
ATOM      2  C   LIG d   1      11.312   5.816   0.606  0.00  0.00     0.101 A 
ATOM      3  O   LIG d   1      11.594   6.728   1.552  0.00  0.00    -0.462 OA
ATOM      4  C   LIG d   1      11.352   7.980   1.109  0.00  0.00     0.139 A 
ATOM      5  C   LIG d   1      10.884   7.875  -0.213  0.00  0.00     0.029 A 
ATOM      6  C   LIG d   1      10.550   9.016  -0.931  0.00  0.00    -0.039 A 
ATOM      7  C   LIG d   1      10.684  10.264  -0.334  0.00  0.00     0.026 A 
ATOM      8  C   LIG d   1      10.335  11.491  -1.079  0.00  0.00    -0.000 A 
ATOM      9  C   LIG d   1       9.867  11.451  -2.386  0.00  0.00    -0.053 A 
ATOM     10  C   LIG d   1       9.556  12.628  -3.035  0.00  0.00    -0.061 A 
ATOM     11  C   LIG d   1       9.706  13.849  -2.393  0.00  0.00    -0.061 A 
ATOM     12  C   LIG d   1      10.171  13.909  -1.096  0.00  0.00    -0.047 A 
ATOM     13  C   LIG d   1      10.490  12.731  -0.425  0.00  0.00     0.067 A 
ATOM     14  C   LIG d   1      10.988  12.736   0.959  0.00  0.00     0.345 A 
ATOM     15  O   LIG d   1      11.130  13.793   1.546  0.00  0.00    -0.244 OA
ATOM     16  O   LIG d   1      11.286  11.584   1.578  0.00  0.00    -0.422 OA
ATOM     17  C   LIG d   1      11.152  10.375   0.986  0.00  0.00     0.143 A 
ATOM     18  C   LIG d   1      11.482   9.230   1.695  0.00  0.00     0.024 A 
ATOM     19  H   LIG d   1      11.423   4.748   0.723  0.00  0.00     0.104 H 
ATOM     20  H   LIG d   1      10.189   8.934  -1.945  0.00  0.00     0.063 H 
ATOM     21  H   LIG d   1       9.747  10.504  -2.892  0.00  0.00     0.062 H 
ATOM     22  H   LIG d   1       9.192  12.600  -4.050  0.00  0.00     0.062 H 
ATOM     23  H   LIG d   1       9.459  14.762  -2.915  0.00  0.00     0.062 H 
ATOM     24  H   LIG d   1      10.286  14.863  -0.603  0.00  0.00     0.063 H 
ATOM     25  H   LIG d   1      11.843   9.312   2.711  0.00  0.00     0.069 H 
ENDROOT
BRANCH   1  26
ATOM     26  C   LIG d   1      10.441   5.786  -1.778  0.00  0.00    -0.014 A 
ATOM     27  C   LIG d   1      10.715   4.438  -2.002  0.00  0.00    -0.054 A 
ATOM     28  C   LIG d   1      10.319   3.843  -3.183  0.00  0.00    -0.058 A 
ATOM     29  H   LIG d   1      11.236   3.860  -1.253  0.00  0.00     0.062 H 
ATOM     30  C   LIG d   1       9.651   4.582  -4.142  0.00  0.00    -0.050 A 
ATOM     31  H   LIG d   1      10.530   2.799  -3.357  0.00  0.00     0.062 H 
ATOM     32  C   LIG d   1       9.376   5.920  -3.925  0.00  0.00    -0.058 A 
ATOM     33  C   LIG d   1       9.763   6.525  -2.747  0.00  0.00    -0.054 A 
ATOM     34  H   LIG d   1       8.854   6.493  -4.678  0.00  0.00     0.062 H 
ATOM     35  H   LIG d   1       9.545   7.569  -2.576  0.00  0.00     0.062 H 
BRANCH  30  36
ATOM     36  C   LIG d   1       9.220   3.927  -5.430  0.00  0.00    -0.040 C 
ATOM     37  H   LIG d   1       8.450   4.533  -5.906  0.00  0.00     0.028 H 
ATOM     38  H   LIG d   1      10.078   3.839  -6.097  0.00  0.00     0.028 H 
ATOM     39  H   LIG d   1       8.822   2.935  -5.216  0.00  0.00     0.028 H 
ENDBRANCH  30  36
ENDBRANCH   1  26
TORSDOF 2
ENDMDL
MODEL 10
REMARK VINA RESULT:      -6.5      5.168      7.917
REMARK  2 active torsions:
REMARK  status: ('A' for Active; 'I' for Inactive)
REMARK    1  A    between atoms: C_1  and  C_2 
REMARK    2  A    between atoms: C_5  and  C_8 
ROOT
ATOM      1  C   LIG d   1       3.784  -0.754  -7.081  0.00  0.00     0.028 A 
ATOM      2  C   LIG d   1       3.500   0.031  -8.144  0.00  0.00     0.101 A 
ATOM      3  O   LIG d   1       3.378  -0.720  -9.252  0.00  0.00    -0.462 OA
ATOM      4  C   LIG d   1       3.579  -2.027  -8.979  0.00  0.00     0.139 A 
ATOM      5  C   LIG d   1       3.851  -2.132  -7.603  0.00  0.00     0.029 A 
ATOM      6  C   LIG d   1       4.100  -3.372  -7.030  0.00  0.00    -0.039 A 
ATOM      7  C   LIG d   1       4.081  -4.510  -7.827  0.00  0.00     0.026 A 
ATOM      8  C   LIG d   1       4.343  -5.839  -7.240  0.00  0.00    -0.000 A 
ATOM      9  C   LIG d   1       4.616  -6.007  -5.888  0.00  0.00    -0.053 A 
ATOM     10  C   LIG d   1       4.854  -7.272  -5.392  0.00  0.00    -0.061 A 
ATOM     11  C   LIG d   1       4.822  -8.377  -6.231  0.00  0.00    -0.061 A 
ATOM     12  C   LIG d   1       4.553  -8.231  -7.576  0.00  0.00    -0.047 A 
ATOM     13  C   LIG d   1       4.311  -6.961  -8.095  0.00  0.00     0.067 A 
ATOM     14  C   LIG d   1       4.019  -6.748  -9.520  0.00  0.00     0.345 A 
ATOM     15  O   LIG d   1       3.984  -7.699 -10.278  0.00  0.00    -0.244 OA
ATOM     16  O   LIG d   1       3.789  -5.513  -9.989  0.00  0.00    -0.422 OA
ATOM     17  C   LIG d   1       3.811  -4.411  -9.203  0.00  0.00     0.143 A 
ATOM     18  C   LIG d   1       3.563  -3.169  -9.766  0.00  0.00     0.024 A 
ATOM     19  H   LIG d   1       3.383   1.104  -8.108  0.00  0.00     0.104 H 
ATOM     20  H   LIG d   1       4.307  -3.452  -5.973  0.00  0.00     0.063 H 
ATOM     21  H   LIG d   1       4.642  -5.152  -5.229  0.00  0.00     0.062 H 
ATOM     22  H   LIG d   1       5.066  -7.405  -4.342  0.00  0.00     0.062 H 
ATOM     23  H   LIG d   1       5.011  -9.360  -5.827  0.00  0.00     0.062 H 
ATOM     24  H   LIG d   1       4.531  -9.096  -8.222  0.00  0.00     0.063 H 
ATOM     25  H   LIG d   1       3.356  -3.089 -10.823  0.00  0.00     0.069 H 
ENDROOT
BRANCH   1  26
ATOM     26  C   LIG d   1       3.990  -0.319  -5.679  0.00  0.00    -0.014 A 
ATOM     27  C   LIG d   1       2.928   0.209  -4.947  0.00  0.00    -0.054 A 
ATOM     28  C   LIG d   1       3.126   0.612  -3.641  0.00  0.00    -0.058 A 
ATOM     29  H   LIG d   1       1.952   0.303  -5.400  0.00  0.00     0.062 H 
ATOM     30  C   LIG d   1       4.375   0.492  -3.060  0.00  0.00    -0.050 A 
ATOM     31  H   LIG d   1       2.303   1.021  -3.073  0.00  0.00     0.062 H 
ATOM     32  C   LIG d   1       5.432  -0.032  -3.780  0.00  0.00    -0.058 A 
ATOM     33  C   LIG d   1       5.246  -0.442  -5.085  0.00  0.00    -0.054 A 
ATOM     34  H   LIG d   1       6.406  -0.124  -3.321  0.00  0.00     0.062 H 
ATOM     35  H   LIG d   1       6.071  -0.855  -5.647  0.00  0.00     0.062 H 
BRANCH  30  36
ATOM     36  C   LIG d   1       4.584   0.932  -1.633  0.00  0.00    -0.040 C 
ATOM     37  H   LIG d   1       3.885   1.734  -1.394  0.00  0.00     0.028 H 
ATOM     38  H   LIG d   1       4.412   0.089  -0.964  0.00  0.00     0.028 H 
ATOM     39  H   LIG d   1       5.605   1.292  -1.510  0.00  0.00     0.028 H 
ENDBRANCH  30  36
ENDBRANCH   1  26
TORSDOF 2
ENDMDL
