MODEL 1
REMARK VINA RESULT:      -6.8      0.000      0.000
REMARK  4 active torsions:
REMARK  status: ('A' for Active; 'I' for Inactive)
REMARK    1  A    between atoms: C_1  and  C_2 
REMARK    2  A    between atoms: C_2  and  C_3 
REMARK    3  A    between atoms: N_23  and  C_26 
REMARK    4  A    between atoms: C_29  and  C_32 
ROOT
ATOM      1  C   LIG d   1       6.927  -4.210  -5.334  0.00  0.00     0.033 C 
ATOM      2  C   LIG d   1       8.091  -4.644  -4.457  0.00  0.00    -0.032 A 
ATOM      3  C   LIG d   1       8.455  -5.940  -4.229  0.00  0.00    -0.057 A 
ATOM      4  C   LIG d   1       9.542  -6.195  -3.403  0.00  0.00    -0.061 A 
ATOM      5  C   LIG d   1      10.241  -5.152  -2.825  0.00  0.00    -0.061 A 
ATOM      6  C   LIG d   1       9.865  -3.835  -3.062  0.00  0.00    -0.058 A 
ATOM      7  C   LIG d   1       8.795  -3.593  -3.874  0.00  0.00    -0.035 A 
ATOM      8  C   LIG d   1       8.266  -2.211  -4.225  0.00  0.00     0.022 C 
ATOM      9  C   LIG d   1       6.787  -2.248  -3.873  0.00  0.00    -0.035 A 
ATOM     10  C   LIG d   1       6.083  -3.299  -4.458  0.00  0.00    -0.032 A 
ATOM     11  C   LIG d   1       4.746  -3.455  -4.229  0.00  0.00    -0.057 A 
ATOM     12  C   LIG d   1       4.097  -2.547  -3.402  0.00  0.00    -0.061 A 
ATOM     13  C   LIG d   1       4.796  -1.504  -2.823  0.00  0.00    -0.061 A 
ATOM     14  C   LIG d   1       6.156  -1.352  -3.059  0.00  0.00    -0.058 A 
ATOM     15  C   LIG d   1       8.320  -2.129  -5.766  0.00  0.00     0.059 A 
ATOM     16  H   LIG d   1       9.352  -2.097  -6.117  0.00  0.00     0.041 H 
ATOM     17  C   LIG d   1       7.523  -3.294  -6.424  0.00  0.00     0.062 A 
ATOM     18  H   LIG d   1       8.161  -3.861  -7.102  0.00  0.00     0.041 H 
ATOM     19  C   LIG d   1       6.389  -2.620  -7.165  0.00  0.00     0.231 A 
ATOM     20  O   LIG d   1       5.531  -3.189  -7.806  0.00  0.00    -0.275 OA
ATOM     21  N   LIG d   1       6.482  -1.294  -7.000  0.00  0.00    -0.210 N 
ATOM     22  C   LIG d   1       7.558  -0.898  -6.211  0.00  0.00     0.231 A 
ATOM     23  O   LIG d   1       7.838   0.245  -5.922  0.00  0.00    -0.275 OA
ATOM     24  H   LIG d   1       7.906  -6.754  -4.682  0.00  0.00     0.062 H 
ATOM     25  H   LIG d   1       9.843  -7.214  -3.212  0.00  0.00     0.062 H 
ATOM     26  H   LIG d   1      11.085  -5.361  -2.184  0.00  0.00     0.062 H 
ATOM     27  H   LIG d   1      10.411  -3.019  -2.611  0.00  0.00     0.062 H 
ATOM     28  H   LIG d   1       8.805  -1.408  -3.722  0.00  0.00     0.041 H 
ATOM     29  H   LIG d   1       4.202  -4.270  -4.683  0.00  0.00     0.062 H 
ATOM     30  H   LIG d   1       3.040  -2.656  -3.211  0.00  0.00     0.062 H 
ATOM     31  H   LIG d   1       4.281  -0.804  -2.181  0.00  0.00     0.062 H 
ATOM     32  H   LIG d   1       6.704  -0.538  -2.607  0.00  0.00     0.062 H 
ENDROOT
BRANCH  21  33
ATOM     33  C   LIG d   1       5.571  -0.392  -7.567  0.00  0.00     0.044 A 
ATOM     34  C   LIG d   1       5.926   0.338  -8.693  0.00  0.00    -0.040 A 
ATOM     35  C   LIG d   1       5.024   1.221  -9.253  0.00  0.00    -0.057 A 
ATOM     36  H   LIG d   1       6.904   0.213  -9.134  0.00  0.00     0.064 H 
ATOM     37  C   LIG d   1       3.773   1.387  -8.687  0.00  0.00    -0.050 A 
ATOM     38  H   LIG d   1       5.297   1.787 -10.132  0.00  0.00     0.062 H 
ATOM     39  C   LIG d   1       3.419   0.665  -7.562  0.00  0.00    -0.057 A 
ATOM     40  C   LIG d   1       4.315  -0.224  -7.000  0.00  0.00    -0.040 A 
ATOM     41  H   LIG d   1       2.442   0.796  -7.122  0.00  0.00     0.062 H 
ATOM     42  H   LIG d   1       4.038  -0.788  -6.122  0.00  0.00     0.064 H 
BRANCH  37  43
ATOM     43  C   LIG d   1       2.793   2.356  -9.298  0.00  0.00    -0.040 C 
ATOM     44  H   LIG d   1       2.034   1.804  -9.852  0.00  0.00     0.028 H 
ATOM     45  H   LIG d   1       2.316   2.936  -8.507  0.00  0.00     0.028 H 
ATOM     46  H   LIG d   1       3.321   3.028  -9.975  0.00  0.00     0.028 H 
ENDBRANCH  37  43
ENDBRANCH  21  33
BRANCH   1  47
ATOM     47  C   LIG d   1       6.138  -5.389  -5.908  0.00  0.00    -0.041 C 
ATOM     48  H   LIG d   1       5.214  -5.023  -6.356  0.00  0.00     0.027 H 
ATOM     49  H   LIG d   1       5.900  -6.091  -5.109  0.00  0.00     0.027 H 
BRANCH  47  50
ATOM     50  C   LIG d   1       6.978  -6.094  -6.974  0.00  0.00    -0.064 C 
ATOM     51  H   LIG d   1       7.911  -5.550  -7.119  0.00  0.00     0.023 H 
ATOM     52  H   LIG d   1       7.198  -7.111  -6.650  0.00  0.00     0.023 H 
ATOM     53  H   LIG d   1       6.425  -6.123  -7.912  0.00  0.00     0.023 H 
ENDBRANCH  47  50
ENDBRANCH   1  47
TORSDOF 4
ENDMDL
MODEL 2
REMARK VINA RESULT:      -6.8      1.537      6.724
REMARK  4 active torsions:
REMARK  status: ('A' for Active; 'I' for Inactive)
REMARK    1  A    between atoms: C_1  and  C_2 
REMARK    2  A    between atoms: C_2  and  C_3 
REMARK    3  A    between atoms: N_23  and  C_26 
REMARK    4  A    between atoms: C_29  and  C_32 
ROOT
ATOM      1  C   LIG d   1       6.529  -0.269  -7.352  0.00  0.00     0.033 C 
ATOM      2  C   LIG d   1       5.232   0.327  -7.875  0.00  0.00    -0.032 A 
ATOM      3  C   LIG d   1       5.141   1.202  -8.920  0.00  0.00    -0.057 A 
ATOM      4  C   LIG d   1       3.887   1.670  -9.294  0.00  0.00    -0.061 A 
ATOM      5  C   LIG d   1       2.755   1.254  -8.619  0.00  0.00    -0.061 A 
ATOM      6  C   LIG d   1       2.855   0.363  -7.557  0.00  0.00    -0.058 A 
ATOM      7  C   LIG d   1       4.090  -0.091  -7.195  0.00  0.00    -0.035 A 
ATOM      8  C   LIG d   1       4.358  -1.064  -6.058  0.00  0.00     0.022 C 
ATOM      9  C   LIG d   1       5.396  -0.380  -5.182  0.00  0.00    -0.035 A 
ATOM     10  C   LIG d   1       6.539   0.038  -5.863  0.00  0.00    -0.032 A 
ATOM     11  C   LIG d   1       7.554   0.667  -5.201  0.00  0.00    -0.057 A 
ATOM     12  C   LIG d   1       7.430   0.886  -3.836  0.00  0.00    -0.061 A 
ATOM     13  C   LIG d   1       6.297   0.471  -3.161  0.00  0.00    -0.061 A 
ATOM     14  C   LIG d   1       5.268  -0.168  -3.839  0.00  0.00    -0.058 A 
ATOM     15  C   LIG d   1       5.090  -2.261  -6.703  0.00  0.00     0.059 A 
ATOM     16  H   LIG d   1       4.419  -2.820  -7.356  0.00  0.00     0.041 H 
ATOM     17  C   LIG d   1       6.375  -1.802  -7.455  0.00  0.00     0.062 A 
ATOM     18  H   LIG d   1       6.346  -2.120  -8.497  0.00  0.00     0.041 H 
ATOM     19  C   LIG d   1       7.517  -2.455  -6.708  0.00  0.00     0.231 A 
ATOM     20  O   LIG d   1       8.693  -2.336  -6.980  0.00  0.00    -0.275 OA
ATOM     21  N   LIG d   1       7.023  -3.184  -5.700  0.00  0.00    -0.210 N 
ATOM     22  C   LIG d   1       5.636  -3.145  -5.602  0.00  0.00     0.231 A 
ATOM     23  O   LIG d   1       4.971  -3.721  -4.769  0.00  0.00    -0.275 OA
ATOM     24  H   LIG d   1       6.027   1.526  -9.446  0.00  0.00     0.062 H 
ATOM     25  H   LIG d   1       3.798   2.363 -10.118  0.00  0.00     0.062 H 
ATOM     26  H   LIG d   1       1.786   1.625  -8.918  0.00  0.00     0.062 H 
ATOM     27  H   LIG d   1       1.971   0.037  -7.029  0.00  0.00     0.062 H 
ATOM     28  H   LIG d   1       3.456  -1.342  -5.512  0.00  0.00     0.041 H 
ATOM     29  H   LIG d   1       8.438   0.990  -5.732  0.00  0.00     0.062 H 
ATOM     30  H   LIG d   1       8.224   1.383  -3.298  0.00  0.00     0.062 H 
ATOM     31  H   LIG d   1       6.212   0.647  -2.098  0.00  0.00     0.062 H 
ATOM     32  H   LIG d   1       4.382  -0.493  -3.314  0.00  0.00     0.062 H 
ENDROOT
BRANCH  21  33
ATOM     33  C   LIG d   1       7.836  -3.913  -4.820  0.00  0.00     0.044 A 
ATOM     34  C   LIG d   1       8.074  -5.261  -5.050  0.00  0.00    -0.040 A 
ATOM     35  C   LIG d   1       8.880  -5.975  -4.185  0.00  0.00    -0.057 A 
ATOM     36  H   LIG d   1       7.633  -5.751  -5.905  0.00  0.00     0.064 H 
ATOM     37  C   LIG d   1       9.442  -5.351  -3.085  0.00  0.00    -0.050 A 
ATOM     38  H   LIG d   1       9.070  -7.023  -4.365  0.00  0.00     0.062 H 
ATOM     39  C   LIG d   1       9.202  -4.009  -2.852  0.00  0.00    -0.057 A 
ATOM     40  C   LIG d   1       8.401  -3.289  -3.716  0.00  0.00    -0.040 A 
ATOM     41  H   LIG d   1       9.641  -3.525  -1.993  0.00  0.00     0.062 H 
ATOM     42  H   LIG d   1       8.214  -2.241  -3.533  0.00  0.00     0.064 H 
BRANCH  37  43
ATOM     43  C   LIG d   1      10.317  -6.135  -2.141  0.00  0.00    -0.040 C 
ATOM     44  H   LIG d   1      10.084  -7.196  -2.226  0.00  0.00     0.028 H 
ATOM     45  H   LIG d   1      11.364  -5.970  -2.395  0.00  0.00     0.028 H 
ATOM     46  H   LIG d   1      10.134  -5.804  -1.118  0.00  0.00     0.028 H 
ENDBRANCH  37  43
ENDBRANCH  21  33
BRANCH   1  47
ATOM     47  C   LIG d   1       7.767   0.259  -8.080  0.00  0.00    -0.041 C 
ATOM     48  H   LIG d   1       8.663  -0.032  -7.531  0.00  0.00     0.027 H 
ATOM     49  H   LIG d   1       7.717   1.346  -8.143  0.00  0.00     0.027 H 
BRANCH  47  50
ATOM     50  C   LIG d   1       7.819  -0.331  -9.491  0.00  0.00    -0.064 C 
ATOM     51  H   LIG d   1       7.296  -1.287  -9.503  0.00  0.00     0.023 H 
ATOM     52  H   LIG d   1       7.339   0.354 -10.189  0.00  0.00     0.023 H 
ATOM     53  H   LIG d   1       8.857  -0.480  -9.784  0.00  0.00     0.023 H 
ENDBRANCH  47  50
ENDBRANCH   1  47
TORSDOF 4
ENDMDL
MODEL 3
REMARK VINA RESULT:      -6.5      2.605      4.455
REMARK  4 active torsions:
REMARK  status: ('A' for Active; 'I' for Inactive)
REMARK    1  A    between atoms: C_1  and  C_2 
REMARK    2  A    between atoms: C_2  and  C_3 
REMARK    3  A    between atoms: N_23  and  C_26 
REMARK    4  A    between atoms: C_29  and  C_32 
ROOT
ATOM      1  C   LIG d   1       4.957  -1.902  -6.655  0.00  0.00     0.033 C 
ATOM      2  C   LIG d   1       4.819  -3.417  -6.635  0.00  0.00    -0.032 A 
ATOM      3  C   LIG d   1       3.888  -4.124  -7.341  0.00  0.00    -0.057 A 
ATOM      4  C   LIG d   1       3.875  -5.509  -7.230  0.00  0.00    -0.061 A 
ATOM      5  C   LIG d   1       4.789  -6.156  -6.420  0.00  0.00    -0.061 A 
ATOM      6  C   LIG d   1       5.734  -5.429  -5.706  0.00  0.00    -0.058 A 
ATOM      7  C   LIG d   1       5.741  -4.068  -5.819  0.00  0.00    -0.035 A 
ATOM      8  C   LIG d   1       6.709  -3.142  -5.101  0.00  0.00     0.022 C 
ATOM      9  C   LIG d   1       5.834  -2.131  -4.378  0.00  0.00    -0.035 A 
ATOM     10  C   LIG d   1       4.913  -1.478  -5.195  0.00  0.00    -0.032 A 
ATOM     11  C   LIG d   1       4.061  -0.543  -4.679  0.00  0.00    -0.057 A 
ATOM     12  C   LIG d   1       4.127  -0.253  -3.323  0.00  0.00    -0.061 A 
ATOM     13  C   LIG d   1       5.042  -0.900  -2.512  0.00  0.00    -0.061 A 
ATOM     14  C   LIG d   1       5.905  -1.850  -3.043  0.00  0.00    -0.058 A 
ATOM     15  C   LIG d   1       7.421  -2.346  -6.216  0.00  0.00     0.059 A 
ATOM     16  H   LIG d   1       8.079  -2.993  -6.795  0.00  0.00     0.041 H 
ATOM     17  C   LIG d   1       6.397  -1.604  -7.125  0.00  0.00     0.062 A 
ATOM     18  H   LIG d   1       6.531  -1.889  -8.169  0.00  0.00     0.041 H 
ATOM     19  C   LIG d   1       6.681  -0.133  -6.912  0.00  0.00     0.231 A 
ATOM     20  O   LIG d   1       6.086   0.782  -7.441  0.00  0.00    -0.275 OA
ATOM     21  N   LIG d   1       7.694  -0.002  -6.047  0.00  0.00    -0.210 N 
ATOM     22  C   LIG d   1       8.198  -1.212  -5.581  0.00  0.00     0.231 A 
ATOM     23  O   LIG d   1       9.108  -1.340  -4.791  0.00  0.00    -0.275 OA
ATOM     24  H   LIG d   1       3.174  -3.616  -7.973  0.00  0.00     0.062 H 
ATOM     25  H   LIG d   1       3.145  -6.084  -7.781  0.00  0.00     0.062 H 
ATOM     26  H   LIG d   1       4.770  -7.232  -6.341  0.00  0.00     0.062 H 
ATOM     27  H   LIG d   1       6.450  -5.932  -5.072  0.00  0.00     0.062 H 
ATOM     28  H   LIG d   1       7.390  -3.670  -4.434  0.00  0.00     0.041 H 
ATOM     29  H   LIG d   1       3.348  -0.039  -5.315  0.00  0.00     0.062 H 
ATOM     30  H   LIG d   1       3.461   0.484  -2.899  0.00  0.00     0.062 H 
ATOM     31  H   LIG d   1       5.084  -0.665  -1.459  0.00  0.00     0.062 H 
ATOM     32  H   LIG d   1       6.619  -2.357  -2.412  0.00  0.00     0.062 H 
ENDROOT
BRANCH  21  33
ATOM     33  C   LIG d   1       8.193   1.245  -5.645  0.00  0.00     0.044 A 
ATOM     34  C   LIG d   1       7.892   1.740  -4.383  0.00  0.00    -0.040 A 
ATOM     35  C   LIG d   1       8.390   2.966  -3.987  0.00  0.00    -0.057 A 
ATOM     36  H   LIG d   1       7.273   1.166  -3.710  0.00  0.00     0.064 H 
ATOM     37  C   LIG d   1       9.179   3.705  -4.850  0.00  0.00    -0.050 A 
ATOM     38  H   LIG d   1       8.161   3.350  -3.004  0.00  0.00     0.062 H 
ATOM     39  C   LIG d   1       9.476   3.217  -6.109  0.00  0.00    -0.057 A 
ATOM     40  C   LIG d   1       8.985   1.989  -6.509  0.00  0.00    -0.040 A 
ATOM     41  H   LIG d   1      10.092   3.796  -6.781  0.00  0.00     0.062 H 
ATOM     42  H   LIG d   1       9.218   1.608  -7.492  0.00  0.00     0.064 H 
BRANCH  37  43
ATOM     43  C   LIG d   1       9.716   5.045  -4.417  0.00  0.00    -0.040 C 
ATOM     44  H   LIG d   1      10.770   5.118  -4.685  0.00  0.00     0.028 H 
ATOM     45  H   LIG d   1       9.159   5.838  -4.916  0.00  0.00     0.028 H 
ATOM     46  H   LIG d   1       9.609   5.147  -3.337  0.00  0.00     0.028 H 
ENDBRANCH  37  43
ENDBRANCH  21  33
BRANCH   1  47
ATOM     47  C   LIG d   1       3.891  -1.215  -7.511  0.00  0.00    -0.041 C 
ATOM     48  H   LIG d   1       3.913  -0.141  -7.324  0.00  0.00     0.027 H 
ATOM     49  H   LIG d   1       2.908  -1.609  -7.254  0.00  0.00     0.027 H 
BRANCH  47  50
ATOM     50  C   LIG d   1       4.177  -1.482  -8.990  0.00  0.00    -0.064 C 
ATOM     51  H   LIG d   1       5.215  -1.792  -9.109  0.00  0.00     0.023 H 
ATOM     52  H   LIG d   1       3.518  -2.273  -9.350  0.00  0.00     0.023 H 
ATOM     53  H   LIG d   1       4.000  -0.573  -9.564  0.00  0.00     0.023 H 
ENDBRANCH  47  50
ENDBRANCH   1  47
TORSDOF 4
ENDMDL
MODEL 4
REMARK VINA RESULT:      -6.4      3.097      5.727
REMARK  4 active torsions:
REMARK  status: ('A' for Active; 'I' for Inactive)
REMARK    1  A    between atoms: C_1  and  C_2 
REMARK    2  A    between atoms: C_2  and  C_3 
REMARK    3  A    between atoms: N_23  and  C_26 
REMARK    4  A    between atoms: C_29  and  C_32 
ROOT
ATOM      1  C   LIG d   1       3.913  -0.697  -8.283  0.00  0.00     0.033 C 
ATOM      2  C   LIG d   1       3.421  -2.049  -8.774  0.00  0.00    -0.032 A 
ATOM      3  C   LIG d   1       2.443  -2.231  -9.709  0.00  0.00    -0.057 A 
ATOM      4  C   LIG d   1       2.090  -3.526 -10.067  0.00  0.00    -0.061 A 
ATOM      5  C   LIG d   1       2.722  -4.609  -9.486  0.00  0.00    -0.061 A 
ATOM      6  C   LIG d   1       3.718  -4.417  -8.535  0.00  0.00    -0.058 A 
ATOM      7  C   LIG d   1       4.058  -3.141  -8.188  0.00  0.00    -0.035 A 
ATOM      8  C   LIG d   1       5.123  -2.774  -7.167  0.00  0.00     0.022 C 
ATOM      9  C   LIG d   1       4.429  -1.847  -6.181  0.00  0.00    -0.035 A 
ATOM     10  C   LIG d   1       3.793  -0.754  -6.768  0.00  0.00    -0.032 A 
ATOM     11  C   LIG d   1       3.130   0.161  -6.002  0.00  0.00    -0.057 A 
ATOM     12  C   LIG d   1       3.098  -0.015  -4.625  0.00  0.00    -0.061 A 
ATOM     13  C   LIG d   1       3.729  -1.099  -4.043  0.00  0.00    -0.061 A 
ATOM     14  C   LIG d   1       4.402  -2.026  -4.828  0.00  0.00    -0.058 A 
ATOM     15  C   LIG d   1       6.132  -1.885  -7.926  0.00  0.00     0.059 A 
ATOM     16  H   LIG d   1       6.684  -2.467  -8.663  0.00  0.00     0.041 H 
ATOM     17  C   LIG d   1       5.429  -0.655  -8.573  0.00  0.00     0.062 A 
ATOM     18  H   LIG d   1       5.617  -0.624  -9.647  0.00  0.00     0.041 H 
ATOM     19  C   LIG d   1       6.023   0.547  -7.872  0.00  0.00     0.231 A 
ATOM     20  O   LIG d   1       5.729   1.704  -8.087  0.00  0.00    -0.275 OA
ATOM     21  N   LIG d   1       6.926   0.131  -6.976  0.00  0.00    -0.210 N 
ATOM     22  C   LIG d   1       7.071  -1.252  -6.921  0.00  0.00     0.231 A 
ATOM     23  O   LIG d   1       7.822  -1.855  -6.186  0.00  0.00    -0.275 OA
ATOM     24  H   LIG d   1       1.950  -1.382 -10.162  0.00  0.00     0.062 H 
ATOM     25  H   LIG d   1       1.318  -3.687 -10.804  0.00  0.00     0.062 H 
ATOM     26  H   LIG d   1       2.440  -5.612  -9.770  0.00  0.00     0.062 H 
ATOM     27  H   LIG d   1       4.213  -5.262  -8.080  0.00  0.00     0.062 H 
ATOM     28  H   LIG d   1       5.575  -3.643  -6.690  0.00  0.00     0.041 H 
ATOM     29  H   LIG d   1       2.638   1.007  -6.460  0.00  0.00     0.062 H 
ATOM     30  H   LIG d   1       2.577   0.700  -4.005  0.00  0.00     0.062 H 
ATOM     31  H   LIG d   1       3.697  -1.225  -2.971  0.00  0.00     0.062 H 
ATOM     32  H   LIG d   1       4.895  -2.874  -4.375  0.00  0.00     0.062 H 
ENDROOT
BRANCH  21  33
ATOM     33  C   LIG d   1       7.652   1.013  -6.163  0.00  0.00     0.044 A 
ATOM     34  C   LIG d   1       8.686   1.765  -6.703  0.00  0.00    -0.040 A 
ATOM     35  C   LIG d   1       9.396   2.637  -5.901  0.00  0.00    -0.057 A 
ATOM     36  H   LIG d   1       8.934   1.671  -7.750  0.00  0.00     0.064 H 
ATOM     37  C   LIG d   1       9.084   2.754  -4.559  0.00  0.00    -0.050 A 
ATOM     38  H   LIG d   1      10.198   3.226  -6.322  0.00  0.00     0.062 H 
ATOM     39  C   LIG d   1       8.057   2.003  -4.017  0.00  0.00    -0.057 A 
ATOM     40  C   LIG d   1       7.341   1.132  -4.815  0.00  0.00    -0.040 A 
ATOM     41  H   LIG d   1       7.816   2.096  -2.969  0.00  0.00     0.062 H 
ATOM     42  H   LIG d   1       6.539   0.546  -4.391  0.00  0.00     0.064 H 
BRANCH  37  43
ATOM     43  C   LIG d   1       9.864   3.703  -3.685  0.00  0.00    -0.040 C 
ATOM     44  H   LIG d   1       9.538   4.725  -3.879  0.00  0.00     0.028 H 
ATOM     45  H   LIG d   1       9.689   3.459  -2.638  0.00  0.00     0.028 H 
ATOM     46  H   LIG d   1      10.927   3.612  -3.909  0.00  0.00     0.028 H 
ENDBRANCH  37  43
ENDBRANCH  21  33
BRANCH   1  47
ATOM     47  C   LIG d   1       3.151   0.478  -8.900  0.00  0.00    -0.041 C 
ATOM     48  H   LIG d   1       3.395   1.393  -8.359  0.00  0.00     0.027 H 
ATOM     49  H   LIG d   1       2.079   0.291  -8.834  0.00  0.00     0.027 H 
BRANCH  47  50
ATOM     50  C   LIG d   1       3.553   0.630 -10.368  0.00  0.00    -0.064 C 
ATOM     51  H   LIG d   1       4.348   1.370 -10.452  0.00  0.00     0.023 H 
ATOM     52  H   LIG d   1       3.907  -0.328 -10.749  0.00  0.00     0.023 H 
ATOM     53  H   LIG d   1       2.690   0.956 -10.949  0.00  0.00     0.023 H 
ENDBRANCH  47  50
ENDBRANCH   1  47
TORSDOF 4
ENDMDL
MODEL 5
REMARK VINA RESULT:      -6.4      2.499      4.799
REMARK  4 active torsions:
REMARK  status: ('A' for Active; 'I' for Inactive)
REMARK    1  A    between atoms: C_1  and  C_2 
REMARK    2  A    between atoms: C_2  and  C_3 
REMARK    3  A    between atoms: N_23  and  C_26 
REMARK    4  A    between atoms: C_29  and  C_32 
ROOT
ATOM      1  C   LIG d   1       5.527  -2.474  -5.855  0.00  0.00     0.033 C 
ATOM      2  C   LIG d   1       4.711  -1.997  -4.664  0.00  0.00    -0.032 A 
ATOM      3  C   LIG d   1       4.563  -2.685  -3.494  0.00  0.00    -0.057 A 
ATOM      4  C   LIG d   1       3.785  -2.131  -2.485  0.00  0.00    -0.061 A 
ATOM      5  C   LIG d   1       3.175  -0.904  -2.665  0.00  0.00    -0.061 A 
ATOM      6  C   LIG d   1       3.330  -0.209  -3.859  0.00  0.00    -0.058 A 
ATOM      7  C   LIG d   1       4.095  -0.760  -4.846  0.00  0.00    -0.035 A 
ATOM      8  C   LIG d   1       4.356  -0.122  -6.201  0.00  0.00     0.022 C 
ATOM      9  C   LIG d   1       3.961  -1.177  -7.223  0.00  0.00    -0.035 A 
ATOM     10  C   LIG d   1       4.578  -2.414  -7.041  0.00  0.00    -0.032 A 
ATOM     11  C   LIG d   1       4.317  -3.455  -7.885  0.00  0.00    -0.057 A 
ATOM     12  C   LIG d   1       3.424  -3.262  -8.930  0.00  0.00    -0.061 A 
ATOM     13  C   LIG d   1       2.812  -2.035  -9.111  0.00  0.00    -0.061 A 
ATOM     14  C   LIG d   1       3.082  -0.980  -8.248  0.00  0.00    -0.058 A 
ATOM     15  C   LIG d   1       5.891   0.001  -6.310  0.00  0.00     0.059 A 
ATOM     16  H   LIG d   1       6.272   0.743  -5.608  0.00  0.00     0.041 H 
ATOM     17  C   LIG d   1       6.586  -1.381  -6.120  0.00  0.00     0.062 A 
ATOM     18  H   LIG d   1       7.312  -1.339  -5.309  0.00  0.00     0.041 H 
ATOM     19  C   LIG d   1       7.254  -1.666  -7.448  0.00  0.00     0.231 A 
ATOM     20  O   LIG d   1       7.897  -2.660  -7.711  0.00  0.00    -0.275 OA
ATOM     21  N   LIG d   1       7.022  -0.647  -8.284  0.00  0.00    -0.210 N 
ATOM     22  C   LIG d   1       6.248   0.370  -7.734  0.00  0.00     0.231 A 
ATOM     23  O   LIG d   1       5.907   1.384  -8.303  0.00  0.00    -0.275 OA
ATOM     24  H   LIG d   1       5.041  -3.644  -3.355  0.00  0.00     0.062 H 
ATOM     25  H   LIG d   1       3.657  -2.662  -1.553  0.00  0.00     0.062 H 
ATOM     26  H   LIG d   1       2.572  -0.483  -1.875  0.00  0.00     0.062 H 
ATOM     27  H   LIG d   1       2.854   0.750  -4.002  0.00  0.00     0.062 H 
ATOM     28  H   LIG d   1       3.828   0.822  -6.337  0.00  0.00     0.041 H 
ATOM     29  H   LIG d   1       4.796  -4.412  -7.742  0.00  0.00     0.062 H 
ATOM     30  H   LIG d   1       3.206  -4.074  -9.607  0.00  0.00     0.062 H 
ATOM     31  H   LIG d   1       2.119  -1.896  -9.928  0.00  0.00     0.062 H 
ATOM     32  H   LIG d   1       2.605  -0.021  -8.387  0.00  0.00     0.062 H 
ENDROOT
BRANCH  21  33
ATOM     33  C   LIG d   1       7.512  -0.616  -9.597  0.00  0.00     0.044 A 
ATOM     34  C   LIG d   1       8.753  -0.052  -9.863  0.00  0.00    -0.040 A 
ATOM     35  C   LIG d   1       9.236  -0.028 -11.157  0.00  0.00    -0.057 A 
ATOM     36  H   LIG d   1       9.342   0.364  -9.059  0.00  0.00     0.064 H 
ATOM     37  C   LIG d   1       8.481  -0.556 -12.189  0.00  0.00    -0.050 A 
ATOM     38  H   LIG d   1      10.203   0.406 -11.364  0.00  0.00     0.062 H 
ATOM     39  C   LIG d   1       7.242  -1.114 -11.927  0.00  0.00    -0.057 A 
ATOM     40  C   LIG d   1       6.756  -1.145 -10.634  0.00  0.00    -0.040 A 
ATOM     41  H   LIG d   1       6.655  -1.525 -12.734  0.00  0.00     0.062 H 
ATOM     42  H   LIG d   1       5.790  -1.581 -10.431  0.00  0.00     0.064 H 
BRANCH  37  43
ATOM     43  C   LIG d   1       9.009  -0.523 -13.600  0.00  0.00    -0.040 C 
ATOM     44  H   LIG d   1       9.951   0.023 -13.623  0.00  0.00     0.028 H 
ATOM     45  H   LIG d   1       9.171  -1.543 -13.950  0.00  0.00     0.028 H 
ATOM     46  H   LIG d   1       8.285  -0.027 -14.247  0.00  0.00     0.028 H 
ENDBRANCH  37  43
ENDBRANCH  21  33
BRANCH   1  47
ATOM     47  C   LIG d   1       6.138  -3.861  -5.645  0.00  0.00    -0.041 C 
ATOM     48  H   LIG d   1       6.499  -4.246  -6.599  0.00  0.00     0.027 H 
ATOM     49  H   LIG d   1       5.380  -4.535  -5.245  0.00  0.00     0.027 H 
BRANCH  47  50
ATOM     50  C   LIG d   1       7.304  -3.761  -4.660  0.00  0.00    -0.064 C 
ATOM     51  H   LIG d   1       7.111  -4.407  -3.803  0.00  0.00     0.023 H 
ATOM     52  H   LIG d   1       8.224  -4.077  -5.152  0.00  0.00     0.023 H 
ATOM     53  H   LIG d   1       7.407  -2.730  -4.323  0.00  0.00     0.023 H 
ENDBRANCH  47  50
ENDBRANCH   1  47
TORSDOF 4
ENDMDL
MODEL 6
REMARK VINA RESULT:      -6.3     10.266     12.229
REMARK  4 active torsions:
REMARK  status: ('A' for Active; 'I' for Inactive)
REMARK    1  A    between atoms: C_1  and  C_2 
REMARK    2  A    between atoms: C_2  and  C_3 
REMARK    3  A    between atoms: N_23  and  C_26 
REMARK    4  A    between atoms: C_29  and  C_32 
ROOT
ATOM      1  C   LIG d   1      11.580   8.383  -0.325  0.00  0.00     0.033 C 
ATOM      2  C   LIG d   1      11.402   7.698   1.021  0.00  0.00    -0.032 A 
ATOM      3  C   LIG d   1      11.542   8.312   2.233  0.00  0.00    -0.057 A 
ATOM      4  C   LIG d   1      11.350   7.565   3.389  0.00  0.00    -0.061 A 
ATOM      5  C   LIG d   1      11.021   6.225   3.309  0.00  0.00    -0.061 A 
ATOM      6  C   LIG d   1      10.878   5.607   2.072  0.00  0.00    -0.058 A 
ATOM      7  C   LIG d   1      11.070   6.347   0.941  0.00  0.00    -0.035 A 
ATOM      8  C   LIG d   1      10.951   5.813  -0.477  0.00  0.00     0.022 C 
ATOM      9  C   LIG d   1      12.262   6.179  -1.154  0.00  0.00    -0.035 A 
ATOM     10  C   LIG d   1      12.593   7.531  -1.075  0.00  0.00    -0.032 A 
ATOM     11  C   LIG d   1      13.744   8.002  -1.639  0.00  0.00    -0.057 A 
ATOM     12  C   LIG d   1      14.582   7.111  -2.295  0.00  0.00    -0.061 A 
ATOM     13  C   LIG d   1      14.253   5.770  -2.374  0.00  0.00    -0.061 A 
ATOM     14  C   LIG d   1      13.082   5.297  -1.798  0.00  0.00    -0.058 A 
ATOM     15  C   LIG d   1       9.877   6.690  -1.159  0.00  0.00     0.059 A 
ATOM     16  H   LIG d   1       8.892   6.495  -0.736  0.00  0.00     0.041 H 
ATOM     17  C   LIG d   1      10.249   8.201  -1.084  0.00  0.00     0.062 A 
ATOM     18  H   LIG d   1       9.450   8.770  -0.609  0.00  0.00     0.041 H 
ATOM     19  C   LIG d   1      10.450   8.624  -2.523  0.00  0.00     0.231 A 
ATOM     20  O   LIG d   1      10.759   9.737  -2.892  0.00  0.00    -0.275 OA
ATOM     21  N   LIG d   1      10.231   7.574  -3.325  0.00  0.00    -0.210 N 
ATOM     22  C   LIG d   1       9.894   6.407  -2.646  0.00  0.00     0.231 A 
ATOM     23  O   LIG d   1       9.658   5.335  -3.160  0.00  0.00    -0.275 OA
ATOM     24  H   LIG d   1      11.800   9.360   2.293  0.00  0.00     0.062 H 
ATOM     25  H   LIG d   1      11.458   8.035   4.355  0.00  0.00     0.062 H 
ATOM     26  H   LIG d   1      10.874   5.654   4.213  0.00  0.00     0.062 H 
ATOM     27  H   LIG d   1      10.621   4.560   2.008  0.00  0.00     0.062 H 
ATOM     28  H   LIG d   1      10.735   4.745  -0.514  0.00  0.00     0.041 H 
ATOM     29  H   LIG d   1      13.997   9.050  -1.576  0.00  0.00     0.062 H 
ATOM     30  H   LIG d   1      15.496   7.467  -2.747  0.00  0.00     0.062 H 
ATOM     31  H   LIG d   1      14.913   5.086  -2.888  0.00  0.00     0.062 H 
ATOM     32  H   LIG d   1      12.823   4.250  -1.858  0.00  0.00     0.062 H 
ENDROOT
BRANCH  21  33
ATOM     33  C   LIG d   1      10.340   7.648  -4.720  0.00  0.00     0.044 A 
ATOM     34  C   LIG d   1      11.558   7.397  -5.337  0.00  0.00    -0.040 A 
ATOM     35  C   LIG d   1      11.661   7.465  -6.712  0.00  0.00    -0.057 A 
ATOM     36  H   LIG d   1      12.424   7.145  -4.742  0.00  0.00     0.064 H 
ATOM     37  C   LIG d   1      10.555   7.792  -7.475  0.00  0.00    -0.050 A 
ATOM     38  H   LIG d   1      12.608   7.265  -7.193  0.00  0.00     0.062 H 
ATOM     39  C   LIG d   1       9.341   8.047  -6.863  0.00  0.00    -0.057 A 
ATOM     40  C   LIG d   1       9.231   7.976  -5.488  0.00  0.00    -0.040 A 
ATOM     41  H   LIG d   1       8.479   8.303  -7.461  0.00  0.00     0.062 H 
ATOM     42  H   LIG d   1       8.282   8.175  -5.011  0.00  0.00     0.064 H 
BRANCH  37  43
ATOM     43  C   LIG d   1      10.672   7.871  -8.976  0.00  0.00    -0.040 C 
ATOM     44  H   LIG d   1      10.303   8.837  -9.319  0.00  0.00     0.028 H 
ATOM     45  H   LIG d   1      11.717   7.757  -9.264  0.00  0.00     0.028 H 
ATOM     46  H   LIG d   1      10.081   7.074  -9.428  0.00  0.00     0.028 H 
ENDBRANCH  37  43
ENDBRANCH  21  33
BRANCH   1  47
ATOM     47  C   LIG d   1      12.005   9.847  -0.200  0.00  0.00    -0.041 C 
ATOM     48  H   LIG d   1      12.305  10.223  -1.179  0.00  0.00     0.027 H 
ATOM     49  H   LIG d   1      12.843   9.926   0.491  0.00  0.00     0.027 H 
BRANCH  47  50
ATOM     50  C   LIG d   1      10.830  10.675   0.326  0.00  0.00    -0.064 C 
ATOM     51  H   LIG d   1       9.893  10.224  -0.001  0.00  0.00     0.023 H 
ATOM     52  H   LIG d   1      10.861  10.697   1.415  0.00  0.00     0.023 H 
ATOM     53  H   LIG d   1      10.900  11.691  -0.061  0.00  0.00     0.023 H 
ENDBRANCH  47  50
ENDBRANCH   1  47
TORSDOF 4
ENDMDL
MODEL 7
REMARK VINA RESULT:      -6.3      2.430      5.303
REMARK  4 active torsions:
REMARK  status: ('A' for Active; 'I' for Inactive)
REMARK    1  A    between atoms: C_1  and  C_2 
REMARK    2  A    between atoms: C_2  and  C_3 
REMARK    3  A    between atoms: N_23  and  C_26 
REMARK    4  A    between atoms: C_29  and  C_32 
ROOT
ATOM      1  C   LIG d   1       6.460  -0.553  -5.077  0.00  0.00     0.033 C 
ATOM      2  C   LIG d   1       5.472  -0.084  -4.021  0.00  0.00    -0.032 A 
ATOM      3  C   LIG d   1       5.793   0.682  -2.938  0.00  0.00    -0.057 A 
ATOM      4  C   LIG d   1       4.787   1.040  -2.048  0.00  0.00    -0.061 A 
ATOM      5  C   LIG d   1       3.486   0.626  -2.261  0.00  0.00    -0.061 A 
ATOM      6  C   LIG d   1       3.166  -0.153  -3.366  0.00  0.00    -0.058 A 
ATOM      7  C   LIG d   1       4.160  -0.502  -4.235  0.00  0.00    -0.035 A 
ATOM      8  C   LIG d   1       3.965  -1.347  -5.483  0.00  0.00     0.022 C 
ATOM      9  C   LIG d   1       4.972  -2.480  -5.360  0.00  0.00    -0.035 A 
ATOM     10  C   LIG d   1       6.285  -2.062  -5.147  0.00  0.00    -0.032 A 
ATOM     11  C   LIG d   1       7.295  -2.972  -5.017  0.00  0.00    -0.057 A 
ATOM     12  C   LIG d   1       6.992  -4.325  -5.101  0.00  0.00    -0.061 A 
ATOM     13  C   LIG d   1       5.690  -4.739  -5.312  0.00  0.00    -0.061 A 
ATOM     14  C   LIG d   1       4.668  -3.808  -5.443  0.00  0.00    -0.058 A 
ATOM     15  C   LIG d   1       4.469  -0.476  -6.654  0.00  0.00     0.059 A 
ATOM     16  H   LIG d   1       3.803   0.371  -6.821  0.00  0.00     0.041 H 
ATOM     17  C   LIG d   1       5.940  -0.016  -6.428  0.00  0.00     0.062 A 
ATOM     18  H   LIG d   1       6.014   1.070  -6.468  0.00  0.00     0.041 H 
ATOM     19  C   LIG d   1       6.727  -0.668  -7.544  0.00  0.00     0.231 A 
ATOM     20  O   LIG d   1       7.923  -0.562  -7.715  0.00  0.00    -0.275 OA
ATOM     21  N   LIG d   1       5.893  -1.379  -8.313  0.00  0.00    -0.210 N 
ATOM     22  C   LIG d   1       4.567  -1.340  -7.893  0.00  0.00     0.231 A 
ATOM     23  O   LIG d   1       3.641  -1.909  -8.428  0.00  0.00    -0.275 OA
ATOM     24  H   LIG d   1       6.812   1.004  -2.773  0.00  0.00     0.062 H 
ATOM     25  H   LIG d   1       5.024   1.645  -1.186  0.00  0.00     0.062 H 
ATOM     26  H   LIG d   1       2.712   0.909  -1.563  0.00  0.00     0.062 H 
ATOM     27  H   LIG d   1       2.149  -0.477  -3.534  0.00  0.00     0.062 H 
ATOM     28  H   LIG d   1       2.941  -1.699  -5.605  0.00  0.00     0.041 H 
ATOM     29  H   LIG d   1       8.311  -2.645  -4.853  0.00  0.00     0.062 H 
ATOM     30  H   LIG d   1       7.779  -5.058  -5.000  0.00  0.00     0.062 H 
ATOM     31  H   LIG d   1       5.467  -5.794  -5.375  0.00  0.00     0.062 H 
ATOM     32  H   LIG d   1       3.650  -4.130  -5.608  0.00  0.00     0.062 H 
ENDROOT
BRANCH  21  33
ATOM     33  C   LIG d   1       6.324  -2.102  -9.434  0.00  0.00     0.044 A 
ATOM     34  C   LIG d   1       6.730  -3.423  -9.295  0.00  0.00    -0.040 A 
ATOM     35  C   LIG d   1       7.148  -4.134 -10.402  0.00  0.00    -0.057 A 
ATOM     36  H   LIG d   1       6.714  -3.894  -8.324  0.00  0.00     0.064 H 
ATOM     37  C   LIG d   1       7.174  -3.530 -11.647  0.00  0.00    -0.050 A 
ATOM     38  H   LIG d   1       7.459  -5.163 -10.297  0.00  0.00     0.062 H 
ATOM     39  C   LIG d   1       6.775  -2.213 -11.786  0.00  0.00    -0.057 A 
ATOM     40  C   LIG d   1       6.350  -1.498 -10.683  0.00  0.00    -0.040 A 
ATOM     41  H   LIG d   1       6.796  -1.744 -12.758  0.00  0.00     0.062 H 
ATOM     42  H   LIG d   1       6.039  -0.470 -10.793  0.00  0.00     0.064 H 
BRANCH  37  43
ATOM     43  C   LIG d   1       7.636  -4.308 -12.852  0.00  0.00    -0.040 C 
ATOM     44  H   LIG d   1       6.769  -4.662 -13.410  0.00  0.00     0.028 H 
ATOM     45  H   LIG d   1       8.241  -3.664 -13.489  0.00  0.00     0.028 H 
ATOM     46  H   LIG d   1       8.231  -5.161 -12.526  0.00  0.00     0.028 H 
ENDBRANCH  37  43
ENDBRANCH  21  33
BRANCH   1  47
ATOM     47  C   LIG d   1       7.900  -0.131  -4.779  0.00  0.00    -0.041 C 
ATOM     48  H   LIG d   1       8.580  -0.658  -5.449  0.00  0.00     0.027 H 
ATOM     49  H   LIG d   1       8.146  -0.377  -3.746  0.00  0.00     0.027 H 
BRANCH  47  50
ATOM     50  C   LIG d   1       8.043   1.378  -4.992  0.00  0.00    -0.064 C 
ATOM     51  H   LIG d   1       7.170   1.752  -5.527  0.00  0.00     0.023 H 
ATOM     52  H   LIG d   1       8.117   1.876  -4.025  0.00  0.00     0.023 H 
ATOM     53  H   LIG d   1       8.941   1.579  -5.574  0.00  0.00     0.023 H 
ENDBRANCH  47  50
ENDBRANCH   1  47
TORSDOF 4
ENDMDL
MODEL 8
REMARK VINA RESULT:      -6.1     10.175     11.951
REMARK  4 active torsions:
REMARK  status: ('A' for Active; 'I' for Inactive)
REMARK    1  A    between atoms: C_1  and  C_2 
REMARK    2  A    between atoms: C_2  and  C_3 
REMARK    3  A    between atoms: N_23  and  C_26 
REMARK    4  A    between atoms: C_29  and  C_32 
ROOT
ATOM      1  C   LIG d   1      12.179   5.851  -2.949  0.00  0.00     0.033 C 
ATOM      2  C   LIG d   1      11.669   4.450  -3.247  0.00  0.00    -0.032 A 
ATOM      3  C   LIG d   1      12.461   3.379  -3.547  0.00  0.00    -0.057 A 
ATOM      4  C   LIG d   1      11.861   2.151  -3.799  0.00  0.00    -0.061 A 
ATOM      5  C   LIG d   1      10.486   2.020  -3.744  0.00  0.00    -0.061 A 
ATOM      6  C   LIG d   1       9.686   3.115  -3.437  0.00  0.00    -0.058 A 
ATOM      7  C   LIG d   1      10.283   4.318  -3.192  0.00  0.00    -0.035 A 
ATOM      8  C   LIG d   1       9.543   5.600  -2.846  0.00  0.00     0.022 C 
ATOM      9  C   LIG d   1      10.037   6.630  -3.849  0.00  0.00    -0.035 A 
ATOM     10  C   LIG d   1      11.423   6.763  -3.903  0.00  0.00    -0.032 A 
ATOM     11  C   LIG d   1      12.006   7.652  -4.760  0.00  0.00    -0.057 A 
ATOM     12  C   LIG d   1      11.194   8.424  -5.579  0.00  0.00    -0.061 A 
ATOM     13  C   LIG d   1       9.818   8.292  -5.526  0.00  0.00    -0.061 A 
ATOM     14  C   LIG d   1       9.232   7.386  -4.652  0.00  0.00    -0.058 A 
ATOM     15  C   LIG d   1      10.112   6.048  -1.482  0.00  0.00     0.059 A 
ATOM     16  H   LIG d   1       9.808   5.364  -0.691  0.00  0.00     0.041 H 
ATOM     17  C   LIG d   1      11.660   6.211  -1.540  0.00  0.00     0.062 A 
ATOM     18  H   LIG d   1      12.141   5.594  -0.780  0.00  0.00     0.041 H 
ATOM     19  C   LIG d   1      11.907   7.684  -1.295  0.00  0.00     0.231 A 
ATOM     20  O   LIG d   1      12.994   8.219  -1.269  0.00  0.00    -0.275 OA
ATOM     21  N   LIG d   1      10.733   8.301  -1.110  0.00  0.00    -0.210 N 
ATOM     22  C   LIG d   1       9.631   7.455  -1.196  0.00  0.00     0.231 A 
ATOM     23  O   LIG d   1       8.473   7.790  -1.069  0.00  0.00    -0.275 OA
ATOM     24  H   LIG d   1      13.536   3.484  -3.590  0.00  0.00     0.062 H 
ATOM     25  H   LIG d   1      12.473   1.295  -4.039  0.00  0.00     0.062 H 
ATOM     26  H   LIG d   1      10.030   1.062  -3.942  0.00  0.00     0.062 H 
ATOM     27  H   LIG d   1       8.611   3.014  -3.394  0.00  0.00     0.062 H 
ATOM     28  H   LIG d   1       8.459   5.482  -2.853  0.00  0.00     0.041 H 
ATOM     29  H   LIG d   1      13.081   7.752  -4.799  0.00  0.00     0.062 H 
ATOM     30  H   LIG d   1      11.639   9.132  -6.263  0.00  0.00     0.062 H 
ATOM     31  H   LIG d   1       9.197   8.899  -6.168  0.00  0.00     0.062 H 
ATOM     32  H   LIG d   1       8.158   7.282  -4.609  0.00  0.00     0.062 H 
ENDROOT
BRANCH  21  33
ATOM     33  C   LIG d   1      10.629   9.676  -0.860  0.00  0.00     0.044 A 
ATOM     34  C   LIG d   1      10.667  10.150   0.445  0.00  0.00    -0.040 A 
ATOM     35  C   LIG d   1      10.571  11.506   0.688  0.00  0.00    -0.057 A 
ATOM     36  H   LIG d   1      10.775   9.460   1.268  0.00  0.00     0.064 H 
ATOM     37  C   LIG d   1      10.427  12.391  -0.365  0.00  0.00    -0.050 A 
ATOM     38  H   LIG d   1      10.605  11.877   1.702  0.00  0.00     0.062 H 
ATOM     39  C   LIG d   1      10.384  11.921  -1.666  0.00  0.00    -0.057 A 
ATOM     40  C   LIG d   1      10.485  10.566  -1.915  0.00  0.00    -0.040 A 
ATOM     41  H   LIG d   1      10.271  12.614  -2.486  0.00  0.00     0.062 H 
ATOM     42  H   LIG d   1      10.452  10.200  -2.931  0.00  0.00     0.064 H 
BRANCH  37  43
ATOM     43  C   LIG d   1      10.316  13.870  -0.096  0.00  0.00    -0.040 C 
ATOM     44  H   LIG d   1      10.416  14.418  -1.033  0.00  0.00     0.028 H 
ATOM     45  H   LIG d   1       9.345  14.086   0.349  0.00  0.00     0.028 H 
ATOM     46  H   LIG d   1      11.108  14.174   0.589  0.00  0.00     0.028 H 
ENDBRANCH  37  43
ENDBRANCH  21  33
BRANCH   1  47
ATOM     47  C   LIG d   1      13.698   5.975  -3.079  0.00  0.00    -0.041 C 
ATOM     48  H   LIG d   1      13.979   7.029  -3.066  0.00  0.00     0.027 H 
ATOM     49  H   LIG d   1      14.021   5.525  -4.018  0.00  0.00     0.027 H 
BRANCH  47  50
ATOM     50  C   LIG d   1      14.370   5.254  -1.909  0.00  0.00    -0.064 C 
ATOM     51  H   LIG d   1      14.837   4.337  -2.269  0.00  0.00     0.023 H 
ATOM     52  H   LIG d   1      15.130   5.901  -1.471  0.00  0.00     0.023 H 
ATOM     53  H   LIG d   1      13.622   5.010  -1.155  0.00  0.00     0.023 H 
ENDBRANCH  47  50
ENDBRANCH   1  47
TORSDOF 4
ENDMDL
MODEL 9
REMARK VINA RESULT:      -6.0      7.123      9.946
REMARK  4 active torsions:
REMARK  status: ('A' for Active; 'I' for Inactive)
REMARK    1  A    between atoms: C_1  and  C_2 
REMARK    2  A    between atoms: C_2  and  C_3 
REMARK    3  A    between atoms: N_23  and  C_26 
REMARK    4  A    between atoms: C_29  and  C_32 
ROOT
ATOM      1  C   LIG d   1       9.473  -9.094  -2.241  0.00  0.00     0.033 C 
ATOM      2  C   LIG d   1      10.261  -9.023  -0.943  0.00  0.00    -0.032 A 
ATOM      3  C   LIG d   1      11.183  -8.062  -0.642  0.00  0.00    -0.057 A 
ATOM      4  C   LIG d   1      11.833  -8.119   0.585  0.00  0.00    -0.061 A 
ATOM      5  C   LIG d   1      11.547  -9.130   1.482  0.00  0.00    -0.061 A 
ATOM      6  C   LIG d   1      10.607 -10.105   1.169  0.00  0.00    -0.058 A 
ATOM      7  C   LIG d   1       9.974 -10.043  -0.039  0.00  0.00    -0.035 A 
ATOM      8  C   LIG d   1       8.926 -11.034  -0.522  0.00  0.00     0.022 C 
ATOM      9  C   LIG d   1       9.425 -11.516  -1.875  0.00  0.00    -0.035 A 
ATOM     10  C   LIG d   1       9.712 -10.495  -2.779  0.00  0.00    -0.032 A 
ATOM     11  C   LIG d   1      10.169 -10.783  -4.034  0.00  0.00    -0.057 A 
ATOM     12  C   LIG d   1      10.345 -12.112  -4.395  0.00  0.00    -0.061 A 
ATOM     13  C   LIG d   1      10.060 -13.125  -3.497  0.00  0.00    -0.061 A 
ATOM     14  C   LIG d   1       9.596 -12.825  -2.223  0.00  0.00    -0.058 A 
ATOM     15  C   LIG d   1       7.669 -10.190  -0.824  0.00  0.00     0.059 A 
ATOM     16  H   LIG d   1       7.235  -9.797   0.095  0.00  0.00     0.041 H 
ATOM     17  C   LIG d   1       7.981  -9.055  -1.845  0.00  0.00     0.062 A 
ATOM     18  H   LIG d   1       7.714  -8.082  -1.433  0.00  0.00     0.041 H 
ATOM     19  C   LIG d   1       7.147  -9.388  -3.064  0.00  0.00     0.231 A 
ATOM     20  O   LIG d   1       7.116  -8.744  -4.091  0.00  0.00    -0.275 OA
ATOM     21  N   LIG d   1       6.450 -10.506  -2.827  0.00  0.00    -0.210 N 
ATOM     22  C   LIG d   1       6.673 -11.055  -1.568  0.00  0.00     0.231 A 
ATOM     23  O   LIG d   1       6.159 -12.064  -1.136  0.00  0.00    -0.275 OA
ATOM     24  H   LIG d   1      11.405  -7.272  -1.345  0.00  0.00     0.062 H 
ATOM     25  H   LIG d   1      12.565  -7.367   0.839  0.00  0.00     0.062 H 
ATOM     26  H   LIG d   1      12.058  -9.165   2.433  0.00  0.00     0.062 H 
ATOM     27  H   LIG d   1      10.382 -10.896   1.869  0.00  0.00     0.062 H 
ATOM     28  H   LIG d   1       8.751 -11.847   0.183  0.00  0.00     0.041 H 
ATOM     29  H   LIG d   1      10.390  -9.989  -4.733  0.00  0.00     0.062 H 
ATOM     30  H   LIG d   1      10.706 -12.356  -5.382  0.00  0.00     0.062 H 
ATOM     31  H   LIG d   1      10.201 -14.155  -3.789  0.00  0.00     0.062 H 
ATOM     32  H   LIG d   1       9.373 -13.615  -1.520  0.00  0.00     0.062 H 
ENDROOT
BRANCH  21  33
ATOM     33  C   LIG d   1       5.581 -11.073  -3.770  0.00  0.00     0.044 A 
ATOM     34  C   LIG d   1       6.084 -11.875  -4.786  0.00  0.00    -0.040 A 
ATOM     35  C   LIG d   1       5.226 -12.437  -5.709  0.00  0.00    -0.057 A 
ATOM     36  H   LIG d   1       7.146 -12.061  -4.852  0.00  0.00     0.064 H 
ATOM     37  C   LIG d   1       3.866 -12.194  -5.629  0.00  0.00    -0.050 A 
ATOM     38  H   LIG d   1       5.616 -13.064  -6.498  0.00  0.00     0.062 H 
ATOM     39  C   LIG d   1       3.362 -11.393  -4.621  0.00  0.00    -0.057 A 
ATOM     40  C   LIG d   1       4.216 -10.832  -3.691  0.00  0.00    -0.040 A 
ATOM     41  H   LIG d   1       2.301 -11.205  -4.561  0.00  0.00     0.062 H 
ATOM     42  H   LIG d   1       3.822 -10.206  -2.904  0.00  0.00     0.064 H 
BRANCH  37  43
ATOM     43  C   LIG d   1       2.932 -12.805  -6.642  0.00  0.00    -0.040 C 
ATOM     44  H   LIG d   1       1.996 -13.079  -6.155  0.00  0.00     0.028 H 
ATOM     45  H   LIG d   1       2.731 -12.082  -7.433  0.00  0.00     0.028 H 
ATOM     46  H   LIG d   1       3.392 -13.695  -7.070  0.00  0.00     0.028 H 
ENDBRANCH  37  43
ENDBRANCH  21  33
BRANCH   1  47
ATOM     47  C   LIG d   1       9.857  -7.996  -3.236  0.00  0.00    -0.041 C 
ATOM     48  H   LIG d   1       9.390  -8.199  -4.200  0.00  0.00     0.027 H 
ATOM     49  H   LIG d   1      10.941  -7.977  -3.355  0.00  0.00     0.027 H 
BRANCH  47  50
ATOM     50  C   LIG d   1       9.377  -6.642  -2.711  0.00  0.00    -0.064 C 
ATOM     51  H   LIG d   1       8.470  -6.349  -3.240  0.00  0.00     0.023 H 
ATOM     52  H   LIG d   1       9.166  -6.720  -1.644  0.00  0.00     0.023 H 
ATOM     53  H   LIG d   1      10.151  -5.894  -2.875  0.00  0.00     0.023 H 
ENDBRANCH  47  50
ENDBRANCH   1  47
TORSDOF 4
ENDMDL
MODEL 10
REMARK VINA RESULT:      -6.0      8.715     11.296
REMARK  4 active torsions:
REMARK  status: ('A' for Active; 'I' for Inactive)
REMARK    1  A    between atoms: C_1  and  C_2 
REMARK    2  A    between atoms: C_2  and  C_3 
REMARK    3  A    between atoms: N_23  and  C_26 
REMARK    4  A    between atoms: C_29  and  C_32 
ROOT
ATOM      1  C   LIG d   1      10.164   4.831  -5.418  0.00  0.00     0.033 C 
ATOM      2  C   LIG d   1       9.774   4.842  -6.888  0.00  0.00    -0.032 A 
ATOM      3  C   LIG d   1       9.366   3.748  -7.595  0.00  0.00    -0.057 A 
ATOM      4  C   LIG d   1       9.039   3.900  -8.936  0.00  0.00    -0.061 A 
ATOM      5  C   LIG d   1       9.125   5.140  -9.541  0.00  0.00    -0.061 A 
ATOM      6  C   LIG d   1       9.540   6.250  -8.815  0.00  0.00    -0.058 A 
ATOM      7  C   LIG d   1       9.861   6.092  -7.497  0.00  0.00    -0.035 A 
ATOM      8  C   LIG d   1      10.330   7.208  -6.578  0.00  0.00     0.022 C 
ATOM      9  C   LIG d   1      11.636   6.710  -5.978  0.00  0.00    -0.035 A 
ATOM     10  C   LIG d   1      11.548   5.459  -5.367  0.00  0.00    -0.032 A 
ATOM     11  C   LIG d   1      12.644   4.889  -4.786  0.00  0.00    -0.057 A 
ATOM     12  C   LIG d   1      13.851   5.574  -4.813  0.00  0.00    -0.061 A 
ATOM     13  C   LIG d   1      13.937   6.815  -5.419  0.00  0.00    -0.061 A 
ATOM     14  C   LIG d   1      12.819   7.390  -6.008  0.00  0.00    -0.058 A 
ATOM     15  C   LIG d   1       9.322   7.230  -5.408  0.00  0.00     0.059 A 
ATOM     16  H   LIG d   1       8.346   7.578  -5.744  0.00  0.00     0.041 H 
ATOM     17  C   LIG d   1       9.230   5.838  -4.714  0.00  0.00     0.062 A 
ATOM     18  H   LIG d   1       8.201   5.477  -4.711  0.00  0.00     0.041 H 
ATOM     19  C   LIG d   1       9.739   6.070  -3.308  0.00  0.00     0.231 A 
ATOM     20  O   LIG d   1       9.834   5.223  -2.446  0.00  0.00    -0.275 OA
ATOM     21  N   LIG d   1      10.069   7.360  -3.167  0.00  0.00    -0.210 N 
ATOM     22  C   LIG d   1       9.869   8.122  -4.314  0.00  0.00     0.231 A 
ATOM     23  O   LIG d   1      10.101   9.307  -4.424  0.00  0.00    -0.275 OA
ATOM     24  H   LIG d   1       9.300   2.779  -7.120  0.00  0.00     0.062 H 
ATOM     25  H   LIG d   1       8.715   3.045  -9.510  0.00  0.00     0.062 H 
ATOM     26  H   LIG d   1       8.868   5.248 -10.584  0.00  0.00     0.062 H 
ATOM     27  H   LIG d   1       9.608   7.220  -9.285  0.00  0.00     0.062 H 
ATOM     28  H   LIG d   1      10.434   8.166  -7.088  0.00  0.00     0.041 H 
ATOM     29  H   LIG d   1      12.573   3.920  -4.313  0.00  0.00     0.062 H 
ATOM     30  H   LIG d   1      14.727   5.137  -4.358  0.00  0.00     0.062 H 
ATOM     31  H   LIG d   1      14.882   7.339  -5.434  0.00  0.00     0.062 H 
ATOM     32  H   LIG d   1      12.885   8.358  -6.482  0.00  0.00     0.062 H 
ENDROOT
BRANCH  21  33
ATOM     33  C   LIG d   1      10.575   7.889  -1.971  0.00  0.00     0.044 A 
ATOM     34  C   LIG d   1       9.713   8.452  -1.040  0.00  0.00    -0.040 A 
ATOM     35  C   LIG d   1      10.214   8.967   0.139  0.00  0.00    -0.057 A 
ATOM     36  H   LIG d   1       8.652   8.485  -1.236  0.00  0.00     0.064 H 
ATOM     37  C   LIG d   1      11.574   8.931   0.389  0.00  0.00    -0.050 A 
ATOM     38  H   LIG d   1       9.544   9.401   0.867  0.00  0.00     0.062 H 
ATOM     39  C   LIG d   1      12.436   8.374  -0.539  0.00  0.00    -0.057 A 
ATOM     40  C   LIG d   1      11.940   7.854  -1.719  0.00  0.00    -0.040 A 
ATOM     41  H   LIG d   1      13.497   8.348  -0.342  0.00  0.00     0.062 H 
ATOM     42  H   LIG d   1      12.613   7.419  -2.443  0.00  0.00     0.064 H 
BRANCH  37  43
ATOM     43  C   LIG d   1      12.118   9.498   1.675  0.00  0.00    -0.040 C 
ATOM     44  H   LIG d   1      13.156   9.189   1.798  0.00  0.00     0.028 H 
ATOM     45  H   LIG d   1      12.064  10.586   1.643  0.00  0.00     0.028 H 
ATOM     46  H   LIG d   1      11.528   9.128   2.513  0.00  0.00     0.028 H 
ENDBRANCH  37  43
ENDBRANCH  21  33
BRANCH   1  47
ATOM     47  C   LIG d   1      10.117   3.434  -4.797  0.00  0.00    -0.041 C 
ATOM     48  H   LIG d   1      10.590   3.457  -3.814  0.00  0.00     0.027 H 
ATOM     49  H   LIG d   1      10.649   2.732  -5.439  0.00  0.00     0.027 H 
BRANCH  47  50
ATOM     50  C   LIG d   1       8.661   2.989  -4.652  0.00  0.00    -0.064 C 
ATOM     51  H   LIG d   1       8.035   3.858  -4.447  0.00  0.00     0.023 H 
ATOM     52  H   LIG d   1       8.332   2.515  -5.576  0.00  0.00     0.023 H 
ATOM     53  H   LIG d   1       8.578   2.280  -3.829  0.00  0.00     0.023 H 
ENDBRANCH  47  50
ENDBRANCH   1  47
TORSDOF 4
ENDMDL
