MODEL 1
REMARK VINA RESULT:      -5.4      0.000      0.000
REMARK  8 active torsions:
REMARK  status: ('A' for Active; 'I' for Inactive)
REMARK    1  A    between atoms: C_1  and  C_2 
REMARK    2  A    between atoms: C_2  and  C_19 
REMARK    3  A    between atoms: C_3  and  C_4 
REMARK    4  A    between atoms: C_4  and  C_5 
REMARK    5  A    between atoms: C_5  and  C_14 
REMARK    6  A    between atoms: C_14  and  C_15 
REMARK    7  A    between atoms: C_16  and  C_17 
REMARK    8  A    between atoms: C_16  and  C_18 
ROOT
ATOM      1  C   LIG d   1       5.842  -1.291  -3.668  0.00  0.00     0.100 A 
ATOM      2  C   LIG d   1       4.588  -2.040  -3.293  0.00  0.00     0.142 A 
ATOM      3  O   LIG d   1       4.284  -3.149  -3.660  0.00  0.00    -0.297 OA
ATOM      4  C   LIG d   1       3.786  -1.152  -2.376  0.00  0.00     0.004 A 
ATOM      5  C   LIG d   1       4.548   0.135  -2.192  0.00  0.00     0.193 A 
ATOM      6  C   LIG d   1       5.804   0.050  -2.981  0.00  0.00     0.211 A 
ATOM      7  O   LIG d   1       6.649   0.909  -3.058  0.00  0.00    -0.288 OA
ATOM      8  O   LIG d   1       4.198   1.074  -1.519  0.00  0.00    -0.290 OA
ATOM      9  O   LIG d   1       2.510  -0.879  -2.961  0.00  0.00    -0.842 OA
ATOM     10  H   LIG d   1       3.652  -1.642  -1.411  0.00  0.00     0.027 H 
ENDROOT
BRANCH   1  11
ATOM     11  C   LIG d   1       5.895  -1.094  -5.184  0.00  0.00    -0.015 C 
ATOM     12  H   LIG d   1       5.923  -2.067  -5.676  0.00  0.00     0.032 H 
ATOM     13  H   LIG d   1       6.788  -0.527  -5.447  0.00  0.00     0.032 H 
BRANCH  11  14
ATOM     14  C   LIG d   1       4.670  -0.340  -5.635  0.00  0.00    -0.084 C 
ATOM     15  C   LIG d   1       4.004  -0.742  -6.689  0.00  0.00    -0.080 C 
ATOM     16  H   LIG d   1       4.343   0.533  -5.090  0.00  0.00     0.057 H 
BRANCH  15  17
ATOM     17  C   LIG d   1       4.385  -2.028  -7.375  0.00  0.00    -0.044 C 
ATOM     18  H   LIG d   1       3.917  -2.067  -8.359  0.00  0.00     0.027 H 
ATOM     19  H   LIG d   1       5.469  -2.076  -7.486  0.00  0.00     0.027 H 
ATOM     20  H   LIG d   1       4.043  -2.874  -6.778  0.00  0.00     0.027 H 
ENDBRANCH  15  17
BRANCH  15  21
ATOM     21  C   LIG d   1       2.857   0.082  -7.215  0.00  0.00    -0.044 C 
ATOM     22  H   LIG d   1       2.618   0.870  -6.501  0.00  0.00     0.027 H 
ATOM     23  H   LIG d   1       3.137   0.528  -8.168  0.00  0.00     0.027 H 
ATOM     24  H   LIG d   1       1.986  -0.557  -7.355  0.00  0.00     0.027 H 
ENDBRANCH  15  21
ENDBRANCH  11  14
ENDBRANCH   1  11
BRANCH   1  25
ATOM     25  C   LIG d   1       7.073  -2.074  -3.205  0.00  0.00    -0.015 C 
ATOM     26  H   LIG d   1       7.834  -1.380  -2.853  0.00  0.00     0.032 H 
ATOM     27  H   LIG d   1       6.791  -2.747  -2.395  0.00  0.00     0.032 H 
BRANCH  25  28
ATOM     28  C   LIG d   1       7.619  -2.878  -4.358  0.00  0.00    -0.084 C 
ATOM     29  C   LIG d   1       8.560  -3.765  -4.150  0.00  0.00    -0.080 C 
ATOM     30  H   LIG d   1       7.235  -2.722  -5.355  0.00  0.00     0.057 H 
BRANCH  29  31
ATOM     31  C   LIG d   1       9.191  -3.888  -2.787  0.00  0.00    -0.044 C 
ATOM     32  H   LIG d   1       9.400  -4.937  -2.575  0.00  0.00     0.027 H 
ATOM     33  H   LIG d   1      10.122  -3.322  -2.766  0.00  0.00     0.027 H 
ATOM     34  H   LIG d   1       8.509  -3.494  -2.034  0.00  0.00     0.027 H 
ENDBRANCH  29  31
BRANCH  29  35
ATOM     35  C   LIG d   1       9.010  -4.663  -5.273  0.00  0.00    -0.044 C 
ATOM     36  H   LIG d   1       9.803  -4.172  -5.836  0.00  0.00     0.027 H 
ATOM     37  H   LIG d   1       9.384  -5.601  -4.861  0.00  0.00     0.027 H 
ATOM     38  H   LIG d   1       8.168  -4.868  -5.934  0.00  0.00     0.027 H 
ENDBRANCH  29  35
ENDBRANCH  25  28
ENDBRANCH   1  25
TORSDOF 8
ENDMDL
MODEL 2
REMARK VINA RESULT:      -5.3      2.011      4.969
REMARK  8 active torsions:
REMARK  status: ('A' for Active; 'I' for Inactive)
REMARK    1  A    between atoms: C_1  and  C_2 
REMARK    2  A    between atoms: C_2  and  C_19 
REMARK    3  A    between atoms: C_3  and  C_4 
REMARK    4  A    between atoms: C_4  and  C_5 
REMARK    5  A    between atoms: C_5  and  C_14 
REMARK    6  A    between atoms: C_14  and  C_15 
REMARK    7  A    between atoms: C_16  and  C_17 
REMARK    8  A    between atoms: C_16  and  C_18 
ROOT
ATOM      1  C   LIG d   1       6.490  -2.052  -4.846  0.00  0.00     0.100 A 
ATOM      2  C   LIG d   1       5.085  -2.427  -5.247  0.00  0.00     0.142 A 
ATOM      3  O   LIG d   1       4.457  -3.374  -4.840  0.00  0.00    -0.297 OA
ATOM      4  C   LIG d   1       4.609  -1.402  -6.245  0.00  0.00     0.004 A 
ATOM      5  C   LIG d   1       5.719  -0.406  -6.453  0.00  0.00     0.193 A 
ATOM      6  C   LIG d   1       6.868  -0.803  -5.598  0.00  0.00     0.211 A 
ATOM      7  O   LIG d   1       7.924  -0.223  -5.521  0.00  0.00    -0.288 OA
ATOM      8  O   LIG d   1       5.682   0.550  -7.188  0.00  0.00    -0.290 OA
ATOM      9  O   LIG d   1       4.296  -2.043  -7.484  0.00  0.00    -0.842 OA
ATOM     10  H   LIG d   1       3.725  -0.895  -5.859  0.00  0.00     0.027 H 
ENDROOT
BRANCH   1  11
ATOM     11  C   LIG d   1       7.452  -3.186  -5.208  0.00  0.00    -0.015 C 
ATOM     12  H   LIG d   1       8.197  -2.818  -5.914  0.00  0.00     0.032 H 
ATOM     13  H   LIG d   1       6.895  -4.006  -5.661  0.00  0.00     0.032 H 
BRANCH  11  14
ATOM     14  C   LIG d   1       8.142  -3.676  -3.961  0.00  0.00    -0.084 C 
ATOM     15  C   LIG d   1       9.447  -3.627  -3.872  0.00  0.00    -0.080 C 
ATOM     16  H   LIG d   1       7.558  -4.069  -3.140  0.00  0.00     0.057 H 
BRANCH  15  17
ATOM     17  C   LIG d   1      10.252  -2.965  -4.960  0.00  0.00    -0.044 C 
ATOM     18  H   LIG d   1       9.796  -2.009  -5.218  0.00  0.00     0.027 H 
ATOM     19  H   LIG d   1      11.271  -2.798  -4.609  0.00  0.00     0.027 H 
ATOM     20  H   LIG d   1      10.271  -3.607  -5.840  0.00  0.00     0.027 H 
ENDBRANCH  15  17
BRANCH  15  21
ATOM     21  C   LIG d   1      10.145  -4.232  -2.681  0.00  0.00    -0.044 C 
ATOM     22  H   LIG d   1      10.624  -3.443  -2.100  0.00  0.00     0.027 H 
ATOM     23  H   LIG d   1       9.417  -4.749  -2.058  0.00  0.00     0.027 H 
ATOM     24  H   LIG d   1      10.899  -4.940  -3.023  0.00  0.00     0.027 H 
ENDBRANCH  15  21
ENDBRANCH  11  14
ENDBRANCH   1  11
BRANCH   1  25
ATOM     25  C   LIG d   1       6.547  -1.787  -3.340  0.00  0.00    -0.015 C 
ATOM     26  H   LIG d   1       5.993  -2.563  -2.814  0.00  0.00     0.032 H 
ATOM     27  H   LIG d   1       7.585  -1.794  -3.009  0.00  0.00     0.032 H 
BRANCH  25  28
ATOM     28  C   LIG d   1       5.935  -0.441  -3.044  0.00  0.00    -0.084 C 
ATOM     29  C   LIG d   1       4.864  -0.361  -2.292  0.00  0.00    -0.080 C 
ATOM     30  H   LIG d   1       6.377   0.455  -3.451  0.00  0.00     0.057 H 
BRANCH  29  31
ATOM     31  C   LIG d   1       4.168  -1.616  -1.835  0.00  0.00    -0.044 C 
ATOM     32  H   LIG d   1       4.194  -1.672  -0.747  0.00  0.00     0.027 H 
ATOM     33  H   LIG d   1       3.132  -1.601  -2.174  0.00  0.00     0.027 H 
ATOM     34  H   LIG d   1       4.674  -2.486  -2.255  0.00  0.00     0.027 H 
ENDBRANCH  29  31
BRANCH  29  35
ATOM     35  C   LIG d   1       4.332   0.988  -1.883  0.00  0.00    -0.044 C 
ATOM     36  H   LIG d   1       4.079   0.974  -0.823  0.00  0.00     0.027 H 
ATOM     37  H   LIG d   1       5.092   1.749  -2.064  0.00  0.00     0.027 H 
ATOM     38  H   LIG d   1       3.442   1.219  -2.467  0.00  0.00     0.027 H 
ENDBRANCH  29  35
ENDBRANCH  25  28
ENDBRANCH   1  25
TORSDOF 8
ENDMDL
MODEL 3
REMARK VINA RESULT:      -5.2      2.114      4.073
REMARK  8 active torsions:
REMARK  status: ('A' for Active; 'I' for Inactive)
REMARK    1  A    between atoms: C_1  and  C_2 
REMARK    2  A    between atoms: C_2  and  C_19 
REMARK    3  A    between atoms: C_3  and  C_4 
REMARK    4  A    between atoms: C_4  and  C_5 
REMARK    5  A    between atoms: C_5  and  C_14 
REMARK    6  A    between atoms: C_14  and  C_15 
REMARK    7  A    between atoms: C_16  and  C_17 
REMARK    8  A    between atoms: C_16  and  C_18 
ROOT
ATOM      1  C   LIG d   1       7.074  -1.612  -4.814  0.00  0.00     0.100 A 
ATOM      2  C   LIG d   1       8.055  -0.539  -5.217  0.00  0.00     0.142 A 
ATOM      3  O   LIG d   1       9.180  -0.410  -4.800  0.00  0.00    -0.297 OA
ATOM      4  C   LIG d   1       7.374   0.341  -6.235  0.00  0.00     0.004 A 
ATOM      5  C   LIG d   1       5.982  -0.194  -6.453  0.00  0.00     0.193 A 
ATOM      6  C   LIG d   1       5.800  -1.386  -5.585  0.00  0.00     0.211 A 
ATOM      7  O   LIG d   1       4.800  -2.059  -5.511  0.00  0.00    -0.288 OA
ATOM      8  O   LIG d   1       5.157   0.268  -7.203  0.00  0.00    -0.290 OA
ATOM      9  O   LIG d   1       7.305   1.682  -5.746  0.00  0.00    -0.842 OA
ATOM     10  H   LIG d   1       7.929   0.317  -7.173  0.00  0.00     0.027 H 
ENDROOT
BRANCH   1  11
ATOM     11  C   LIG d   1       6.794  -1.521  -3.313  0.00  0.00    -0.015 C 
ATOM     12  H   LIG d   1       7.734  -1.578  -2.764  0.00  0.00     0.032 H 
ATOM     13  H   LIG d   1       6.147  -2.345  -3.013  0.00  0.00     0.032 H 
BRANCH  11  14
ATOM     14  C   LIG d   1       6.113  -0.212  -3.007  0.00  0.00    -0.084 C 
ATOM     15  C   LIG d   1       4.950  -0.203  -2.405  0.00  0.00    -0.080 C 
ATOM     16  H   LIG d   1       6.585   0.720  -3.285  0.00  0.00     0.057 H 
BRANCH  15  17
ATOM     17  C   LIG d   1       4.351  -1.492  -1.904  0.00  0.00    -0.044 C 
ATOM     18  H   LIG d   1       4.373  -1.503  -0.814  0.00  0.00     0.027 H 
ATOM     19  H   LIG d   1       3.319  -1.572  -2.247  0.00  0.00     0.027 H 
ATOM     20  H   LIG d   1       4.928  -2.334  -2.288  0.00  0.00     0.027 H 
ENDBRANCH  15  17
BRANCH  15  21
ATOM     21  C   LIG d   1       4.211   1.096  -2.213  0.00  0.00    -0.044 C 
ATOM     22  H   LIG d   1       3.200   0.890  -1.861  0.00  0.00     0.027 H 
ATOM     23  H   LIG d   1       4.734   1.706  -1.478  0.00  0.00     0.027 H 
ATOM     24  H   LIG d   1       4.163   1.630  -3.162  0.00  0.00     0.027 H 
ENDBRANCH  15  21
ENDBRANCH  11  14
ENDBRANCH   1  11
BRANCH   1  25
ATOM     25  C   LIG d   1       7.646  -2.991  -5.151  0.00  0.00    -0.015 C 
ATOM     26  H   LIG d   1       6.868  -3.607  -5.598  0.00  0.00     0.032 H 
ATOM     27  H   LIG d   1       8.471  -2.879  -5.855  0.00  0.00     0.032 H 
BRANCH  25  28
ATOM     28  C   LIG d   1       8.147  -3.648  -3.891  0.00  0.00    -0.084 C 
ATOM     29  C   LIG d   1       9.419  -3.937  -3.764  0.00  0.00    -0.080 C 
ATOM     30  H   LIG d   1       7.459  -3.881  -3.092  0.00  0.00     0.057 H 
BRANCH  29  31
ATOM     31  C   LIG d   1      10.356  -3.738  -4.927  0.00  0.00    -0.044 C 
ATOM     32  H   LIG d   1      10.202  -4.531  -5.659  0.00  0.00     0.027 H 
ATOM     33  H   LIG d   1      10.159  -2.772  -5.391  0.00  0.00     0.027 H 
ATOM     34  H   LIG d   1      11.387  -3.766  -4.573  0.00  0.00     0.027 H 
ENDBRANCH  29  31
BRANCH  29  35
ATOM     35  C   LIG d   1       9.944  -4.467  -2.455  0.00  0.00    -0.044 C 
ATOM     36  H   LIG d   1       9.908  -3.679  -1.703  0.00  0.00     0.027 H 
ATOM     37  H   LIG d   1       9.329  -5.307  -2.130  0.00  0.00     0.027 H 
ATOM     38  H   LIG d   1      10.973  -4.800  -2.585  0.00  0.00     0.027 H 
ENDBRANCH  29  35
ENDBRANCH  25  28
ENDBRANCH   1  25
TORSDOF 8
ENDMDL
MODEL 4
REMARK VINA RESULT:      -5.1      2.267      5.256
REMARK  8 active torsions:
REMARK  status: ('A' for Active; 'I' for Inactive)
REMARK    1  A    between atoms: C_1  and  C_2 
REMARK    2  A    between atoms: C_2  and  C_19 
REMARK    3  A    between atoms: C_3  and  C_4 
REMARK    4  A    between atoms: C_4  and  C_5 
REMARK    5  A    between atoms: C_5  and  C_14 
REMARK    6  A    between atoms: C_14  and  C_15 
REMARK    7  A    between atoms: C_16  and  C_17 
REMARK    8  A    between atoms: C_16  and  C_18 
ROOT
ATOM      1  C   LIG d   1       6.153  -1.705  -5.080  0.00  0.00     0.100 A 
ATOM      2  C   LIG d   1       5.284  -2.904  -5.367  0.00  0.00     0.142 A 
ATOM      3  O   LIG d   1       4.203  -3.132  -4.880  0.00  0.00    -0.297 OA
ATOM      4  C   LIG d   1       6.009  -3.762  -6.372  0.00  0.00     0.004 A 
ATOM      5  C   LIG d   1       7.317  -3.089  -6.698  0.00  0.00     0.193 A 
ATOM      6  C   LIG d   1       7.405  -1.834  -5.909  0.00  0.00     0.211 A 
ATOM      7  O   LIG d   1       8.323  -1.050  -5.930  0.00  0.00    -0.288 OA
ATOM      8  O   LIG d   1       8.151  -3.501  -7.467  0.00  0.00    -0.290 OA
ATOM      9  O   LIG d   1       6.256  -5.055  -5.815  0.00  0.00    -0.842 OA
ATOM     10  H   LIG d   1       5.408  -3.858  -7.276  0.00  0.00     0.027 H 
ENDROOT
BRANCH   1  11
ATOM     11  C   LIG d   1       6.517  -1.672  -3.595  0.00  0.00    -0.015 C 
ATOM     12  H   LIG d   1       7.598  -1.759  -3.483  0.00  0.00     0.032 H 
ATOM     13  H   LIG d   1       6.030  -2.501  -3.082  0.00  0.00     0.032 H 
BRANCH  11  14
ATOM     14  C   LIG d   1       6.054  -0.369  -2.994  0.00  0.00    -0.084 C 
ATOM     15  C   LIG d   1       4.979  -0.337  -2.248  0.00  0.00    -0.080 C 
ATOM     16  H   LIG d   1       6.610   0.539  -3.181  0.00  0.00     0.057 H 
BRANCH  15  17
ATOM     17  C   LIG d   1       4.276  -1.619  -1.883  0.00  0.00    -0.044 C 
ATOM     18  H   LIG d   1       5.011  -2.357  -1.559  0.00  0.00     0.027 H 
ATOM     19  H   LIG d   1       3.570  -1.431  -1.075  0.00  0.00     0.027 H 
ATOM     20  H   LIG d   1       3.741  -2.000  -2.753  0.00  0.00     0.027 H 
ENDBRANCH  15  17
BRANCH  15  21
ATOM     21  C   LIG d   1       4.445   0.982  -1.752  0.00  0.00    -0.044 C 
ATOM     22  H   LIG d   1       5.065   1.793  -2.134  0.00  0.00     0.027 H 
ATOM     23  H   LIG d   1       3.421   1.113  -2.099  0.00  0.00     0.027 H 
ATOM     24  H   LIG d   1       4.463   0.995  -0.662  0.00  0.00     0.027 H 
ENDBRANCH  15  21
ENDBRANCH  11  14
ENDBRANCH   1  11
BRANCH   1  25
ATOM     25  C   LIG d   1       5.410  -0.422  -5.460  0.00  0.00    -0.015 C 
ATOM     26  H   LIG d   1       4.737  -0.140  -4.652  0.00  0.00     0.032 H 
ATOM     27  H   LIG d   1       6.130   0.378  -5.630  0.00  0.00     0.032 H 
BRANCH  25  28
ATOM     28  C   LIG d   1       4.615  -0.657  -6.719  0.00  0.00    -0.084 C 
ATOM     29  C   LIG d   1       3.377  -0.234  -6.799  0.00  0.00    -0.080 C 
ATOM     30  H   LIG d   1       5.064  -1.173  -7.554  0.00  0.00     0.057 H 
BRANCH  29  31
ATOM     31  C   LIG d   1       2.705   0.364  -5.590  0.00  0.00    -0.044 C 
ATOM     32  H   LIG d   1       3.443   0.895  -4.989  0.00  0.00     0.027 H 
ATOM     33  H   LIG d   1       1.930   1.059  -5.912  0.00  0.00     0.027 H 
ATOM     34  H   LIG d   1       2.254  -0.431  -4.995  0.00  0.00     0.027 H 
ENDBRANCH  29  31
BRANCH  29  35
ATOM     35  C   LIG d   1       2.627  -0.346  -8.101  0.00  0.00    -0.044 C 
ATOM     36  H   LIG d   1       2.210  -1.348  -8.197  0.00  0.00     0.027 H 
ATOM     37  H   LIG d   1       1.819   0.387  -8.119  0.00  0.00     0.027 H 
ATOM     38  H   LIG d   1       3.308  -0.154  -8.930  0.00  0.00     0.027 H 
ENDBRANCH  29  35
ENDBRANCH  25  28
ENDBRANCH   1  25
TORSDOF 8
ENDMDL
MODEL 5
REMARK VINA RESULT:      -5.1      1.376      2.535
REMARK  8 active torsions:
REMARK  status: ('A' for Active; 'I' for Inactive)
REMARK    1  A    between atoms: C_1  and  C_2 
REMARK    2  A    between atoms: C_2  and  C_19 
REMARK    3  A    between atoms: C_3  and  C_4 
REMARK    4  A    between atoms: C_4  and  C_5 
REMARK    5  A    between atoms: C_5  and  C_14 
REMARK    6  A    between atoms: C_14  and  C_15 
REMARK    7  A    between atoms: C_16  and  C_17 
REMARK    8  A    between atoms: C_16  and  C_18 
ROOT
ATOM      1  C   LIG d   1       4.153  -0.582  -4.671  0.00  0.00     0.100 A 
ATOM      2  C   LIG d   1       3.497  -0.564  -3.313  0.00  0.00     0.142 A 
ATOM      3  O   LIG d   1       2.466  -1.114  -3.013  0.00  0.00    -0.297 OA
ATOM      4  C   LIG d   1       4.365   0.266  -2.401  0.00  0.00     0.004 A 
ATOM      5  C   LIG d   1       5.546   0.752  -3.200  0.00  0.00     0.193 A 
ATOM      6  C   LIG d   1       5.417   0.233  -4.586  0.00  0.00     0.211 A 
ATOM      7  O   LIG d   1       6.192   0.433  -5.490  0.00  0.00    -0.288 OA
ATOM      8  O   LIG d   1       6.443   1.444  -2.785  0.00  0.00    -0.290 OA
ATOM      9  O   LIG d   1       3.620   1.383  -1.910  0.00  0.00    -0.842 OA
ATOM     10  H   LIG d   1       4.710  -0.344  -1.566  0.00  0.00     0.027 H 
ENDROOT
BRANCH   1  11
ATOM     11  C   LIG d   1       3.211   0.029  -5.711  0.00  0.00    -0.015 C 
ATOM     12  H   LIG d   1       3.435   1.090  -5.825  0.00  0.00     0.032 H 
ATOM     13  H   LIG d   1       2.179  -0.092  -5.382  0.00  0.00     0.032 H 
BRANCH  11  14
ATOM     14  C   LIG d   1       3.402  -0.669  -7.033  0.00  0.00    -0.084 C 
ATOM     15  C   LIG d   1       3.209  -0.016  -8.152  0.00  0.00    -0.080 C 
ATOM     16  H   LIG d   1       3.697  -1.708  -7.057  0.00  0.00     0.057 H 
BRANCH  15  17
ATOM     17  C   LIG d   1       2.921   1.462  -8.122  0.00  0.00    -0.044 C 
ATOM     18  H   LIG d   1       2.362   1.705  -7.218  0.00  0.00     0.027 H 
ATOM     19  H   LIG d   1       3.860   2.016  -8.128  0.00  0.00     0.027 H 
ATOM     20  H   LIG d   1       2.332   1.736  -8.997  0.00  0.00     0.027 H 
ENDBRANCH  15  17
BRANCH  15  21
ATOM     21  C   LIG d   1       3.276  -0.744  -9.469  0.00  0.00    -0.044 C 
ATOM     22  H   LIG d   1       4.285  -1.128  -9.623  0.00  0.00     0.027 H 
ATOM     23  H   LIG d   1       2.569  -1.573  -9.463  0.00  0.00     0.027 H 
ATOM     24  H   LIG d   1       3.022  -0.057 -10.277  0.00  0.00     0.027 H 
ENDBRANCH  15  21
ENDBRANCH  11  14
ENDBRANCH   1  11
BRANCH   1  25
ATOM     25  C   LIG d   1       4.492  -2.022  -5.064  0.00  0.00    -0.015 C 
ATOM     26  H   LIG d   1       3.623  -2.658  -4.899  0.00  0.00     0.032 H 
ATOM     27  H   LIG d   1       4.771  -2.055  -6.117  0.00  0.00     0.032 H 
BRANCH  25  28
ATOM     28  C   LIG d   1       5.643  -2.514  -4.224  0.00  0.00    -0.084 C 
ATOM     29  C   LIG d   1       6.697  -3.037  -4.800  0.00  0.00    -0.080 C 
ATOM     30  H   LIG d   1       5.598  -2.436  -3.148  0.00  0.00     0.057 H 
BRANCH  29  31
ATOM     31  C   LIG d   1       6.705  -3.270  -6.289  0.00  0.00    -0.044 C 
ATOM     32  H   LIG d   1       7.054  -2.370  -6.797  0.00  0.00     0.027 H 
ATOM     33  H   LIG d   1       7.370  -4.100  -6.523  0.00  0.00     0.027 H 
ATOM     34  H   LIG d   1       5.695  -3.508  -6.624  0.00  0.00     0.027 H 
ENDBRANCH  29  31
BRANCH  29  35
ATOM     35  C   LIG d   1       7.902  -3.402  -3.974  0.00  0.00    -0.044 C 
ATOM     36  H   LIG d   1       8.437  -2.496  -3.688  0.00  0.00     0.027 H 
ATOM     37  H   LIG d   1       7.581  -3.931  -3.076  0.00  0.00     0.027 H 
ATOM     38  H   LIG d   1       8.562  -4.044  -4.557  0.00  0.00     0.027 H 
ENDBRANCH  29  35
ENDBRANCH  25  28
ENDBRANCH   1  25
TORSDOF 8
ENDMDL
MODEL 6
REMARK VINA RESULT:      -5.0      2.571      4.417
REMARK  8 active torsions:
REMARK  status: ('A' for Active; 'I' for Inactive)
REMARK    1  A    between atoms: C_1  and  C_2 
REMARK    2  A    between atoms: C_2  and  C_19 
REMARK    3  A    between atoms: C_3  and  C_4 
REMARK    4  A    between atoms: C_4  and  C_5 
REMARK    5  A    between atoms: C_5  and  C_14 
REMARK    6  A    between atoms: C_14  and  C_15 
REMARK    7  A    between atoms: C_16  and  C_17 
REMARK    8  A    between atoms: C_16  and  C_18 
ROOT
ATOM      1  C   LIG d   1       5.236  -2.514  -5.112  0.00  0.00     0.100 A 
ATOM      2  C   LIG d   1       6.727  -2.622  -4.914  0.00  0.00     0.142 A 
ATOM      3  O   LIG d   1       7.316  -3.564  -4.442  0.00  0.00    -0.297 OA
ATOM      4  C   LIG d   1       7.346  -1.341  -5.414  0.00  0.00     0.004 A 
ATOM      5  C   LIG d   1       6.236  -0.455  -5.916  0.00  0.00     0.193 A 
ATOM      6  C   LIG d   1       4.947  -1.171  -5.731  0.00  0.00     0.211 A 
ATOM      7  O   LIG d   1       3.856  -0.748  -6.027  0.00  0.00    -0.288 OA
ATOM      8  O   LIG d   1       6.370   0.649  -6.386  0.00  0.00    -0.290 OA
ATOM      9  O   LIG d   1       8.039  -0.691  -4.347  0.00  0.00    -0.842 OA
ATOM     10  H   LIG d   1       8.039  -1.559  -6.226  0.00  0.00     0.027 H 
ENDROOT
BRANCH   1  11
ATOM     11  C   LIG d   1       4.524  -2.625  -3.762  0.00  0.00    -0.015 C 
ATOM     12  H   LIG d   1       4.768  -3.582  -3.301  0.00  0.00     0.032 H 
ATOM     13  H   LIG d   1       3.446  -2.559  -3.912  0.00  0.00     0.032 H 
BRANCH  11  14
ATOM     14  C   LIG d   1       4.976  -1.504  -2.862  0.00  0.00    -0.084 C 
ATOM     15  C   LIG d   1       4.118  -0.601  -2.460  0.00  0.00    -0.080 C 
ATOM     16  H   LIG d   1       6.009  -1.446  -2.550  0.00  0.00     0.057 H 
BRANCH  15  17
ATOM     17  C   LIG d   1       2.655  -0.751  -2.790  0.00  0.00    -0.044 C 
ATOM     18  H   LIG d   1       2.100  -0.986  -1.882  0.00  0.00     0.027 H 
ATOM     19  H   LIG d   1       2.280   0.181  -3.214  0.00  0.00     0.027 H 
ATOM     20  H   LIG d   1       2.527  -1.557  -3.512  0.00  0.00     0.027 H 
ENDBRANCH  15  17
BRANCH  15  21
ATOM     21  C   LIG d   1       4.592   0.588  -1.665  0.00  0.00    -0.044 C 
ATOM     22  H   LIG d   1       4.668   1.457  -2.321  0.00  0.00     0.027 H 
ATOM     23  H   LIG d   1       3.883   0.798  -0.866  0.00  0.00     0.027 H 
ATOM     24  H   LIG d   1       5.570   0.372  -1.236  0.00  0.00     0.027 H 
ENDBRANCH  15  21
ENDBRANCH  11  14
ENDBRANCH   1  11
BRANCH   1  25
ATOM     25  C   LIG d   1       4.754  -3.628  -6.044  0.00  0.00    -0.015 C 
ATOM     26  H   LIG d   1       3.718  -3.444  -6.325  0.00  0.00     0.032 H 
ATOM     27  H   LIG d   1       5.375  -3.646  -6.939  0.00  0.00     0.032 H 
BRANCH  25  28
ATOM     28  C   LIG d   1       4.855  -4.955  -5.335  0.00  0.00    -0.084 C 
ATOM     29  C   LIG d   1       4.697  -6.069  -6.006  0.00  0.00    -0.080 C 
ATOM     30  H   LIG d   1       5.058  -4.987  -4.276  0.00  0.00     0.057 H 
BRANCH  29  31
ATOM     31  C   LIG d   1       4.280  -6.024  -7.454  0.00  0.00    -0.044 C 
ATOM     32  H   LIG d   1       3.220  -5.780  -7.520  0.00  0.00     0.027 H 
ATOM     33  H   LIG d   1       4.861  -5.264  -7.975  0.00  0.00     0.027 H 
ATOM     34  H   LIG d   1       4.459  -6.997  -7.913  0.00  0.00     0.027 H 
ENDBRANCH  29  31
BRANCH  29  35
ATOM     35  C   LIG d   1       4.933  -7.394  -5.330  0.00  0.00    -0.044 C 
ATOM     36  H   LIG d   1       5.340  -7.227  -4.333  0.00  0.00     0.027 H 
ATOM     37  H   LIG d   1       3.989  -7.935  -5.251  0.00  0.00     0.027 H 
ATOM     38  H   LIG d   1       5.639  -7.981  -5.917  0.00  0.00     0.027 H 
ENDBRANCH  29  35
ENDBRANCH  25  28
ENDBRANCH   1  25
TORSDOF 8
ENDMDL
MODEL 7
REMARK VINA RESULT:      -5.0      2.402      4.719
REMARK  8 active torsions:
REMARK  status: ('A' for Active; 'I' for Inactive)
REMARK    1  A    between atoms: C_1  and  C_2 
REMARK    2  A    between atoms: C_2  and  C_19 
REMARK    3  A    between atoms: C_3  and  C_4 
REMARK    4  A    between atoms: C_4  and  C_5 
REMARK    5  A    between atoms: C_5  and  C_14 
REMARK    6  A    between atoms: C_14  and  C_15 
REMARK    7  A    between atoms: C_16  and  C_17 
REMARK    8  A    between atoms: C_16  and  C_18 
ROOT
ATOM      1  C   LIG d   1       4.848  -1.209  -5.976  0.00  0.00     0.100 A 
ATOM      2  C   LIG d   1       6.130  -0.423  -6.090  0.00  0.00     0.142 A 
ATOM      3  O   LIG d   1       6.274   0.623  -6.675  0.00  0.00    -0.297 OA
ATOM      4  C   LIG d   1       7.196  -1.181  -5.340  0.00  0.00     0.004 A 
ATOM      5  C   LIG d   1       6.566  -2.425  -4.770  0.00  0.00     0.193 A 
ATOM      6  C   LIG d   1       5.132  -2.442  -5.158  0.00  0.00     0.211 A 
ATOM      7  O   LIG d   1       4.332  -3.299  -4.868  0.00  0.00    -0.288 OA
ATOM      8  O   LIG d   1       7.130  -3.265  -4.111  0.00  0.00    -0.290 OA
ATOM      9  O   LIG d   1       8.253  -1.540  -6.232  0.00  0.00    -0.842 OA
ATOM     10  H   LIG d   1       7.588  -0.563  -4.532  0.00  0.00     0.027 H 
ENDROOT
BRANCH   1  11
ATOM     11  C   LIG d   1       4.361  -1.613  -7.369  0.00  0.00    -0.015 C 
ATOM     12  H   LIG d   1       3.944  -2.619  -7.331  0.00  0.00     0.032 H 
ATOM     13  H   LIG d   1       5.198  -1.592  -8.068  0.00  0.00     0.032 H 
BRANCH  11  14
ATOM     14  C   LIG d   1       3.299  -0.647  -7.829  0.00  0.00    -0.084 C 
ATOM     15  C   LIG d   1       3.496   0.082  -8.899  0.00  0.00    -0.080 C 
ATOM     16  H   LIG d   1       2.376  -0.555  -7.275  0.00  0.00     0.057 H 
BRANCH  15  17
ATOM     17  C   LIG d   1       4.725  -0.134  -9.743  0.00  0.00    -0.044 C 
ATOM     18  H   LIG d   1       5.608  -0.142  -9.103  0.00  0.00     0.027 H 
ATOM     19  H   LIG d   1       4.647  -1.089 -10.263  0.00  0.00     0.027 H 
ATOM     20  H   LIG d   1       4.813   0.671 -10.472  0.00  0.00     0.027 H 
ENDBRANCH  15  17
BRANCH  15  21
ATOM     21  C   LIG d   1       2.492   1.137  -9.288  0.00  0.00    -0.044 C 
ATOM     22  H   LIG d   1       2.620   2.013  -8.651  0.00  0.00     0.027 H 
ATOM     23  H   LIG d   1       2.645   1.418 -10.328  0.00  0.00     0.027 H 
ATOM     24  H   LIG d   1       1.484   0.742  -9.163  0.00  0.00     0.027 H 
ENDBRANCH  15  21
ENDBRANCH  11  14
ENDBRANCH   1  11
BRANCH   1  25
ATOM     25  C   LIG d   1       3.780  -0.362  -5.281  0.00  0.00    -0.015 C 
ATOM     26  H   LIG d   1       3.422   0.405  -5.966  0.00  0.00     0.032 H 
ATOM     27  H   LIG d   1       2.948  -1.000  -4.983  0.00  0.00     0.032 H 
BRANCH  25  28
ATOM     28  C   LIG d   1       4.374   0.291  -4.059  0.00  0.00    -0.084 C 
ATOM     29  C   LIG d   1       3.898   0.011  -2.870  0.00  0.00    -0.080 C 
ATOM     30  H   LIG d   1       5.191   0.989  -4.163  0.00  0.00     0.057 H 
BRANCH  29  31
ATOM     31  C   LIG d   1       2.673  -0.855  -2.734  0.00  0.00    -0.044 C 
ATOM     32  H   LIG d   1       2.538  -1.133  -1.688  0.00  0.00     0.027 H 
ATOM     33  H   LIG d   1       1.799  -0.305  -3.079  0.00  0.00     0.027 H 
ATOM     34  H   LIG d   1       2.797  -1.756  -3.336  0.00  0.00     0.027 H 
ENDBRANCH  29  31
BRANCH  29  35
ATOM     35  C   LIG d   1       4.578   0.555  -1.641  0.00  0.00    -0.044 C 
ATOM     36  H   LIG d   1       5.649   0.638  -1.823  0.00  0.00     0.027 H 
ATOM     37  H   LIG d   1       4.173   1.541  -1.408  0.00  0.00     0.027 H 
ATOM     38  H   LIG d   1       4.402  -0.117  -0.801  0.00  0.00     0.027 H 
ENDBRANCH  29  35
ENDBRANCH  25  28
ENDBRANCH   1  25
TORSDOF 8
ENDMDL
MODEL 8
REMARK VINA RESULT:      -5.0      2.270      4.745
REMARK  8 active torsions:
REMARK  status: ('A' for Active; 'I' for Inactive)
REMARK    1  A    between atoms: C_1  and  C_2 
REMARK    2  A    between atoms: C_2  and  C_19 
REMARK    3  A    between atoms: C_3  and  C_4 
REMARK    4  A    between atoms: C_4  and  C_5 
REMARK    5  A    between atoms: C_5  and  C_14 
REMARK    6  A    between atoms: C_14  and  C_15 
REMARK    7  A    between atoms: C_16  and  C_17 
REMARK    8  A    between atoms: C_16  and  C_18 
ROOT
ATOM      1  C   LIG d   1       6.194  -1.820  -5.088  0.00  0.00     0.100 A 
ATOM      2  C   LIG d   1       7.477  -1.948  -5.870  0.00  0.00     0.142 A 
ATOM      3  O   LIG d   1       8.364  -1.130  -5.923  0.00  0.00    -0.297 OA
ATOM      4  C   LIG d   1       7.452  -3.283  -6.571  0.00  0.00     0.004 A 
ATOM      5  C   LIG d   1       6.157  -3.967  -6.217  0.00  0.00     0.193 A 
ATOM      6  C   LIG d   1       5.389  -3.074  -5.312  0.00  0.00     0.211 A 
ATOM      7  O   LIG d   1       4.305  -3.313  -4.838  0.00  0.00    -0.288 OA
ATOM      8  O   LIG d   1       5.804  -5.055  -6.605  0.00  0.00    -0.290 OA
ATOM      9  O   LIG d   1       7.526  -3.088  -7.985  0.00  0.00    -0.842 OA
ATOM     10  H   LIG d   1       8.293  -3.891  -6.237  0.00  0.00     0.027 H 
ENDROOT
BRANCH   1  11
ATOM     11  C   LIG d   1       5.406  -0.604  -5.580  0.00  0.00    -0.015 C 
ATOM     12  H   LIG d   1       6.075   0.252  -5.664  0.00  0.00     0.032 H 
ATOM     13  H   LIG d   1       4.610  -0.376  -4.871  0.00  0.00     0.032 H 
BRANCH  11  14
ATOM     14  C   LIG d   1       4.806  -0.907  -6.929  0.00  0.00    -0.084 C 
ATOM     15  C   LIG d   1       3.576  -0.544  -7.195  0.00  0.00    -0.080 C 
ATOM     16  H   LIG d   1       5.391  -1.424  -7.676  0.00  0.00     0.057 H 
BRANCH  15  17
ATOM     17  C   LIG d   1       2.804   0.285  -6.202  0.00  0.00    -0.044 C 
ATOM     18  H   LIG d   1       2.908   1.341  -6.453  0.00  0.00     0.027 H 
ATOM     19  H   LIG d   1       1.750   0.007  -6.236  0.00  0.00     0.027 H 
ATOM     20  H   LIG d   1       3.195   0.110  -5.200  0.00  0.00     0.027 H 
ENDBRANCH  15  17
BRANCH  15  21
ATOM     21  C   LIG d   1       2.934  -0.957  -8.494  0.00  0.00    -0.044 C 
ATOM     22  H   LIG d   1       2.332  -1.852  -8.334  0.00  0.00     0.027 H 
ATOM     23  H   LIG d   1       2.297  -0.150  -8.856  0.00  0.00     0.027 H 
ATOM     24  H   LIG d   1       3.708  -1.167  -9.231  0.00  0.00     0.027 H 
ENDBRANCH  15  21
ENDBRANCH  11  14
ENDBRANCH   1  11
BRANCH   1  25
ATOM     25  C   LIG d   1       6.507  -1.666  -3.598  0.00  0.00    -0.015 C 
ATOM     26  H   LIG d   1       6.045  -2.481  -3.043  0.00  0.00     0.032 H 
ATOM     27  H   LIG d   1       7.586  -1.691  -3.449  0.00  0.00     0.032 H 
BRANCH  25  28
ATOM     28  C   LIG d   1       5.963  -0.349  -3.105  0.00  0.00    -0.084 C 
ATOM     29  C   LIG d   1       4.952  -0.329  -2.271  0.00  0.00    -0.080 C 
ATOM     30  H   LIG d   1       6.406   0.577  -3.439  0.00  0.00     0.057 H 
BRANCH  29  31
ATOM     31  C   LIG d   1       4.248  -1.612  -1.910  0.00  0.00    -0.044 C 
ATOM     32  H   LIG d   1       3.710  -1.989  -2.780  0.00  0.00     0.027 H 
ATOM     33  H   LIG d   1       4.982  -2.351  -1.589  0.00  0.00     0.027 H 
ATOM     34  H   LIG d   1       3.543  -1.424  -1.100  0.00  0.00     0.027 H 
ENDBRANCH  29  31
BRANCH  29  35
ATOM     35  C   LIG d   1       4.497   0.975  -1.672  0.00  0.00    -0.044 C 
ATOM     36  H   LIG d   1       5.305   1.407  -1.081  0.00  0.00     0.027 H 
ATOM     37  H   LIG d   1       4.222   1.666  -2.470  0.00  0.00     0.027 H 
ATOM     38  H   LIG d   1       3.633   0.799  -1.031  0.00  0.00     0.027 H 
ENDBRANCH  29  35
ENDBRANCH  25  28
ENDBRANCH   1  25
TORSDOF 8
ENDMDL
MODEL 9
REMARK VINA RESULT:      -4.7      1.639      5.022
REMARK  8 active torsions:
REMARK  status: ('A' for Active; 'I' for Inactive)
REMARK    1  A    between atoms: C_1  and  C_2 
REMARK    2  A    between atoms: C_2  and  C_19 
REMARK    3  A    between atoms: C_3  and  C_4 
REMARK    4  A    between atoms: C_4  and  C_5 
REMARK    5  A    between atoms: C_5  and  C_14 
REMARK    6  A    between atoms: C_14  and  C_15 
REMARK    7  A    between atoms: C_16  and  C_17 
REMARK    8  A    between atoms: C_16  and  C_18 
ROOT
ATOM      1  C   LIG d   1       4.127  -0.538  -5.096  0.00  0.00     0.100 A 
ATOM      2  C   LIG d   1       5.497   0.088  -5.040  0.00  0.00     0.142 A 
ATOM      3  O   LIG d   1       6.204   0.341  -5.985  0.00  0.00    -0.297 OA
ATOM      4  C   LIG d   1       5.823   0.342  -3.589  0.00  0.00     0.004 A 
ATOM      5  C   LIG d   1       4.653  -0.127  -2.763  0.00  0.00     0.193 A 
ATOM      6  C   LIG d   1       3.618  -0.664  -3.683  0.00  0.00     0.211 A 
ATOM      7  O   LIG d   1       2.551  -1.124  -3.354  0.00  0.00    -0.288 OA
ATOM      8  O   LIG d   1       4.573  -0.077  -1.560  0.00  0.00    -0.290 OA
ATOM      9  O   LIG d   1       6.997  -0.385  -3.223  0.00  0.00    -0.842 OA
ATOM     10  H   LIG d   1       5.983   1.408  -3.429  0.00  0.00     0.027 H 
ENDROOT
BRANCH   1  11
ATOM     11  C   LIG d   1       4.214  -1.922  -5.741  0.00  0.00    -0.015 C 
ATOM     12  H   LIG d   1       4.519  -1.819  -6.782  0.00  0.00     0.032 H 
ATOM     13  H   LIG d   1       3.240  -2.408  -5.693  0.00  0.00     0.032 H 
BRANCH  11  14
ATOM     14  C   LIG d   1       5.229  -2.757  -5.002  0.00  0.00    -0.084 C 
ATOM     15  C   LIG d   1       6.210  -3.327  -5.656  0.00  0.00    -0.080 C 
ATOM     16  H   LIG d   1       5.146  -2.885  -3.932  0.00  0.00     0.057 H 
BRANCH  15  17
ATOM     17  C   LIG d   1       6.399  -3.047  -7.124  0.00  0.00    -0.044 C 
ATOM     18  H   LIG d   1       7.144  -3.731  -7.532  0.00  0.00     0.027 H 
ATOM     19  H   LIG d   1       5.452  -3.188  -7.647  0.00  0.00     0.027 H 
ATOM     20  H   LIG d   1       6.739  -2.020  -7.258  0.00  0.00     0.027 H 
ENDBRANCH  15  17
BRANCH  15  21
ATOM     21  C   LIG d   1       7.149  -4.263  -4.940  0.00  0.00    -0.044 C 
ATOM     22  H   LIG d   1       6.605  -5.153  -4.624  0.00  0.00     0.027 H 
ATOM     23  H   LIG d   1       7.957  -4.550  -5.612  0.00  0.00     0.027 H 
ATOM     24  H   LIG d   1       7.564  -3.762  -4.066  0.00  0.00     0.027 H 
ENDBRANCH  15  21
ENDBRANCH  11  14
ENDBRANCH   1  11
BRANCH   1  25
ATOM     25  C   LIG d   1       3.183   0.352  -5.908  0.00  0.00    -0.015 C 
ATOM     26  H   LIG d   1       2.245   0.474  -5.368  0.00  0.00     0.032 H 
ATOM     27  H   LIG d   1       3.644   1.328  -6.060  0.00  0.00     0.032 H 
BRANCH  25  28
ATOM     28  C   LIG d   1       2.914  -0.290  -7.245  0.00  0.00    -0.084 C 
ATOM     29  C   LIG d   1       2.824   0.452  -8.321  0.00  0.00    -0.080 C 
ATOM     30  H   LIG d   1       2.796  -1.361  -7.316  0.00  0.00     0.057 H 
BRANCH  29  31
ATOM     31  C   LIG d   1       2.854   1.954  -8.205  0.00  0.00    -0.044 C 
ATOM     32  H   LIG d   1       2.206   2.391  -8.966  0.00  0.00     0.027 H 
ATOM     33  H   LIG d   1       2.502   2.249  -7.217  0.00  0.00     0.027 H 
ATOM     34  H   LIG d   1       3.874   2.310  -8.349  0.00  0.00     0.027 H 
ENDBRANCH  29  31
BRANCH  29  35
ATOM     35  C   LIG d   1       2.693  -0.197  -9.674  0.00  0.00    -0.044 C 
ATOM     36  H   LIG d   1       1.638  -0.296  -9.930  0.00  0.00     0.027 H 
ATOM     37  H   LIG d   1       3.191   0.420 -10.423  0.00  0.00     0.027 H 
ATOM     38  H   LIG d   1       3.156  -1.183  -9.650  0.00  0.00     0.027 H 
ENDBRANCH  29  35
ENDBRANCH  25  28
ENDBRANCH   1  25
TORSDOF 8
ENDMDL
