MODEL 1
REMARK VINA RESULT:      -5.0      0.000      0.000
REMARK  4 active torsions:
REMARK  status: ('A' for Active; 'I' for Inactive)
REMARK    1  A    between atoms: CD1_1  and  CG_2 
REMARK    2  A    between atoms: CG_2  and  CD2_3 
REMARK    3  A    between atoms: CG_2  and  CB_4 
REMARK    4  A    between atoms: CB_4  and  CA_5 
REMARK       I    between atoms: CA_5  and  C_7 
REMARK       I    between atoms: CA_5  and  N_9 
REMARK       I    between atoms: N_9  and  C_10 
REMARK       I    between atoms: C_10  and  N_12 
ROOT
ATOM      1  CB  LEU d   1       5.891   0.643  -2.913  0.00  0.00    -0.027 C 
ATOM      2  HB1 LEU d   1       5.688   1.491  -3.567  0.00  0.00     0.029 H 
ATOM      3  HB2 LEU d   1       6.804   0.832  -2.347  0.00  0.00     0.029 H 
ENDROOT
BRANCH   1   4
ATOM      4  CG  LEU d   1       4.721   0.454  -1.944  0.00  0.00    -0.045 C 
ATOM      5  HG  LEU d   1       5.024   0.767  -0.945  0.00  0.00     0.030 H 
BRANCH   4   6
ATOM      6  CD1 LEU d   1       3.534   1.300  -2.408  0.00  0.00    -0.063 C 
ATOM      7 1HD1 LEU d   1       2.667   1.083  -1.784  0.00  0.00     0.023 H 
ATOM      8 2HD1 LEU d   1       3.788   2.357  -2.323  0.00  0.00     0.023 H 
ATOM      9 3HD1 LEU d   1       3.304   1.064  -3.446  0.00  0.00     0.023 H 
ENDBRANCH   4   6
BRANCH   4  10
ATOM     10  CD2 LEU d   1       4.317  -1.022  -1.917  0.00  0.00    -0.063 C 
ATOM     11 1HD2 LEU d   1       4.824  -1.522  -1.092  0.00  0.00     0.023 H 
ATOM     12 2HD2 LEU d   1       3.238  -1.100  -1.781  0.00  0.00     0.023 H 
ATOM     13 3HD2 LEU d   1       4.600  -1.494  -2.858  0.00  0.00     0.023 H 
ENDBRANCH   4  10
ENDBRANCH   1   4
BRANCH   1  14
ATOM     14  CA  LEU d   1       6.065  -0.621  -3.756  0.00  0.00     0.064 C 
ATOM     15  HA  LEU d   1       5.332  -1.368  -3.449  0.00  0.00     0.056 H 
ATOM     16  C   LEU d   1       5.863  -0.287  -5.211  0.00  0.00     0.062 C 
ATOM     17  O   LEU d   1       6.753  -0.475  -6.005  0.00  0.00    -0.548 OA
ATOM     18  OXT LEU d   1       4.691   0.220  -5.626  0.00  0.00    -0.548 OA
ATOM     19  N   LEU d   1       7.416  -1.156  -3.562  0.00  0.00    -0.292 N 
ATOM     20  C   UNK d   0       7.658  -2.466  -3.764  0.00  0.00     0.297 C 
ATOM     21  H   LEU d   1       8.136  -0.565  -3.288  0.00  0.00     0.151 HD
ATOM     22  O   UNK d   0       6.756  -3.205  -4.107  0.00  0.00    -0.253 OA
ATOM     23  N   UNK d   0       8.900  -2.957  -3.585  0.00  0.00    -0.313 N 
ATOM     24  H   UNK d   0       9.620  -2.367  -3.311  0.00  0.00     0.146 HD
ATOM     25  H   UNK d   0       9.074  -3.900  -3.731  0.00  0.00     0.146 HD
ENDBRANCH   1  14
TORSDOF 6
ENDMDL
MODEL 2
REMARK VINA RESULT:      -5.0      2.640      3.215
REMARK  4 active torsions:
REMARK  status: ('A' for Active; 'I' for Inactive)
REMARK    1  A    between atoms: CD1_1  and  CG_2 
REMARK    2  A    between atoms: CG_2  and  CD2_3 
REMARK    3  A    between atoms: CG_2  and  CB_4 
REMARK    4  A    between atoms: CB_4  and  CA_5 
REMARK       I    between atoms: CA_5  and  C_7 
REMARK       I    between atoms: CA_5  and  N_9 
REMARK       I    between atoms: N_9  and  C_10 
REMARK       I    between atoms: C_10  and  N_12 
ROOT
ATOM      1  CB  LEU d   1       3.947  -1.441  -2.551  0.00  0.00    -0.027 C 
ATOM      2  HB1 LEU d   1       4.675  -1.359  -1.744  0.00  0.00     0.029 H 
ATOM      3  HB2 LEU d   1       3.258  -2.258  -2.335  0.00  0.00     0.029 H 
ENDROOT
BRANCH   1   4
ATOM      4  CG  LEU d   1       3.163  -0.132  -2.667  0.00  0.00    -0.045 C 
ATOM      5  HG  LEU d   1       2.224  -0.221  -2.121  0.00  0.00     0.030 H 
BRANCH   4   6
ATOM      6  CD1 LEU d   1       3.991   1.011  -2.077  0.00  0.00    -0.063 C 
ATOM      7 1HD1 LEU d   1       3.975   1.862  -2.758  0.00  0.00     0.023 H 
ATOM      8 2HD1 LEU d   1       3.568   1.306  -1.116  0.00  0.00     0.023 H 
ATOM      9 3HD1 LEU d   1       5.019   0.679  -1.934  0.00  0.00     0.023 H 
ENDBRANCH   4   6
BRANCH   4  10
ATOM     10  CD2 LEU d   1       2.872   0.158  -4.141  0.00  0.00    -0.063 C 
ATOM     11 1HD2 LEU d   1       2.588   1.204  -4.256  0.00  0.00     0.023 H 
ATOM     12 2HD2 LEU d   1       3.764  -0.044  -4.734  0.00  0.00     0.023 H 
ATOM     13 3HD2 LEU d   1       2.056  -0.480  -4.483  0.00  0.00     0.023 H 
ENDBRANCH   4  10
ENDBRANCH   1   4
BRANCH   1  14
ATOM     14  CA  LEU d   1       4.674  -1.720  -3.868  0.00  0.00     0.064 C 
ATOM     15  HA  LEU d   1       4.448  -0.929  -4.583  0.00  0.00     0.056 H 
ATOM     16  C   LEU d   1       6.160  -1.766  -3.621  0.00  0.00     0.062 C 
ATOM     17  O   LEU d   1       6.783  -2.770  -3.871  0.00  0.00    -0.548 OA
ATOM     18  OXT LEU d   1       6.790  -0.691  -3.124  0.00  0.00    -0.548 OA
ATOM     19  N   LEU d   1       4.229  -3.007  -4.408  0.00  0.00    -0.292 N 
ATOM     20  C   UNK d   0       4.311  -3.246  -5.731  0.00  0.00     0.297 C 
ATOM     21  H   LEU d   1       3.875  -3.687  -3.813  0.00  0.00     0.151 HD
ATOM     22  O   UNK d   0       4.753  -2.395  -6.477  0.00  0.00    -0.253 OA
ATOM     23  N   UNK d   0       3.901  -4.430  -6.229  0.00  0.00    -0.313 N 
ATOM     24  H   UNK d   0       3.548  -5.110  -5.634  0.00  0.00     0.146 HD
ATOM     25  H   UNK d   0       3.960  -4.603  -7.181  0.00  0.00     0.146 HD
ENDBRANCH   1  14
TORSDOF 6
ENDMDL
MODEL 3
REMARK VINA RESULT:      -4.9      2.916      4.153
REMARK  4 active torsions:
REMARK  status: ('A' for Active; 'I' for Inactive)
REMARK    1  A    between atoms: CD1_1  and  CG_2 
REMARK    2  A    between atoms: CG_2  and  CD2_3 
REMARK    3  A    between atoms: CG_2  and  CB_4 
REMARK    4  A    between atoms: CB_4  and  CA_5 
REMARK       I    between atoms: CA_5  and  C_7 
REMARK       I    between atoms: CA_5  and  N_9 
REMARK       I    between atoms: N_9  and  C_10 
REMARK       I    between atoms: C_10  and  N_12 
ROOT
ATOM      1  CB  LEU d   1       4.310  -2.053  -4.092  0.00  0.00    -0.027 C 
ATOM      2  HB1 LEU d   1       5.340  -2.317  -3.854  0.00  0.00     0.029 H 
ATOM      3  HB2 LEU d   1       3.831  -2.887  -4.606  0.00  0.00     0.029 H 
ENDROOT
BRANCH   1   4
ATOM      4  CG  LEU d   1       3.550  -1.747  -2.799  0.00  0.00    -0.045 C 
ATOM      5  HG  LEU d   1       3.005  -2.635  -2.480  0.00  0.00     0.030 H 
BRANCH   4   6
ATOM      6  CD1 LEU d   1       4.543  -1.338  -1.710  0.00  0.00    -0.063 C 
ATOM      7 1HD1 LEU d   1       5.074  -0.438  -2.021  0.00  0.00     0.023 H 
ATOM      8 2HD1 LEU d   1       4.004  -1.140  -0.783  0.00  0.00     0.023 H 
ATOM      9 3HD1 LEU d   1       5.258  -2.145  -1.548  0.00  0.00     0.023 H 
ENDBRANCH   4   6
BRANCH   4  10
ATOM     10  CD2 LEU d   1       2.564  -0.604  -3.047  0.00  0.00    -0.063 C 
ATOM     11 1HD2 LEU d   1       2.663  -0.255  -4.074  0.00  0.00     0.023 H 
ATOM     12 2HD2 LEU d   1       1.547  -0.959  -2.880  0.00  0.00     0.023 H 
ATOM     13 3HD2 LEU d   1       2.779   0.217  -2.361  0.00  0.00     0.023 H 
ENDBRANCH   4  10
ENDBRANCH   1   4
BRANCH   1  14
ATOM     14  CA  LEU d   1       4.296  -0.819  -4.997  0.00  0.00     0.064 C 
ATOM     15  HA  LEU d   1       3.775  -0.005  -4.493  0.00  0.00     0.056 H 
ATOM     16  C   LEU d   1       5.711  -0.400  -5.298  0.00  0.00     0.062 C 
ATOM     17  O   LEU d   1       6.103  -0.372  -6.440  0.00  0.00    -0.548 OA
ATOM     18  OXT LEU d   1       6.536  -0.058  -4.296  0.00  0.00    -0.548 OA
ATOM     19  N   LEU d   1       3.605  -1.140  -6.249  0.00  0.00    -0.292 N 
ATOM     20  C   UNK d   0       3.025  -0.160  -6.968  0.00  0.00     0.297 C 
ATOM     21  H   LEU d   1       3.565  -2.059  -6.559  0.00  0.00     0.151 HD
ATOM     22  O   UNK d   0       3.074   0.991  -6.579  0.00  0.00    -0.253 OA
ATOM     23  N   UNK d   0       2.389  -0.454  -8.120  0.00  0.00    -0.313 N 
ATOM     24  H   UNK d   0       2.350  -1.373  -8.431  0.00  0.00     0.146 HD
ATOM     25  H   UNK d   0       1.972   0.251  -8.638  0.00  0.00     0.146 HD
ENDBRANCH   1  14
TORSDOF 6
ENDMDL
MODEL 4
REMARK VINA RESULT:      -4.9      2.936      4.107
REMARK  4 active torsions:
REMARK  status: ('A' for Active; 'I' for Inactive)
REMARK    1  A    between atoms: CD1_1  and  CG_2 
REMARK    2  A    between atoms: CG_2  and  CD2_3 
REMARK    3  A    between atoms: CG_2  and  CB_4 
REMARK    4  A    between atoms: CB_4  and  CA_5 
REMARK       I    between atoms: CA_5  and  C_7 
REMARK       I    between atoms: CA_5  and  N_9 
REMARK       I    between atoms: N_9  and  C_10 
REMARK       I    between atoms: C_10  and  N_12 
ROOT
ATOM      1  CB  LEU d   1       3.075  -0.509  -3.067  0.00  0.00    -0.027 C 
ATOM      2  HB1 LEU d   1       3.336  -1.356  -2.432  0.00  0.00     0.029 H 
ATOM      3  HB2 LEU d   1       2.011  -0.547  -3.304  0.00  0.00     0.029 H 
ENDROOT
BRANCH   1   4
ATOM      4  CG  LEU d   1       3.387   0.796  -2.331  0.00  0.00    -0.045 C 
ATOM      5  HG  LEU d   1       2.593   1.007  -1.615  0.00  0.00     0.030 H 
BRANCH   4   6
ATOM      6  CD1 LEU d   1       4.719   0.657  -1.591  0.00  0.00    -0.063 C 
ATOM      7 1HD1 LEU d   1       4.763   1.385  -0.781  0.00  0.00     0.023 H 
ATOM      8 2HD1 LEU d   1       4.802  -0.349  -1.180  0.00  0.00     0.023 H 
ATOM      9 3HD1 LEU d   1       5.540   0.835  -2.285  0.00  0.00     0.023 H 
ENDBRANCH   4   6
BRANCH   4  10
ATOM     10  CD2 LEU d   1       3.481   1.941  -3.341  0.00  0.00    -0.063 C 
ATOM     11 1HD2 LEU d   1       4.461   1.924  -3.819  0.00  0.00     0.023 H 
ATOM     12 2HD2 LEU d   1       2.706   1.822  -4.098  0.00  0.00     0.023 H 
ATOM     13 3HD2 LEU d   1       3.344   2.892  -2.826  0.00  0.00     0.023 H 
ENDBRANCH   4  10
ENDBRANCH   1   4
BRANCH   1  14
ATOM     14  CA  LEU d   1       3.889  -0.572  -4.361  0.00  0.00     0.064 C 
ATOM     15  HA  LEU d   1       4.563   0.284  -4.409  0.00  0.00     0.056 H 
ATOM     16  C   LEU d   1       4.692  -1.847  -4.389  0.00  0.00     0.062 C 
ATOM     17  O   LEU d   1       4.523  -2.648  -5.276  0.00  0.00    -0.548 OA
ATOM     18  OXT LEU d   1       5.594  -2.091  -3.426  0.00  0.00    -0.548 OA
ATOM     19  N   LEU d   1       2.981  -0.543  -5.511  0.00  0.00    -0.292 N 
ATOM     20  C   UNK d   0       3.417  -0.090  -6.703  0.00  0.00     0.297 C 
ATOM     21  H   LEU d   1       2.065  -0.849  -5.414  0.00  0.00     0.151 HD
ATOM     22  O   UNK d   0       4.564   0.294  -6.824  0.00  0.00    -0.253 OA
ATOM     23  N   UNK d   0       2.582  -0.063  -7.760  0.00  0.00    -0.313 N 
ATOM     24  H   UNK d   0       1.666  -0.369  -7.663  0.00  0.00     0.146 HD
ATOM     25  H   UNK d   0       2.896   0.262  -8.618  0.00  0.00     0.146 HD
ENDBRANCH   1  14
TORSDOF 6
ENDMDL
MODEL 5
REMARK VINA RESULT:      -4.6      2.396      2.953
REMARK  4 active torsions:
REMARK  status: ('A' for Active; 'I' for Inactive)
REMARK    1  A    between atoms: CD1_1  and  CG_2 
REMARK    2  A    between atoms: CG_2  and  CD2_3 
REMARK    3  A    between atoms: CG_2  and  CB_4 
REMARK    4  A    between atoms: CB_4  and  CA_5 
REMARK       I    between atoms: CA_5  and  C_7 
REMARK       I    between atoms: CA_5  and  N_9 
REMARK       I    between atoms: N_9  and  C_10 
REMARK       I    between atoms: C_10  and  N_12 
ROOT
ATOM      1  CB  LEU d   1       3.414  -0.614  -4.034  0.00  0.00    -0.027 C 
ATOM      2  HB1 LEU d   1       2.719  -1.427  -4.245  0.00  0.00     0.029 H 
ATOM      3  HB2 LEU d   1       3.120   0.270  -4.601  0.00  0.00     0.029 H 
ENDROOT
BRANCH   1   4
ATOM      4  CG  LEU d   1       3.387  -0.293  -2.538  0.00  0.00    -0.045 C 
ATOM      5  HG  LEU d   1       2.393  -0.499  -2.141  0.00  0.00     0.030 H 
BRANCH   4   6
ATOM      6  CD1 LEU d   1       4.417  -1.161  -1.813  0.00  0.00    -0.063 C 
ATOM      7 1HD1 LEU d   1       4.071  -1.365  -0.799  0.00  0.00     0.023 H 
ATOM      8 2HD1 LEU d   1       4.541  -2.101  -2.350  0.00  0.00     0.023 H 
ATOM      9 3HD1 LEU d   1       5.371  -0.636  -1.773  0.00  0.00     0.023 H 
ENDBRANCH   4   6
BRANCH   4  10
ATOM     10  CD2 LEU d   1       3.725   1.184  -2.327  0.00  0.00    -0.063 C 
ATOM     11 1HD2 LEU d   1       2.870   1.797  -2.613  0.00  0.00     0.023 H 
ATOM     12 2HD2 LEU d   1       3.961   1.356  -1.277  0.00  0.00     0.023 H 
ATOM     13 3HD2 LEU d   1       4.586   1.451  -2.941  0.00  0.00     0.023 H 
ENDBRANCH   4  10
ENDBRANCH   1   4
BRANCH   1  14
ATOM     14  CA  LEU d   1       4.828  -1.034  -4.441  0.00  0.00     0.064 C 
ATOM     15  HA  LEU d   1       5.444  -1.148  -3.549  0.00  0.00     0.056 H 
ATOM     16  C   LEU d   1       4.770  -2.344  -5.183  0.00  0.00     0.062 C 
ATOM     17  O   LEU d   1       5.174  -2.414  -6.319  0.00  0.00    -0.548 OA
ATOM     18  OXT LEU d   1       4.269  -3.433  -4.580  0.00  0.00    -0.548 OA
ATOM     19  N   LEU d   1       5.412  -0.007  -5.308  0.00  0.00    -0.292 N 
ATOM     20  C   UNK d   0       6.750   0.126  -5.388  0.00  0.00     0.297 C 
ATOM     21  H   LEU d   1       4.834   0.577  -5.825  0.00  0.00     0.151 HD
ATOM     22  O   UNK d   0       7.474  -0.605  -4.740  0.00  0.00    -0.253 OA
ATOM     23  N   UNK d   0       7.287   1.070  -6.185  0.00  0.00    -0.313 N 
ATOM     24  H   UNK d   0       6.710   1.654  -6.703  0.00  0.00     0.146 HD
ATOM     25  H   UNK d   0       8.251   1.166  -6.244  0.00  0.00     0.146 HD
ENDBRANCH   1  14
TORSDOF 6
ENDMDL
MODEL 6
REMARK VINA RESULT:      -4.3      3.032      4.637
REMARK  4 active torsions:
REMARK  status: ('A' for Active; 'I' for Inactive)
REMARK    1  A    between atoms: CD1_1  and  CG_2 
REMARK    2  A    between atoms: CG_2  and  CD2_3 
REMARK    3  A    between atoms: CG_2  and  CB_4 
REMARK    4  A    between atoms: CB_4  and  CA_5 
REMARK       I    between atoms: CA_5  and  C_7 
REMARK       I    between atoms: CA_5  and  N_9 
REMARK       I    between atoms: N_9  and  C_10 
REMARK       I    between atoms: C_10  and  N_12 
ROOT
ATOM      1  CB  LEU d   1       4.376  -2.212  -3.282  0.00  0.00    -0.027 C 
ATOM      2  HB1 LEU d   1       3.608  -2.986  -3.305  0.00  0.00     0.029 H 
ATOM      3  HB2 LEU d   1       4.839  -2.190  -2.295  0.00  0.00     0.029 H 
ENDROOT
BRANCH   1   4
ATOM      4  CG  LEU d   1       5.440  -2.517  -4.338  0.00  0.00    -0.045 C 
ATOM      5  HG  LEU d   1       5.367  -1.791  -5.147  0.00  0.00     0.030 H 
BRANCH   4   6
ATOM      6  CD1 LEU d   1       6.829  -2.434  -3.701  0.00  0.00    -0.063 C 
ATOM      7 1HD1 LEU d   1       7.549  -2.961  -4.327  0.00  0.00     0.023 H 
ATOM      8 2HD1 LEU d   1       7.123  -1.388  -3.609  0.00  0.00     0.023 H 
ATOM      9 3HD1 LEU d   1       6.803  -2.892  -2.712  0.00  0.00     0.023 H 
ENDBRANCH   4   6
BRANCH   4  10
ATOM     10  CD2 LEU d   1       5.217  -3.926  -4.893  0.00  0.00    -0.063 C 
ATOM     11 1HD2 LEU d   1       6.155  -4.480  -4.863  0.00  0.00     0.023 H 
ATOM     12 2HD2 LEU d   1       4.470  -4.441  -4.288  0.00  0.00     0.023 H 
ATOM     13 3HD2 LEU d   1       4.867  -3.859  -5.924  0.00  0.00     0.023 H 
ENDBRANCH   4  10
ENDBRANCH   1   4
BRANCH   1  14
ATOM     14  CA  LEU d   1       3.739  -0.853  -3.577  0.00  0.00     0.064 C 
ATOM     15  HA  LEU d   1       2.694  -0.865  -3.265  0.00  0.00     0.056 H 
ATOM     16  C   LEU d   1       4.476   0.223  -2.822  0.00  0.00     0.062 C 
ATOM     17  O   LEU d   1       5.010   1.125  -3.422  0.00  0.00    -0.548 OA
ATOM     18  OXT LEU d   1       4.538   0.179  -1.482  0.00  0.00    -0.548 OA
ATOM     19  N   LEU d   1       3.815  -0.580  -5.014  0.00  0.00    -0.292 N 
ATOM     20  C   UNK d   0       2.927   0.253  -5.591  0.00  0.00     0.297 C 
ATOM     21  H   LEU d   1       4.506  -1.000  -5.552  0.00  0.00     0.151 HD
ATOM     22  O   UNK d   0       2.061   0.779  -4.918  0.00  0.00    -0.253 OA
ATOM     23  N   UNK d   0       2.997   0.504  -6.913  0.00  0.00    -0.313 N 
ATOM     24  H   UNK d   0       3.688   0.085  -7.450  0.00  0.00     0.146 HD
ATOM     25  H   UNK d   0       2.358   1.104  -7.328  0.00  0.00     0.146 HD
ENDBRANCH   1  14
TORSDOF 6
ENDMDL
MODEL 7
REMARK VINA RESULT:      -4.3      2.594      3.802
REMARK  4 active torsions:
REMARK  status: ('A' for Active; 'I' for Inactive)
REMARK    1  A    between atoms: CD1_1  and  CG_2 
REMARK    2  A    between atoms: CG_2  and  CD2_3 
REMARK    3  A    between atoms: CG_2  and  CB_4 
REMARK    4  A    between atoms: CB_4  and  CA_5 
REMARK       I    between atoms: CA_5  and  C_7 
REMARK       I    between atoms: CA_5  and  N_9 
REMARK       I    between atoms: N_9  and  C_10 
REMARK       I    between atoms: C_10  and  N_12 
ROOT
ATOM      1  CB  LEU d   1       4.249  -0.744  -5.818  0.00  0.00    -0.027 C 
ATOM      2  HB1 LEU d   1       4.132  -1.826  -5.883  0.00  0.00     0.029 H 
ATOM      3  HB2 LEU d   1       4.970  -0.411  -6.565  0.00  0.00     0.029 H 
ENDROOT
BRANCH   1   4
ATOM      4  CG  LEU d   1       2.900  -0.068  -6.076  0.00  0.00    -0.045 C 
ATOM      5  HG  LEU d   1       2.134  -0.831  -6.217  0.00  0.00     0.030 H 
BRANCH   4   6
ATOM      6  CD1 LEU d   1       2.532   0.809  -4.878  0.00  0.00    -0.063 C 
ATOM      7 1HD1 LEU d   1       1.459   0.747  -4.696  0.00  0.00     0.023 H 
ATOM      8 2HD1 LEU d   1       3.071   0.462  -3.996  0.00  0.00     0.023 H 
ATOM      9 3HD1 LEU d   1       2.806   1.843  -5.087  0.00  0.00     0.023 H 
ENDBRANCH   4   6
BRANCH   4  10
ATOM     10  CD2 LEU d   1       2.996   0.799  -7.333  0.00  0.00    -0.063 C 
ATOM     11 1HD2 LEU d   1       3.758   1.565  -7.188  0.00  0.00     0.023 H 
ATOM     12 2HD2 LEU d   1       3.266   0.174  -8.185  0.00  0.00     0.023 H 
ATOM     13 3HD2 LEU d   1       2.033   1.274  -7.522  0.00  0.00     0.023 H 
ENDBRANCH   4  10
ENDBRANCH   1   4
BRANCH   1  14
ATOM     14  CA  LEU d   1       4.749  -0.368  -4.422  0.00  0.00     0.064 C 
ATOM     15  HA  LEU d   1       4.044   0.320  -3.956  0.00  0.00     0.056 H 
ATOM     16  C   LEU d   1       4.870  -1.611  -3.579  0.00  0.00     0.062 C 
ATOM     17  O   LEU d   1       5.940  -1.927  -3.117  0.00  0.00    -0.548 OA
ATOM     18  OXT LEU d   1       3.787  -2.368  -3.342  0.00  0.00    -0.548 OA
ATOM     19  N   LEU d   1       6.060   0.277  -4.530  0.00  0.00    -0.292 N 
ATOM     20  C   UNK d   0       6.476   1.124  -3.569  0.00  0.00     0.297 C 
ATOM     21  H   LEU d   1       6.629   0.093  -5.295  0.00  0.00     0.151 HD
ATOM     22  O   UNK d   0       5.764   1.354  -2.612  0.00  0.00    -0.253 OA
ATOM     23  N   UNK d   0       7.682   1.718  -3.669  0.00  0.00    -0.313 N 
ATOM     24  H   UNK d   0       8.251   1.534  -4.434  0.00  0.00     0.146 HD
ATOM     25  H   UNK d   0       7.982   2.327  -2.978  0.00  0.00     0.146 HD
ENDBRANCH   1  14
TORSDOF 6
ENDMDL
MODEL 8
REMARK VINA RESULT:      -4.2      8.247      9.136
REMARK  4 active torsions:
REMARK  status: ('A' for Active; 'I' for Inactive)
REMARK    1  A    between atoms: CD1_1  and  CG_2 
REMARK    2  A    between atoms: CG_2  and  CD2_3 
REMARK    3  A    between atoms: CG_2  and  CB_4 
REMARK    4  A    between atoms: CB_4  and  CA_5 
REMARK       I    between atoms: CA_5  and  C_7 
REMARK       I    between atoms: CA_5  and  N_9 
REMARK       I    between atoms: N_9  and  C_10 
REMARK       I    between atoms: C_10  and  N_12 
ROOT
ATOM      1  CB  LEU d   1      11.318   5.527  -2.659  0.00  0.00    -0.027 C 
ATOM      2  HB1 LEU d   1      12.142   4.828  -2.515  0.00  0.00     0.029 H 
ATOM      3  HB2 LEU d   1      11.537   6.177  -3.506  0.00  0.00     0.029 H 
ENDROOT
BRANCH   1   4
ATOM      4  CG  LEU d   1      10.030   4.747  -2.935  0.00  0.00    -0.045 C 
ATOM      5  HG  LEU d   1       9.282   5.004  -2.185  0.00  0.00     0.030 H 
BRANCH   4   6
ATOM      6  CD1 LEU d   1       9.504   5.108  -4.326  0.00  0.00    -0.063 C 
ATOM      7 1HD1 LEU d   1       9.544   4.230  -4.970  0.00  0.00     0.023 H 
ATOM      8 2HD1 LEU d   1       8.473   5.453  -4.244  0.00  0.00     0.023 H 
ATOM      9 3HD1 LEU d   1      10.119   5.901  -4.752  0.00  0.00     0.023 H 
ENDBRANCH   4   6
BRANCH   4  10
ATOM     10  CD2 LEU d   1      10.320   3.246  -2.874  0.00  0.00    -0.063 C 
ATOM     11 1HD2 LEU d   1      10.293   2.829  -3.881  0.00  0.00     0.023 H 
ATOM     12 2HD2 LEU d   1      11.307   3.084  -2.440  0.00  0.00     0.023 H 
ATOM     13 3HD2 LEU d   1       9.567   2.755  -2.257  0.00  0.00     0.023 H 
ENDBRANCH   4  10
ENDBRANCH   1   4
BRANCH   1  14
ATOM     14  CA  LEU d   1      11.141   6.374  -1.398  0.00  0.00     0.064 C 
ATOM     15  HA  LEU d   1      12.073   6.893  -1.175  0.00  0.00     0.056 H 
ATOM     16  C   LEU d   1      10.044   7.383  -1.619  0.00  0.00     0.062 C 
ATOM     17  O   LEU d   1       9.066   7.378  -0.910  0.00  0.00    -0.548 OA
ATOM     18  OXT LEU d   1      10.154   8.288  -2.604  0.00  0.00    -0.548 OA
ATOM     19  N   LEU d   1      10.785   5.506  -0.272  0.00  0.00    -0.292 N 
ATOM     20  C   UNK d   0      11.061   5.890   0.989  0.00  0.00     0.297 C 
ATOM     21  H   LEU d   1      10.351   4.653  -0.436  0.00  0.00     0.151 HD
ATOM     22  O   UNK d   0      11.605   6.957   1.194  0.00  0.00    -0.253 OA
ATOM     23  N   UNK d   0      10.734   5.091   2.024  0.00  0.00    -0.313 N 
ATOM     24  H   UNK d   0      10.300   4.239   1.861  0.00  0.00     0.146 HD
ATOM     25  H   UNK d   0      10.932   5.368   2.932  0.00  0.00     0.146 HD
ENDBRANCH   1  14
TORSDOF 6
ENDMDL
MODEL 9
REMARK VINA RESULT:      -4.1      2.155      3.239
REMARK  4 active torsions:
REMARK  status: ('A' for Active; 'I' for Inactive)
REMARK    1  A    between atoms: CD1_1  and  CG_2 
REMARK    2  A    between atoms: CG_2  and  CD2_3 
REMARK    3  A    between atoms: CG_2  and  CB_4 
REMARK    4  A    between atoms: CB_4  and  CA_5 
REMARK       I    between atoms: CA_5  and  C_7 
REMARK       I    between atoms: CA_5  and  N_9 
REMARK       I    between atoms: N_9  and  C_10 
REMARK       I    between atoms: C_10  and  N_12 
ROOT
ATOM      1  CB  LEU d   1       5.357  -0.798  -3.796  0.00  0.00    -0.027 C 
ATOM      2  HB1 LEU d   1       5.265  -1.743  -4.330  0.00  0.00     0.029 H 
ATOM      3  HB2 LEU d   1       4.744  -0.042  -4.288  0.00  0.00     0.029 H 
ENDROOT
BRANCH   1   4
ATOM      4  CG  LEU d   1       4.882  -0.979  -2.352  0.00  0.00    -0.045 C 
ATOM      5  HG  LEU d   1       5.712  -1.331  -1.739  0.00  0.00     0.030 H 
BRANCH   4   6
ATOM      6  CD1 LEU d   1       4.379   0.360  -1.810  0.00  0.00    -0.063 C 
ATOM      7 1HD1 LEU d   1       3.563   0.185  -1.108  0.00  0.00     0.023 H 
ATOM      8 2HD1 LEU d   1       5.194   0.874  -1.299  0.00  0.00     0.023 H 
ATOM      9 3HD1 LEU d   1       4.023   0.976  -2.636  0.00  0.00     0.023 H 
ENDBRANCH   4   6
BRANCH   4  10
ATOM     10  CD2 LEU d   1       3.747  -2.005  -2.315  0.00  0.00    -0.063 C 
ATOM     11 1HD2 LEU d   1       3.859  -2.700  -3.146  0.00  0.00     0.023 H 
ATOM     12 2HD2 LEU d   1       3.785  -2.553  -1.373  0.00  0.00     0.023 H 
ATOM     13 3HD2 LEU d   1       2.790  -1.490  -2.397  0.00  0.00     0.023 H 
ENDBRANCH   4  10
ENDBRANCH   1   4
BRANCH   1  14
ATOM     14  CA  LEU d   1       6.820  -0.350  -3.800  0.00  0.00     0.064 C 
ATOM     15  HA  LEU d   1       7.111  -0.048  -2.794  0.00  0.00     0.056 H 
ATOM     16  C   LEU d   1       7.694  -1.490  -4.254  0.00  0.00     0.062 C 
ATOM     17  O   LEU d   1       8.381  -1.370  -5.240  0.00  0.00    -0.548 OA
ATOM     18  OXT LEU d   1       7.709  -2.640  -3.562  0.00  0.00    -0.548 OA
ATOM     19  N   LEU d   1       6.982   0.782  -4.715  0.00  0.00    -0.292 N 
ATOM     20  C   UNK d   0       7.993   1.655  -4.535  0.00  0.00     0.297 C 
ATOM     21  H   LEU d   1       6.360   0.905  -5.451  0.00  0.00     0.151 HD
ATOM     22  O   UNK d   0       8.771   1.503  -3.614  0.00  0.00    -0.253 OA
ATOM     23  N   UNK d   0       8.141   2.697  -5.377  0.00  0.00    -0.313 N 
ATOM     24  H   UNK d   0       7.520   2.819  -6.113  0.00  0.00     0.146 HD
ATOM     25  H   UNK d   0       8.869   3.325  -5.249  0.00  0.00     0.146 HD
ENDBRANCH   1  14
TORSDOF 6
ENDMDL
MODEL 10
REMARK VINA RESULT:      -4.0      4.975      6.583
REMARK  4 active torsions:
REMARK  status: ('A' for Active; 'I' for Inactive)
REMARK    1  A    between atoms: CD1_1  and  CG_2 
REMARK    2  A    between atoms: CG_2  and  CD2_3 
REMARK    3  A    between atoms: CG_2  and  CB_4 
REMARK    4  A    between atoms: CB_4  and  CA_5 
REMARK       I    between atoms: CA_5  and  C_7 
REMARK       I    between atoms: CA_5  and  N_9 
REMARK       I    between atoms: N_9  and  C_10 
REMARK       I    between atoms: C_10  and  N_12 
ROOT
ATOM      1  CB  LEU d   1       1.834  -0.476  -9.419  0.00  0.00    -0.027 C 
ATOM      2  HB1 LEU d   1       1.425   0.313 -10.050  0.00  0.00     0.029 H 
ATOM      3  HB2 LEU d   1       1.034  -0.915  -8.822  0.00  0.00     0.029 H 
ENDROOT
BRANCH   1   4
ATOM      4  CG  LEU d   1       2.466  -1.557 -10.298  0.00  0.00    -0.045 C 
ATOM      5  HG  LEU d   1       2.512  -1.205 -11.329  0.00  0.00     0.030 H 
BRANCH   4   6
ATOM      6  CD1 LEU d   1       3.880  -1.859  -9.798  0.00  0.00    -0.063 C 
ATOM      7 1HD1 LEU d   1       4.567  -1.888 -10.644  0.00  0.00     0.023 H 
ATOM      8 2HD1 LEU d   1       4.192  -1.079  -9.102  0.00  0.00     0.023 H 
ATOM      9 3HD1 LEU d   1       3.887  -2.823  -9.289  0.00  0.00     0.023 H 
ENDBRANCH   4   6
BRANCH   4  10
ATOM     10  CD2 LEU d   1       1.618  -2.829 -10.230  0.00  0.00    -0.063 C 
ATOM     11 1HD2 LEU d   1       1.176  -3.023 -11.207  0.00  0.00     0.023 H 
ATOM     12 2HD2 LEU d   1       2.249  -3.670  -9.943  0.00  0.00     0.023 H 
ATOM     13 3HD2 LEU d   1       0.827  -2.699  -9.492  0.00  0.00     0.023 H 
ENDBRANCH   4  10
ENDBRANCH   1   4
BRANCH   1  14
ATOM     14  CA  LEU d   1       2.899   0.114  -8.491  0.00  0.00     0.064 C 
ATOM     15  HA  LEU d   1       3.856  -0.371  -8.681  0.00  0.00     0.056 H 
ATOM     16  C   LEU d   1       3.026   1.593  -8.748  0.00  0.00     0.062 C 
ATOM     17  O   LEU d   1       2.812   2.382  -7.859  0.00  0.00    -0.548 OA
ATOM     18  OXT LEU d   1       3.377   2.035  -9.966  0.00  0.00    -0.548 OA
ATOM     19  N   LEU d   1       2.508  -0.107  -7.096  0.00  0.00    -0.292 N 
ATOM     20  C   UNK d   0       3.447  -0.151  -6.132  0.00  0.00     0.297 C 
ATOM     21  H   LEU d   1       1.571  -0.222  -6.868  0.00  0.00     0.151 HD
ATOM     22  O   UNK d   0       4.620  -0.007  -6.418  0.00  0.00    -0.253 OA
ATOM     23  N   UNK d   0       3.088  -0.355  -4.849  0.00  0.00    -0.313 N 
ATOM     24  H   UNK d   0       2.152  -0.469  -4.620  0.00  0.00     0.146 HD
ATOM     25  H   UNK d   0       3.764  -0.386  -4.155  0.00  0.00     0.146 HD
ENDBRANCH   1  14
TORSDOF 6
ENDMDL
