MODEL 1
REMARK VINA RESULT:      -8.2      0.000      0.000
REMARK  4 active torsions:
REMARK  status: ('A' for Active; 'I' for Inactive)
REMARK    1  A    between atoms: C_3  and  C_10 
REMARK    2  A    between atoms: C_5  and  N_7 
REMARK    3  A    between atoms: C_12  and  C_15 
REMARK       I    between atoms: N_25  and  C_26 
REMARK       I    between atoms: C_26  and  N_28 
REMARK    4  A    between atoms: N_28  and  C_29 
ROOT
ATOM      1  C   LIG d   1       9.981   3.467  -5.262  0.00  0.00     0.114 C 
ATOM      2  H   LIG d   1       9.640   4.375  -5.759  0.00  0.00     0.060 H 
ATOM      3  C   LIG d   1      11.177   2.883  -6.026  0.00  0.00     0.041 C 
ATOM      4  C   LIG d   1      11.862   1.865  -5.152  0.00  0.00     0.148 A 
ATOM      5  C   LIG d   1      11.706   1.769  -3.813  0.00  0.00     0.162 A 
ATOM      6  N   LIG d   1      12.466   0.761  -3.379  0.00  0.00    -0.246 N 
ATOM      7  C   LIG d   1      13.088   0.224  -4.396  0.00  0.00     0.243 A 
ATOM      8  N   LIG d   1      12.734   0.886  -5.521  0.00  0.00    -0.247 N 
ATOM      9  H   LIG d   1      13.042   0.699  -6.422  0.00  0.00     0.310 HD
ATOM     10  C   LIG d   1      10.806   2.674  -3.006  0.00  0.00     0.082 C 
ATOM     11  N   LIG d   1      10.395   3.784  -3.887  0.00  0.00    -0.265 N 
ATOM     12  C   LIG d   1      10.402   5.057  -3.445  0.00  0.00     0.307 C 
ATOM     13  O   LIG d   1      10.154   5.968  -4.211  0.00  0.00    -0.252 OA
ATOM     14  N   LIG d   1      10.681   5.319  -2.153  0.00  0.00    -0.269 N 
ATOM     15  H   LIG d   1      10.828   2.403  -6.941  0.00  0.00     0.037 H 
ATOM     16  H   LIG d   1      11.876   3.681  -6.274  0.00  0.00     0.037 H 
ATOM     17  H   LIG d   1      13.771  -0.612  -4.347  0.00  0.00     0.158 H 
ATOM     18  H   LIG d   1       9.927   2.121  -2.672  0.00  0.00     0.055 H 
ATOM     19  H   LIG d   1      11.348   3.065  -2.145  0.00  0.00     0.055 H 
ATOM     20  H   LIG d   1      10.953   4.602  -1.559  0.00  0.00     0.156 HD
ATOM     21  H   LIG d   1      12.545   0.474  -2.456  0.00  0.00     0.310 HD
ENDROOT
BRANCH   1  22
ATOM     22  C   LIG d   1       8.862   2.458  -5.232  0.00  0.00     0.249 A 
ATOM     23  N   LIG d   1       8.082   2.216  -4.219  0.00  0.00    -0.190 NA
ATOM     24  C   LIG d   1       7.194   1.257  -4.538  0.00  0.00     0.202 A 
ATOM     25  N   LIG d   1       7.414   0.879  -5.773  0.00  0.00    -0.056 NA
ATOM     26  O   LIG d   1       8.501   1.660  -6.245  0.00  0.00    -0.336 OA
BRANCH  24  27
ATOM     27  C   LIG d   1       6.144   0.714  -3.640  0.00  0.00     0.029 A 
ATOM     28  C   LIG d   1       5.616   1.508  -2.624  0.00  0.00    -0.051 A 
ATOM     29  C   LIG d   1       4.639   0.999  -1.792  0.00  0.00    -0.055 A 
ATOM     30  H   LIG d   1       5.968   2.520  -2.489  0.00  0.00     0.062 H 
ATOM     31  C   LIG d   1       4.185  -0.296  -1.966  0.00  0.00     0.016 A 
ATOM     32  H   LIG d   1       4.231   1.611  -1.002  0.00  0.00     0.062 H 
ATOM     33  C   LIG d   1       4.707  -1.089  -2.973  0.00  0.00     0.274 A 
ATOM     34  H   LIG d   1       3.420  -0.690  -1.313  0.00  0.00     0.069 H 
ATOM     35  C   LIG d   1       5.685  -0.589  -3.810  0.00  0.00     0.026 A 
ATOM     36  H   LIG d   1       6.091  -1.209  -4.597  0.00  0.00     0.069 H 
BRANCH  33  37
ATOM     37  N   LIG d   1       4.218  -2.473  -3.152  0.00  0.00     0.080 N 
ATOM     38  O   LIG d   1       4.473  -3.079  -4.168  0.00  0.00     0.041 OA
ATOM     39  O   LIG d   1       3.561  -3.000  -2.284  0.00  0.00    -0.576 OA
ENDBRANCH  33  37
ENDBRANCH  24  27
ENDBRANCH   1  22
BRANCH  14  40
ATOM     40  C   LIG d   1      10.579   6.629  -1.667  0.00  0.00     0.037 A 
ATOM     41  C   LIG d   1       9.332   7.178  -1.407  0.00  0.00    -0.005 A 
ATOM     42  C   LIG d   1       9.235   8.470  -0.922  0.00  0.00     0.125 A 
ATOM     43  H   LIG d   1       8.438   6.597  -1.580  0.00  0.00     0.067 H 
ATOM     44  C   LIG d   1      10.381   9.217  -0.707  0.00  0.00    -0.026 A 
ATOM     45  F   LIG d   1       8.022   9.005  -0.662  0.00  0.00    -0.205 F 
ATOM     46  C   LIG d   1      11.624   8.672  -0.971  0.00  0.00    -0.057 A 
ATOM     47  H   LIG d   1      10.304  10.227  -0.332  0.00  0.00     0.065 H 
ATOM     48  C   LIG d   1      11.726   7.381  -1.450  0.00  0.00    -0.040 A 
ATOM     49  H   LIG d   1      12.516   9.257  -0.803  0.00  0.00     0.062 H 
ATOM     50  H   LIG d   1      12.698   6.957  -1.656  0.00  0.00     0.064 H 
ENDBRANCH  14  40
TORSDOF 4
ENDMDL
MODEL 2
REMARK VINA RESULT:      -8.2      4.487      9.300
REMARK  4 active torsions:
REMARK  status: ('A' for Active; 'I' for Inactive)
REMARK    1  A    between atoms: C_3  and  C_10 
REMARK    2  A    between atoms: C_5  and  N_7 
REMARK    3  A    between atoms: C_12  and  C_15 
REMARK       I    between atoms: N_25  and  C_26 
REMARK       I    between atoms: C_26  and  N_28 
REMARK    4  A    between atoms: N_28  and  C_29 
ROOT
ATOM      1  C   LIG d   1       7.288  -0.088  -8.424  0.00  0.00     0.114 C 
ATOM      2  H   LIG d   1       7.964  -0.648  -7.779  0.00  0.00     0.060 H 
ATOM      3  C   LIG d   1       6.976  -0.911  -9.680  0.00  0.00     0.041 C 
ATOM      4  C   LIG d   1       5.781  -0.309 -10.372  0.00  0.00     0.148 A 
ATOM      5  C   LIG d   1       4.906   0.543  -9.796  0.00  0.00     0.162 A 
ATOM      6  N   LIG d   1       3.980   0.863 -10.705  0.00  0.00    -0.246 N 
ATOM      7  C   LIG d   1       4.248   0.244 -11.825  0.00  0.00     0.243 A 
ATOM      8  N   LIG d   1       5.367  -0.497 -11.656  0.00  0.00    -0.247 N 
ATOM      9  H   LIG d   1       5.796  -1.056 -12.324  0.00  0.00     0.310 HD
ATOM     10  C   LIG d   1       5.014   1.019  -8.368  0.00  0.00     0.082 C 
ATOM     11  N   LIG d   1       6.035   0.186  -7.704  0.00  0.00    -0.265 N 
ATOM     12  C   LIG d   1       5.826  -0.313  -6.470  0.00  0.00     0.307 C 
ATOM     13  O   LIG d   1       6.635  -1.075  -5.977  0.00  0.00    -0.252 OA
ATOM     14  N   LIG d   1       4.720   0.034  -5.782  0.00  0.00    -0.269 N 
ATOM     15  H   LIG d   1       7.835  -0.894 -10.352  0.00  0.00     0.037 H 
ATOM     16  H   LIG d   1       6.754  -1.940  -9.396  0.00  0.00     0.037 H 
ATOM     17  H   LIG d   1       3.671   0.313 -12.736  0.00  0.00     0.158 H 
ATOM     18  H   LIG d   1       5.319   2.065  -8.347  0.00  0.00     0.055 H 
ATOM     19  H   LIG d   1       4.055   0.901  -7.863  0.00  0.00     0.055 H 
ATOM     20  H   LIG d   1       4.038   0.580  -6.202  0.00  0.00     0.156 HD
ATOM     21  H   LIG d   1       3.229   1.458 -10.556  0.00  0.00     0.310 HD
ENDROOT
BRANCH   1  22
ATOM     22  C   LIG d   1       7.936   1.213  -8.823  0.00  0.00     0.249 A 
ATOM     23  N   LIG d   1       8.240   2.190  -8.019  0.00  0.00    -0.190 NA
ATOM     24  C   LIG d   1       8.805   3.197  -8.709  0.00  0.00     0.202 A 
ATOM     25  N   LIG d   1       8.856   2.860  -9.974  0.00  0.00    -0.056 NA
ATOM     26  O   LIG d   1       8.295   1.559 -10.066  0.00  0.00    -0.336 OA
BRANCH  24  27
ATOM     27  C   LIG d   1       9.284   4.479  -8.135  0.00  0.00     0.029 A 
ATOM     28  C   LIG d   1       9.813   4.513  -6.846  0.00  0.00    -0.051 A 
ATOM     29  C   LIG d   1      10.258   5.708  -6.317  0.00  0.00    -0.055 A 
ATOM     30  H   LIG d   1       9.876   3.607  -6.263  0.00  0.00     0.062 H 
ATOM     31  C   LIG d   1      10.179   6.870  -7.064  0.00  0.00     0.016 A 
ATOM     32  H   LIG d   1      10.665   5.737  -5.317  0.00  0.00     0.062 H 
ATOM     33  C   LIG d   1       9.655   6.842  -8.344  0.00  0.00     0.274 A 
ATOM     34  H   LIG d   1      10.529   7.803  -6.646  0.00  0.00     0.069 H 
ATOM     35  C   LIG d   1       9.206   5.652  -8.882  0.00  0.00     0.026 A 
ATOM     36  H   LIG d   1       8.797   5.631  -9.882  0.00  0.00     0.069 H 
BRANCH  33  37
ATOM     37  N   LIG d   1       9.573   8.088  -9.136  0.00  0.00     0.080 N 
ATOM     38  O   LIG d   1       9.157   9.104  -8.628  0.00  0.00     0.041 OA
ATOM     39  O   LIG d   1       9.922   8.092 -10.295  0.00  0.00    -0.576 OA
ENDBRANCH  33  37
ENDBRANCH  24  27
ENDBRANCH   1  22
BRANCH  14  40
ATOM     40  C   LIG d   1       4.556  -0.395  -4.459  0.00  0.00     0.037 A 
ATOM     41  C   LIG d   1       4.716   0.503  -3.413  0.00  0.00    -0.005 A 
ATOM     42  C   LIG d   1       4.547   0.077  -2.107  0.00  0.00     0.125 A 
ATOM     43  H   LIG d   1       4.968   1.533  -3.617  0.00  0.00     0.067 H 
ATOM     44  C   LIG d   1       4.230  -1.245  -1.845  0.00  0.00    -0.026 A 
ATOM     45  F   LIG d   1       4.697   0.950  -1.087  0.00  0.00    -0.205 F 
ATOM     46  C   LIG d   1       4.077  -2.141  -2.886  0.00  0.00    -0.057 A 
ATOM     47  H   LIG d   1       4.103  -1.578  -0.825  0.00  0.00     0.065 H 
ATOM     48  C   LIG d   1       4.238  -1.720  -4.192  0.00  0.00    -0.040 A 
ATOM     49  H   LIG d   1       3.829  -3.172  -2.679  0.00  0.00     0.062 H 
ATOM     50  H   LIG d   1       4.117  -2.421  -5.005  0.00  0.00     0.064 H 
ENDBRANCH  14  40
TORSDOF 4
ENDMDL
MODEL 3
REMARK VINA RESULT:      -8.1      6.137      8.769
REMARK  4 active torsions:
REMARK  status: ('A' for Active; 'I' for Inactive)
REMARK    1  A    between atoms: C_3  and  C_10 
REMARK    2  A    between atoms: C_5  and  N_7 
REMARK    3  A    between atoms: C_12  and  C_15 
REMARK       I    between atoms: N_25  and  C_26 
REMARK       I    between atoms: C_26  and  N_28 
REMARK    4  A    between atoms: N_28  and  C_29 
ROOT
ATOM      1  C   LIG d   1       8.138  -4.296  -5.821  0.00  0.00     0.114 C 
ATOM      2  H   LIG d   1       7.332  -4.055  -6.513  0.00  0.00     0.060 H 
ATOM      3  C   LIG d   1       9.476  -3.831  -6.410  0.00  0.00     0.041 C 
ATOM      4  C   LIG d   1      10.513  -3.828  -5.318  0.00  0.00     0.148 A 
ATOM      5  C   LIG d   1      10.240  -3.843  -3.996  0.00  0.00     0.162 A 
ATOM      6  N   LIG d   1      11.399  -3.830  -3.333  0.00  0.00    -0.246 N 
ATOM      7  C   LIG d   1      12.384  -3.812  -4.193  0.00  0.00     0.243 A 
ATOM      8  N   LIG d   1      11.870  -3.811  -5.444  0.00  0.00    -0.247 N 
ATOM      9  H   LIG d   1      12.372  -3.802  -6.274  0.00  0.00     0.310 HD
ATOM     10  C   LIG d   1       8.841  -3.873  -3.428  0.00  0.00     0.082 C 
ATOM     11  N   LIG d   1       7.910  -3.608  -4.541  0.00  0.00    -0.265 N 
ATOM     12  C   LIG d   1       6.878  -2.754  -4.391  0.00  0.00     0.307 C 
ATOM     13  O   LIG d   1       6.178  -2.473  -5.345  0.00  0.00    -0.252 OA
ATOM     14  N   LIG d   1       6.621  -2.214  -3.183  0.00  0.00    -0.269 N 
ATOM     15  H   LIG d   1       9.782  -4.513  -7.204  0.00  0.00     0.037 H 
ATOM     16  H   LIG d   1       9.368  -2.825  -6.814  0.00  0.00     0.037 H 
ATOM     17  H   LIG d   1      13.436  -3.799  -3.945  0.00  0.00     0.158 H 
ATOM     18  H   LIG d   1       8.636  -4.854  -3.000  0.00  0.00     0.055 H 
ATOM     19  H   LIG d   1       8.734  -3.103  -2.663  0.00  0.00     0.055 H 
ATOM     20  H   LIG d   1       7.222  -2.378  -2.440  0.00  0.00     0.156 HD
ATOM     21  H   LIG d   1      11.495  -3.833  -2.368  0.00  0.00     0.310 HD
ENDROOT
BRANCH   1  22
ATOM     22  C   LIG d   1       8.178  -5.785  -5.593  0.00  0.00     0.249 A 
ATOM     23  N   LIG d   1       7.371  -6.460  -4.826  0.00  0.00    -0.190 NA
ATOM     24  C   LIG d   1       7.691  -7.766  -4.856  0.00  0.00     0.202 A 
ATOM     25  N   LIG d   1       8.721  -7.926  -5.650  0.00  0.00    -0.056 NA
ATOM     26  O   LIG d   1       9.050  -6.637  -6.146  0.00  0.00    -0.336 OA
BRANCH  24  27
ATOM     27  C   LIG d   1       6.997  -8.845  -4.110  0.00  0.00     0.029 A 
ATOM     28  C   LIG d   1       7.695  -9.607  -3.174  0.00  0.00    -0.051 A 
ATOM     29  C   LIG d   1       7.045 -10.609  -2.482  0.00  0.00    -0.055 A 
ATOM     30  H   LIG d   1       8.740  -9.412  -2.989  0.00  0.00     0.062 H 
ATOM     31  C   LIG d   1       5.705 -10.858  -2.717  0.00  0.00     0.016 A 
ATOM     32  H   LIG d   1       7.585 -11.203  -1.760  0.00  0.00     0.062 H 
ATOM     33  C   LIG d   1       5.007 -10.106  -3.645  0.00  0.00     0.274 A 
ATOM     34  H   LIG d   1       5.200 -11.644  -2.173  0.00  0.00     0.069 H 
ATOM     35  C   LIG d   1       5.648  -9.101  -4.342  0.00  0.00     0.026 A 
ATOM     36  H   LIG d   1       5.102  -8.513  -5.066  0.00  0.00     0.069 H 
BRANCH  33  37
ATOM     37  N   LIG d   1       3.575 -10.377  -3.891  0.00  0.00     0.080 N 
ATOM     38  O   LIG d   1       3.245 -11.135  -4.774  0.00  0.00     0.041 OA
ATOM     39  O   LIG d   1       2.731  -9.841  -3.209  0.00  0.00    -0.576 OA
ENDBRANCH  33  37
ENDBRANCH  24  27
ENDBRANCH   1  22
BRANCH  14  40
ATOM     40  C   LIG d   1       5.484  -1.416  -3.001  0.00  0.00     0.037 A 
ATOM     41  C   LIG d   1       5.598  -0.033  -3.014  0.00  0.00    -0.005 A 
ATOM     42  C   LIG d   1       4.472   0.752  -2.839  0.00  0.00     0.125 A 
ATOM     43  H   LIG d   1       6.562   0.430  -3.164  0.00  0.00     0.067 H 
ATOM     44  C   LIG d   1       3.237   0.159  -2.642  0.00  0.00    -0.026 A 
ATOM     45  F   LIG d   1       4.579   2.099  -2.858  0.00  0.00    -0.205 F 
ATOM     46  C   LIG d   1       3.125  -1.219  -2.623  0.00  0.00    -0.057 A 
ATOM     47  H   LIG d   1       2.359   0.773  -2.502  0.00  0.00     0.065 H 
ATOM     48  C   LIG d   1       4.244  -2.008  -2.802  0.00  0.00    -0.040 A 
ATOM     49  H   LIG d   1       2.160  -1.680  -2.468  0.00  0.00     0.062 H 
ATOM     50  H   LIG d   1       4.154  -3.084  -2.788  0.00  0.00     0.064 H 
ENDBRANCH  14  40
TORSDOF 4
ENDMDL
MODEL 4
REMARK VINA RESULT:      -8.0      5.676      9.976
REMARK  4 active torsions:
REMARK  status: ('A' for Active; 'I' for Inactive)
REMARK    1  A    between atoms: C_3  and  C_10 
REMARK    2  A    between atoms: C_5  and  N_7 
REMARK    3  A    between atoms: C_12  and  C_15 
REMARK       I    between atoms: N_25  and  C_26 
REMARK       I    between atoms: C_26  and  N_28 
REMARK    4  A    between atoms: N_28  and  C_29 
ROOT
ATOM      1  C   LIG d   1      11.881   7.711  -0.283  0.00  0.00     0.114 C 
ATOM      2  H   LIG d   1      12.664   7.086  -0.712  0.00  0.00     0.060 H 
ATOM      3  C   LIG d   1      12.395   9.149  -0.137  0.00  0.00     0.041 C 
ATOM      4  C   LIG d   1      11.221  10.063   0.101  0.00  0.00     0.148 A 
ATOM      5  C   LIG d   1       9.934   9.748  -0.161  0.00  0.00     0.162 A 
ATOM      6  N   LIG d   1       9.175  10.796   0.169  0.00  0.00    -0.246 N 
ATOM      7  C   LIG d   1       9.941  11.751   0.630  0.00  0.00     0.243 A 
ATOM      8  N   LIG d   1      11.226  11.329   0.604  0.00  0.00    -0.247 N 
ATOM      9  H   LIG d   1      12.004  11.832   0.890  0.00  0.00     0.310 HD
ATOM     10  C   LIG d   1       9.493   8.419  -0.726  0.00  0.00     0.082 C 
ATOM     11  N   LIG d   1      10.707   7.706  -1.168  0.00  0.00    -0.265 N 
ATOM     12  C   LIG d   1      10.741   7.068  -2.355  0.00  0.00     0.307 C 
ATOM     13  O   LIG d   1      11.777   6.568  -2.748  0.00  0.00    -0.252 OA
ATOM     14  N   LIG d   1       9.624   6.983  -3.106  0.00  0.00    -0.269 N 
ATOM     15  H   LIG d   1      13.081   9.209   0.708  0.00  0.00     0.037 H 
ATOM     16  H   LIG d   1      12.910   9.447  -1.049  0.00  0.00     0.037 H 
ATOM     17  H   LIG d   1       9.603  12.717   0.975  0.00  0.00     0.158 H 
ATOM     18  H   LIG d   1       8.983   7.839   0.044  0.00  0.00     0.055 H 
ATOM     19  H   LIG d   1       8.827   8.578  -1.574  0.00  0.00     0.055 H 
ATOM     20  H   LIG d   1       8.817   7.446  -2.831  0.00  0.00     0.156 HD
ATOM     21  H   LIG d   1       8.210  10.842   0.080  0.00  0.00     0.310 HD
ENDROOT
BRANCH   1  22
ATOM     22  C   LIG d   1      11.494   7.175   1.071  0.00  0.00     0.249 A 
ATOM     23  N   LIG d   1      11.740   7.745   2.215  0.00  0.00    -0.190 NA
ATOM     24  C   LIG d   1      11.255   6.994   3.220  0.00  0.00     0.202 A 
ATOM     25  N   LIG d   1      10.695   5.925   2.709  0.00  0.00    -0.056 NA
ATOM     26  O   LIG d   1      10.838   6.030   1.300  0.00  0.00    -0.336 OA
BRANCH  24  27
ATOM     27  C   LIG d   1      11.343   7.318   4.665  0.00  0.00     0.029 A 
ATOM     28  C   LIG d   1      11.836   8.556   5.075  0.00  0.00    -0.051 A 
ATOM     29  C   LIG d   1      11.915   8.853   6.420  0.00  0.00    -0.055 A 
ATOM     30  H   LIG d   1      12.153   9.281   4.341  0.00  0.00     0.062 H 
ATOM     31  C   LIG d   1      11.507   7.924   7.361  0.00  0.00     0.016 A 
ATOM     32  H   LIG d   1      12.300   9.810   6.739  0.00  0.00     0.062 H 
ATOM     33  C   LIG d   1      11.018   6.694   6.961  0.00  0.00     0.274 A 
ATOM     34  H   LIG d   1      11.571   8.161   8.413  0.00  0.00     0.069 H 
ATOM     35  C   LIG d   1      10.934   6.387   5.617  0.00  0.00     0.026 A 
ATOM     36  H   LIG d   1      10.551   5.426   5.305  0.00  0.00     0.069 H 
BRANCH  33  37
ATOM     37  N   LIG d   1      10.584   5.706   7.972  0.00  0.00     0.080 N 
ATOM     38  O   LIG d   1       9.714   5.990   8.762  0.00  0.00     0.041 OA
ATOM     39  O   LIG d   1      11.099   4.612   8.010  0.00  0.00    -0.576 OA
ENDBRANCH  33  37
ENDBRANCH  24  27
ENDBRANCH   1  22
BRANCH  14  40
ATOM     40  C   LIG d   1       9.630   6.226  -4.284  0.00  0.00     0.037 A 
ATOM     41  C   LIG d   1       9.741   6.859  -5.514  0.00  0.00    -0.005 A 
ATOM     42  C   LIG d   1       9.752   6.107  -6.677  0.00  0.00     0.125 A 
ATOM     43  H   LIG d   1       9.823   7.934  -5.565  0.00  0.00     0.067 H 
ATOM     44  C   LIG d   1       9.641   4.729  -6.612  0.00  0.00    -0.026 A 
ATOM     45  F   LIG d   1       9.867   6.720  -7.876  0.00  0.00    -0.205 F 
ATOM     46  C   LIG d   1       9.524   4.100  -5.387  0.00  0.00    -0.057 A 
ATOM     47  H   LIG d   1       9.646   4.144  -7.520  0.00  0.00     0.065 H 
ATOM     48  C   LIG d   1       9.519   4.844  -4.223  0.00  0.00    -0.040 A 
ATOM     49  H   LIG d   1       9.438   3.024  -5.339  0.00  0.00     0.062 H 
ATOM     50  H   LIG d   1       9.428   4.350  -3.267  0.00  0.00     0.064 H 
ENDBRANCH  14  40
TORSDOF 4
ENDMDL
MODEL 5
REMARK VINA RESULT:      -7.9      3.755      8.648
REMARK  4 active torsions:
REMARK  status: ('A' for Active; 'I' for Inactive)
REMARK    1  A    between atoms: C_3  and  C_10 
REMARK    2  A    between atoms: C_5  and  N_7 
REMARK    3  A    between atoms: C_12  and  C_15 
REMARK       I    between atoms: N_25  and  C_26 
REMARK       I    between atoms: C_26  and  N_28 
REMARK    4  A    between atoms: N_28  and  C_29 
ROOT
ATOM      1  C   LIG d   1       8.813   2.958  -4.090  0.00  0.00     0.114 C 
ATOM      2  H   LIG d   1       7.998   3.531  -3.647  0.00  0.00     0.060 H 
ATOM      3  C   LIG d   1      10.040   3.016  -3.171  0.00  0.00     0.041 C 
ATOM      4  C   LIG d   1      11.013   1.946  -3.591  0.00  0.00     0.148 A 
ATOM      5  C   LIG d   1      10.702   0.883  -4.364  0.00  0.00     0.162 A 
ATOM      6  N   LIG d   1      11.807   0.150  -4.525  0.00  0.00    -0.246 N 
ATOM      7  C   LIG d   1      12.795   0.719  -3.884  0.00  0.00     0.243 A 
ATOM      8  N   LIG d   1      12.337   1.844  -3.290  0.00  0.00    -0.247 N 
ATOM      9  H   LIG d   1      12.854   2.464  -2.750  0.00  0.00     0.310 HD
ATOM     10  C   LIG d   1       9.324   0.625  -4.923  0.00  0.00     0.082 C 
ATOM     11  N   LIG d   1       8.397   1.557  -4.252  0.00  0.00    -0.265 N 
ATOM     12  C   LIG d   1       7.200   1.136  -3.797  0.00  0.00     0.307 C 
ATOM     13  O   LIG d   1       6.491   1.891  -3.162  0.00  0.00    -0.252 OA
ATOM     14  N   LIG d   1       6.791  -0.124  -4.048  0.00  0.00    -0.269 N 
ATOM     15  H   LIG d   1      10.513   3.994  -3.253  0.00  0.00     0.037 H 
ATOM     16  H   LIG d   1       9.731   2.844  -2.139  0.00  0.00     0.037 H 
ATOM     17  H   LIG d   1      13.810   0.351  -3.837  0.00  0.00     0.158 H 
ATOM     18  H   LIG d   1       9.319   0.809  -5.998  0.00  0.00     0.055 H 
ATOM     19  H   LIG d   1       9.026  -0.403  -4.720  0.00  0.00     0.055 H 
ATOM     20  H   LIG d   1       7.387  -0.750  -4.488  0.00  0.00     0.156 HD
ATOM     21  H   LIG d   1      11.867  -0.673  -5.035  0.00  0.00     0.310 HD
ENDROOT
BRANCH   1  22
ATOM     22  C   LIG d   1       9.164   3.540  -5.435  0.00  0.00     0.249 A 
ATOM     23  N   LIG d   1       9.599   4.747  -5.652  0.00  0.00    -0.190 NA
ATOM     24  C   LIG d   1       9.812   4.931  -6.968  0.00  0.00     0.202 A 
ATOM     25  N   LIG d   1       9.503   3.826  -7.600  0.00  0.00    -0.056 NA
ATOM     26  O   LIG d   1       9.081   2.901  -6.609  0.00  0.00    -0.336 OA
BRANCH  24  27
ATOM     27  C   LIG d   1      10.308   6.179  -7.599  0.00  0.00     0.029 A 
ATOM     28  C   LIG d   1      11.205   6.115  -8.664  0.00  0.00    -0.051 A 
ATOM     29  C   LIG d   1      11.663   7.278  -9.249  0.00  0.00    -0.055 A 
ATOM     30  H   LIG d   1      11.539   5.156  -9.032  0.00  0.00     0.062 H 
ATOM     31  C   LIG d   1      11.234   8.506  -8.779  0.00  0.00     0.016 A 
ATOM     32  H   LIG d   1      12.360   7.230 -10.071  0.00  0.00     0.062 H 
ATOM     33  C   LIG d   1      10.344   8.577  -7.722  0.00  0.00     0.274 A 
ATOM     34  H   LIG d   1      11.595   9.414  -9.239  0.00  0.00     0.069 H 
ATOM     35  C   LIG d   1       9.880   7.419  -7.130  0.00  0.00     0.026 A 
ATOM     36  H   LIG d   1       9.185   7.475  -6.305  0.00  0.00     0.069 H 
BRANCH  33  37
ATOM     37  N   LIG d   1       9.890   9.893  -7.224  0.00  0.00     0.080 N 
ATOM     38  O   LIG d   1       9.455   9.999  -6.100  0.00  0.00     0.041 OA
ATOM     39  O   LIG d   1       9.952  10.866  -7.941  0.00  0.00    -0.576 OA
ENDBRANCH  33  37
ENDBRANCH  24  27
ENDBRANCH   1  22
BRANCH  14  40
ATOM     40  C   LIG d   1       5.503  -0.528  -3.673  0.00  0.00     0.037 A 
ATOM     41  C   LIG d   1       4.396  -0.037  -4.350  0.00  0.00    -0.005 A 
ATOM     42  C   LIG d   1       3.126  -0.444  -3.980  0.00  0.00     0.125 A 
ATOM     43  H   LIG d   1       4.525   0.657  -5.167  0.00  0.00     0.067 H 
ATOM     44  C   LIG d   1       2.961  -1.329  -2.929  0.00  0.00    -0.026 A 
ATOM     45  F   LIG d   1       2.047   0.028  -4.642  0.00  0.00    -0.205 F 
ATOM     46  C   LIG d   1       4.063  -1.814  -2.250  0.00  0.00    -0.057 A 
ATOM     47  H   LIG d   1       1.969  -1.643  -2.638  0.00  0.00     0.065 H 
ATOM     48  C   LIG d   1       5.334  -1.417  -2.619  0.00  0.00    -0.040 A 
ATOM     49  H   LIG d   1       3.931  -2.505  -1.431  0.00  0.00     0.062 H 
ATOM     50  H   LIG d   1       6.194  -1.796  -2.088  0.00  0.00     0.064 H 
ENDBRANCH  14  40
TORSDOF 4
ENDMDL
MODEL 6
REMARK VINA RESULT:      -7.8      5.964      8.406
REMARK  4 active torsions:
REMARK  status: ('A' for Active; 'I' for Inactive)
REMARK    1  A    between atoms: C_3  and  C_10 
REMARK    2  A    between atoms: C_5  and  N_7 
REMARK    3  A    between atoms: C_12  and  C_15 
REMARK       I    between atoms: N_25  and  C_26 
REMARK       I    between atoms: C_26  and  N_28 
REMARK    4  A    between atoms: N_28  and  C_29 
ROOT
ATOM      1  C   LIG d   1       8.521  -3.507  -5.916  0.00  0.00     0.114 C 
ATOM      2  H   LIG d   1       7.905  -2.994  -6.654  0.00  0.00     0.060 H 
ATOM      3  C   LIG d   1       9.994  -3.137  -6.133  0.00  0.00     0.041 C 
ATOM      4  C   LIG d   1      10.781  -3.540  -4.914  0.00  0.00     0.148 A 
ATOM      5  C   LIG d   1      10.245  -3.807  -3.704  0.00  0.00     0.162 A 
ATOM      6  N   LIG d   1      11.239  -4.125  -2.870  0.00  0.00    -0.246 N 
ATOM      7  C   LIG d   1      12.374  -4.068  -3.517  0.00  0.00     0.243 A 
ATOM      8  N   LIG d   1      12.128  -3.708  -4.797  0.00  0.00    -0.247 N 
ATOM      9  H   LIG d   1      12.787  -3.591  -5.500  0.00  0.00     0.310 HD
ATOM     10  C   LIG d   1       8.765  -3.745  -3.410  0.00  0.00     0.082 C 
ATOM     11  N   LIG d   1       8.115  -3.095  -4.564  0.00  0.00    -0.265 N 
ATOM     12  C   LIG d   1       7.175  -2.146  -4.385  0.00  0.00     0.307 C 
ATOM     13  O   LIG d   1       6.719  -1.553  -5.344  0.00  0.00    -0.252 OA
ATOM     14  N   LIG d   1       6.738  -1.857  -3.143  0.00  0.00    -0.269 N 
ATOM     15  H   LIG d   1      10.379  -3.663  -7.007  0.00  0.00     0.037 H 
ATOM     16  H   LIG d   1      10.082  -2.062  -6.285  0.00  0.00     0.037 H 
ATOM     17  H   LIG d   1      13.348  -4.275  -3.097  0.00  0.00     0.158 H 
ATOM     18  H   LIG d   1       8.369  -4.753  -3.281  0.00  0.00     0.055 H 
ATOM     19  H   LIG d   1       8.590  -3.159  -2.508  0.00  0.00     0.055 H 
ATOM     20  H   LIG d   1       7.154  -2.274  -2.373  0.00  0.00     0.156 HD
ATOM     21  H   LIG d   1      11.134  -4.358  -1.935  0.00  0.00     0.310 HD
ENDROOT
BRANCH   1  22
ATOM     22  C   LIG d   1       8.349  -4.997  -6.064  0.00  0.00     0.249 A 
ATOM     23  N   LIG d   1       7.227  -5.648  -5.956  0.00  0.00    -0.190 NA
ATOM     24  C   LIG d   1       7.437  -6.963  -6.145  0.00  0.00     0.202 A 
ATOM     25  N   LIG d   1       8.713  -7.154  -6.373  0.00  0.00    -0.056 NA
ATOM     26  O   LIG d   1       9.326  -5.874  -6.329  0.00  0.00    -0.336 OA
BRANCH  24  27
ATOM     27  C   LIG d   1       6.398  -8.021  -6.099  0.00  0.00     0.029 A 
ATOM     28  C   LIG d   1       5.987  -8.648  -7.274  0.00  0.00    -0.051 A 
ATOM     29  C   LIG d   1       5.021  -9.633  -7.226  0.00  0.00    -0.055 A 
ATOM     30  H   LIG d   1       6.425  -8.366  -8.220  0.00  0.00     0.062 H 
ATOM     31  C   LIG d   1       4.461  -9.997  -6.015  0.00  0.00     0.016 A 
ATOM     32  H   LIG d   1       4.699 -10.117  -8.136  0.00  0.00     0.062 H 
ATOM     33  C   LIG d   1       4.864  -9.378  -4.845  0.00  0.00     0.274 A 
ATOM     34  H   LIG d   1       3.705 -10.768  -5.982  0.00  0.00     0.069 H 
ATOM     35  C   LIG d   1       5.830  -8.391  -4.882  0.00  0.00     0.026 A 
ATOM     36  H   LIG d   1       6.145  -7.908  -3.969  0.00  0.00     0.069 H 
BRANCH  33  37
ATOM     37  N   LIG d   1       4.260  -9.771  -3.554  0.00  0.00     0.080 N 
ATOM     38  O   LIG d   1       3.064  -9.694  -3.396  0.00  0.00     0.041 OA
ATOM     39  O   LIG d   1       4.964 -10.171  -2.654  0.00  0.00    -0.576 OA
ENDBRANCH  33  37
ENDBRANCH  24  27
ENDBRANCH   1  22
BRANCH  14  40
ATOM     40  C   LIG d   1       5.684  -0.952  -2.966  0.00  0.00     0.037 A 
ATOM     41  C   LIG d   1       4.373  -1.406  -2.968  0.00  0.00    -0.005 A 
ATOM     42  C   LIG d   1       3.333  -0.510  -2.787  0.00  0.00     0.125 A 
ATOM     43  H   LIG d   1       4.162  -2.456  -3.108  0.00  0.00     0.067 H 
ATOM     44  C   LIG d   1       3.602   0.837  -2.614  0.00  0.00    -0.026 A 
ATOM     45  F   LIG d   1       2.056  -0.950  -2.783  0.00  0.00    -0.205 F 
ATOM     46  C   LIG d   1       4.908   1.290  -2.617  0.00  0.00    -0.057 A 
ATOM     47  H   LIG d   1       2.790   1.537  -2.476  0.00  0.00     0.065 H 
ATOM     48  C   LIG d   1       5.950   0.399  -2.792  0.00  0.00    -0.040 A 
ATOM     49  H   LIG d   1       5.115   2.341  -2.482  0.00  0.00     0.062 H 
ATOM     50  H   LIG d   1       6.970   0.755  -2.794  0.00  0.00     0.064 H 
ENDBRANCH  14  40
TORSDOF 4
ENDMDL
MODEL 7
REMARK VINA RESULT:      -7.7      4.159      8.647
REMARK  4 active torsions:
REMARK  status: ('A' for Active; 'I' for Inactive)
REMARK    1  A    between atoms: C_3  and  C_10 
REMARK    2  A    between atoms: C_5  and  N_7 
REMARK    3  A    between atoms: C_12  and  C_15 
REMARK       I    between atoms: N_25  and  C_26 
REMARK       I    between atoms: C_26  and  N_28 
REMARK    4  A    between atoms: N_28  and  C_29 
ROOT
ATOM      1  C   LIG d   1       9.465   0.775  -6.648  0.00  0.00     0.114 C 
ATOM      2  H   LIG d   1       9.914   0.522  -5.687  0.00  0.00     0.060 H 
ATOM      3  C   LIG d   1       9.946  -0.217  -7.715  0.00  0.00     0.041 C 
ATOM      4  C   LIG d   1       9.058  -0.096  -8.926  0.00  0.00     0.148 A 
ATOM      5  C   LIG d   1       7.837   0.480  -8.931  0.00  0.00     0.162 A 
ATOM      6  N   LIG d   1       7.347   0.401 -10.171  0.00  0.00    -0.246 N 
ATOM      7  C   LIG d   1       8.219  -0.199 -10.939  0.00  0.00     0.243 A 
ATOM      8  N   LIG d   1       9.302  -0.523 -10.196  0.00  0.00    -0.247 N 
ATOM      9  H   LIG d   1      10.102  -0.973 -10.509  0.00  0.00     0.310 HD
ATOM     10  C   LIG d   1       7.193   1.094  -7.711  0.00  0.00     0.082 C 
ATOM     11  N   LIG d   1       8.001   0.697  -6.542  0.00  0.00    -0.265 N 
ATOM     12  C   LIG d   1       7.413   0.272  -5.406  0.00  0.00     0.307 C 
ATOM     13  O   LIG d   1       8.093  -0.142  -4.488  0.00  0.00    -0.252 OA
ATOM     14  N   LIG d   1       6.070   0.308  -5.289  0.00  0.00    -0.269 N 
ATOM     15  H   LIG d   1      10.975   0.013  -7.992  0.00  0.00     0.037 H 
ATOM     16  H   LIG d   1       9.891  -1.232  -7.322  0.00  0.00     0.037 H 
ATOM     17  H   LIG d   1       8.095  -0.402 -11.993  0.00  0.00     0.158 H 
ATOM     18  H   LIG d   1       7.183   2.180  -7.804  0.00  0.00     0.055 H 
ATOM     19  H   LIG d   1       6.174   0.721  -7.601  0.00  0.00     0.055 H 
ATOM     20  H   LIG d   1       5.523   0.566  -6.048  0.00  0.00     0.156 HD
ATOM     21  H   LIG d   1       6.481   0.735 -10.456  0.00  0.00     0.310 HD
ENDROOT
BRANCH   1  22
ATOM     22  C   LIG d   1       9.870   2.172  -7.040  0.00  0.00     0.249 A 
ATOM     23  N   LIG d   1       9.472   3.270  -6.465  0.00  0.00    -0.190 NA
ATOM     24  C   LIG d   1      10.028   4.335  -7.069  0.00  0.00     0.202 A 
ATOM     25  N   LIG d   1      10.788   3.911  -8.048  0.00  0.00    -0.056 NA
ATOM     26  O   LIG d   1      10.701   2.494  -8.040  0.00  0.00    -0.336 OA
BRANCH  24  27
ATOM     27  C   LIG d   1       9.812   5.755  -6.694  0.00  0.00     0.029 A 
ATOM     28  C   LIG d   1       9.542   6.094  -5.370  0.00  0.00    -0.051 A 
ATOM     29  C   LIG d   1       9.343   7.416  -5.025  0.00  0.00    -0.055 A 
ATOM     30  H   LIG d   1       9.490   5.325  -4.614  0.00  0.00     0.062 H 
ATOM     31  C   LIG d   1       9.410   8.402  -5.992  0.00  0.00     0.016 A 
ATOM     32  H   LIG d   1       9.129   7.680  -4.000  0.00  0.00     0.062 H 
ATOM     33  C   LIG d   1       9.678   8.072  -7.309  0.00  0.00     0.274 A 
ATOM     34  H   LIG d   1       9.254   9.436  -5.719  0.00  0.00     0.069 H 
ATOM     35  C   LIG d   1       9.878   6.753  -7.664  0.00  0.00     0.026 A 
ATOM     36  H   LIG d   1      10.088   6.495  -8.692  0.00  0.00     0.069 H 
BRANCH  33  37
ATOM     37  N   LIG d   1       9.748   9.132  -8.338  0.00  0.00     0.080 N 
ATOM     38  O   LIG d   1       9.769   8.837  -9.511  0.00  0.00     0.041 OA
ATOM     39  O   LIG d   1       9.786  10.295  -8.007  0.00  0.00    -0.576 OA
ENDBRANCH  33  37
ENDBRANCH  24  27
ENDBRANCH   1  22
BRANCH  14  40
ATOM     40  C   LIG d   1       5.465  -0.028  -4.072  0.00  0.00     0.037 A 
ATOM     41  C   LIG d   1       4.952  -1.303  -3.880  0.00  0.00    -0.005 A 
ATOM     42  C   LIG d   1       4.360  -1.633  -2.674  0.00  0.00     0.125 A 
ATOM     43  H   LIG d   1       5.019  -2.038  -4.669  0.00  0.00     0.067 H 
ATOM     44  C   LIG d   1       4.270  -0.690  -1.665  0.00  0.00    -0.026 A 
ATOM     45  F   LIG d   1       3.866  -2.876  -2.482  0.00  0.00    -0.205 F 
ATOM     46  C   LIG d   1       4.775   0.582  -1.858  0.00  0.00    -0.057 A 
ATOM     47  H   LIG d   1       3.804  -0.947  -0.725  0.00  0.00     0.065 H 
ATOM     48  C   LIG d   1       5.373   0.916  -3.058  0.00  0.00    -0.040 A 
ATOM     49  H   LIG d   1       4.704   1.317  -1.069  0.00  0.00     0.062 H 
ATOM     50  H   LIG d   1       5.768   1.910  -3.207  0.00  0.00     0.064 H 
ENDBRANCH  14  40
TORSDOF 4
ENDMDL
MODEL 8
REMARK VINA RESULT:      -7.6      4.765      9.141
REMARK  4 active torsions:
REMARK  status: ('A' for Active; 'I' for Inactive)
REMARK    1  A    between atoms: C_3  and  C_10 
REMARK    2  A    between atoms: C_5  and  N_7 
REMARK    3  A    between atoms: C_12  and  C_15 
REMARK       I    between atoms: N_25  and  C_26 
REMARK       I    between atoms: C_26  and  N_28 
REMARK    4  A    between atoms: N_28  and  C_29 
ROOT
ATOM      1  C   LIG d   1       7.113  -0.368  -8.440  0.00  0.00     0.114 C 
ATOM      2  H   LIG d   1       7.791  -0.922  -7.791  0.00  0.00     0.060 H 
ATOM      3  C   LIG d   1       6.683  -1.259  -9.612  0.00  0.00     0.041 C 
ATOM      4  C   LIG d   1       5.489  -0.635 -10.285  0.00  0.00     0.148 A 
ATOM      5  C   LIG d   1       4.699   0.310  -9.731  0.00  0.00     0.162 A 
ATOM      6  N   LIG d   1       3.744   0.621 -10.611  0.00  0.00    -0.246 N 
ATOM      7  C   LIG d   1       3.911  -0.093 -11.694  0.00  0.00     0.243 A 
ATOM      8  N   LIG d   1       4.993  -0.888 -11.528  0.00  0.00    -0.247 N 
ATOM      9  H   LIG d   1       5.349  -1.520 -12.173  0.00  0.00     0.310 HD
ATOM     10  C   LIG d   1       4.915   0.880  -8.350  0.00  0.00     0.082 C 
ATOM     11  N   LIG d   1       5.922   0.036  -7.678  0.00  0.00    -0.265 N 
ATOM     12  C   LIG d   1       5.753  -0.359  -6.401  0.00  0.00     0.307 C 
ATOM     13  O   LIG d   1       6.542  -1.133  -5.894  0.00  0.00    -0.252 OA
ATOM     14  N   LIG d   1       4.710   0.106  -5.685  0.00  0.00    -0.269 N 
ATOM     15  H   LIG d   1       7.502  -1.344 -10.327  0.00  0.00     0.037 H 
ATOM     16  H   LIG d   1       6.417  -2.248  -9.241  0.00  0.00     0.037 H 
ATOM     17  H   LIG d   1       3.289  -0.054 -12.576  0.00  0.00     0.158 H 
ATOM     18  H   LIG d   1       5.282   1.905  -8.424  0.00  0.00     0.055 H 
ATOM     19  H   LIG d   1       3.980   0.859  -7.788  0.00  0.00     0.055 H 
ATOM     20  H   LIG d   1       4.038   0.662  -6.110  0.00  0.00     0.156 HD
ATOM     21  H   LIG d   1       3.038   1.271 -10.469  0.00  0.00     0.310 HD
ENDROOT
BRANCH   1  22
ATOM     22  C   LIG d   1       7.813   0.858  -8.969  0.00  0.00     0.249 A 
ATOM     23  N   LIG d   1       7.999   1.969  -8.318  0.00  0.00    -0.190 NA
ATOM     24  C   LIG d   1       8.658   2.852  -9.090  0.00  0.00     0.202 A 
ATOM     25  N   LIG d   1       8.891   2.296 -10.253  0.00  0.00    -0.056 NA
ATOM     26  O   LIG d   1       8.349   0.986 -10.190  0.00  0.00    -0.336 OA
BRANCH  24  27
ATOM     27  C   LIG d   1       9.050   4.227  -8.693  0.00  0.00     0.029 A 
ATOM     28  C   LIG d   1       8.778   5.302  -9.537  0.00  0.00    -0.051 A 
ATOM     29  C   LIG d   1       9.144   6.579  -9.163  0.00  0.00    -0.055 A 
ATOM     30  H   LIG d   1       8.279   5.136 -10.480  0.00  0.00     0.062 H 
ATOM     31  C   LIG d   1       9.780   6.793  -7.954  0.00  0.00     0.016 A 
ATOM     32  H   LIG d   1       8.937   7.412  -9.818  0.00  0.00     0.062 H 
ATOM     33  C   LIG d   1      10.054   5.729  -7.112  0.00  0.00     0.274 A 
ATOM     34  H   LIG d   1      10.065   7.794  -7.665  0.00  0.00     0.069 H 
ATOM     35  C   LIG d   1       9.692   4.448  -7.477  0.00  0.00     0.026 A 
ATOM     36  H   LIG d   1       9.905   3.618  -6.819  0.00  0.00     0.069 H 
BRANCH  33  37
ATOM     37  N   LIG d   1      10.735   5.965  -5.821  0.00  0.00     0.080 N 
ATOM     38  O   LIG d   1      11.275   5.048  -5.245  0.00  0.00     0.041 OA
ATOM     39  O   LIG d   1      10.752   7.074  -5.339  0.00  0.00    -0.576 OA
ENDBRANCH  33  37
ENDBRANCH  24  27
ENDBRANCH   1  22
BRANCH  14  40
ATOM     40  C   LIG d   1       4.596  -0.215  -4.326  0.00  0.00     0.037 A 
ATOM     41  C   LIG d   1       4.132  -1.466  -3.945  0.00  0.00    -0.005 A 
ATOM     42  C   LIG d   1       4.026  -1.782  -2.602  0.00  0.00     0.125 A 
ATOM     43  H   LIG d   1       3.858  -2.194  -4.695  0.00  0.00     0.067 H 
ATOM     44  C   LIG d   1       4.371  -0.848  -1.641  0.00  0.00    -0.026 A 
ATOM     45  F   LIG d   1       3.580  -3.002  -2.229  0.00  0.00    -0.205 F 
ATOM     46  C   LIG d   1       4.828   0.401  -2.021  0.00  0.00    -0.057 A 
ATOM     47  H   LIG d   1       4.284  -1.094  -0.593  0.00  0.00     0.065 H 
ATOM     48  C   LIG d   1       4.942   0.719  -3.360  0.00  0.00    -0.040 A 
ATOM     49  H   LIG d   1       5.097   1.128  -1.269  0.00  0.00     0.062 H 
ATOM     50  H   LIG d   1       5.299   1.695  -3.655  0.00  0.00     0.064 H 
ENDBRANCH  14  40
TORSDOF 4
ENDMDL
MODEL 9
REMARK VINA RESULT:      -7.5      6.236     10.493
REMARK  4 active torsions:
REMARK  status: ('A' for Active; 'I' for Inactive)
REMARK    1  A    between atoms: C_3  and  C_10 
REMARK    2  A    between atoms: C_5  and  N_7 
REMARK    3  A    between atoms: C_12  and  C_15 
REMARK       I    between atoms: N_25  and  C_26 
REMARK       I    between atoms: C_26  and  N_28 
REMARK    4  A    between atoms: N_28  and  C_29 
ROOT
ATOM      1  C   LIG d   1      12.055   8.193  -0.575  0.00  0.00     0.114 C 
ATOM      2  H   LIG d   1      12.823   7.601  -1.075  0.00  0.00     0.060 H 
ATOM      3  C   LIG d   1      12.598   9.598  -0.286  0.00  0.00     0.041 C 
ATOM      4  C   LIG d   1      11.445  10.504   0.057  0.00  0.00     0.148 A 
ATOM      5  C   LIG d   1      10.150  10.242  -0.223  0.00  0.00     0.162 A 
ATOM      6  N   LIG d   1       9.414  11.264   0.223  0.00  0.00    -0.246 N 
ATOM      7  C   LIG d   1      10.202  12.151   0.772  0.00  0.00     0.243 A 
ATOM      8  N   LIG d   1      11.478  11.710   0.688  0.00  0.00    -0.247 N 
ATOM      9  H   LIG d   1      12.269  12.167   1.017  0.00  0.00     0.310 HD
ATOM     10  C   LIG d   1       9.678   8.986  -0.917  0.00  0.00     0.082 C 
ATOM     11  N   LIG d   1      10.874   8.301  -1.444  0.00  0.00    -0.265 N 
ATOM     12  C   LIG d   1      10.885   7.789  -2.690  0.00  0.00     0.307 C 
ATOM     13  O   LIG d   1      11.909   7.314  -3.143  0.00  0.00    -0.252 OA
ATOM     14  N   LIG d   1       9.761   7.803  -3.434  0.00  0.00    -0.269 N 
ATOM     15  H   LIG d   1      13.293   9.557   0.553  0.00  0.00     0.037 H 
ATOM     16  H   LIG d   1      13.112   9.980  -1.168  0.00  0.00     0.037 H 
ATOM     17  H   LIG d   1       9.887  13.083   1.218  0.00  0.00     0.158 H 
ATOM     18  H   LIG d   1       9.164   8.340  -0.206  0.00  0.00     0.055 H 
ATOM     19  H   LIG d   1       9.008   9.245  -1.737  0.00  0.00     0.055 H 
ATOM     20  H   LIG d   1       8.966   8.249  -3.104  0.00  0.00     0.156 HD
ATOM     21  H   LIG d   1       8.450  11.336   0.149  0.00  0.00     0.310 HD
ENDROOT
BRANCH   1  22
ATOM     22  C   LIG d   1      11.670   7.526   0.721  0.00  0.00     0.249 A 
ATOM     23  N   LIG d   1      11.849   8.017   1.912  0.00  0.00    -0.190 NA
ATOM     24  C   LIG d   1      11.388   7.159   2.840  0.00  0.00     0.202 A 
ATOM     25  N   LIG d   1      10.913   6.101   2.230  0.00  0.00    -0.056 NA
ATOM     26  O   LIG d   1      11.085   6.327   0.839  0.00  0.00    -0.336 OA
BRANCH  24  27
ATOM     27  C   LIG d   1      11.418   7.370   4.308  0.00  0.00     0.029 A 
ATOM     28  C   LIG d   1      11.028   6.347   5.169  0.00  0.00    -0.051 A 
ATOM     29  C   LIG d   1      11.058   6.548   6.535  0.00  0.00    -0.055 A 
ATOM     30  H   LIG d   1      10.704   5.398   4.770  0.00  0.00     0.062 H 
ATOM     31  C   LIG d   1      11.474   7.763   7.048  0.00  0.00     0.016 A 
ATOM     32  H   LIG d   1      10.752   5.757   7.203  0.00  0.00     0.062 H 
ATOM     33  C   LIG d   1      11.862   8.783   6.198  0.00  0.00     0.274 A 
ATOM     34  H   LIG d   1      11.496   7.917   8.117  0.00  0.00     0.069 H 
ATOM     35  C   LIG d   1      11.836   8.592   4.830  0.00  0.00     0.026 A 
ATOM     36  H   LIG d   1      12.140   9.389   4.167  0.00  0.00     0.069 H 
BRANCH  33  37
ATOM     37  N   LIG d   1      12.306  10.081   6.753  0.00  0.00     0.080 N 
ATOM     38  O   LIG d   1      11.560  10.727   7.453  0.00  0.00     0.041 OA
ATOM     39  O   LIG d   1      13.415  10.497   6.507  0.00  0.00    -0.576 OA
ENDBRANCH  33  37
ENDBRANCH  24  27
ENDBRANCH   1  22
BRANCH  14  40
ATOM     40  C   LIG d   1       9.742   7.172  -4.685  0.00  0.00     0.037 A 
ATOM     41  C   LIG d   1       9.684   5.788  -4.763  0.00  0.00    -0.005 A 
ATOM     42  C   LIG d   1       9.660   5.169  -6.001  0.00  0.00     0.125 A 
ATOM     43  H   LIG d   1       9.654   5.195  -3.862  0.00  0.00     0.067 H 
ATOM     44  C   LIG d   1       9.704   5.929  -7.157  0.00  0.00    -0.026 A 
ATOM     45  F   LIG d   1       9.597   3.822  -6.080  0.00  0.00    -0.205 F 
ATOM     46  C   LIG d   1       9.768   7.308  -7.079  0.00  0.00    -0.057 A 
ATOM     47  H   LIG d   1       9.688   5.445  -8.123  0.00  0.00     0.065 H 
ATOM     48  C   LIG d   1       9.786   7.932  -5.846  0.00  0.00    -0.040 A 
ATOM     49  H   LIG d   1       9.802   7.899  -7.982  0.00  0.00     0.062 H 
ATOM     50  H   LIG d   1       9.836   9.009  -5.787  0.00  0.00     0.064 H 
ENDBRANCH  14  40
TORSDOF 4
ENDMDL
