MODEL 1
REMARK VINA RESULT:      -6.4      0.000      0.000
REMARK  6 active torsions:
REMARK  status: ('A' for Active; 'I' for Inactive)
REMARK    1  A    between atoms: C_3  and  O_22 
REMARK    2  A    between atoms: C_4  and  O_21 
REMARK    3  A    between atoms: C_6  and  C_7 
REMARK    4  A    between atoms: C_7  and  C_8 
REMARK    5  A    between atoms: C_12  and  O_20 
REMARK    6  A    between atoms: C_13  and  O_19 
ROOT
ATOM      1  C   LIG d   1       3.502   0.288  -7.930  0.00  0.00     0.008 C 
ATOM      2  H   LIG d   1       2.745   0.891  -7.430  0.00  0.00     0.091 H 
ATOM      3  C   LIG d   1       2.923  -0.283  -9.199  0.00  0.00     0.007 A 
ATOM      4  C   LIG d   1       2.088  -1.386  -9.106  0.00  0.00    -0.008 A 
ATOM      5  C   LIG d   1       1.532  -1.941 -10.244  0.00  0.00     0.159 A 
ATOM      6  C   LIG d   1       1.813  -1.388 -11.489  0.00  0.00     0.159 A 
ATOM      7  C   LIG d   1       2.648  -0.289 -11.578  0.00  0.00    -0.013 A 
ATOM      8  C   LIG d   1       3.204   0.263 -10.434  0.00  0.00    -0.030 A 
ATOM      9  C   LIG d   1       4.114   1.457 -10.577  0.00  0.00     0.013 C 
ATOM     10  C   LIG d   1       4.287   2.141  -9.220  0.00  0.00    -0.029 C 
ATOM     11  N   LIG d   1       4.668   1.126  -8.228  0.00  0.00     0.233 N 
ATOM     12  H   LIG d   1       1.870  -1.815  -8.138  0.00  0.00     0.066 H 
ATOM     13  H   LIG d   1       2.869   0.143 -12.544  0.00  0.00     0.066 H 
ATOM     14  H   LIG d   1       5.086   1.129 -10.944  0.00  0.00     0.036 H 
ATOM     15  H   LIG d   1       3.679   2.162 -11.285  0.00  0.00     0.036 H 
ATOM     16  H   LIG d   1       5.069   2.897  -9.289  0.00  0.00     0.082 H 
ATOM     17  H   LIG d   1       3.348   2.609  -8.924  0.00  0.00     0.082 H 
ATOM     18  H   LIG d   1       4.982   1.580  -7.384  0.00  0.00     0.202 HD
ATOM     19  H   LIG d   1       5.410   0.552  -8.600  0.00  0.00     0.202 HD
ENDROOT
BRANCH   1  20
ATOM     20  C   LIG d   1       3.925  -0.857  -7.009  0.00  0.00     0.020 C 
ATOM     21  H   LIG d   1       4.889  -1.248  -7.334  0.00  0.00     0.037 H 
ATOM     22  H   LIG d   1       3.179  -1.650  -7.049  0.00  0.00     0.037 H 
BRANCH  20  23
ATOM     23  C   LIG d   1       4.041  -0.347  -5.595  0.00  0.00    -0.038 A 
ATOM     24  C   LIG d   1       2.945   0.222  -4.976  0.00  0.00    -0.055 A 
ATOM     25  C   LIG d   1       3.046   0.692  -3.678  0.00  0.00    -0.016 A 
ATOM     26  H   LIG d   1       2.006   0.298  -5.504  0.00  0.00     0.062 H 
ATOM     27  C   LIG d   1       4.249   0.590  -2.998  0.00  0.00     0.158 A 
ATOM     28  H   LIG d   1       2.189   1.137  -3.197  0.00  0.00     0.066 H 
ATOM     29  C   LIG d   1       5.352   0.017  -3.622  0.00  0.00     0.159 A 
ATOM     30  C   LIG d   1       5.244  -0.451  -4.921  0.00  0.00    -0.013 A 
ATOM     31  H   LIG d   1       6.099  -0.897  -5.407  0.00  0.00     0.066 H 
BRANCH  27  32
ATOM     32  O   LIG d   1       4.350   1.052  -1.722  0.00  0.00    -0.503 OA
ATOM     33  H   LIG d   1       4.303   2.015  -1.647  0.00  0.00     0.292 HD
ENDBRANCH  27  32
BRANCH  29  34
ATOM     34  O   LIG d   1       6.535  -0.085  -2.957  0.00  0.00    -0.503 OA
ATOM     35  H   LIG d   1       6.462   0.043  -2.002  0.00  0.00     0.292 HD
ENDBRANCH  29  34
ENDBRANCH  20  23
ENDBRANCH   1  20
BRANCH   5  36
ATOM     36  O   LIG d   1       0.714  -3.023 -10.146  0.00  0.00    -0.503 OA
ATOM     37  H   LIG d   1       0.283  -3.267 -10.977  0.00  0.00     0.292 HD
ENDBRANCH   5  36
BRANCH   6  38
ATOM     38  O   LIG d   1       1.270  -1.926 -12.614  0.00  0.00    -0.503 OA
ATOM     39  H   LIG d   1       1.652  -1.586 -13.436  0.00  0.00     0.292 HD
ENDBRANCH   6  38
TORSDOF 6
ENDMDL
MODEL 2
REMARK VINA RESULT:      -6.2      5.553      6.997
REMARK  6 active torsions:
REMARK  status: ('A' for Active; 'I' for Inactive)
REMARK    1  A    between atoms: C_3  and  O_22 
REMARK    2  A    between atoms: C_4  and  O_21 
REMARK    3  A    between atoms: C_6  and  C_7 
REMARK    4  A    between atoms: C_7  and  C_8 
REMARK    5  A    between atoms: C_12  and  O_20 
REMARK    6  A    between atoms: C_13  and  O_19 
ROOT
ATOM      1  C   LIG d   1       6.652   0.595  -3.435  0.00  0.00     0.008 C 
ATOM      2  H   LIG d   1       7.363   0.479  -2.617  0.00  0.00     0.091 H 
ATOM      3  C   LIG d   1       6.041  -0.745  -3.755  0.00  0.00     0.007 A 
ATOM      4  C   LIG d   1       6.779  -1.645  -4.508  0.00  0.00    -0.008 A 
ATOM      5  C   LIG d   1       6.258  -2.887  -4.822  0.00  0.00     0.159 A 
ATOM      6  C   LIG d   1       4.985  -3.234  -4.379  0.00  0.00     0.159 A 
ATOM      7  C   LIG d   1       4.252  -2.331  -3.630  0.00  0.00    -0.013 A 
ATOM      8  C   LIG d   1       4.778  -1.087  -3.318  0.00  0.00    -0.030 A 
ATOM      9  C   LIG d   1       3.941  -0.133  -2.505  0.00  0.00     0.013 C 
ATOM     10  C   LIG d   1       4.826   0.980  -1.942  0.00  0.00    -0.029 C 
ATOM     11  N   LIG d   1       5.615   1.554  -3.041  0.00  0.00     0.233 N 
ATOM     12  H   LIG d   1       7.767  -1.375  -4.851  0.00  0.00     0.066 H 
ATOM     13  H   LIG d   1       3.263  -2.598  -3.284  0.00  0.00     0.066 H 
ATOM     14  H   LIG d   1       3.170   0.303  -3.140  0.00  0.00     0.036 H 
ATOM     15  H   LIG d   1       3.470  -0.672  -1.683  0.00  0.00     0.036 H 
ATOM     16  H   LIG d   1       4.200   1.755  -1.497  0.00  0.00     0.082 H 
ATOM     17  H   LIG d   1       5.495   0.568  -1.186  0.00  0.00     0.082 H 
ATOM     18  H   LIG d   1       6.048   2.412  -2.734  0.00  0.00     0.202 HD
ATOM     19  H   LIG d   1       5.012   1.740  -3.828  0.00  0.00     0.202 HD
ENDROOT
BRANCH   1  20
ATOM     20  C   LIG d   1       7.384   1.122  -4.669  0.00  0.00     0.020 C 
ATOM     21  H   LIG d   1       6.923   2.054  -4.995  0.00  0.00     0.037 H 
ATOM     22  H   LIG d   1       7.323   0.387  -5.470  0.00  0.00     0.037 H 
BRANCH  20  23
ATOM     23  C   LIG d   1       8.831   1.371  -4.327  0.00  0.00    -0.038 A 
ATOM     24  C   LIG d   1       9.826   0.671  -4.984  0.00  0.00    -0.055 A 
ATOM     25  C   LIG d   1      11.155   0.895  -4.673  0.00  0.00    -0.016 A 
ATOM     26  H   LIG d   1       9.564  -0.051  -5.744  0.00  0.00     0.062 H 
ATOM     27  C   LIG d   1      11.491   1.824  -3.702  0.00  0.00     0.158 A 
ATOM     28  H   LIG d   1      11.929   0.347  -5.187  0.00  0.00     0.066 H 
ATOM     29  C   LIG d   1      10.490   2.529  -3.041  0.00  0.00     0.159 A 
ATOM     30  C   LIG d   1       9.161   2.300  -3.357  0.00  0.00    -0.013 A 
ATOM     31  H   LIG d   1       8.382   2.846  -2.846  0.00  0.00     0.066 H 
BRANCH  27  32
ATOM     32  O   LIG d   1      12.798   2.046  -3.395  0.00  0.00    -0.503 OA
ATOM     33  H   LIG d   1      13.413   1.446  -3.838  0.00  0.00     0.292 HD
ENDBRANCH  27  32
BRANCH  29  34
ATOM     34  O   LIG d   1      10.815   3.443  -2.087  0.00  0.00    -0.503 OA
ATOM     35  H   LIG d   1      11.593   3.976  -2.302  0.00  0.00     0.292 HD
ENDBRANCH  29  34
ENDBRANCH  20  23
ENDBRANCH   1  20
BRANCH   5  36
ATOM     36  O   LIG d   1       6.987  -3.766  -5.561  0.00  0.00    -0.503 OA
ATOM     37  H   LIG d   1       6.818  -3.715  -6.512  0.00  0.00     0.292 HD
ENDBRANCH   5  36
BRANCH   6  38
ATOM     38  O   LIG d   1       4.465  -4.453  -4.682  0.00  0.00    -0.503 OA
ATOM     39  H   LIG d   1       3.971  -4.474  -5.513  0.00  0.00     0.292 HD
ENDBRANCH   6  38
TORSDOF 6
ENDMDL
MODEL 3
REMARK VINA RESULT:      -5.9      4.058      5.104
REMARK  6 active torsions:
REMARK  status: ('A' for Active; 'I' for Inactive)
REMARK    1  A    between atoms: C_3  and  O_22 
REMARK    2  A    between atoms: C_4  and  O_21 
REMARK    3  A    between atoms: C_6  and  C_7 
REMARK    4  A    between atoms: C_7  and  C_8 
REMARK    5  A    between atoms: C_12  and  O_20 
REMARK    6  A    between atoms: C_13  and  O_19 
ROOT
ATOM      1  C   LIG d   1       4.668  -3.171  -5.821  0.00  0.00     0.008 C 
ATOM      2  H   LIG d   1       3.725  -2.904  -5.347  0.00  0.00     0.091 H 
ATOM      3  C   LIG d   1       4.587  -4.589  -6.326  0.00  0.00     0.007 A 
ATOM      4  C   LIG d   1       4.738  -5.624  -5.416  0.00  0.00    -0.008 A 
ATOM      5  C   LIG d   1       4.667  -6.940  -5.835  0.00  0.00     0.159 A 
ATOM      6  C   LIG d   1       4.443  -7.225  -7.178  0.00  0.00     0.159 A 
ATOM      7  C   LIG d   1       4.294  -6.190  -8.082  0.00  0.00    -0.013 A 
ATOM      8  C   LIG d   1       4.367  -4.872  -7.658  0.00  0.00    -0.030 A 
ATOM      9  C   LIG d   1       4.206  -3.775  -8.679  0.00  0.00     0.013 C 
ATOM     10  C   LIG d   1       3.918  -2.449  -7.974  0.00  0.00    -0.029 C 
ATOM     11  N   LIG d   1       4.931  -2.245  -6.927  0.00  0.00     0.233 N 
ATOM     12  H   LIG d   1       4.912  -5.401  -4.373  0.00  0.00     0.066 H 
ATOM     13  H   LIG d   1       4.120  -6.409  -9.126  0.00  0.00     0.066 H 
ATOM     14  H   LIG d   1       5.123  -3.684  -9.261  0.00  0.00     0.036 H 
ATOM     15  H   LIG d   1       3.378  -4.018  -9.345  0.00  0.00     0.036 H 
ATOM     16  H   LIG d   1       3.967  -1.633  -8.694  0.00  0.00     0.082 H 
ATOM     17  H   LIG d   1       2.926  -2.483  -7.522  0.00  0.00     0.082 H 
ATOM     18  H   LIG d   1       4.883  -1.295  -6.591  0.00  0.00     0.202 HD
ATOM     19  H   LIG d   1       5.849  -2.424  -7.307  0.00  0.00     0.202 HD
ENDROOT
BRANCH   1  20
ATOM     20  C   LIG d   1       5.797  -3.065  -4.796  0.00  0.00     0.020 C 
ATOM     21  H   LIG d   1       6.736  -2.861  -5.309  0.00  0.00     0.037 H 
ATOM     22  H   LIG d   1       5.880  -4.003  -4.248  0.00  0.00     0.037 H 
BRANCH  20  23
ATOM     23  C   LIG d   1       5.497  -1.946  -3.832  0.00  0.00    -0.038 A 
ATOM     24  C   LIG d   1       4.568  -2.133  -2.826  0.00  0.00    -0.055 A 
ATOM     25  C   LIG d   1       4.289  -1.109  -1.939  0.00  0.00    -0.016 A 
ATOM     26  H   LIG d   1       4.062  -3.082  -2.729  0.00  0.00     0.062 H 
ATOM     27  C   LIG d   1       4.942   0.107  -2.058  0.00  0.00     0.158 A 
ATOM     28  H   LIG d   1       3.563  -1.258  -1.154  0.00  0.00     0.066 H 
ATOM     29  C   LIG d   1       5.877   0.295  -3.071  0.00  0.00     0.159 A 
ATOM     30  C   LIG d   1       6.152  -0.735  -3.956  0.00  0.00    -0.013 A 
ATOM     31  H   LIG d   1       6.878  -0.591  -4.743  0.00  0.00     0.066 H 
BRANCH  27  32
ATOM     32  O   LIG d   1       4.668   1.116  -1.187  0.00  0.00    -0.503 OA
ATOM     33  H   LIG d   1       4.115   1.816  -1.558  0.00  0.00     0.292 HD
ENDBRANCH  27  32
BRANCH  29  34
ATOM     34  O   LIG d   1       6.521   1.488  -3.192  0.00  0.00    -0.503 OA
ATOM     35  H   LIG d   1       6.718   1.737  -4.106  0.00  0.00     0.292 HD
ENDBRANCH  29  34
ENDBRANCH  20  23
ENDBRANCH   1  20
BRANCH   5  36
ATOM     36  O   LIG d   1       4.817  -7.951  -4.937  0.00  0.00    -0.503 OA
ATOM     37  H   LIG d   1       4.817  -7.660  -4.014  0.00  0.00     0.292 HD
ENDBRANCH   5  36
BRANCH   6  38
ATOM     38  O   LIG d   1       4.371  -8.517  -7.599  0.00  0.00    -0.503 OA
ATOM     39  H   LIG d   1       4.946  -8.718  -8.349  0.00  0.00     0.292 HD
ENDBRANCH   6  38
TORSDOF 6
ENDMDL
MODEL 4
REMARK VINA RESULT:      -5.8     10.592     13.221
REMARK  6 active torsions:
REMARK  status: ('A' for Active; 'I' for Inactive)
REMARK    1  A    between atoms: C_3  and  O_22 
REMARK    2  A    between atoms: C_4  and  O_21 
REMARK    3  A    between atoms: C_6  and  C_7 
REMARK    4  A    between atoms: C_7  and  C_8 
REMARK    5  A    between atoms: C_12  and  O_20 
REMARK    6  A    between atoms: C_13  and  O_19 
ROOT
ATOM      1  C   LIG d   1      10.544   8.314  -3.407  0.00  0.00     0.008 C 
ATOM      2  H   LIG d   1      11.544   8.541  -3.777  0.00  0.00     0.091 H 
ATOM      3  C   LIG d   1      10.655   7.515  -2.135  0.00  0.00     0.007 A 
ATOM      4  C   LIG d   1      10.942   6.161  -2.227  0.00  0.00    -0.008 A 
ATOM      5  C   LIG d   1      11.056   5.391  -1.084  0.00  0.00     0.159 A 
ATOM      6  C   LIG d   1      10.881   5.979   0.165  0.00  0.00     0.159 A 
ATOM      7  C   LIG d   1      10.594   7.329   0.252  0.00  0.00    -0.013 A 
ATOM      8  C   LIG d   1      10.480   8.097  -0.896  0.00  0.00    -0.030 A 
ATOM      9  C   LIG d   1      10.159   9.564  -0.755  0.00  0.00     0.013 C 
ATOM     10  C   LIG d   1      10.471  10.290  -2.064  0.00  0.00    -0.029 C 
ATOM     11  N   LIG d   1       9.822   9.567  -3.168  0.00  0.00     0.233 N 
ATOM     12  H   LIG d   1      11.077   5.706  -3.197  0.00  0.00     0.066 H 
ATOM     13  H   LIG d   1      10.458   7.789   1.221  0.00  0.00     0.066 H 
ATOM     14  H   LIG d   1       9.102   9.682  -0.518  0.00  0.00     0.036 H 
ATOM     15  H   LIG d   1      10.760   9.991   0.048  0.00  0.00     0.036 H 
ATOM     16  H   LIG d   1      10.086  11.309  -2.018  0.00  0.00     0.082 H 
ATOM     17  H   LIG d   1      11.550  10.310  -2.223  0.00  0.00     0.082 H 
ATOM     18  H   LIG d   1       9.844  10.135  -4.002  0.00  0.00     0.202 HD
ATOM     19  H   LIG d   1       8.865   9.364  -2.921  0.00  0.00     0.202 HD
ENDROOT
BRANCH   1  20
ATOM     20  C   LIG d   1       9.793   7.491  -4.455  0.00  0.00     0.020 C 
ATOM     21  H   LIG d   1       8.722   7.547  -4.261  0.00  0.00     0.037 H 
ATOM     22  H   LIG d   1      10.118   6.453  -4.403  0.00  0.00     0.037 H 
BRANCH  20  23
ATOM     23  C   LIG d   1      10.085   8.040  -5.828  0.00  0.00    -0.038 A 
ATOM     24  C   LIG d   1      11.393   8.242  -6.226  0.00  0.00    -0.055 A 
ATOM     25  C   LIG d   1      11.666   8.746  -7.485  0.00  0.00    -0.016 A 
ATOM     26  H   LIG d   1      12.204   8.004  -5.554  0.00  0.00     0.062 H 
ATOM     27  C   LIG d   1      10.627   9.047  -8.350  0.00  0.00     0.158 A 
ATOM     28  H   LIG d   1      12.688   8.904  -7.793  0.00  0.00     0.066 H 
ATOM     29  C   LIG d   1       9.310   8.843  -7.950  0.00  0.00     0.159 A 
ATOM     30  C   LIG d   1       9.044   8.338  -6.687  0.00  0.00    -0.013 A 
ATOM     31  H   LIG d   1       8.022   8.179  -6.374  0.00  0.00     0.066 H 
BRANCH  27  32
ATOM     32  O   LIG d   1      10.894   9.543  -9.589  0.00  0.00    -0.503 OA
ATOM     33  H   LIG d   1      10.862   8.880 -10.292  0.00  0.00     0.292 HD
ENDBRANCH  27  32
BRANCH  29  34
ATOM     34  O   LIG d   1       8.286   9.137  -8.796  0.00  0.00    -0.503 OA
ATOM     35  H   LIG d   1       7.425   9.211  -8.361  0.00  0.00     0.292 HD
ENDBRANCH  29  34
ENDBRANCH  20  23
ENDBRANCH   1  20
BRANCH   5  36
ATOM     36  O   LIG d   1      11.337   4.064  -1.181  0.00  0.00    -0.503 OA
ATOM     37  H   LIG d   1      11.442   3.750  -2.090  0.00  0.00     0.292 HD
ENDBRANCH   5  36
BRANCH   6  38
ATOM     38  O   LIG d   1      10.993   5.230   1.295  0.00  0.00    -0.503 OA
ATOM     39  H   LIG d   1      10.179   5.181   1.816  0.00  0.00     0.292 HD
ENDBRANCH   6  38
TORSDOF 6
ENDMDL
MODEL 5
REMARK VINA RESULT:      -5.7      8.984     10.331
REMARK  6 active torsions:
REMARK  status: ('A' for Active; 'I' for Inactive)
REMARK    1  A    between atoms: C_3  and  O_22 
REMARK    2  A    between atoms: C_4  and  O_21 
REMARK    3  A    between atoms: C_6  and  C_7 
REMARK    4  A    between atoms: C_7  and  C_8 
REMARK    5  A    between atoms: C_12  and  O_20 
REMARK    6  A    between atoms: C_13  and  O_19 
ROOT
ATOM      1  C   LIG d   1       9.939   5.797  -4.970  0.00  0.00     0.008 C 
ATOM      2  H   LIG d   1      10.965   5.912  -4.622  0.00  0.00     0.091 H 
ATOM      3  C   LIG d   1       9.763   6.559  -6.258  0.00  0.00     0.007 A 
ATOM      4  C   LIG d   1       9.601   7.935  -6.196  0.00  0.00    -0.008 A 
ATOM      5  C   LIG d   1       9.440   8.673  -7.354  0.00  0.00     0.159 A 
ATOM      6  C   LIG d   1       9.440   8.031  -8.588  0.00  0.00     0.159 A 
ATOM      7  C   LIG d   1       9.601   6.658  -8.645  0.00  0.00    -0.013 A 
ATOM      8  C   LIG d   1       9.762   5.922  -7.482  0.00  0.00    -0.030 A 
ATOM      9  C   LIG d   1       9.926   4.427  -7.590  0.00  0.00     0.013 C 
ATOM     10  C   LIG d   1      10.480   3.870  -6.278  0.00  0.00    -0.029 C 
ATOM     11  N   LIG d   1       9.654   4.373  -5.170  0.00  0.00     0.233 N 
ATOM     12  H   LIG d   1       9.600   8.432  -5.237  0.00  0.00     0.066 H 
ATOM     13  H   LIG d   1       9.602   6.156  -9.603  0.00  0.00     0.066 H 
ATOM     14  H   LIG d   1       8.959   3.970  -7.799  0.00  0.00     0.036 H 
ATOM     15  H   LIG d   1      10.617   4.196  -8.401  0.00  0.00     0.036 H 
ATOM     16  H   LIG d   1      10.442   2.781  -6.297  0.00  0.00     0.082 H 
ATOM     17  H   LIG d   1      11.511   4.202  -6.146  0.00  0.00     0.082 H 
ATOM     18  H   LIG d   1       9.873   3.863  -4.328  0.00  0.00     0.202 HD
ATOM     19  H   LIG d   1       8.678   4.253  -5.396  0.00  0.00     0.202 HD
ENDROOT
BRANCH   1  20
ATOM     20  C   LIG d   1       8.983   6.360  -3.918  0.00  0.00     0.020 C 
ATOM     21  H   LIG d   1       8.160   5.663  -3.765  0.00  0.00     0.037 H 
ATOM     22  H   LIG d   1       8.591   7.317  -4.258  0.00  0.00     0.037 H 
BRANCH  20  23
ATOM     23  C   LIG d   1       9.724   6.555  -2.619  0.00  0.00    -0.038 A 
ATOM     24  C   LIG d   1       9.861   7.823  -2.088  0.00  0.00    -0.055 A 
ATOM     25  C   LIG d   1      10.541   8.007  -0.896  0.00  0.00    -0.016 A 
ATOM     26  H   LIG d   1       9.435   8.672  -2.601  0.00  0.00     0.062 H 
ATOM     27  C   LIG d   1      11.083   6.918  -0.234  0.00  0.00     0.158 A 
ATOM     28  H   LIG d   1      10.647   8.999  -0.484  0.00  0.00     0.066 H 
ATOM     29  C   LIG d   1      10.945   5.642  -0.769  0.00  0.00     0.159 A 
ATOM     30  C   LIG d   1      10.263   5.464  -1.962  0.00  0.00    -0.013 A 
ATOM     31  H   LIG d   1      10.154   4.474  -2.380  0.00  0.00     0.066 H 
BRANCH  27  32
ATOM     32  O   LIG d   1      11.752   7.098   0.937  0.00  0.00    -0.503 OA
ATOM     33  H   LIG d   1      11.283   6.762   1.713  0.00  0.00     0.292 HD
ENDBRANCH  27  32
BRANCH  29  34
ATOM     34  O   LIG d   1      11.476   4.570  -0.122  0.00  0.00    -0.503 OA
ATOM     35  H   LIG d   1      12.089   4.049  -0.660  0.00  0.00     0.292 HD
ENDBRANCH  29  34
ENDBRANCH  20  23
ENDBRANCH   1  20
BRANCH   5  36
ATOM     36  O   LIG d   1       9.281  10.022  -7.286  0.00  0.00    -0.503 OA
ATOM     37  H   LIG d   1      10.005  10.481  -6.838  0.00  0.00     0.292 HD
ENDBRANCH   5  36
BRANCH   6  38
ATOM     38  O   LIG d   1       9.284   8.749  -9.732  0.00  0.00    -0.503 OA
ATOM     39  H   LIG d   1      10.112   9.087 -10.100  0.00  0.00     0.292 HD
ENDBRANCH   6  38
TORSDOF 6
ENDMDL
MODEL 6
REMARK VINA RESULT:      -5.4      6.220      7.936
REMARK  6 active torsions:
REMARK  status: ('A' for Active; 'I' for Inactive)
REMARK    1  A    between atoms: C_3  and  O_22 
REMARK    2  A    between atoms: C_4  and  O_21 
REMARK    3  A    between atoms: C_6  and  C_7 
REMARK    4  A    between atoms: C_7  and  C_8 
REMARK    5  A    between atoms: C_12  and  O_20 
REMARK    6  A    between atoms: C_13  and  O_19 
ROOT
ATOM      1  C   LIG d   1       8.403   0.875  -4.539  0.00  0.00     0.008 C 
ATOM      2  H   LIG d   1       8.085   1.242  -5.514  0.00  0.00     0.091 H 
ATOM      3  C   LIG d   1       7.233   0.222  -3.850  0.00  0.00     0.007 A 
ATOM      4  C   LIG d   1       6.282   1.032  -3.249  0.00  0.00    -0.008 A 
ATOM      5  C   LIG d   1       5.191   0.474  -2.608  0.00  0.00     0.159 A 
ATOM      6  C   LIG d   1       5.048  -0.909  -2.566  0.00  0.00     0.159 A 
ATOM      7  C   LIG d   1       6.000  -1.714  -3.166  0.00  0.00    -0.013 A 
ATOM      8  C   LIG d   1       7.092  -1.150  -3.806  0.00  0.00    -0.030 A 
ATOM      9  C   LIG d   1       8.109  -2.065  -4.440  0.00  0.00     0.013 C 
ATOM     10  C   LIG d   1       8.985  -1.273  -5.411  0.00  0.00    -0.029 C 
ATOM     11  N   LIG d   1       9.498  -0.083  -4.717  0.00  0.00     0.233 N 
ATOM     12  H   LIG d   1       6.394   2.107  -3.281  0.00  0.00     0.066 H 
ATOM     13  H   LIG d   1       5.891  -2.789  -3.135  0.00  0.00     0.066 H 
ATOM     14  H   LIG d   1       8.735  -2.504  -3.663  0.00  0.00     0.036 H 
ATOM     15  H   LIG d   1       7.595  -2.860  -4.981  0.00  0.00     0.036 H 
ATOM     16  H   LIG d   1       9.819  -1.892  -5.741  0.00  0.00     0.082 H 
ATOM     17  H   LIG d   1       8.390  -0.966  -6.273  0.00  0.00     0.082 H 
ATOM     18  H   LIG d   1      10.231   0.339  -5.266  0.00  0.00     0.202 HD
ATOM     19  H   LIG d   1       9.862  -0.350  -3.814  0.00  0.00     0.202 HD
ENDROOT
BRANCH   1  20
ATOM     20  C   LIG d   1       8.893   2.051  -3.693  0.00  0.00     0.020 C 
ATOM     21  H   LIG d   1       9.781   1.752  -3.136  0.00  0.00     0.037 H 
ATOM     22  H   LIG d   1       8.111   2.349  -2.996  0.00  0.00     0.037 H 
BRANCH  20  23
ATOM     23  C   LIG d   1       9.232   3.211  -4.593  0.00  0.00    -0.038 A 
ATOM     24  C   LIG d   1       9.475   4.458  -4.049  0.00  0.00    -0.055 A 
ATOM     25  C   LIG d   1       9.786   5.527  -4.871  0.00  0.00    -0.016 A 
ATOM     26  H   LIG d   1       9.427   4.598  -2.979  0.00  0.00     0.062 H 
ATOM     27  C   LIG d   1       9.854   5.347  -6.243  0.00  0.00     0.158 A 
ATOM     28  H   LIG d   1       9.975   6.499  -4.444  0.00  0.00     0.066 H 
ATOM     29  C   LIG d   1       9.609   4.092  -6.791  0.00  0.00     0.159 A 
ATOM     30  C   LIG d   1       9.299   3.026  -5.962  0.00  0.00    -0.013 A 
ATOM     31  H   LIG d   1       9.108   2.050  -6.384  0.00  0.00     0.066 H 
BRANCH  27  32
ATOM     32  O   LIG d   1      10.159   6.396  -7.053  0.00  0.00    -0.503 OA
ATOM     33  H   LIG d   1      10.677   6.154  -7.833  0.00  0.00     0.292 HD
ENDBRANCH  27  32
BRANCH  29  34
ATOM     34  O   LIG d   1       9.675   3.910  -8.137  0.00  0.00    -0.503 OA
ATOM     35  H   LIG d   1      10.459   3.426  -8.432  0.00  0.00     0.292 HD
ENDBRANCH  29  34
ENDBRANCH  20  23
ENDBRANCH   1  20
BRANCH   5  36
ATOM     36  O   LIG d   1       4.262   1.276  -2.020  0.00  0.00    -0.503 OA
ATOM     37  H   LIG d   1       3.514   1.495  -2.593  0.00  0.00     0.292 HD
ENDBRANCH   5  36
BRANCH   6  38
ATOM     38  O   LIG d   1       3.978  -1.466  -1.939  0.00  0.00    -0.503 OA
ATOM     39  H   LIG d   1       4.122  -1.648  -1.000  0.00  0.00     0.292 HD
ENDBRANCH   6  38
TORSDOF 6
ENDMDL
MODEL 7
REMARK VINA RESULT:      -5.4      8.583     12.478
REMARK  6 active torsions:
REMARK  status: ('A' for Active; 'I' for Inactive)
REMARK    1  A    between atoms: C_3  and  O_22 
REMARK    2  A    between atoms: C_4  and  O_21 
REMARK    3  A    between atoms: C_6  and  C_7 
REMARK    4  A    between atoms: C_7  and  C_8 
REMARK    5  A    between atoms: C_12  and  O_20 
REMARK    6  A    between atoms: C_13  and  O_19 
ROOT
ATOM      1  C   LIG d   1      10.659   5.628  -1.244  0.00  0.00     0.008 C 
ATOM      2  H   LIG d   1       9.704   5.106  -1.189  0.00  0.00     0.091 H 
ATOM      3  C   LIG d   1      10.431   7.102  -1.028  0.00  0.00     0.007 A 
ATOM      4  C   LIG d   1       9.944   7.857  -2.085  0.00  0.00    -0.008 A 
ATOM      5  C   LIG d   1       9.717   9.213  -1.930  0.00  0.00     0.159 A 
ATOM      6  C   LIG d   1       9.980   9.821  -0.707  0.00  0.00     0.159 A 
ATOM      7  C   LIG d   1      10.467   9.065   0.343  0.00  0.00    -0.013 A 
ATOM      8  C   LIG d   1      10.694   7.706   0.183  0.00  0.00    -0.030 A 
ATOM      9  C   LIG d   1      11.232   6.922   1.353  0.00  0.00     0.013 C 
ATOM     10  C   LIG d   1      11.031   5.426   1.109  0.00  0.00    -0.029 C 
ATOM     11  N   LIG d   1      11.562   5.091  -0.221  0.00  0.00     0.233 N 
ATOM     12  H   LIG d   1       9.740   7.383  -3.034  0.00  0.00     0.066 H 
ATOM     13  H   LIG d   1      10.672   9.535   1.295  0.00  0.00     0.066 H 
ATOM     14  H   LIG d   1      12.296   7.130   1.470  0.00  0.00     0.036 H 
ATOM     15  H   LIG d   1      10.704   7.215   2.260  0.00  0.00     0.036 H 
ATOM     16  H   LIG d   1      11.565   4.856   1.870  0.00  0.00     0.082 H 
ATOM     17  H   LIG d   1       9.968   5.188   1.149  0.00  0.00     0.082 H 
ATOM     18  H   LIG d   1      11.625   4.089  -0.317  0.00  0.00     0.202 HD
ATOM     19  H   LIG d   1      12.478   5.501  -0.331  0.00  0.00     0.202 HD
ENDROOT
BRANCH   1  20
ATOM     20  C   LIG d   1      11.276   5.410  -2.626  0.00  0.00     0.020 C 
ATOM     21  H   LIG d   1      12.361   5.485  -2.555  0.00  0.00     0.037 H 
ATOM     22  H   LIG d   1      10.903   6.168  -3.314  0.00  0.00     0.037 H 
BRANCH  20  23
ATOM     23  C   LIG d   1      10.899   4.042  -3.134  0.00  0.00    -0.038 A 
ATOM     24  C   LIG d   1      11.885   3.149  -3.507  0.00  0.00    -0.055 A 
ATOM     25  C   LIG d   1      11.544   1.893  -3.975  0.00  0.00    -0.016 A 
ATOM     26  H   LIG d   1      12.925   3.431  -3.430  0.00  0.00     0.062 H 
ATOM     27  C   LIG d   1      10.211   1.528  -4.069  0.00  0.00     0.158 A 
ATOM     28  H   LIG d   1      12.317   1.197  -4.266  0.00  0.00     0.066 H 
ATOM     29  C   LIG d   1       9.218   2.427  -3.694  0.00  0.00     0.159 A 
ATOM     30  C   LIG d   1       9.567   3.684  -3.226  0.00  0.00    -0.013 A 
ATOM     31  H   LIG d   1       8.798   4.383  -2.934  0.00  0.00     0.066 H 
BRANCH  27  32
ATOM     32  O   LIG d   1       9.874   0.293  -4.529  0.00  0.00    -0.503 OA
ATOM     33  H   LIG d   1      10.041   0.166  -5.473  0.00  0.00     0.292 HD
ENDBRANCH  27  32
BRANCH  29  34
ATOM     34  O   LIG d   1       7.908   2.073  -3.785  0.00  0.00    -0.503 OA
ATOM     35  H   LIG d   1       7.671   1.652  -4.622  0.00  0.00     0.292 HD
ENDBRANCH  29  34
ENDBRANCH  20  23
ENDBRANCH   1  20
BRANCH   5  36
ATOM     36  O   LIG d   1       9.239   9.947  -2.970  0.00  0.00    -0.503 OA
ATOM     37  H   LIG d   1       8.937   9.416  -3.720  0.00  0.00     0.292 HD
ENDBRANCH   5  36
BRANCH   6  38
ATOM     38  O   LIG d   1       9.759  11.153  -0.545  0.00  0.00    -0.503 OA
ATOM     39  H   LIG d   1       8.855  11.429  -0.751  0.00  0.00     0.292 HD
ENDBRANCH   6  38
TORSDOF 6
ENDMDL
MODEL 8
REMARK VINA RESULT:      -5.3      1.943      7.226
REMARK  6 active torsions:
REMARK  status: ('A' for Active; 'I' for Inactive)
REMARK    1  A    between atoms: C_3  and  O_22 
REMARK    2  A    between atoms: C_4  and  O_21 
REMARK    3  A    between atoms: C_6  and  C_7 
REMARK    4  A    between atoms: C_7  and  C_8 
REMARK    5  A    between atoms: C_12  and  O_20 
REMARK    6  A    between atoms: C_13  and  O_19 
ROOT
ATOM      1  C   LIG d   1       4.545  -2.150  -6.782  0.00  0.00     0.008 C 
ATOM      2  H   LIG d   1       3.588  -2.651  -6.927  0.00  0.00     0.091 H 
ATOM      3  C   LIG d   1       4.587  -1.548  -5.402  0.00  0.00     0.007 A 
ATOM      4  C   LIG d   1       3.916  -0.355  -5.180  0.00  0.00    -0.008 A 
ATOM      5  C   LIG d   1       3.926   0.231  -3.927  0.00  0.00     0.159 A 
ATOM      6  C   LIG d   1       4.614  -0.382  -2.884  0.00  0.00     0.159 A 
ATOM      7  C   LIG d   1       5.283  -1.571  -3.110  0.00  0.00    -0.013 A 
ATOM      8  C   LIG d   1       5.271  -2.154  -4.368  0.00  0.00    -0.030 A 
ATOM      9  C   LIG d   1       6.020  -3.447  -4.572  0.00  0.00     0.013 C 
ATOM     10  C   LIG d   1       5.560  -4.113  -5.869  0.00  0.00    -0.029 C 
ATOM     11  N   LIG d   1       5.629  -3.123  -6.954  0.00  0.00     0.233 N 
ATOM     12  H   LIG d   1       3.383   0.119  -5.990  0.00  0.00     0.066 H 
ATOM     13  H   LIG d   1       5.819  -2.049  -2.302  0.00  0.00     0.066 H 
ATOM     14  H   LIG d   1       7.089  -3.241  -4.629  0.00  0.00     0.036 H 
ATOM     15  H   LIG d   1       5.825  -4.115  -3.733  0.00  0.00     0.036 H 
ATOM     16  H   LIG d   1       6.214  -4.954  -6.100  0.00  0.00     0.082 H 
ATOM     17  H   LIG d   1       4.534  -4.462  -5.757  0.00  0.00     0.082 H 
ATOM     18  H   LIG d   1       5.527  -3.589  -7.843  0.00  0.00     0.202 HD
ATOM     19  H   LIG d   1       6.518  -2.646  -6.921  0.00  0.00     0.202 HD
ENDROOT
BRANCH   1  20
ATOM     20  C   LIG d   1       4.695  -1.038  -7.822  0.00  0.00     0.020 C 
ATOM     21  H   LIG d   1       5.654  -1.142  -8.329  0.00  0.00     0.037 H 
ATOM     22  H   LIG d   1       4.649  -0.069  -7.326  0.00  0.00     0.037 H 
BRANCH  20  23
ATOM     23  C   LIG d   1       3.580  -1.139  -8.830  0.00  0.00    -0.038 A 
ATOM     24  C   LIG d   1       2.472  -0.321  -8.717  0.00  0.00    -0.055 A 
ATOM     25  C   LIG d   1       1.445  -0.411  -9.640  0.00  0.00    -0.016 A 
ATOM     26  H   LIG d   1       2.409   0.392  -7.908  0.00  0.00     0.062 H 
ATOM     27  C   LIG d   1       1.528  -1.321 -10.681  0.00  0.00     0.158 A 
ATOM     28  H   LIG d   1       0.581   0.229  -9.549  0.00  0.00     0.066 H 
ATOM     29  C   LIG d   1       2.643  -2.145 -10.795  0.00  0.00     0.159 A 
ATOM     30  C   LIG d   1       3.668  -2.050  -9.867  0.00  0.00    -0.013 A 
ATOM     31  H   LIG d   1       4.535  -2.688  -9.953  0.00  0.00     0.066 H 
BRANCH  27  32
ATOM     32  O   LIG d   1       0.518  -1.410 -11.589  0.00  0.00    -0.503 OA
ATOM     33  H   LIG d   1       0.430  -2.284 -11.994  0.00  0.00     0.292 HD
ENDBRANCH  27  32
BRANCH  29  34
ATOM     34  O   LIG d   1       2.728  -3.041 -11.815  0.00  0.00    -0.503 OA
ATOM     35  H   LIG d   1       2.614  -3.961 -11.541  0.00  0.00     0.292 HD
ENDBRANCH  29  34
ENDBRANCH  20  23
ENDBRANCH   1  20
BRANCH   5  36
ATOM     36  O   LIG d   1       3.266   1.401  -3.716  0.00  0.00    -0.503 OA
ATOM     37  H   LIG d   1       3.753   2.185  -4.005  0.00  0.00     0.292 HD
ENDBRANCH   5  36
BRANCH   6  38
ATOM     38  O   LIG d   1       4.628   0.186  -1.649  0.00  0.00    -0.503 OA
ATOM     39  H   LIG d   1       4.644  -0.453  -0.923  0.00  0.00     0.292 HD
ENDBRANCH   6  38
TORSDOF 6
ENDMDL
MODEL 9
REMARK VINA RESULT:      -5.3      8.473     11.600
REMARK  6 active torsions:
REMARK  status: ('A' for Active; 'I' for Inactive)
REMARK    1  A    between atoms: C_3  and  O_22 
REMARK    2  A    between atoms: C_4  and  O_21 
REMARK    3  A    between atoms: C_6  and  C_7 
REMARK    4  A    between atoms: C_7  and  C_8 
REMARK    5  A    between atoms: C_12  and  O_20 
REMARK    6  A    between atoms: C_13  and  O_19 
ROOT
ATOM      1  C   LIG d   1      10.521   5.110  -5.540  0.00  0.00     0.008 C 
ATOM      2  H   LIG d   1       9.641   4.557  -5.866  0.00  0.00     0.091 H 
ATOM      3  C   LIG d   1      10.483   5.268  -4.043  0.00  0.00     0.007 A 
ATOM      4  C   LIG d   1       9.656   6.241  -3.501  0.00  0.00    -0.008 A 
ATOM      5  C   LIG d   1       9.588   6.417  -2.131  0.00  0.00     0.159 A 
ATOM      6  C   LIG d   1      10.353   5.614  -1.293  0.00  0.00     0.159 A 
ATOM      7  C   LIG d   1      11.178   4.646  -1.837  0.00  0.00    -0.013 A 
ATOM      8  C   LIG d   1      11.244   4.473  -3.211  0.00  0.00    -0.030 A 
ATOM      9  C   LIG d   1      12.161   3.410  -3.761  0.00  0.00     0.013 C 
ATOM     10  C   LIG d   1      11.795   3.113  -5.216  0.00  0.00    -0.029 C 
ATOM     11  N   LIG d   1      11.727   4.384  -5.952  0.00  0.00     0.233 N 
ATOM     12  H   LIG d   1       9.062   6.864  -4.153  0.00  0.00     0.066 H 
ATOM     13  H   LIG d   1      11.774   4.020  -1.188  0.00  0.00     0.066 H 
ATOM     14  H   LIG d   1      13.192   3.761  -3.711  0.00  0.00     0.036 H 
ATOM     15  H   LIG d   1      12.060   2.501  -3.169  0.00  0.00     0.036 H 
ATOM     16  H   LIG d   1      12.556   2.473  -5.662  0.00  0.00     0.082 H 
ATOM     17  H   LIG d   1      10.825   2.615  -5.254  0.00  0.00     0.082 H 
ATOM     18  H   LIG d   1      11.689   4.199  -6.943  0.00  0.00     0.202 HD
ATOM     19  H   LIG d   1      12.543   4.940  -5.742  0.00  0.00     0.202 HD
ENDROOT
BRANCH   1  20
ATOM     20  C   LIG d   1      10.518   6.493  -6.193  0.00  0.00     0.020 C 
ATOM     21  H   LIG d   1      11.536   6.879  -6.233  0.00  0.00     0.037 H 
ATOM     22  H   LIG d   1       9.896   7.170  -5.608  0.00  0.00     0.037 H 
BRANCH  20  23
ATOM     23  C   LIG d   1       9.966   6.388  -7.592  0.00  0.00    -0.038 A 
ATOM     24  C   LIG d   1       9.442   5.189  -8.038  0.00  0.00    -0.055 A 
ATOM     25  C   LIG d   1       8.935   5.087  -9.321  0.00  0.00    -0.016 A 
ATOM     26  H   LIG d   1       9.426   4.331  -7.382  0.00  0.00     0.062 H 
ATOM     27  C   LIG d   1       8.951   6.189 -10.160  0.00  0.00     0.158 A 
ATOM     28  H   LIG d   1       8.527   4.149  -9.666  0.00  0.00     0.066 H 
ATOM     29  C   LIG d   1       9.477   7.395  -9.711  0.00  0.00     0.159 A 
ATOM     30  C   LIG d   1       9.984   7.491  -8.425  0.00  0.00    -0.013 A 
ATOM     31  H   LIG d   1      10.393   8.426  -8.074  0.00  0.00     0.066 H 
BRANCH  27  32
ATOM     32  O   LIG d   1       8.452   6.090 -11.422  0.00  0.00    -0.503 OA
ATOM     33  H   LIG d   1       8.780   5.326 -11.916  0.00  0.00     0.292 HD
ENDBRANCH  27  32
BRANCH  29  34
ATOM     34  O   LIG d   1       9.495   8.480 -10.532  0.00  0.00    -0.503 OA
ATOM     35  H   LIG d   1       8.649   8.945 -10.588  0.00  0.00     0.292 HD
ENDBRANCH  29  34
ENDBRANCH  20  23
ENDBRANCH   1  20
BRANCH   5  36
ATOM     36  O   LIG d   1       8.775   7.374  -1.606  0.00  0.00    -0.503 OA
ATOM     37  H   LIG d   1       8.981   8.271  -1.903  0.00  0.00     0.292 HD
ENDBRANCH   5  36
BRANCH   6  38
ATOM     38  O   LIG d   1      10.292   5.779   0.056  0.00  0.00    -0.503 OA
ATOM     39  H   LIG d   1       9.401   5.692   0.423  0.00  0.00     0.292 HD
ENDBRANCH   6  38
TORSDOF 6
ENDMDL
MODEL 10
REMARK VINA RESULT:      -5.2      8.395      9.767
REMARK  6 active torsions:
REMARK  status: ('A' for Active; 'I' for Inactive)
REMARK    1  A    between atoms: C_3  and  O_22 
REMARK    2  A    between atoms: C_4  and  O_21 
REMARK    3  A    between atoms: C_6  and  C_7 
REMARK    4  A    between atoms: C_7  and  C_8 
REMARK    5  A    between atoms: C_12  and  O_20 
REMARK    6  A    between atoms: C_13  and  O_19 
ROOT
ATOM      1  C   LIG d   1      10.273   7.459  -5.730  0.00  0.00     0.008 C 
ATOM      2  H   LIG d   1       9.438   7.508  -5.032  0.00  0.00     0.091 H 
ATOM      3  C   LIG d   1       9.883   6.610  -6.912  0.00  0.00     0.007 A 
ATOM      4  C   LIG d   1       9.905   5.231  -6.771  0.00  0.00    -0.008 A 
ATOM      5  C   LIG d   1       9.551   4.413  -7.830  0.00  0.00     0.159 A 
ATOM      6  C   LIG d   1       9.172   4.980  -9.042  0.00  0.00     0.159 A 
ATOM      7  C   LIG d   1       9.154   6.356  -9.179  0.00  0.00    -0.013 A 
ATOM      8  C   LIG d   1       9.510   7.172  -8.115  0.00  0.00    -0.030 A 
ATOM      9  C   LIG d   1       9.482   8.666  -8.311  0.00  0.00     0.013 C 
ATOM     10  C   LIG d   1       9.509   9.367  -6.952  0.00  0.00    -0.029 C 
ATOM     11  N   LIG d   1      10.621   8.816  -6.162  0.00  0.00     0.233 N 
ATOM     12  H   LIG d   1      10.200   4.792  -5.829  0.00  0.00     0.066 H 
ATOM     13  H   LIG d   1       8.860   6.799 -10.120  0.00  0.00     0.066 H 
ATOM     14  H   LIG d   1      10.351   8.971  -8.893  0.00  0.00     0.036 H 
ATOM     15  H   LIG d   1       8.574   8.945  -8.845  0.00  0.00     0.036 H 
ATOM     16  H   LIG d   1       9.656  10.437  -7.095  0.00  0.00     0.082 H 
ATOM     17  H   LIG d   1       8.567   9.190  -6.431  0.00  0.00     0.082 H 
ATOM     18  H   LIG d   1      10.781   9.398  -5.354  0.00  0.00     0.202 HD
ATOM     19  H   LIG d   1      11.455   8.787  -6.730  0.00  0.00     0.202 HD
ENDROOT
BRANCH   1  20
ATOM     20  C   LIG d   1      11.479   6.828  -5.032  0.00  0.00     0.020 C 
ATOM     21  H   LIG d   1      12.333   7.500  -5.104  0.00  0.00     0.037 H 
ATOM     22  H   LIG d   1      11.721   5.880  -5.511  0.00  0.00     0.037 H 
BRANCH  20  23
ATOM     23  C   LIG d   1      11.150   6.587  -3.581  0.00  0.00    -0.038 A 
ATOM     24  C   LIG d   1      11.971   5.784  -2.812  0.00  0.00    -0.055 A 
ATOM     25  C   LIG d   1      11.673   5.559  -1.480  0.00  0.00    -0.016 A 
ATOM     26  H   LIG d   1      12.849   5.334  -3.251  0.00  0.00     0.062 H 
ATOM     27  C   LIG d   1      10.549   6.140  -0.915  0.00  0.00     0.158 A 
ATOM     28  H   LIG d   1      12.316   4.932  -0.882  0.00  0.00     0.066 H 
ATOM     29  C   LIG d   1       9.723   6.948  -1.689  0.00  0.00     0.159 A 
ATOM     30  C   LIG d   1      10.027   7.169  -3.022  0.00  0.00    -0.013 A 
ATOM     31  H   LIG d   1       9.387   7.796  -3.626  0.00  0.00     0.066 H 
BRANCH  27  32
ATOM     32  O   LIG d   1      10.255   5.920   0.395  0.00  0.00    -0.503 OA
ATOM     33  H   LIG d   1      10.313   6.710   0.949  0.00  0.00     0.292 HD
ENDBRANCH  27  32
BRANCH  29  34
ATOM     34  O   LIG d   1       8.618   7.521  -1.138  0.00  0.00    -0.503 OA
ATOM     35  H   LIG d   1       8.800   8.041  -0.344  0.00  0.00     0.292 HD
ENDBRANCH  29  34
ENDBRANCH  20  23
ENDBRANCH   1  20
BRANCH   5  36
ATOM     36  O   LIG d   1       9.575   3.061  -7.685  0.00  0.00    -0.503 OA
ATOM     37  H   LIG d   1       9.511   2.763  -6.767  0.00  0.00     0.292 HD
ENDBRANCH   5  36
BRANCH   6  38
ATOM     38  O   LIG d   1       8.822   4.185 -10.088  0.00  0.00    -0.503 OA
ATOM     39  H   LIG d   1       8.321   4.641 -10.778  0.00  0.00     0.292 HD
ENDBRANCH   6  38
TORSDOF 6
ENDMDL
