MODEL 1
REMARK VINA RESULT:      -7.1      0.000      0.000
REMARK  4 active torsions:
REMARK  status: ('A' for Active; 'I' for Inactive)
REMARK    1  A    between atoms: C_3  and  C_6 
REMARK       I    between atoms: C_6  and  N_8 
REMARK    2  A    between atoms: N_8  and  C_9 
REMARK    3  A    between atoms: C_24  and  C_25 
REMARK    4  A    between atoms: C_24  and  N_58 
ROOT
ATOM      1  C   LIG d   1       4.421  -1.454  -7.569  0.00  0.00     0.099 A 
ATOM      2  C   LIG d   1       4.869  -2.610  -6.989  0.00  0.00    -0.034 A 
ATOM      3  C   LIG d   1       4.772  -2.750  -5.600  0.00  0.00    -0.040 A 
ATOM      4  C   LIG d   1       4.237  -1.759  -4.841  0.00  0.00     0.030 A 
ATOM      5  N   LIG d   1       3.722  -0.647  -5.418  0.00  0.00    -0.310 N 
ATOM      6  C   LIG d   1       3.856  -0.455  -6.753  0.00  0.00     0.273 A 
ATOM      7  O   LIG d   1       3.479   0.593  -7.254  0.00  0.00    -0.266 OA
ATOM      8  C   LIG d   1       2.977   0.371  -4.674  0.00  0.00     0.034 C 
ATOM      9  C   LIG d   1       3.236   0.300  -3.179  0.00  0.00     0.018 C 
ATOM     10  H   LIG d   1       2.472   0.888  -2.670  0.00  0.00     0.037 H 
ATOM     11  C   LIG d   1       3.119  -1.153  -2.709  0.00  0.00    -0.031 C 
ATOM     12  C   LIG d   1       4.274  -1.938  -3.339  0.00  0.00     0.040 C 
ATOM     13  H   LIG d   1       4.213  -2.992  -3.070  0.00  0.00     0.042 H 
ATOM     14  C   LIG d   1       5.594  -1.329  -2.836  0.00  0.00    -0.024 C 
ATOM     15  C   LIG d   1       4.594   0.878  -2.811  0.00  0.00    -0.027 C 
ATOM     16  H   LIG d   1       5.288  -3.401  -7.594  0.00  0.00     0.064 H 
ATOM     17  H   LIG d   1       5.128  -3.654  -5.128  0.00  0.00     0.064 H 
ATOM     18  H   LIG d   1       3.269   1.357  -5.037  0.00  0.00     0.050 H 
ATOM     19  H   LIG d   1       1.911   0.230  -4.854  0.00  0.00     0.050 H 
ATOM     20  H   LIG d   1       3.190  -1.197  -1.623  0.00  0.00     0.028 H 
ATOM     21  H   LIG d   1       2.166  -1.571  -3.034  0.00  0.00     0.028 H 
ATOM     22  H   LIG d   1       5.604  -1.322  -1.745  0.00  0.00     0.082 H 
ATOM     23  H   LIG d   1       6.435  -1.913  -3.208  0.00  0.00     0.082 H 
ATOM     24  H   LIG d   1       4.678   1.884  -3.222  0.00  0.00     0.082 H 
ATOM     25  H   LIG d   1       4.680   0.928  -1.725  0.00  0.00     0.082 H 
ATOM     26  N   LIG d   1       5.680   0.049  -3.371  0.00  0.00     0.236 N 
ATOM     27  H   LIG d   1       5.582   0.016  -4.392  0.00  0.00     0.203 HD
ENDROOT
BRANCH  26  28
ATOM     28  C   LIG d   1       6.991   0.641  -3.035  0.00  0.00    -0.029 C 
ATOM     29  H   LIG d   1       6.901   1.189  -2.097  0.00  0.00     0.082 H 
ATOM     30  H   LIG d   1       7.722  -0.159  -2.921  0.00  0.00     0.082 H 
BRANCH  28  31
ATOM     31  C   LIG d   1       7.448   1.595  -4.140  0.00  0.00    -0.001 C 
ATOM     32  C   LIG d   1       8.740   2.293  -3.711  0.00  0.00    -0.045 C 
ATOM     33  C   LIG d   1       9.197   3.247  -4.816  0.00  0.00    -0.053 C 
ATOM     34  H   LIG d   1       8.561   2.857  -2.795  0.00  0.00     0.027 H 
ATOM     35  H   LIG d   1       9.514   1.546  -3.532  0.00  0.00     0.027 H 
ATOM     36  C   LIG d   1       9.448   2.455  -6.101  0.00  0.00    -0.053 C 
ATOM     37  H   LIG d   1       8.423   3.993  -4.995  0.00  0.00     0.026 H 
ATOM     38  H   LIG d   1      10.117   3.743  -4.510  0.00  0.00     0.026 H 
ATOM     39  C   LIG d   1       8.157   1.757  -6.531  0.00  0.00    -0.053 C 
ATOM     40  H   LIG d   1       9.774   3.134  -6.889  0.00  0.00     0.026 H 
ATOM     41  H   LIG d   1      10.223   1.709  -5.922  0.00  0.00     0.026 H 
ATOM     42  C   LIG d   1       7.700   0.803  -5.426  0.00  0.00    -0.045 C 
ATOM     43  H   LIG d   1       7.383   2.504  -6.710  0.00  0.00     0.026 H 
ATOM     44  H   LIG d   1       8.336   1.193  -7.447  0.00  0.00     0.026 H 
ATOM     45  H   LIG d   1       8.474   0.057  -5.246  0.00  0.00     0.027 H 
ATOM     46  H   LIG d   1       6.779   0.306  -5.732  0.00  0.00     0.027 H 
ATOM     47  H   LIG d   1       6.674   2.342  -4.320  0.00  0.00     0.035 H 
ENDBRANCH  28  31
ENDBRANCH  26  28
BRANCH   1  48
ATOM     48  N   LIG d   1       4.523  -1.268  -8.954  0.00  0.00    -0.277 N 
ATOM     49  C   LIG d   1       3.571  -1.758  -9.772  0.00  0.00     0.255 C 
ATOM     50  O   LIG d   1       2.673  -2.441  -9.319  0.00  0.00    -0.269 OA
ATOM     51  H   LIG d   1       5.279  -0.786  -9.323  0.00  0.00     0.155 HD
BRANCH  49  52
ATOM     52  C   LIG d   1       3.618  -1.466 -11.208  0.00  0.00     0.074 A 
ATOM     53  C   LIG d   1       4.368  -0.514 -11.881  0.00  0.00    -0.043 A 
ATOM     54  C   LIG d   1       4.221  -0.452 -13.244  0.00  0.00    -0.054 A 
ATOM     55  H   LIG d   1       5.038   0.151 -11.355  0.00  0.00     0.063 H 
ATOM     56  C   LIG d   1       3.366  -1.311 -13.859  0.00  0.00    -0.024 A 
ATOM     57  H   LIG d   1       4.778   0.270 -13.822  0.00  0.00     0.062 H 
ATOM     58  S   LIG d   1       2.735  -2.250 -12.545  0.00  0.00    -0.092 SA
ATOM     59  H   LIG d   1       3.138  -1.393 -14.912  0.00  0.00     0.069 H 
ENDBRANCH  49  52
ENDBRANCH   1  48
TORSDOF 4
ENDMDL
MODEL 2
REMARK VINA RESULT:      -7.1      4.387      7.138
REMARK  4 active torsions:
REMARK  status: ('A' for Active; 'I' for Inactive)
REMARK    1  A    between atoms: C_3  and  C_6 
REMARK       I    between atoms: C_6  and  N_8 
REMARK    2  A    between atoms: N_8  and  C_9 
REMARK    3  A    between atoms: C_24  and  C_25 
REMARK    4  A    between atoms: C_24  and  N_58 
ROOT
ATOM      1  C   LIG d   1       4.656  -5.327  -6.131  0.00  0.00     0.099 A 
ATOM      2  C   LIG d   1       3.757  -5.221  -7.157  0.00  0.00    -0.034 A 
ATOM      3  C   LIG d   1       3.781  -4.076  -7.961  0.00  0.00    -0.040 A 
ATOM      4  C   LIG d   1       4.686  -3.090  -7.732  0.00  0.00     0.030 A 
ATOM      5  N   LIG d   1       5.628  -3.225  -6.767  0.00  0.00    -0.310 N 
ATOM      6  C   LIG d   1       5.592  -4.293  -5.934  0.00  0.00     0.273 A 
ATOM      7  O   LIG d   1       6.381  -4.362  -5.005  0.00  0.00    -0.266 OA
ATOM      8  C   LIG d   1       6.734  -2.283  -6.589  0.00  0.00     0.034 C 
ATOM      9  C   LIG d   1       6.467  -0.943  -7.253  0.00  0.00     0.018 C 
ATOM     10  H   LIG d   1       7.408  -0.396  -7.314  0.00  0.00     0.037 H 
ATOM     11  C   LIG d   1       5.951  -1.174  -8.677  0.00  0.00    -0.031 C 
ATOM     12  C   LIG d   1       4.572  -1.834  -8.569  0.00  0.00     0.040 C 
ATOM     13  H   LIG d   1       4.177  -2.060  -9.559  0.00  0.00     0.042 H 
ATOM     14  C   LIG d   1       3.638  -0.866  -7.823  0.00  0.00    -0.024 C 
ATOM     15  C   LIG d   1       5.485  -0.100  -6.455  0.00  0.00    -0.027 C 
ATOM     16  H   LIG d   1       3.041  -6.009  -7.343  0.00  0.00     0.064 H 
ATOM     17  H   LIG d   1       3.072  -3.975  -8.769  0.00  0.00     0.064 H 
ATOM     18  H   LIG d   1       6.893  -2.122  -5.522  0.00  0.00     0.050 H 
ATOM     19  H   LIG d   1       7.638  -2.715  -7.019  0.00  0.00     0.050 H 
ATOM     20  H   LIG d   1       5.865  -0.221  -9.198  0.00  0.00     0.028 H 
ATOM     21  H   LIG d   1       6.635  -1.829  -9.216  0.00  0.00     0.028 H 
ATOM     22  H   LIG d   1       3.630   0.100  -8.329  0.00  0.00     0.082 H 
ATOM     23  H   LIG d   1       2.629  -1.276  -7.795  0.00  0.00     0.082 H 
ATOM     24  H   LIG d   1       5.839  -0.016  -5.427  0.00  0.00     0.082 H 
ATOM     25  H   LIG d   1       5.426   0.895  -6.895  0.00  0.00     0.082 H 
ATOM     26  N   LIG d   1       4.149  -0.732  -6.441  0.00  0.00     0.236 N 
ATOM     27  H   LIG d   1       4.227  -1.666  -6.021  0.00  0.00     0.203 HD
ENDROOT
BRANCH  26  28
ATOM     28  C   LIG d   1       3.216   0.079  -5.632  0.00  0.00    -0.029 C 
ATOM     29  H   LIG d   1       3.510   1.127  -5.699  0.00  0.00     0.082 H 
ATOM     30  H   LIG d   1       2.208  -0.042  -6.028  0.00  0.00     0.082 H 
BRANCH  28  31
ATOM     31  C   LIG d   1       3.247  -0.366  -4.169  0.00  0.00    -0.001 C 
ATOM     32  C   LIG d   1       3.883  -1.753  -4.070  0.00  0.00    -0.045 C 
ATOM     33  C   LIG d   1       3.913  -2.198  -2.607  0.00  0.00    -0.053 C 
ATOM     34  H   LIG d   1       3.298  -2.464  -4.654  0.00  0.00     0.027 H 
ATOM     35  H   LIG d   1       4.901  -1.714  -4.459  0.00  0.00     0.027 H 
ATOM     36  C   LIG d   1       4.735  -1.200  -1.788  0.00  0.00    -0.053 C 
ATOM     37  H   LIG d   1       2.896  -2.237  -2.218  0.00  0.00     0.026 H 
ATOM     38  H   LIG d   1       4.367  -3.186  -2.537  0.00  0.00     0.026 H 
ATOM     39  C   LIG d   1       4.098   0.186  -1.886  0.00  0.00    -0.053 C 
ATOM     40  H   LIG d   1       4.757  -1.518  -0.745  0.00  0.00     0.026 H 
ATOM     41  H   LIG d   1       5.753  -1.163  -2.176  0.00  0.00     0.026 H 
ATOM     42  C   LIG d   1       4.068   0.632  -3.349  0.00  0.00    -0.045 C 
ATOM     43  H   LIG d   1       3.081   0.148  -1.497  0.00  0.00     0.026 H 
ATOM     44  H   LIG d   1       4.684   0.898  -1.302  0.00  0.00     0.026 H 
ATOM     45  H   LIG d   1       5.086   0.670  -3.739  0.00  0.00     0.027 H 
ATOM     46  H   LIG d   1       3.614   1.621  -3.419  0.00  0.00     0.027 H 
ATOM     47  H   LIG d   1       2.229  -0.404  -3.780  0.00  0.00     0.035 H 
ENDBRANCH  28  31
ENDBRANCH  26  28
BRANCH   1  48
ATOM     48  N   LIG d   1       4.647  -6.448  -5.290  0.00  0.00    -0.277 N 
ATOM     49  C   LIG d   1       5.303  -7.568  -5.653  0.00  0.00     0.255 C 
ATOM     50  O   LIG d   1       5.824  -7.640  -6.750  0.00  0.00    -0.269 OA
ATOM     51  H   LIG d   1       4.168  -6.417  -4.448  0.00  0.00     0.155 HD
BRANCH  49  52
ATOM     52  C   LIG d   1       5.387  -8.700  -4.725  0.00  0.00     0.074 A 
ATOM     53  C   LIG d   1       4.368  -9.491  -4.218  0.00  0.00    -0.043 A 
ATOM     54  C   LIG d   1       4.728 -10.496  -3.355  0.00  0.00    -0.054 A 
ATOM     55  H   LIG d   1       3.336  -9.323  -4.489  0.00  0.00     0.063 H 
ATOM     56  C   LIG d   1       6.040 -10.666  -3.045  0.00  0.00    -0.024 A 
ATOM     57  H   LIG d   1       3.977 -11.144  -2.928  0.00  0.00     0.062 H 
ATOM     58  S   LIG d   1       6.828  -9.423  -3.961  0.00  0.00    -0.092 SA
ATOM     59  H   LIG d   1       6.485 -11.402  -2.392  0.00  0.00     0.069 H 
ENDBRANCH  49  52
ENDBRANCH   1  48
TORSDOF 4
ENDMDL
MODEL 3
REMARK VINA RESULT:      -7.0      3.054      5.561
REMARK  4 active torsions:
REMARK  status: ('A' for Active; 'I' for Inactive)
REMARK    1  A    between atoms: C_3  and  C_6 
REMARK       I    between atoms: C_6  and  N_8 
REMARK    2  A    between atoms: N_8  and  C_9 
REMARK    3  A    between atoms: C_24  and  C_25 
REMARK    4  A    between atoms: C_24  and  N_58 
ROOT
ATOM      1  C   LIG d   1       8.088  -0.025  -4.975  0.00  0.00     0.099 A 
ATOM      2  C   LIG d   1       7.945   1.209  -4.401  0.00  0.00    -0.034 A 
ATOM      3  C   LIG d   1       6.895   1.417  -3.500  0.00  0.00    -0.040 A 
ATOM      4  C   LIG d   1       6.037   0.410  -3.194  0.00  0.00     0.030 A 
ATOM      5  N   LIG d   1       6.220  -0.833  -3.701  0.00  0.00    -0.310 N 
ATOM      6  C   LIG d   1       7.189  -1.050  -4.623  0.00  0.00     0.273 A 
ATOM      7  O   LIG d   1       7.288  -2.147  -5.149  0.00  0.00    -0.266 OA
ATOM      8  C   LIG d   1       5.438  -1.995  -3.275  0.00  0.00     0.034 C 
ATOM      9  C   LIG d   1       4.141  -1.601  -2.590  0.00  0.00     0.018 C 
ATOM     10  H   LIG d   1       3.746  -2.476  -2.072  0.00  0.00     0.037 H 
ATOM     11  C   LIG d   1       4.424  -0.513  -1.549  0.00  0.00    -0.031 C 
ATOM     12  C   LIG d   1       4.861   0.747  -2.304  0.00  0.00     0.040 C 
ATOM     13  H   LIG d   1       5.116   1.543  -1.604  0.00  0.00     0.042 H 
ATOM     14  C   LIG d   1       3.701   1.182  -3.216  0.00  0.00    -0.024 C 
ATOM     15  C   LIG d   1       3.092  -1.134  -3.587  0.00  0.00    -0.027 C 
ATOM     16  H   LIG d   1       8.633   2.008  -4.639  0.00  0.00     0.064 H 
ATOM     17  H   LIG d   1       6.766   2.388  -3.045  0.00  0.00     0.064 H 
ATOM     18  H   LIG d   1       5.205  -2.604  -4.149  0.00  0.00     0.050 H 
ATOM     19  H   LIG d   1       6.037  -2.588  -2.582  0.00  0.00     0.050 H 
ATOM     20  H   LIG d   1       3.520  -0.307  -0.976  0.00  0.00     0.028 H 
ATOM     21  H   LIG d   1       5.219  -0.840  -0.880  0.00  0.00     0.028 H 
ATOM     22  H   LIG d   1       2.795   1.311  -2.623  0.00  0.00     0.082 H 
ATOM     23  H   LIG d   1       3.953   2.119  -3.711  0.00  0.00     0.082 H 
ATOM     24  H   LIG d   1       2.967  -1.895  -4.357  0.00  0.00     0.082 H 
ATOM     25  H   LIG d   1       2.144  -0.990  -3.069  0.00  0.00     0.082 H 
ATOM     26  N   LIG d   1       3.516   0.124  -4.235  0.00  0.00     0.236 N 
ATOM     27  H   LIG d   1       4.409  -0.033  -4.717  0.00  0.00     0.203 HD
ENDROOT
BRANCH  26  28
ATOM     28  C   LIG d   1       2.505   0.547  -5.225  0.00  0.00    -0.029 C 
ATOM     29  H   LIG d   1       1.553   0.078  -4.980  0.00  0.00     0.082 H 
ATOM     30  H   LIG d   1       2.400   1.631  -5.182  0.00  0.00     0.082 H 
BRANCH  28  31
ATOM     31  C   LIG d   1       2.929   0.132  -6.636  0.00  0.00    -0.001 C 
ATOM     32  C   LIG d   1       2.782   1.323  -7.585  0.00  0.00    -0.045 C 
ATOM     33  C   LIG d   1       3.206   0.908  -8.994  0.00  0.00    -0.053 C 
ATOM     34  H   LIG d   1       1.743   1.649  -7.599  0.00  0.00     0.027 H 
ATOM     35  H   LIG d   1       3.416   2.141  -7.241  0.00  0.00     0.027 H 
ATOM     36  C   LIG d   1       4.666   0.449  -8.974  0.00  0.00    -0.053 C 
ATOM     37  H   LIG d   1       2.573   0.089  -9.338  0.00  0.00     0.026 H 
ATOM     38  H   LIG d   1       3.102   1.756  -9.670  0.00  0.00     0.026 H 
ATOM     39  C   LIG d   1       4.813  -0.742  -8.026  0.00  0.00    -0.053 C 
ATOM     40  H   LIG d   1       4.968   0.153  -9.979  0.00  0.00     0.026 H 
ATOM     41  H   LIG d   1       5.298   1.268  -8.631  0.00  0.00     0.026 H 
ATOM     42  C   LIG d   1       4.389  -0.327  -6.615  0.00  0.00    -0.045 C 
ATOM     43  H   LIG d   1       4.181  -1.560  -8.369  0.00  0.00     0.026 H 
ATOM     44  H   LIG d   1       5.853  -1.069  -8.010  0.00  0.00     0.026 H 
ATOM     45  H   LIG d   1       5.022   0.492  -6.272  0.00  0.00     0.027 H 
ATOM     46  H   LIG d   1       4.494  -1.176  -5.939  0.00  0.00     0.027 H 
ATOM     47  H   LIG d   1       2.297  -0.687  -6.979  0.00  0.00     0.035 H 
ENDBRANCH  28  31
ENDBRANCH  26  28
BRANCH   1  48
ATOM     48  N   LIG d   1       9.112  -0.264  -5.901  0.00  0.00    -0.277 N 
ATOM     49  C   LIG d   1       8.985   0.162  -7.173  0.00  0.00     0.255 C 
ATOM     50  O   LIG d   1       7.944   0.672  -7.542  0.00  0.00    -0.269 OA
ATOM     51  H   LIG d   1       9.913  -0.738  -5.626  0.00  0.00     0.155 HD
BRANCH  49  52
ATOM     52  C   LIG d   1      10.101   0.011  -8.111  0.00  0.00     0.074 A 
ATOM     53  C   LIG d   1      11.358  -0.532  -7.892  0.00  0.00    -0.043 A 
ATOM     54  C   LIG d   1      12.224  -0.551  -8.956  0.00  0.00    -0.054 A 
ATOM     55  H   LIG d   1      11.643  -0.922  -6.926  0.00  0.00     0.063 H 
ATOM     56  C   LIG d   1      11.818  -0.047 -10.152  0.00  0.00    -0.024 A 
ATOM     57  H   LIG d   1      13.217  -0.960  -8.846  0.00  0.00     0.062 H 
ATOM     58  S   LIG d   1      10.193   0.469  -9.833  0.00  0.00    -0.092 SA
ATOM     59  H   LIG d   1      12.371   0.013 -11.078  0.00  0.00     0.069 H 
ENDBRANCH  49  52
ENDBRANCH   1  48
TORSDOF 4
ENDMDL
MODEL 4
REMARK VINA RESULT:      -6.9      3.877      6.724
REMARK  4 active torsions:
REMARK  status: ('A' for Active; 'I' for Inactive)
REMARK    1  A    between atoms: C_3  and  C_6 
REMARK       I    between atoms: C_6  and  N_8 
REMARK    2  A    between atoms: N_8  and  C_9 
REMARK    3  A    between atoms: C_24  and  C_25 
REMARK    4  A    between atoms: C_24  and  N_58 
ROOT
ATOM      1  C   LIG d   1       4.950  -4.926  -7.640  0.00  0.00     0.099 A 
ATOM      2  C   LIG d   1       3.722  -4.920  -8.243  0.00  0.00    -0.034 A 
ATOM      3  C   LIG d   1       3.250  -3.728  -8.804  0.00  0.00    -0.040 A 
ATOM      4  C   LIG d   1       4.001  -2.598  -8.758  0.00  0.00     0.030 A 
ATOM      5  N   LIG d   1       5.249  -2.617  -8.230  0.00  0.00    -0.310 N 
ATOM      6  C   LIG d   1       5.709  -3.739  -7.626  0.00  0.00     0.273 A 
ATOM      7  O   LIG d   1       6.794  -3.722  -7.066  0.00  0.00    -0.266 OA
ATOM      8  C   LIG d   1       6.170  -1.481  -8.310  0.00  0.00     0.034 C 
ATOM      9  C   LIG d   1       5.454  -0.175  -8.607  0.00  0.00     0.018 C 
ATOM     10  H   LIG d   1       6.198   0.563  -8.911  0.00  0.00     0.037 H 
ATOM     11  C   LIG d   1       4.477  -0.381  -9.768  0.00  0.00    -0.031 C 
ATOM     12  C   LIG d   1       3.372  -1.325  -9.281  0.00  0.00     0.040 C 
ATOM     13  H   LIG d   1       2.670  -1.539 -10.087  0.00  0.00     0.042 H 
ATOM     14  C   LIG d   1       2.651  -0.648  -8.103  0.00  0.00    -0.024 C 
ATOM     15  C   LIG d   1       4.731   0.366  -7.383  0.00  0.00    -0.027 C 
ATOM     16  H   LIG d   1       3.128  -5.822  -8.286  0.00  0.00     0.064 H 
ATOM     17  H   LIG d   1       2.279  -3.708  -9.276  0.00  0.00     0.064 H 
ATOM     18  H   LIG d   1       6.697  -1.387  -7.360  0.00  0.00     0.050 H 
ATOM     19  H   LIG d   1       6.897  -1.672  -9.100  0.00  0.00     0.050 H 
ATOM     20  H   LIG d   1       4.044   0.576 -10.061  0.00  0.00     0.028 H 
ATOM     21  H   LIG d   1       4.998  -0.825 -10.615  0.00  0.00     0.028 H 
ATOM     22  H   LIG d   1       2.293   0.336  -8.408  0.00  0.00     0.082 H 
ATOM     23  H   LIG d   1       1.811  -1.262  -7.783  0.00  0.00     0.082 H 
ATOM     24  H   LIG d   1       5.434   0.431  -6.552  0.00  0.00     0.082 H 
ATOM     25  H   LIG d   1       4.347   1.362  -7.604  0.00  0.00     0.082 H 
ATOM     26  N   LIG d   1       3.625  -0.532  -6.994  0.00  0.00     0.236 N 
ATOM     27  H   LIG d   1       4.008  -1.463  -6.789  0.00  0.00     0.203 HD
ENDROOT
BRANCH  26  28
ATOM     28  C   LIG d   1       2.955  -0.013  -5.785  0.00  0.00    -0.029 C 
ATOM     29  H   LIG d   1       2.683   1.029  -5.951  0.00  0.00     0.082 H 
ATOM     30  H   LIG d   1       2.055  -0.599  -5.600  0.00  0.00     0.082 H 
BRANCH  28  31
ATOM     31  C   LIG d   1       3.884  -0.110  -4.572  0.00  0.00    -0.001 C 
ATOM     32  C   LIG d   1       3.308   0.717  -3.421  0.00  0.00    -0.045 C 
ATOM     33  C   LIG d   1       4.237   0.619  -2.209  0.00  0.00    -0.053 C 
ATOM     34  H   LIG d   1       3.222   1.758  -3.730  0.00  0.00     0.027 H 
ATOM     35  H   LIG d   1       2.323   0.333  -3.155  0.00  0.00     0.027 H 
ATOM     36  C   LIG d   1       4.358  -0.843  -1.776  0.00  0.00    -0.053 C 
ATOM     37  H   LIG d   1       5.222   1.002  -2.475  0.00  0.00     0.026 H 
ATOM     38  H   LIG d   1       3.827   1.208  -1.389  0.00  0.00     0.026 H 
ATOM     39  C   LIG d   1       4.933  -1.670  -2.927  0.00  0.00    -0.053 C 
ATOM     40  H   LIG d   1       5.019  -0.913  -0.912  0.00  0.00     0.026 H 
ATOM     41  H   LIG d   1       3.373  -1.226  -1.510  0.00  0.00     0.026 H 
ATOM     42  C   LIG d   1       4.005  -1.573  -4.139  0.00  0.00    -0.045 C 
ATOM     43  H   LIG d   1       5.919  -1.287  -3.192  0.00  0.00     0.026 H 
ATOM     44  H   LIG d   1       5.020  -2.713  -2.619  0.00  0.00     0.026 H 
ATOM     45  H   LIG d   1       3.019  -1.956  -3.874  0.00  0.00     0.027 H 
ATOM     46  H   LIG d   1       4.415  -2.162  -4.960  0.00  0.00     0.027 H 
ATOM     47  H   LIG d   1       4.869   0.272  -4.838  0.00  0.00     0.035 H 
ENDBRANCH  28  31
ENDBRANCH  26  28
BRANCH   1  48
ATOM     48  N   LIG d   1       5.446  -6.093  -7.046  0.00  0.00    -0.277 N 
ATOM     49  C   LIG d   1       4.954  -6.509  -5.862  0.00  0.00     0.255 C 
ATOM     50  O   LIG d   1       4.146  -5.823  -5.265  0.00  0.00    -0.269 OA
ATOM     51  H   LIG d   1       6.145  -6.602  -7.486  0.00  0.00     0.155 HD
BRANCH  49  52
ATOM     52  C   LIG d   1       5.392  -7.788  -5.295  0.00  0.00     0.074 A 
ATOM     53  C   LIG d   1       4.634  -8.901  -4.965  0.00  0.00    -0.043 A 
ATOM     54  C   LIG d   1       5.304  -9.980  -4.444  0.00  0.00    -0.054 A 
ATOM     55  H   LIG d   1       3.564  -8.919  -5.112  0.00  0.00     0.063 H 
ATOM     56  C   LIG d   1       6.651  -9.909  -4.279  0.00  0.00    -0.024 A 
ATOM     57  H   LIG d   1       4.767 -10.875  -4.168  0.00  0.00     0.062 H 
ATOM     58  S   LIG d   1       7.037  -8.320  -4.859  0.00  0.00    -0.092 SA
ATOM     59  H   LIG d   1       7.320 -10.661  -3.888  0.00  0.00     0.069 H 
ENDBRANCH  49  52
ENDBRANCH   1  48
TORSDOF 4
ENDMDL
MODEL 5
REMARK VINA RESULT:      -6.9      3.417      5.586
REMARK  4 active torsions:
REMARK  status: ('A' for Active; 'I' for Inactive)
REMARK    1  A    between atoms: C_3  and  C_6 
REMARK       I    between atoms: C_6  and  N_8 
REMARK    2  A    between atoms: N_8  and  C_9 
REMARK    3  A    between atoms: C_24  and  C_25 
REMARK    4  A    between atoms: C_24  and  N_58 
ROOT
ATOM      1  C   LIG d   1       1.661  -2.872 -10.018  0.00  0.00     0.099 A 
ATOM      2  C   LIG d   1       1.113  -1.680 -10.407  0.00  0.00    -0.034 A 
ATOM      3  C   LIG d   1       1.793  -0.495 -10.104  0.00  0.00    -0.040 A 
ATOM      4  C   LIG d   1       2.979  -0.527  -9.443  0.00  0.00     0.030 A 
ATOM      5  N   LIG d   1       3.562  -1.708  -9.125  0.00  0.00    -0.310 N 
ATOM      6  C   LIG d   1       2.900  -2.869  -9.349  0.00  0.00     0.273 A 
ATOM      7  O   LIG d   1       3.386  -3.924  -8.971  0.00  0.00    -0.266 OA
ATOM      8  C   LIG d   1       4.914  -1.811  -8.573  0.00  0.00     0.034 C 
ATOM      9  C   LIG d   1       5.397  -0.502  -7.974  0.00  0.00     0.018 C 
ATOM     10  H   LIG d   1       6.475  -0.568  -7.827  0.00  0.00     0.037 H 
ATOM     11  C   LIG d   1       5.113   0.643  -8.952  0.00  0.00    -0.031 C 
ATOM     12  C   LIG d   1       3.592   0.800  -9.052  0.00  0.00     0.040 C 
ATOM     13  H   LIG d   1       3.334   1.577  -9.771  0.00  0.00     0.042 H 
ATOM     14  C   LIG d   1       3.058   1.160  -7.655  0.00  0.00    -0.024 C 
ATOM     15  C   LIG d   1       4.756  -0.226  -6.622  0.00  0.00    -0.027 C 
ATOM     16  H   LIG d   1       0.174  -1.655 -10.939  0.00  0.00     0.064 H 
ATOM     17  H   LIG d   1       1.369   0.454 -10.399  0.00  0.00     0.064 H 
ATOM     18  H   LIG d   1       4.921  -2.578  -7.798  0.00  0.00     0.050 H 
ATOM     19  H   LIG d   1       5.598  -2.107  -9.369  0.00  0.00     0.050 H 
ATOM     20  H   LIG d   1       5.557   1.565  -8.580  0.00  0.00     0.028 H 
ATOM     21  H   LIG d   1       5.526   0.402  -9.932  0.00  0.00     0.028 H 
ATOM     22  H   LIG d   1       3.573   2.045  -7.281  0.00  0.00     0.082 H 
ATOM     23  H   LIG d   1       1.987   1.352  -7.708  0.00  0.00     0.082 H 
ATOM     24  H   LIG d   1       4.909  -1.088  -5.972  0.00  0.00     0.082 H 
ATOM     25  H   LIG d   1       5.228   0.648  -6.174  0.00  0.00     0.082 H 
ATOM     26  N   LIG d   1       3.304  -0.003  -6.772  0.00  0.00     0.236 N 
ATOM     27  H   LIG d   1       2.880  -0.837  -7.194  0.00  0.00     0.203 HD
ENDROOT
BRANCH  26  28
ATOM     28  C   LIG d   1       2.690   0.228  -5.449  0.00  0.00    -0.029 C 
ATOM     29  H   LIG d   1       2.315   1.251  -5.407  0.00  0.00     0.082 H 
ATOM     30  H   LIG d   1       1.863  -0.469  -5.316  0.00  0.00     0.082 H 
BRANCH  28  31
ATOM     31  C   LIG d   1       3.718   0.018  -4.335  0.00  0.00    -0.001 C 
ATOM     32  C   LIG d   1       3.663   1.194  -3.359  0.00  0.00    -0.045 C 
ATOM     33  C   LIG d   1       4.691   0.984  -2.247  0.00  0.00    -0.053 C 
ATOM     34  H   LIG d   1       3.887   2.118  -3.891  0.00  0.00     0.027 H 
ATOM     35  H   LIG d   1       2.665   1.258  -2.925  0.00  0.00     0.027 H 
ATOM     36  C   LIG d   1       4.374  -0.314  -1.500  0.00  0.00    -0.053 C 
ATOM     37  H   LIG d   1       5.688   0.918  -2.681  0.00  0.00     0.026 H 
ATOM     38  H   LIG d   1       4.651   1.821  -1.551  0.00  0.00     0.026 H 
ATOM     39  C   LIG d   1       4.431  -1.491  -2.475  0.00  0.00    -0.053 C 
ATOM     40  H   LIG d   1       5.107  -0.465  -0.706  0.00  0.00     0.026 H 
ATOM     41  H   LIG d   1       3.377  -0.249  -1.065  0.00  0.00     0.026 H 
ATOM     42  C   LIG d   1       3.402  -1.280  -3.588  0.00  0.00    -0.045 C 
ATOM     43  H   LIG d   1       5.428  -1.556  -2.909  0.00  0.00     0.026 H 
ATOM     44  H   LIG d   1       4.205  -2.416  -1.943  0.00  0.00     0.026 H 
ATOM     45  H   LIG d   1       2.405  -1.215  -3.154  0.00  0.00     0.027 H 
ATOM     46  H   LIG d   1       3.442  -2.119  -4.284  0.00  0.00     0.027 H 
ATOM     47  H   LIG d   1       4.716  -0.047  -4.769  0.00  0.00     0.035 H 
ENDBRANCH  28  31
ENDBRANCH  26  28
BRANCH   1  48
ATOM     48  N   LIG d   1       0.998  -4.078 -10.281  0.00  0.00    -0.277 N 
ATOM     49  C   LIG d   1       1.256  -4.755 -11.419  0.00  0.00     0.255 C 
ATOM     50  O   LIG d   1       1.993  -4.274 -12.258  0.00  0.00    -0.269 OA
ATOM     51  H   LIG d   1       0.354  -4.426  -9.646  0.00  0.00     0.155 HD
BRANCH  49  52
ATOM     52  C   LIG d   1       0.649  -6.070 -11.642  0.00  0.00     0.074 A 
ATOM     53  C   LIG d   1      -0.340  -6.433 -12.543  0.00  0.00    -0.043 A 
ATOM     54  C   LIG d   1      -0.731  -7.749 -12.545  0.00  0.00    -0.054 A 
ATOM     55  H   LIG d   1      -0.783  -5.712 -13.215  0.00  0.00     0.063 H 
ATOM     56  C   LIG d   1      -0.143  -8.617 -11.681  0.00  0.00    -0.024 A 
ATOM     57  H   LIG d   1      -1.497  -8.090 -13.225  0.00  0.00     0.062 H 
ATOM     58  S   LIG d   1       0.995  -7.621 -10.831  0.00  0.00    -0.092 SA
ATOM     59  H   LIG d   1      -0.333  -9.673 -11.556  0.00  0.00     0.069 H 
ENDBRANCH  49  52
ENDBRANCH   1  48
TORSDOF 4
ENDMDL
MODEL 6
REMARK VINA RESULT:      -6.8      3.520      6.907
REMARK  4 active torsions:
REMARK  status: ('A' for Active; 'I' for Inactive)
REMARK    1  A    between atoms: C_3  and  C_6 
REMARK       I    between atoms: C_6  and  N_8 
REMARK    2  A    between atoms: N_8  and  C_9 
REMARK    3  A    between atoms: C_24  and  C_25 
REMARK    4  A    between atoms: C_24  and  N_58 
ROOT
ATOM      1  C   LIG d   1       7.883   0.781  -3.892  0.00  0.00     0.099 A 
ATOM      2  C   LIG d   1       6.793   1.447  -3.402  0.00  0.00    -0.034 A 
ATOM      3  C   LIG d   1       5.582   0.757  -3.272  0.00  0.00    -0.040 A 
ATOM      4  C   LIG d   1       5.492  -0.553  -3.619  0.00  0.00     0.030 A 
ATOM      5  N   LIG d   1       6.587  -1.236  -4.032  0.00  0.00    -0.310 N 
ATOM      6  C   LIG d   1       7.758  -0.582  -4.226  0.00  0.00     0.273 A 
ATOM      7  O   LIG d   1       8.715  -1.180  -4.692  0.00  0.00    -0.266 OA
ATOM      8  C   LIG d   1       6.593  -2.684  -4.250  0.00  0.00     0.034 C 
ATOM      9  C   LIG d   1       5.194  -3.250  -4.422  0.00  0.00     0.018 C 
ATOM     10  H   LIG d   1       5.246  -4.333  -4.315  0.00  0.00     0.037 H 
ATOM     11  C   LIG d   1       4.282  -2.700  -3.320  0.00  0.00    -0.031 C 
ATOM     12  C   LIG d   1       4.124  -1.195  -3.559  0.00  0.00     0.040 C 
ATOM     13  H   LIG d   1       3.516  -0.745  -2.774  0.00  0.00     0.042 H 
ATOM     14  C   LIG d   1       3.461  -0.998  -4.933  0.00  0.00    -0.024 C 
ATOM     15  C   LIG d   1       4.622  -2.941  -5.797  0.00  0.00    -0.027 C 
ATOM     16  H   LIG d   1       6.867   2.487  -3.119  0.00  0.00     0.064 H 
ATOM     17  H   LIG d   1       4.712   1.272  -2.893  0.00  0.00     0.064 H 
ATOM     18  H   LIG d   1       7.175  -2.903  -5.145  0.00  0.00     0.050 H 
ATOM     19  H   LIG d   1       7.066  -3.168  -3.395  0.00  0.00     0.050 H 
ATOM     20  H   LIG d   1       3.309  -3.188  -3.368  0.00  0.00     0.028 H 
ATOM     21  H   LIG d   1       4.736  -2.875  -2.344  0.00  0.00     0.028 H 
ATOM     22  H   LIG d   1       2.525  -1.556  -4.974  0.00  0.00     0.082 H 
ATOM     23  H   LIG d   1       3.266   0.061  -5.100  0.00  0.00     0.082 H 
ATOM     24  H   LIG d   1       5.326  -3.276  -6.559  0.00  0.00     0.082 H 
ATOM     25  H   LIG d   1       3.680  -3.475  -5.922  0.00  0.00     0.082 H 
ATOM     26  N   LIG d   1       4.411  -1.488  -5.958  0.00  0.00     0.236 N 
ATOM     27  H   LIG d   1       5.309  -1.006  -5.838  0.00  0.00     0.203 HD
ENDROOT
BRANCH  26  28
ATOM     28  C   LIG d   1       3.889  -1.201  -7.309  0.00  0.00    -0.029 C 
ATOM     29  H   LIG d   1       4.441  -1.799  -8.035  0.00  0.00     0.082 H 
ATOM     30  H   LIG d   1       2.833  -1.468  -7.345  0.00  0.00     0.082 H 
BRANCH  28  31
ATOM     31  C   LIG d   1       4.052   0.283  -7.644  0.00  0.00    -0.001 C 
ATOM     32  C   LIG d   1       5.157   0.454  -8.687  0.00  0.00    -0.045 C 
ATOM     33  C   LIG d   1       5.320   1.937  -9.021  0.00  0.00    -0.053 C 
ATOM     34  H   LIG d   1       6.095   0.066  -8.290  0.00  0.00     0.027 H 
ATOM     35  H   LIG d   1       4.891  -0.095  -9.591  0.00  0.00     0.027 H 
ATOM     36  C   LIG d   1       4.003   2.481  -9.580  0.00  0.00    -0.053 C 
ATOM     37  H   LIG d   1       5.585   2.486  -8.118  0.00  0.00     0.026 H 
ATOM     38  H   LIG d   1       6.106   2.059  -9.765  0.00  0.00     0.026 H 
ATOM     39  C   LIG d   1       2.898   2.312  -8.536  0.00  0.00    -0.053 C 
ATOM     40  H   LIG d   1       4.118   3.539  -9.818  0.00  0.00     0.026 H 
ATOM     41  H   LIG d   1       3.738   1.933 -10.483  0.00  0.00     0.026 H 
ATOM     42  C   LIG d   1       2.735   0.827  -8.202  0.00  0.00    -0.045 C 
ATOM     43  H   LIG d   1       3.163   2.861  -7.633  0.00  0.00     0.026 H 
ATOM     44  H   LIG d   1       1.959   2.699  -8.934  0.00  0.00     0.026 H 
ATOM     45  H   LIG d   1       2.470   0.278  -9.105  0.00  0.00     0.027 H 
ATOM     46  H   LIG d   1       1.947   0.706  -7.458  0.00  0.00     0.027 H 
ATOM     47  H   LIG d   1       4.318   0.832  -6.740  0.00  0.00     0.035 H 
ENDBRANCH  28  31
ENDBRANCH  26  28
BRANCH   1  48
ATOM     48  N   LIG d   1       9.106   1.444  -4.060  0.00  0.00    -0.277 N 
ATOM     49  C   LIG d   1       9.324   2.186  -5.164  0.00  0.00     0.255 C 
ATOM     50  O   LIG d   1       8.498   2.206  -6.056  0.00  0.00    -0.269 OA
ATOM     51  H   LIG d   1       9.795   1.368  -3.382  0.00  0.00     0.155 HD
BRANCH  49  52
ATOM     52  C   LIG d   1      10.557   2.969  -5.287  0.00  0.00     0.074 A 
ATOM     53  C   LIG d   1      11.641   3.032  -4.425  0.00  0.00    -0.043 A 
ATOM     54  C   LIG d   1      12.678   3.856  -4.785  0.00  0.00    -0.054 A 
ATOM     55  H   LIG d   1      11.668   2.458  -3.511  0.00  0.00     0.063 H 
ATOM     56  C   LIG d   1      12.596   4.558  -5.946  0.00  0.00    -0.024 A 
ATOM     57  H   LIG d   1      13.549   3.947  -4.153  0.00  0.00     0.062 H 
ATOM     58  S   LIG d   1      11.057   4.082  -6.588  0.00  0.00    -0.092 SA
ATOM     59  H   LIG d   1      13.317   5.242  -6.369  0.00  0.00     0.069 H 
ENDBRANCH  49  52
ENDBRANCH   1  48
TORSDOF 4
ENDMDL
MODEL 7
REMARK VINA RESULT:      -6.7      4.316      7.734
REMARK  4 active torsions:
REMARK  status: ('A' for Active; 'I' for Inactive)
REMARK    1  A    between atoms: C_3  and  C_6 
REMARK       I    between atoms: C_6  and  N_8 
REMARK    2  A    between atoms: N_8  and  C_9 
REMARK    3  A    between atoms: C_24  and  C_25 
REMARK    4  A    between atoms: C_24  and  N_58 
ROOT
ATOM      1  C   LIG d   1       9.613   1.395  -5.637  0.00  0.00     0.099 A 
ATOM      2  C   LIG d   1      10.479   0.474  -5.113  0.00  0.00    -0.034 A 
ATOM      3  C   LIG d   1      10.280  -0.881  -5.404  0.00  0.00    -0.040 A 
ATOM      4  C   LIG d   1       9.251  -1.274  -6.198  0.00  0.00     0.030 A 
ATOM      5  N   LIG d   1       8.438  -0.359  -6.780  0.00  0.00    -0.310 N 
ATOM      6  C   LIG d   1       8.567   0.953  -6.470  0.00  0.00     0.273 A 
ATOM      7  O   LIG d   1       7.771   1.762  -6.920  0.00  0.00    -0.266 OA
ATOM      8  C   LIG d   1       7.427  -0.707  -7.781  0.00  0.00     0.034 C 
ATOM      9  C   LIG d   1       7.068  -2.183  -7.752  0.00  0.00     0.018 C 
ATOM     10  H   LIG d   1       6.529  -2.423  -8.668  0.00  0.00     0.037 H 
ATOM     11  C   LIG d   1       8.352  -3.020  -7.717  0.00  0.00    -0.031 C 
ATOM     12  C   LIG d   1       9.035  -2.761  -6.369  0.00  0.00     0.040 C 
ATOM     13  H   LIG d   1       9.979  -3.302  -6.309  0.00  0.00     0.042 H 
ATOM     14  C   LIG d   1       8.079  -3.220  -5.255  0.00  0.00    -0.024 C 
ATOM     15  C   LIG d   1       6.169  -2.526  -6.575  0.00  0.00    -0.027 C 
ATOM     16  H   LIG d   1      11.302   0.787  -4.487  0.00  0.00     0.064 H 
ATOM     17  H   LIG d   1      10.951  -1.620  -4.991  0.00  0.00     0.064 H 
ATOM     18  H   LIG d   1       6.527  -0.122  -7.591  0.00  0.00     0.050 H 
ATOM     19  H   LIG d   1       7.810  -0.457  -8.771  0.00  0.00     0.050 H 
ATOM     20  H   LIG d   1       8.106  -4.077  -7.811  0.00  0.00     0.028 H 
ATOM     21  H   LIG d   1       9.011  -2.719  -8.531  0.00  0.00     0.028 H 
ATOM     22  H   LIG d   1       7.797  -4.260  -5.418  0.00  0.00     0.082 H 
ATOM     23  H   LIG d   1       8.567  -3.118  -4.286  0.00  0.00     0.082 H 
ATOM     24  H   LIG d   1       5.302  -1.865  -6.583  0.00  0.00     0.082 H 
ATOM     25  H   LIG d   1       5.832  -3.558  -6.669  0.00  0.00     0.082 H 
ATOM     26  N   LIG d   1       6.890  -2.339  -5.299  0.00  0.00     0.236 N 
ATOM     27  H   LIG d   1       7.197  -1.361  -5.230  0.00  0.00     0.203 HD
ENDROOT
BRANCH  26  28
ATOM     28  C   LIG d   1       5.994  -2.641  -4.164  0.00  0.00    -0.029 C 
ATOM     29  H   LIG d   1       5.271  -3.394  -4.476  0.00  0.00     0.082 H 
ATOM     30  H   LIG d   1       6.589  -3.028  -3.337  0.00  0.00     0.082 H 
BRANCH  28  31
ATOM     31  C   LIG d   1       5.255  -1.380  -3.714  0.00  0.00    -0.001 C 
ATOM     32  C   LIG d   1       4.402  -1.699  -2.484  0.00  0.00    -0.045 C 
ATOM     33  C   LIG d   1       3.663  -0.439  -2.034  0.00  0.00    -0.053 C 
ATOM     34  H   LIG d   1       3.678  -2.475  -2.736  0.00  0.00     0.027 H 
ATOM     35  H   LIG d   1       5.045  -2.051  -1.678  0.00  0.00     0.027 H 
ATOM     36  C   LIG d   1       4.679   0.649  -1.680  0.00  0.00    -0.053 C 
ATOM     37  H   LIG d   1       3.020  -0.086  -2.841  0.00  0.00     0.026 H 
ATOM     38  H   LIG d   1       3.056  -0.666  -1.159  0.00  0.00     0.026 H 
ATOM     39  C   LIG d   1       5.531   0.970  -2.909  0.00  0.00    -0.053 C 
ATOM     40  H   LIG d   1       4.152   1.548  -1.359  0.00  0.00     0.026 H 
ATOM     41  H   LIG d   1       5.321   0.298  -0.873  0.00  0.00     0.026 H 
ATOM     42  C   LIG d   1       6.271  -0.292  -3.360  0.00  0.00    -0.045 C 
ATOM     43  H   LIG d   1       4.889   1.322  -3.716  0.00  0.00     0.026 H 
ATOM     44  H   LIG d   1       6.256   1.745  -2.658  0.00  0.00     0.026 H 
ATOM     45  H   LIG d   1       6.914  -0.644  -2.553  0.00  0.00     0.027 H 
ATOM     46  H   LIG d   1       6.879  -0.063  -4.236  0.00  0.00     0.027 H 
ATOM     47  H   LIG d   1       4.612  -1.027  -4.520  0.00  0.00     0.035 H 
ENDBRANCH  28  31
ENDBRANCH  26  28
BRANCH   1  48
ATOM     48  N   LIG d   1       9.765   2.758  -5.348  0.00  0.00    -0.277 N 
ATOM     49  C   LIG d   1       9.325   3.251  -4.173  0.00  0.00     0.255 C 
ATOM     50  O   LIG d   1       8.715   2.534  -3.403  0.00  0.00    -0.269 OA
ATOM     51  H   LIG d   1      10.186   3.346  -5.994  0.00  0.00     0.155 HD
BRANCH  49  52
ATOM     52  C   LIG d   1       9.584   4.651  -3.824  0.00  0.00     0.074 A 
ATOM     53  C   LIG d   1       9.328   5.797  -4.563  0.00  0.00    -0.043 A 
ATOM     54  C   LIG d   1       9.673   6.997  -3.994  0.00  0.00    -0.054 A 
ATOM     55  H   LIG d   1       8.876   5.746  -5.543  0.00  0.00     0.063 H 
ATOM     56  C   LIG d   1      10.239   7.007  -2.758  0.00  0.00    -0.024 A 
ATOM     57  H   LIG d   1       9.498   7.922  -4.522  0.00  0.00     0.062 H 
ATOM     58  S   LIG d   1      10.302   5.326  -2.337  0.00  0.00    -0.092 SA
ATOM     59  H   LIG d   1      10.564   7.856  -2.176  0.00  0.00     0.069 H 
ENDBRANCH  49  52
ENDBRANCH   1  48
TORSDOF 4
ENDMDL
MODEL 8
REMARK VINA RESULT:      -6.7      6.964      9.893
REMARK  4 active torsions:
REMARK  status: ('A' for Active; 'I' for Inactive)
REMARK    1  A    between atoms: C_3  and  C_6 
REMARK       I    between atoms: C_6  and  N_8 
REMARK    2  A    between atoms: N_8  and  C_9 
REMARK    3  A    between atoms: C_24  and  C_25 
REMARK    4  A    between atoms: C_24  and  N_58 
ROOT
ATOM      1  C   LIG d   1       9.346  -6.419  -2.686  0.00  0.00     0.099 A 
ATOM      2  C   LIG d   1       8.769  -7.213  -3.639  0.00  0.00    -0.034 A 
ATOM      3  C   LIG d   1       8.280  -6.618  -4.808  0.00  0.00    -0.040 A 
ATOM      4  C   LIG d   1       8.384  -5.277  -4.998  0.00  0.00     0.030 A 
ATOM      5  N   LIG d   1       9.023  -4.498  -4.092  0.00  0.00    -0.310 N 
ATOM      6  C   LIG d   1       9.452  -5.034  -2.923  0.00  0.00     0.273 A 
ATOM      7  O   LIG d   1       9.938  -4.310  -2.069  0.00  0.00    -0.266 OA
ATOM      8  C   LIG d   1       9.321  -3.083  -4.321  0.00  0.00     0.034 C 
ATOM      9  C   LIG d   1       8.462  -2.480  -5.419  0.00  0.00     0.018 C 
ATOM     10  H   LIG d   1       8.904  -1.529  -5.717  0.00  0.00     0.037 H 
ATOM     11  C   LIG d   1       8.461  -3.413  -6.635  0.00  0.00    -0.031 C 
ATOM     12  C   LIG d   1       7.729  -4.697  -6.232  0.00  0.00     0.040 C 
ATOM     13  H   LIG d   1       7.737  -5.415  -7.052  0.00  0.00     0.042 H 
ATOM     14  C   LIG d   1       6.285  -4.325  -5.856  0.00  0.00    -0.024 C 
ATOM     15  C   LIG d   1       7.043  -2.211  -4.946  0.00  0.00    -0.027 C 
ATOM     16  H   LIG d   1       8.693  -8.280  -3.492  0.00  0.00     0.064 H 
ATOM     17  H   LIG d   1       7.816  -7.232  -5.566  0.00  0.00     0.064 H 
ATOM     18  H   LIG d   1       9.148  -2.532  -3.396  0.00  0.00     0.050 H 
ATOM     19  H   LIG d   1      10.371  -2.984  -4.600  0.00  0.00     0.050 H 
ATOM     20  H   LIG d   1       7.942  -2.935  -7.466  0.00  0.00     0.028 H 
ATOM     21  H   LIG d   1       9.486  -3.645  -6.923  0.00  0.00     0.028 H 
ATOM     22  H   LIG d   1       5.817  -3.786  -6.681  0.00  0.00     0.082 H 
ATOM     23  H   LIG d   1       5.717  -5.227  -5.636  0.00  0.00     0.082 H 
ATOM     24  H   LIG d   1       7.077  -1.608  -4.038  0.00  0.00     0.082 H 
ATOM     25  H   LIG d   1       6.505  -1.661  -5.718  0.00  0.00     0.082 H 
ATOM     26  N   LIG d   1       6.346  -3.478  -4.643  0.00  0.00     0.236 N 
ATOM     27  H   LIG d   1       6.867  -3.978  -3.913  0.00  0.00     0.203 HD
ENDROOT
BRANCH  26  28
ATOM     28  C   LIG d   1       4.982  -3.199  -4.151  0.00  0.00    -0.029 C 
ATOM     29  H   LIG d   1       4.270  -3.398  -4.952  0.00  0.00     0.082 H 
ATOM     30  H   LIG d   1       4.771  -3.852  -3.305  0.00  0.00     0.082 H 
BRANCH  28  31
ATOM     31  C   LIG d   1       4.858  -1.738  -3.712  0.00  0.00    -0.001 C 
ATOM     32  C   LIG d   1       3.704  -1.074  -4.466  0.00  0.00    -0.045 C 
ATOM     33  C   LIG d   1       3.580   0.385  -4.027  0.00  0.00    -0.053 C 
ATOM     34  H   LIG d   1       3.899  -1.116  -5.538  0.00  0.00     0.027 H 
ATOM     35  H   LIG d   1       2.775  -1.601  -4.245  0.00  0.00     0.027 H 
ATOM     36  C   LIG d   1       3.305   0.443  -2.522  0.00  0.00    -0.053 C 
ATOM     37  H   LIG d   1       4.509   0.911  -4.247  0.00  0.00     0.026 H 
ATOM     38  H   LIG d   1       2.758   0.858  -4.564  0.00  0.00     0.026 H 
ATOM     39  C   LIG d   1       4.459  -0.220  -1.768  0.00  0.00    -0.053 C 
ATOM     40  H   LIG d   1       3.217   1.484  -2.209  0.00  0.00     0.026 H 
ATOM     41  H   LIG d   1       2.377  -0.082  -2.302  0.00  0.00     0.026 H 
ATOM     42  C   LIG d   1       4.583  -1.680  -2.207  0.00  0.00    -0.045 C 
ATOM     43  H   LIG d   1       5.387   0.306  -1.988  0.00  0.00     0.026 H 
ATOM     44  H   LIG d   1       4.264  -0.179  -0.696  0.00  0.00     0.026 H 
ATOM     45  H   LIG d   1       3.654  -2.207  -1.987  0.00  0.00     0.027 H 
ATOM     46  H   LIG d   1       5.406  -2.153  -1.669  0.00  0.00     0.027 H 
ATOM     47  H   LIG d   1       5.786  -1.212  -3.932  0.00  0.00     0.035 H 
ENDBRANCH  28  31
ENDBRANCH  26  28
BRANCH   1  48
ATOM     48  N   LIG d   1       9.824  -6.974  -1.492  0.00  0.00    -0.277 N 
ATOM     49  C   LIG d   1      11.068  -7.491  -1.440  0.00  0.00     0.255 C 
ATOM     50  O   LIG d   1      11.740  -7.560  -2.451  0.00  0.00    -0.269 OA
ATOM     51  H   LIG d   1       9.260  -6.986  -0.703  0.00  0.00     0.155 HD
BRANCH  49  52
ATOM     52  C   LIG d   1      11.609  -7.969  -0.164  0.00  0.00     0.074 A 
ATOM     53  C   LIG d   1      10.997  -8.023   1.078  0.00  0.00    -0.043 A 
ATOM     54  C   LIG d   1      11.739  -8.522   2.119  0.00  0.00    -0.054 A 
ATOM     55  H   LIG d   1       9.980  -7.686   1.221  0.00  0.00     0.063 H 
ATOM     56  C   LIG d   1      13.014  -8.932   1.888  0.00  0.00    -0.024 A 
ATOM     57  H   LIG d   1      11.315  -8.587   3.110  0.00  0.00     0.062 H 
ATOM     58  S   LIG d   1      13.222  -8.642   0.191  0.00  0.00    -0.092 SA
ATOM     59  H   LIG d   1      13.723  -9.345   2.590  0.00  0.00     0.069 H 
ENDBRANCH  49  52
ENDBRANCH   1  48
TORSDOF 4
ENDMDL
MODEL 9
REMARK VINA RESULT:      -6.6      3.686      7.000
REMARK  4 active torsions:
REMARK  status: ('A' for Active; 'I' for Inactive)
REMARK    1  A    between atoms: C_3  and  C_6 
REMARK       I    between atoms: C_6  and  N_8 
REMARK    2  A    between atoms: N_8  and  C_9 
REMARK    3  A    between atoms: C_24  and  C_25 
REMARK    4  A    between atoms: C_24  and  N_58 
ROOT
ATOM      1  C   LIG d   1       7.999  -0.222  -7.621  0.00  0.00     0.099 A 
ATOM      2  C   LIG d   1       7.503  -1.469  -7.885  0.00  0.00    -0.034 A 
ATOM      3  C   LIG d   1       6.222  -1.584  -8.439  0.00  0.00    -0.040 A 
ATOM      4  C   LIG d   1       5.487  -0.476  -8.716  0.00  0.00     0.030 A 
ATOM      5  N   LIG d   1       6.004   0.763  -8.527  0.00  0.00    -0.310 N 
ATOM      6  C   LIG d   1       7.216   0.906  -7.936  0.00  0.00     0.273 A 
ATOM      7  O   LIG d   1       7.634   2.023  -7.678  0.00  0.00    -0.266 OA
ATOM      8  C   LIG d   1       5.334   1.987  -8.969  0.00  0.00     0.034 C 
ATOM      9  C   LIG d   1       3.850   1.777  -9.219  0.00  0.00     0.018 C 
ATOM     10  H   LIG d   1       3.474   2.629  -9.786  0.00  0.00     0.037 H 
ATOM     11  C   LIG d   1       3.649   0.512 -10.061  0.00  0.00    -0.031 C 
ATOM     12  C   LIG d   1       4.071  -0.686  -9.203  0.00  0.00     0.040 C 
ATOM     13  H   LIG d   1       3.987  -1.612  -9.772  0.00  0.00     0.042 H 
ATOM     14  C   LIG d   1       3.159  -0.729  -7.965  0.00  0.00    -0.024 C 
ATOM     15  C   LIG d   1       3.063   1.691  -7.921  0.00  0.00    -0.027 C 
ATOM     16  H   LIG d   1       8.090  -2.351  -7.672  0.00  0.00     0.064 H 
ATOM     17  H   LIG d   1       5.815  -2.562  -8.646  0.00  0.00     0.064 H 
ATOM     18  H   LIG d   1       5.457   2.753  -8.203  0.00  0.00     0.050 H 
ATOM     19  H   LIG d   1       5.801   2.332  -9.891  0.00  0.00     0.050 H 
ATOM     20  H   LIG d   1       2.600   0.418 -10.340  0.00  0.00     0.028 H 
ATOM     21  H   LIG d   1       4.268   0.563 -10.957  0.00  0.00     0.028 H 
ATOM     22  H   LIG d   1       2.115  -0.752  -8.278  0.00  0.00     0.082 H 
ATOM     23  H   LIG d   1       3.385  -1.615  -7.372  0.00  0.00     0.082 H 
ATOM     24  H   LIG d   1       3.283   2.567  -7.311  0.00  0.00     0.082 H 
ATOM     25  H   LIG d   1       1.997   1.674  -8.149  0.00  0.00     0.082 H 
ATOM     26  N   LIG d   1       3.441   0.482  -7.162  0.00  0.00     0.236 N 
ATOM     27  H   LIG d   1       4.447   0.519  -6.957  0.00  0.00     0.203 HD
ENDROOT
BRANCH  26  28
ATOM     28  C   LIG d   1       2.695   0.431  -5.889  0.00  0.00    -0.029 C 
ATOM     29  H   LIG d   1       2.731   1.414  -5.419  0.00  0.00     0.082 H 
ATOM     30  H   LIG d   1       1.659   0.164  -6.097  0.00  0.00     0.082 H 
BRANCH  28  31
ATOM     31  C   LIG d   1       3.309  -0.607  -4.947  0.00  0.00    -0.001 C 
ATOM     32  C   LIG d   1       4.814  -0.358  -4.825  0.00  0.00    -0.045 C 
ATOM     33  C   LIG d   1       5.427  -1.395  -3.883  0.00  0.00    -0.053 C 
ATOM     34  H   LIG d   1       5.277  -0.441  -5.808  0.00  0.00     0.027 H 
ATOM     35  H   LIG d   1       4.985   0.642  -4.425  0.00  0.00     0.027 H 
ATOM     36  C   LIG d   1       4.777  -1.279  -2.503  0.00  0.00    -0.053 C 
ATOM     37  H   LIG d   1       5.256  -2.395  -4.282  0.00  0.00     0.026 H 
ATOM     38  H   LIG d   1       6.498  -1.218  -3.795  0.00  0.00     0.026 H 
ATOM     39  C   LIG d   1       3.273  -1.528  -2.625  0.00  0.00    -0.053 C 
ATOM     40  H   LIG d   1       5.214  -2.018  -1.831  0.00  0.00     0.026 H 
ATOM     41  H   LIG d   1       4.949  -0.280  -2.103  0.00  0.00     0.026 H 
ATOM     42  C   LIG d   1       2.659  -0.490  -3.567  0.00  0.00    -0.045 C 
ATOM     43  H   LIG d   1       3.101  -2.528  -3.024  0.00  0.00     0.026 H 
ATOM     44  H   LIG d   1       2.809  -1.445  -1.641  0.00  0.00     0.026 H 
ATOM     45  H   LIG d   1       2.831   0.509  -3.168  0.00  0.00     0.027 H 
ATOM     46  H   LIG d   1       1.587  -0.668  -3.654  0.00  0.00     0.027 H 
ATOM     47  H   LIG d   1       3.137  -1.606  -5.346  0.00  0.00     0.035 H 
ENDBRANCH  28  31
ENDBRANCH  26  28
BRANCH   1  48
ATOM     48  N   LIG d   1       9.266  -0.068  -7.044  0.00  0.00    -0.277 N 
ATOM     49  C   LIG d   1       9.399  -0.052  -5.703  0.00  0.00     0.255 C 
ATOM     50  O   LIG d   1       8.411  -0.078  -4.994  0.00  0.00    -0.269 OA
ATOM     51  H   LIG d   1      10.048   0.028  -7.610  0.00  0.00     0.155 HD
BRANCH  49  52
ATOM     52  C   LIG d   1      10.735  -0.004  -5.100  0.00  0.00     0.074 A 
ATOM     53  C   LIG d   1      11.637  -1.037  -4.895  0.00  0.00    -0.043 A 
ATOM     54  C   LIG d   1      12.832  -0.713  -4.302  0.00  0.00    -0.054 A 
ATOM     55  H   LIG d   1      11.410  -2.051  -5.189  0.00  0.00     0.063 H 
ATOM     56  C   LIG d   1      13.070   0.578  -3.951  0.00  0.00    -0.024 A 
ATOM     57  H   LIG d   1      13.574  -1.475  -4.116  0.00  0.00     0.062 H 
ATOM     58  S   LIG d   1      11.625   1.397  -4.448  0.00  0.00    -0.092 SA
ATOM     59  H   LIG d   1      13.949   0.995  -3.482  0.00  0.00     0.069 H 
ENDBRANCH  49  52
ENDBRANCH   1  48
TORSDOF 4
ENDMDL
MODEL 10
REMARK VINA RESULT:      -6.6      3.361      5.139
REMARK  4 active torsions:
REMARK  status: ('A' for Active; 'I' for Inactive)
REMARK    1  A    between atoms: C_3  and  C_6 
REMARK       I    between atoms: C_6  and  N_8 
REMARK    2  A    between atoms: N_8  and  C_9 
REMARK    3  A    between atoms: C_24  and  C_25 
REMARK    4  A    between atoms: C_24  and  N_58 
ROOT
ATOM      1  C   LIG d   1       7.568  -2.112  -5.316  0.00  0.00     0.099 A 
ATOM      2  C   LIG d   1       8.020  -0.915  -4.830  0.00  0.00    -0.034 A 
ATOM      3  C   LIG d   1       7.250  -0.239  -3.877  0.00  0.00    -0.040 A 
ATOM      4  C   LIG d   1       6.078  -0.766  -3.435  0.00  0.00     0.030 A 
ATOM      5  N   LIG d   1       5.665  -1.986  -3.855  0.00  0.00    -0.310 N 
ATOM      6  C   LIG d   1       6.357  -2.636  -4.823  0.00  0.00     0.273 A 
ATOM      7  O   LIG d   1       5.928  -3.689  -5.268  0.00  0.00    -0.266 OA
ATOM      8  C   LIG d   1       4.509  -2.681  -3.286  0.00  0.00     0.034 C 
ATOM      9  C   LIG d   1       3.575  -1.739  -2.545  0.00  0.00     0.018 C 
ATOM     10  H   LIG d   1       2.898  -2.338  -1.935  0.00  0.00     0.037 H 
ATOM     11  C   LIG d   1       4.393  -0.838  -1.614  0.00  0.00    -0.031 C 
ATOM     12  C   LIG d   1       5.249   0.079  -2.493  0.00  0.00     0.040 C 
ATOM     13  H   LIG d   1       5.885   0.715  -1.877  0.00  0.00     0.042 H 
ATOM     14  C   LIG d   1       4.303   0.935  -3.353  0.00  0.00    -0.024 C 
ATOM     15  C   LIG d   1       2.734  -0.907  -3.500  0.00  0.00    -0.027 C 
ATOM     16  H   LIG d   1       8.955  -0.501  -5.177  0.00  0.00     0.064 H 
ATOM     17  H   LIG d   1       7.591   0.710  -3.491  0.00  0.00     0.064 H 
ATOM     18  H   LIG d   1       3.956  -3.164  -4.092  0.00  0.00     0.050 H 
ATOM     19  H   LIG d   1       4.862  -3.444  -2.593  0.00  0.00     0.050 H 
ATOM     20  H   LIG d   1       3.722  -0.240  -0.997  0.00  0.00     0.028 H 
ATOM     21  H   LIG d   1       5.034  -1.448  -0.979  0.00  0.00     0.028 H 
ATOM     22  H   LIG d   1       3.599   1.465  -2.710  0.00  0.00     0.082 H 
ATOM     23  H   LIG d   1       4.880   1.651  -3.936  0.00  0.00     0.082 H 
ATOM     24  H   LIG d   1       2.223  -1.570  -4.198  0.00  0.00     0.082 H 
ATOM     25  H   LIG d   1       1.992  -0.348  -2.930  0.00  0.00     0.082 H 
ATOM     26  N   LIG d   1       3.588   0.020  -4.271  0.00  0.00     0.236 N 
ATOM     27  H   LIG d   1       4.278  -0.526  -4.801  0.00  0.00     0.203 HD
ENDROOT
BRANCH  26  28
ATOM     28  C   LIG d   1       2.763   0.796  -5.219  0.00  0.00    -0.029 C 
ATOM     29  H   LIG d   1       1.734   0.815  -4.858  0.00  0.00     0.082 H 
ATOM     30  H   LIG d   1       3.149   1.814  -5.272  0.00  0.00     0.082 H 
BRANCH  28  31
ATOM     31  C   LIG d   1       2.804   0.163  -6.611  0.00  0.00    -0.001 C 
ATOM     32  C   LIG d   1       2.787   1.263  -7.674  0.00  0.00    -0.045 C 
ATOM     33  C   LIG d   1       2.828   0.629  -9.065  0.00  0.00    -0.053 C 
ATOM     34  H   LIG d   1       1.877   1.854  -7.570  0.00  0.00     0.027 H 
ATOM     35  H   LIG d   1       3.656   1.908  -7.542  0.00  0.00     0.027 H 
ATOM     36  C   LIG d   1       4.105  -0.200  -9.210  0.00  0.00    -0.053 C 
ATOM     37  H   LIG d   1       1.959  -0.016  -9.196  0.00  0.00     0.026 H 
ATOM     38  H   LIG d   1       2.816   1.413  -9.822  0.00  0.00     0.026 H 
ATOM     39  C   LIG d   1       4.122  -1.301  -8.148  0.00  0.00    -0.053 C 
ATOM     40  H   LIG d   1       4.135  -0.652 -10.202  0.00  0.00     0.026 H 
ATOM     41  H   LIG d   1       4.974   0.445  -9.080  0.00  0.00     0.026 H 
ATOM     42  C   LIG d   1       4.081  -0.667  -6.756  0.00  0.00    -0.045 C 
ATOM     43  H   LIG d   1       3.254  -1.946  -8.280  0.00  0.00     0.026 H 
ATOM     44  H   LIG d   1       5.033  -1.892  -8.251  0.00  0.00     0.026 H 
ATOM     45  H   LIG d   1       4.950  -0.022  -6.625  0.00  0.00     0.027 H 
ATOM     46  H   LIG d   1       4.093  -1.452  -5.999  0.00  0.00     0.027 H 
ATOM     47  H   LIG d   1       1.935  -0.483  -6.742  0.00  0.00     0.035 H 
ENDBRANCH  28  31
ENDBRANCH  26  28
BRANCH   1  48
ATOM     48  N   LIG d   1       8.298  -2.807  -6.289  0.00  0.00    -0.277 N 
ATOM     49  C   LIG d   1       8.266  -2.400  -7.574  0.00  0.00     0.255 C 
ATOM     50  O   LIG d   1       7.531  -1.489  -7.905  0.00  0.00    -0.269 OA
ATOM     51  H   LIG d   1       8.827  -3.580  -6.038  0.00  0.00     0.155 HD
BRANCH  49  52
ATOM     52  C   LIG d   1       9.117  -3.056  -8.571  0.00  0.00     0.074 A 
ATOM     53  C   LIG d   1      10.349  -2.657  -9.066  0.00  0.00    -0.043 A 
ATOM     54  C   LIG d   1      10.937  -3.466 -10.005  0.00  0.00    -0.054 A 
ATOM     55  H   LIG d   1      10.825  -1.748  -8.727  0.00  0.00     0.063 H 
ATOM     56  C   LIG d   1      10.298  -4.599 -10.399  0.00  0.00    -0.024 A 
ATOM     57  H   LIG d   1      11.896  -3.206 -10.427  0.00  0.00     0.062 H 
ATOM     58  S   LIG d   1       8.842  -4.580  -9.456  0.00  0.00    -0.092 SA
ATOM     59  H   LIG d   1      10.620  -5.336 -11.119  0.00  0.00     0.069 H 
ENDBRANCH  49  52
ENDBRANCH   1  48
TORSDOF 4
ENDMDL
