MODEL 1
REMARK VINA RESULT:      -6.8      0.000      0.000
REMARK  7 active torsions:
REMARK  status: ('A' for Active; 'I' for Inactive)
REMARK    1  A    between atoms: C_1  and  C_2 
REMARK    2  A    between atoms: C_2  and  C_3 
REMARK    3  A    between atoms: C_2  and  C_4 
REMARK    4  A    between atoms: C_14  and  C_22 
REMARK    5  A    between atoms: C_18  and  C_19 
REMARK    6  A    between atoms: C_18  and  C_20 
REMARK    7  A    between atoms: C_20  and  N_21 
ROOT
ATOM      1  C   LIG d   1       3.632  -0.208  -3.866  0.00  0.00    -0.044 A 
ATOM      2  C   LIG d   1       2.510   0.351  -4.449  0.00  0.00    -0.058 A 
ATOM      3  C   LIG d   1       2.442   0.487  -5.821  0.00  0.00    -0.058 A 
ATOM      4  C   LIG d   1       3.494   0.067  -6.627  0.00  0.00    -0.038 A 
ATOM      5  C   LIG d   1       4.618  -0.459  -6.038  0.00  0.00    -0.043 A 
ATOM      6  C   LIG d   1       4.686  -0.609  -4.661  0.00  0.00    -0.055 A 
ATOM      7  C   LIG d   1       5.820  -0.853  -6.858  0.00  0.00    -0.027 C 
ATOM      8  C   LIG d   1       5.795  -0.037  -8.160  0.00  0.00    -0.045 C 
ATOM      9  C   LIG d   1       4.495  -0.382  -8.890  0.00  0.00    -0.021 C 
ATOM     10  H   LIG d   1       4.383  -1.480  -8.844  0.00  0.00     0.032 H 
ATOM     11  C   LIG d   1       3.324   0.218  -8.128  0.00  0.00    -0.003 C 
ATOM     12  C   LIG d   1       3.183   1.716  -8.402  0.00  0.00    -0.043 C 
ATOM     13  C   LIG d   1       3.108   1.994  -9.900  0.00  0.00    -0.052 C 
ATOM     14  C   LIG d   1       4.394   1.505 -10.562  0.00  0.00    -0.043 C 
ATOM     15  C   LIG d   1       4.556   0.000 -10.357  0.00  0.00     0.011 C 
ATOM     16  H   LIG d   1       1.688   0.683  -3.831  0.00  0.00     0.062 H 
ATOM     17  H   LIG d   1       1.565   0.938  -6.259  0.00  0.00     0.062 H 
ATOM     18  H   LIG d   1       5.565  -1.041  -4.207  0.00  0.00     0.062 H 
ATOM     19  H   LIG d   1       6.730  -0.626  -6.311  0.00  0.00     0.031 H 
ATOM     20  H   LIG d   1       5.771  -1.910  -7.097  0.00  0.00     0.031 H 
ATOM     21  H   LIG d   1       5.799   1.026  -7.909  0.00  0.00     0.027 H 
ATOM     22  H   LIG d   1       6.687  -0.286  -8.714  0.00  0.00     0.027 H 
ATOM     23  H   LIG d   1       2.272   2.085  -7.923  0.00  0.00     0.027 H 
ATOM     24  H   LIG d   1       4.040   2.244  -7.979  0.00  0.00     0.027 H 
ATOM     25  H   LIG d   1       2.239   1.516 -10.339  0.00  0.00     0.027 H 
ATOM     26  H   LIG d   1       3.020   3.077 -10.055  0.00  0.00     0.027 H 
ATOM     27  H   LIG d   1       4.360   1.722 -11.632  0.00  0.00     0.027 H 
ATOM     28  H   LIG d   1       5.250   2.025 -10.125  0.00  0.00     0.027 H 
ENDROOT
BRANCH  15  29
ATOM     29  C   LIG d   1       3.492  -0.743 -11.174  0.00  0.00    -0.054 C 
ATOM     30  H   LIG d   1       3.384  -0.268 -12.148  0.00  0.00     0.024 H 
ATOM     31  H   LIG d   1       3.796  -1.781 -11.309  0.00  0.00     0.024 H 
ATOM     32  H   LIG d   1       2.539  -0.710 -10.646  0.00  0.00     0.024 H 
ENDBRANCH  15  29
BRANCH  15  33
ATOM     33  C   LIG d   1       5.912  -0.413 -10.962  0.00  0.00    -0.030 C 
ATOM     34  H   LIG d   1       6.671   0.317 -10.686  0.00  0.00     0.082 H 
ATOM     35  H   LIG d   1       6.195  -1.394 -10.580  0.00  0.00     0.082 H 
BRANCH  33  36
ATOM     36  N   LIG d   1       5.798  -0.472 -12.425  0.00  0.00     0.219 N 
ATOM     37  H   LIG d   1       6.719  -0.534 -12.833  0.00  0.00     0.199 HD
ATOM     38  H   LIG d   1       5.259  -1.285 -12.688  0.00  0.00     0.199 HD
ATOM     39  H   LIG d   1       5.336   0.359 -12.761  0.00  0.00     0.199 HD
ENDBRANCH  33  36
ENDBRANCH  15  33
BRANCH  11  40
ATOM     40  C   LIG d   1       2.014  -0.498  -8.487  0.00  0.00    -0.055 C 
ATOM     41  H   LIG d   1       2.228  -1.340  -9.143  0.00  0.00     0.024 H 
ATOM     42  H   LIG d   1       1.536  -0.859  -7.576  0.00  0.00     0.024 H 
ATOM     43  H   LIG d   1       1.347   0.199  -8.995  0.00  0.00     0.024 H 
ENDBRANCH  11  40
BRANCH   1  44
ATOM     44  C   LIG d   1       3.708  -0.372  -2.370  0.00  0.00    -0.021 C 
ATOM     45  H   LIG d   1       2.701  -0.357  -1.951  0.00  0.00     0.034 H 
BRANCH  44  46
ATOM     46  C   LIG d   1       4.378  -1.706  -2.037  0.00  0.00    -0.059 C 
ATOM     47  H   LIG d   1       4.823  -1.651  -1.044  0.00  0.00     0.024 H 
ATOM     48  H   LIG d   1       3.633  -2.502  -2.057  0.00  0.00     0.024 H 
ATOM     49  H   LIG d   1       5.155  -1.916  -2.772  0.00  0.00     0.024 H 
ENDBRANCH  44  46
BRANCH  44  50
ATOM     50  C   LIG d   1       4.526   0.774  -1.772  0.00  0.00    -0.059 C 
ATOM     51  H   LIG d   1       4.525   0.692  -0.685  0.00  0.00     0.024 H 
ATOM     52  H   LIG d   1       5.551   0.719  -2.139  0.00  0.00     0.024 H 
ATOM     53  H   LIG d   1       4.086   1.727  -2.065  0.00  0.00     0.024 H 
ENDBRANCH  44  50
ENDBRANCH   1  44
TORSDOF 7
ENDMDL
MODEL 2
REMARK VINA RESULT:      -5.8      2.794      6.715
REMARK  7 active torsions:
REMARK  status: ('A' for Active; 'I' for Inactive)
REMARK    1  A    between atoms: C_1  and  C_2 
REMARK    2  A    between atoms: C_2  and  C_3 
REMARK    3  A    between atoms: C_2  and  C_4 
REMARK    4  A    between atoms: C_14  and  C_22 
REMARK    5  A    between atoms: C_18  and  C_19 
REMARK    6  A    between atoms: C_18  and  C_20 
REMARK    7  A    between atoms: C_20  and  N_21 
ROOT
ATOM      1  C   LIG d   1       3.743  -1.144  -9.612  0.00  0.00    -0.044 A 
ATOM      2  C   LIG d   1       4.723  -2.040  -9.230  0.00  0.00    -0.058 A 
ATOM      3  C   LIG d   1       5.031  -2.196  -7.894  0.00  0.00    -0.058 A 
ATOM      4  C   LIG d   1       4.362  -1.459  -6.922  0.00  0.00    -0.038 A 
ATOM      5  C   LIG d   1       3.411  -0.549  -7.312  0.00  0.00    -0.043 A 
ATOM      6  C   LIG d   1       3.090  -0.397  -8.653  0.00  0.00    -0.055 A 
ATOM      7  C   LIG d   1       2.716   0.335  -6.309  0.00  0.00    -0.027 C 
ATOM      8  C   LIG d   1       3.632   0.473  -5.082  0.00  0.00    -0.045 C 
ATOM      9  C   LIG d   1       3.853  -0.932  -4.517  0.00  0.00    -0.021 C 
ATOM     10  H   LIG d   1       2.867  -1.430  -4.502  0.00  0.00     0.032 H 
ATOM     11  C   LIG d   1       4.735  -1.718  -5.474  0.00  0.00    -0.003 C 
ATOM     12  C   LIG d   1       6.208  -1.332  -5.327  0.00  0.00    -0.043 C 
ATOM     13  C   LIG d   1       6.665  -1.457  -3.876  0.00  0.00    -0.052 C 
ATOM     14  C   LIG d   1       5.833  -0.513  -3.010  0.00  0.00    -0.043 C 
ATOM     15  C   LIG d   1       4.355  -0.889  -3.086  0.00  0.00     0.011 C 
ATOM     16  H   LIG d   1       5.250  -2.616  -9.977  0.00  0.00     0.062 H 
ATOM     17  H   LIG d   1       5.810  -2.890  -7.614  0.00  0.00     0.062 H 
ATOM     18  H   LIG d   1       2.327   0.307  -8.950  0.00  0.00     0.062 H 
ATOM     19  H   LIG d   1       2.543   1.316  -6.739  0.00  0.00     0.031 H 
ATOM     20  H   LIG d   1       1.778  -0.120  -6.005  0.00  0.00     0.031 H 
ATOM     21  H   LIG d   1       4.589   0.890  -5.403  0.00  0.00     0.027 H 
ATOM     22  H   LIG d   1       3.150   1.151  -4.393  0.00  0.00     0.027 H 
ATOM     23  H   LIG d   1       6.817  -1.991  -5.952  0.00  0.00     0.027 H 
ATOM     24  H   LIG d   1       6.348  -0.303  -5.662  0.00  0.00     0.027 H 
ATOM     25  H   LIG d   1       6.577  -2.480  -3.530  0.00  0.00     0.027 H 
ATOM     26  H   LIG d   1       7.719  -1.160  -3.810  0.00  0.00     0.027 H 
ATOM     27  H   LIG d   1       6.170  -0.577  -1.973  0.00  0.00     0.027 H 
ATOM     28  H   LIG d   1       5.965   0.514  -3.360  0.00  0.00     0.027 H 
ENDROOT
BRANCH  15  29
ATOM     29  C   LIG d   1       4.133  -2.230  -2.375  0.00  0.00    -0.054 C 
ATOM     30  H   LIG d   1       3.130  -2.595  -2.594  0.00  0.00     0.024 H 
ATOM     31  H   LIG d   1       4.867  -2.955  -2.726  0.00  0.00     0.024 H 
ATOM     32  H   LIG d   1       4.243  -2.094  -1.299  0.00  0.00     0.024 H 
ENDBRANCH  15  29
BRANCH  15  33
ATOM     33  C   LIG d   1       3.563   0.152  -2.272  0.00  0.00    -0.030 C 
ATOM     34  H   LIG d   1       2.953   0.754  -2.945  0.00  0.00     0.082 H 
ATOM     35  H   LIG d   1       2.918  -0.360  -1.557  0.00  0.00     0.082 H 
BRANCH  33  36
ATOM     36  N   LIG d   1       4.499   1.024  -1.548  0.00  0.00     0.219 N 
ATOM     37  H   LIG d   1       4.825   0.551  -0.718  0.00  0.00     0.199 HD
ATOM     38  H   LIG d   1       5.285   1.240  -2.143  0.00  0.00     0.199 HD
ATOM     39  H   LIG d   1       4.030   1.877  -1.287  0.00  0.00     0.199 HD
ENDBRANCH  33  36
ENDBRANCH  15  33
BRANCH  11  40
ATOM     40  C   LIG d   1       4.573  -3.229  -5.251  0.00  0.00    -0.055 C 
ATOM     41  H   LIG d   1       4.890  -3.764  -6.146  0.00  0.00     0.024 H 
ATOM     42  H   LIG d   1       5.188  -3.539  -4.405  0.00  0.00     0.024 H 
ATOM     43  H   LIG d   1       3.527  -3.455  -5.043  0.00  0.00     0.024 H 
ENDBRANCH  11  40
BRANCH   1  44
ATOM     44  C   LIG d   1       3.392  -0.978 -11.068  0.00  0.00    -0.021 C 
ATOM     45  H   LIG d   1       3.761  -1.835 -11.631  0.00  0.00     0.034 H 
BRANCH  44  46
ATOM     46  C   LIG d   1       1.872  -0.886 -11.219  0.00  0.00    -0.059 C 
ATOM     47  H   LIG d   1       1.403  -1.011 -10.243  0.00  0.00     0.024 H 
ATOM     48  H   LIG d   1       1.605   0.088 -11.628  0.00  0.00     0.024 H 
ATOM     49  H   LIG d   1       1.525  -1.670 -11.891  0.00  0.00     0.024 H 
ENDBRANCH  44  46
BRANCH  44  50
ATOM     50  C   LIG d   1       4.036   0.301 -11.605  0.00  0.00    -0.059 C 
ATOM     51  H   LIG d   1       3.754   0.440 -12.649  0.00  0.00     0.024 H 
ATOM     52  H   LIG d   1       3.692   1.155 -11.020  0.00  0.00     0.024 H 
ATOM     53  H   LIG d   1       5.120   0.223 -11.529  0.00  0.00     0.024 H 
ENDBRANCH  44  50
ENDBRANCH   1  44
TORSDOF 7
ENDMDL
MODEL 3
REMARK VINA RESULT:      -5.5      4.004      6.834
REMARK  7 active torsions:
REMARK  status: ('A' for Active; 'I' for Inactive)
REMARK    1  A    between atoms: C_1  and  C_2 
REMARK    2  A    between atoms: C_2  and  C_3 
REMARK    3  A    between atoms: C_2  and  C_4 
REMARK    4  A    between atoms: C_14  and  C_22 
REMARK    5  A    between atoms: C_18  and  C_19 
REMARK    6  A    between atoms: C_18  and  C_20 
REMARK    7  A    between atoms: C_20  and  N_21 
ROOT
ATOM      1  C   LIG d   1       9.765  -1.223  -5.790  0.00  0.00    -0.044 A 
ATOM      2  C   LIG d   1       8.965  -2.340  -5.937  0.00  0.00    -0.058 A 
ATOM      3  C   LIG d   1       7.657  -2.313  -5.497  0.00  0.00    -0.058 A 
ATOM      4  C   LIG d   1       7.132  -1.169  -4.906  0.00  0.00    -0.038 A 
ATOM      5  C   LIG d   1       7.942  -0.073  -4.737  0.00  0.00    -0.043 A 
ATOM      6  C   LIG d   1       9.253  -0.092  -5.188  0.00  0.00    -0.055 A 
ATOM      7  C   LIG d   1       7.450   1.162  -4.028  0.00  0.00    -0.027 C 
ATOM      8  C   LIG d   1       6.304   0.747  -3.091  0.00  0.00    -0.045 C 
ATOM      9  C   LIG d   1       5.202   0.136  -3.960  0.00  0.00    -0.021 C 
ATOM     10  H   LIG d   1       5.079   0.800  -4.834  0.00  0.00     0.032 H 
ATOM     11  C   LIG d   1       5.674  -1.210  -4.484  0.00  0.00    -0.003 C 
ATOM     12  C   LIG d   1       5.559  -2.301  -3.419  0.00  0.00    -0.043 C 
ATOM     13  C   LIG d   1       4.146  -2.361  -2.846  0.00  0.00    -0.052 C 
ATOM     14  C   LIG d   1       3.816  -1.019  -2.196  0.00  0.00    -0.043 C 
ATOM     15  C   LIG d   1       3.870   0.100  -3.234  0.00  0.00     0.011 C 
ATOM     16  H   LIG d   1       9.363  -3.235  -6.393  0.00  0.00     0.062 H 
ATOM     17  H   LIG d   1       7.050  -3.199  -5.607  0.00  0.00     0.062 H 
ATOM     18  H   LIG d   1       9.879   0.781  -5.068  0.00  0.00     0.062 H 
ATOM     19  H   LIG d   1       8.253   1.595  -3.440  0.00  0.00     0.031 H 
ATOM     20  H   LIG d   1       7.077   1.878  -4.753  0.00  0.00     0.031 H 
ATOM     21  H   LIG d   1       6.675  -0.007  -2.393  0.00  0.00     0.027 H 
ATOM     22  H   LIG d   1       5.995   1.628  -2.548  0.00  0.00     0.027 H 
ATOM     23  H   LIG d   1       5.806  -3.268  -3.865  0.00  0.00     0.027 H 
ATOM     24  H   LIG d   1       6.266  -2.097  -2.613  0.00  0.00     0.027 H 
ATOM     25  H   LIG d   1       3.426  -2.607  -3.619  0.00  0.00     0.027 H 
ATOM     26  H   LIG d   1       4.108  -3.145  -2.079  0.00  0.00     0.027 H 
ATOM     27  H   LIG d   1       2.814  -1.061  -1.762  0.00  0.00     0.027 H 
ATOM     28  H   LIG d   1       4.536  -0.812  -1.401  0.00  0.00     0.027 H 
ENDROOT
BRANCH  15  29
ATOM     29  C   LIG d   1       2.703  -0.059  -4.217  0.00  0.00    -0.054 C 
ATOM     30  H   LIG d   1       1.832   0.476  -3.836  0.00  0.00     0.024 H 
ATOM     31  H   LIG d   1       2.984   0.352  -5.186  0.00  0.00     0.024 H 
ATOM     32  H   LIG d   1       2.460  -1.115  -4.327  0.00  0.00     0.024 H 
ENDBRANCH  15  29
BRANCH  15  33
ATOM     33  C   LIG d   1       3.622   1.433  -2.502  0.00  0.00    -0.030 C 
ATOM     34  H   LIG d   1       2.803   1.311  -1.794  0.00  0.00     0.082 H 
ATOM     35  H   LIG d   1       4.525   1.726  -1.966  0.00  0.00     0.082 H 
BRANCH  33  36
ATOM     36  N   LIG d   1       3.275   2.472  -3.480  0.00  0.00     0.219 N 
ATOM     37  H   LIG d   1       2.368   2.273  -3.875  0.00  0.00     0.199 HD
ATOM     38  H   LIG d   1       3.252   3.371  -3.021  0.00  0.00     0.199 HD
ATOM     39  H   LIG d   1       3.966   2.487  -4.214  0.00  0.00     0.199 HD
ENDBRANCH  33  36
ENDBRANCH  15  33
BRANCH  11  40
ATOM     40  C   LIG d   1       4.877  -1.621  -5.731  0.00  0.00    -0.055 C 
ATOM     41  H   LIG d   1       5.459  -1.399  -6.625  0.00  0.00     0.024 H 
ATOM     42  H   LIG d   1       4.667  -2.690  -5.691  0.00  0.00     0.024 H 
ATOM     43  H   LIG d   1       3.939  -1.067  -5.761  0.00  0.00     0.024 H 
ENDBRANCH  11  40
BRANCH   1  44
ATOM     44  C   LIG d   1      11.190  -1.240  -6.280  0.00  0.00    -0.021 C 
ATOM     45  H   LIG d   1      11.200  -1.204  -7.369  0.00  0.00     0.034 H 
BRANCH  44  46
ATOM     46  C   LIG d   1      11.935  -0.025  -5.723  0.00  0.00    -0.059 C 
ATOM     47  H   LIG d   1      13.006  -0.152  -5.883  0.00  0.00     0.024 H 
ATOM     48  H   LIG d   1      11.595   0.875  -6.235  0.00  0.00     0.024 H 
ATOM     49  H   LIG d   1      11.735   0.066  -4.656  0.00  0.00     0.024 H 
ENDBRANCH  44  46
BRANCH  44  50
ATOM     50  C   LIG d   1      11.877  -2.522  -5.805  0.00  0.00    -0.059 C 
ATOM     51  H   LIG d   1      12.627  -2.275  -5.054  0.00  0.00     0.024 H 
ATOM     52  H   LIG d   1      11.134  -3.193  -5.371  0.00  0.00     0.024 H 
ATOM     53  H   LIG d   1      12.357  -3.012  -6.652  0.00  0.00     0.024 H 
ENDBRANCH  44  50
ENDBRANCH   1  44
TORSDOF 7
ENDMDL
MODEL 4
REMARK VINA RESULT:      -5.2      4.699      5.923
REMARK  7 active torsions:
REMARK  status: ('A' for Active; 'I' for Inactive)
REMARK    1  A    between atoms: C_1  and  C_2 
REMARK    2  A    between atoms: C_2  and  C_3 
REMARK    3  A    between atoms: C_2  and  C_4 
REMARK    4  A    between atoms: C_14  and  C_22 
REMARK    5  A    between atoms: C_18  and  C_19 
REMARK    6  A    between atoms: C_18  and  C_20 
REMARK    7  A    between atoms: C_20  and  N_21 
ROOT
ATOM      1  C   LIG d   1       5.671  -0.578  -3.018  0.00  0.00    -0.044 A 
ATOM      2  C   LIG d   1       6.113  -1.655  -3.763  0.00  0.00    -0.058 A 
ATOM      3  C   LIG d   1       7.194  -1.509  -4.610  0.00  0.00    -0.058 A 
ATOM      4  C   LIG d   1       7.846  -0.286  -4.722  0.00  0.00    -0.038 A 
ATOM      5  C   LIG d   1       7.381   0.787  -4.001  0.00  0.00    -0.043 A 
ATOM      6  C   LIG d   1       6.304   0.642  -3.140  0.00  0.00    -0.055 A 
ATOM      7  C   LIG d   1       7.997   2.154  -4.148  0.00  0.00    -0.027 C 
ATOM      8  C   LIG d   1       8.660   2.230  -5.532  0.00  0.00    -0.045 C 
ATOM      9  C   LIG d   1       9.730   1.137  -5.588  0.00  0.00    -0.021 C 
ATOM     10  H   LIG d   1      10.282   1.181  -4.632  0.00  0.00     0.032 H 
ATOM     11  C   LIG d   1       9.048  -0.221  -5.647  0.00  0.00    -0.003 C 
ATOM     12  C   LIG d   1       8.534  -0.531  -7.053  0.00  0.00    -0.043 C 
ATOM     13  C   LIG d   1       9.647  -0.392  -8.087  0.00  0.00    -0.052 C 
ATOM     14  C   LIG d   1      10.163   1.045  -8.071  0.00  0.00    -0.043 C 
ATOM     15  C   LIG d   1      10.733   1.388  -6.697  0.00  0.00     0.011 C 
ATOM     16  H   LIG d   1       5.613  -2.609  -3.685  0.00  0.00     0.062 H 
ATOM     17  H   LIG d   1       7.518  -2.357  -5.195  0.00  0.00     0.062 H 
ATOM     18  H   LIG d   1       5.956   1.485  -2.562  0.00  0.00     0.062 H 
ATOM     19  H   LIG d   1       7.227   2.915  -4.078  0.00  0.00     0.031 H 
ATOM     20  H   LIG d   1       8.751   2.302  -3.382  0.00  0.00     0.031 H 
ATOM     21  H   LIG d   1       7.903   2.036  -6.296  0.00  0.00     0.027 H 
ATOM     22  H   LIG d   1       9.051   3.230  -5.649  0.00  0.00     0.027 H 
ATOM     23  H   LIG d   1       8.148  -1.554  -7.078  0.00  0.00     0.027 H 
ATOM     24  H   LIG d   1       7.722   0.155  -7.302  0.00  0.00     0.027 H 
ATOM     25  H   LIG d   1      10.449  -1.095  -7.889  0.00  0.00     0.027 H 
ATOM     26  H   LIG d   1       9.237  -0.611  -9.081  0.00  0.00     0.027 H 
ATOM     27  H   LIG d   1      10.945   1.160  -8.826  0.00  0.00     0.027 H 
ATOM     28  H   LIG d   1       9.344   1.729  -8.306  0.00  0.00     0.027 H 
ENDROOT
BRANCH  15  29
ATOM     29  C   LIG d   1      12.028   0.597  -6.470  0.00  0.00    -0.054 C 
ATOM     30  H   LIG d   1      11.829  -0.242  -5.804  0.00  0.00     0.024 H 
ATOM     31  H   LIG d   1      12.398   0.223  -7.424  0.00  0.00     0.024 H 
ATOM     32  H   LIG d   1      12.778   1.248  -6.020  0.00  0.00     0.024 H 
ENDBRANCH  15  29
BRANCH  15  33
ATOM     33  C   LIG d   1      11.148   2.872  -6.718  0.00  0.00    -0.030 C 
ATOM     34  H   LIG d   1      11.488   3.141  -7.718  0.00  0.00     0.082 H 
ATOM     35  H   LIG d   1      10.294   3.492  -6.446  0.00  0.00     0.082 H 
BRANCH  33  36
ATOM     36  N   LIG d   1      12.237   3.090  -5.755  0.00  0.00     0.219 N 
ATOM     37  H   LIG d   1      12.396   2.243  -5.230  0.00  0.00     0.199 HD
ATOM     38  H   LIG d   1      13.079   3.341  -6.252  0.00  0.00     0.199 HD
ATOM     39  H   LIG d   1      11.984   3.835  -5.125  0.00  0.00     0.199 HD
ENDBRANCH  33  36
ENDBRANCH  15  33
BRANCH  11  40
ATOM     40  C   LIG d   1      10.003  -1.333  -5.190  0.00  0.00    -0.055 C 
ATOM     41  H   LIG d   1       9.454  -2.063  -4.597  0.00  0.00     0.024 H 
ATOM     42  H   LIG d   1      10.433  -1.823  -6.063  0.00  0.00     0.024 H 
ATOM     43  H   LIG d   1      10.801  -0.901  -4.586  0.00  0.00     0.024 H 
ENDBRANCH  11  40
BRANCH   1  44
ATOM     44  C   LIG d   1       4.500  -0.733  -2.082  0.00  0.00    -0.021 C 
ATOM     45  H   LIG d   1       4.854  -0.707  -1.051  0.00  0.00     0.034 H 
BRANCH  44  46
ATOM     46  C   LIG d   1       3.510   0.411  -2.310  0.00  0.00    -0.059 C 
ATOM     47  H   LIG d   1       2.496   0.052  -2.137  0.00  0.00     0.024 H 
ATOM     48  H   LIG d   1       3.731   1.225  -1.620  0.00  0.00     0.024 H 
ATOM     49  H   LIG d   1       3.599   0.770  -3.335  0.00  0.00     0.024 H 
ENDBRANCH  44  46
BRANCH  44  50
ATOM     50  C   LIG d   1       3.806  -2.070  -2.350  0.00  0.00    -0.059 C 
ATOM     51  H   LIG d   1       4.383  -2.876  -1.896  0.00  0.00     0.024 H 
ATOM     52  H   LIG d   1       2.805  -2.052  -1.918  0.00  0.00     0.024 H 
ATOM     53  H   LIG d   1       3.735  -2.233  -3.425  0.00  0.00     0.024 H 
ENDBRANCH  44  50
ENDBRANCH   1  44
TORSDOF 7
ENDMDL
MODEL 5
REMARK VINA RESULT:      -5.1      2.915      7.474
REMARK  7 active torsions:
REMARK  status: ('A' for Active; 'I' for Inactive)
REMARK    1  A    between atoms: C_1  and  C_2 
REMARK    2  A    between atoms: C_2  and  C_3 
REMARK    3  A    between atoms: C_2  and  C_4 
REMARK    4  A    between atoms: C_14  and  C_22 
REMARK    5  A    between atoms: C_18  and  C_19 
REMARK    6  A    between atoms: C_18  and  C_20 
REMARK    7  A    between atoms: C_20  and  N_21 
ROOT
ATOM      1  C   LIG d   1       2.696  -1.887 -14.132  0.00  0.00    -0.044 A 
ATOM      2  C   LIG d   1       3.753  -0.996 -14.143  0.00  0.00    -0.058 A 
ATOM      3  C   LIG d   1       4.141  -0.374 -12.973  0.00  0.00    -0.058 A 
ATOM      4  C   LIG d   1       3.478  -0.635 -11.779  0.00  0.00    -0.038 A 
ATOM      5  C   LIG d   1       2.410  -1.498 -11.782  0.00  0.00    -0.043 A 
ATOM      6  C   LIG d   1       2.024  -2.134 -12.953  0.00  0.00    -0.055 A 
ATOM      7  C   LIG d   1       1.605  -1.752 -10.535  0.00  0.00    -0.027 C 
ATOM      8  C   LIG d   1       1.763  -0.534  -9.611  0.00  0.00    -0.045 C 
ATOM      9  C   LIG d   1       3.252  -0.398  -9.285  0.00  0.00    -0.021 C 
ATOM     10  H   LIG d   1       3.621  -1.411  -9.045  0.00  0.00     0.032 H 
ATOM     11  C   LIG d   1       3.992   0.062 -10.532  0.00  0.00    -0.003 C 
ATOM     12  C   LIG d   1       3.817   1.563 -10.767  0.00  0.00    -0.043 C 
ATOM     13  C   LIG d   1       4.209   2.361  -9.528  0.00  0.00    -0.052 C 
ATOM     14  C   LIG d   1       3.308   1.951  -8.366  0.00  0.00    -0.043 C 
ATOM     15  C   LIG d   1       3.483   0.465  -8.059  0.00  0.00     0.011 C 
ATOM     16  H   LIG d   1       4.273  -0.784 -15.066  0.00  0.00     0.062 H 
ATOM     17  H   LIG d   1       4.959   0.330 -13.001  0.00  0.00     0.062 H 
ATOM     18  H   LIG d   1       1.195  -2.826 -12.944  0.00  0.00     0.062 H 
ATOM     19  H   LIG d   1       0.557  -1.873 -10.790  0.00  0.00     0.031 H 
ATOM     20  H   LIG d   1       1.979  -2.636 -10.029  0.00  0.00     0.031 H 
ATOM     21  H   LIG d   1       1.425   0.358 -10.143  0.00  0.00     0.027 H 
ATOM     22  H   LIG d   1       1.140  -0.702  -8.745  0.00  0.00     0.027 H 
ATOM     23  H   LIG d   1       4.447   1.871 -11.606  0.00  0.00     0.027 H 
ATOM     24  H   LIG d   1       2.775   1.772 -11.016  0.00  0.00     0.027 H 
ATOM     25  H   LIG d   1       5.254   2.207  -9.283  0.00  0.00     0.027 H 
ATOM     26  H   LIG d   1       4.058   3.429  -9.732  0.00  0.00     0.027 H 
ATOM     27  H   LIG d   1       3.565   2.536  -7.480  0.00  0.00     0.027 H 
ATOM     28  H   LIG d   1       2.265   2.147  -8.626  0.00  0.00     0.027 H 
ENDROOT
BRANCH  15  29
ATOM     29  C   LIG d   1       4.876   0.228  -7.463  0.00  0.00    -0.054 C 
ATOM     30  H   LIG d   1       5.176   1.101  -6.884  0.00  0.00     0.024 H 
ATOM     31  H   LIG d   1       4.850  -0.646  -6.812  0.00  0.00     0.024 H 
ATOM     32  H   LIG d   1       5.593   0.061  -8.266  0.00  0.00     0.024 H 
ENDBRANCH  15  29
BRANCH  15  33
ATOM     33  C   LIG d   1       2.483   0.094  -6.947  0.00  0.00    -0.030 C 
ATOM     34  H   LIG d   1       1.948   0.987  -6.626  0.00  0.00     0.082 H 
ATOM     35  H   LIG d   1       1.771  -0.638  -7.329  0.00  0.00     0.082 H 
BRANCH  33  36
ATOM     36  N   LIG d   1       3.210  -0.480  -5.806  0.00  0.00     0.219 N 
ATOM     37  H   LIG d   1       2.563  -0.979  -5.212  0.00  0.00     0.199 HD
ATOM     38  H   LIG d   1       3.916  -1.118  -6.144  0.00  0.00     0.199 HD
ATOM     39  H   LIG d   1       3.648   0.260  -5.280  0.00  0.00     0.199 HD
ENDBRANCH  33  36
ENDBRANCH  15  33
BRANCH  11  40
ATOM     40  C   LIG d   1       5.487  -0.274 -10.436  0.00  0.00    -0.055 C 
ATOM     41  H   LIG d   1       5.608  -1.336 -10.223  0.00  0.00     0.024 H 
ATOM     42  H   LIG d   1       5.974  -0.035 -11.381  0.00  0.00     0.024 H 
ATOM     43  H   LIG d   1       5.940   0.311  -9.635  0.00  0.00     0.024 H 
ENDBRANCH  11  40
BRANCH   1  44
ATOM     44  C   LIG d   1       2.275  -2.579 -15.402  0.00  0.00    -0.021 C 
ATOM     45  H   LIG d   1       2.481  -1.932 -16.255  0.00  0.00     0.034 H 
BRANCH  44  46
ATOM     46  C   LIG d   1       3.059  -3.885 -15.554  0.00  0.00    -0.059 C 
ATOM     47  H   LIG d   1       3.123  -4.148 -16.610  0.00  0.00     0.024 H 
ATOM     48  H   LIG d   1       4.063  -3.755 -15.150  0.00  0.00     0.024 H 
ATOM     49  H   LIG d   1       2.548  -4.681 -15.013  0.00  0.00     0.024 H 
ENDBRANCH  44  46
BRANCH  44  50
ATOM     50  C   LIG d   1       0.778  -2.886 -15.344  0.00  0.00    -0.059 C 
ATOM     51  H   LIG d   1       0.615  -3.791 -14.757  0.00  0.00     0.024 H 
ATOM     52  H   LIG d   1       0.253  -2.051 -14.878  0.00  0.00     0.024 H 
ATOM     53  H   LIG d   1       0.397  -3.035 -16.355  0.00  0.00     0.024 H 
ENDBRANCH  44  50
ENDBRANCH   1  44
TORSDOF 7
ENDMDL
MODEL 6
REMARK VINA RESULT:      -5.0      4.445      6.078
REMARK  7 active torsions:
REMARK  status: ('A' for Active; 'I' for Inactive)
REMARK    1  A    between atoms: C_1  and  C_2 
REMARK    2  A    between atoms: C_2  and  C_3 
REMARK    3  A    between atoms: C_2  and  C_4 
REMARK    4  A    between atoms: C_14  and  C_22 
REMARK    5  A    between atoms: C_18  and  C_19 
REMARK    6  A    between atoms: C_18  and  C_20 
REMARK    7  A    between atoms: C_20  and  N_21 
ROOT
ATOM      1  C   LIG d   1       5.057  -0.355  -3.656  0.00  0.00    -0.044 A 
ATOM      2  C   LIG d   1       4.268  -0.907  -4.648  0.00  0.00    -0.058 A 
ATOM      3  C   LIG d   1       4.636  -2.101  -5.235  0.00  0.00    -0.058 A 
ATOM      4  C   LIG d   1       5.796  -2.758  -4.838  0.00  0.00    -0.038 A 
ATOM      5  C   LIG d   1       6.590  -2.187  -3.873  0.00  0.00    -0.043 A 
ATOM      6  C   LIG d   1       6.218  -0.994  -3.272  0.00  0.00    -0.055 A 
ATOM      7  C   LIG d   1       7.898  -2.813  -3.465  0.00  0.00    -0.027 C 
ATOM      8  C   LIG d   1       8.398  -3.675  -4.636  0.00  0.00    -0.045 C 
ATOM      9  C   LIG d   1       7.337  -4.745  -4.901  0.00  0.00    -0.021 C 
ATOM     10  H   LIG d   1       7.036  -5.148  -3.918  0.00  0.00     0.032 H 
ATOM     11  C   LIG d   1       6.108  -4.084  -5.507  0.00  0.00    -0.003 C 
ATOM     12  C   LIG d   1       6.305  -3.786  -6.994  0.00  0.00    -0.043 C 
ATOM     13  C   LIG d   1       6.727  -5.041  -7.753  0.00  0.00    -0.052 C 
ATOM     14  C   LIG d   1       8.053  -5.544  -7.185  0.00  0.00    -0.043 C 
ATOM     15  C   LIG d   1       7.894  -5.901  -5.709  0.00  0.00     0.011 C 
ATOM     16  H   LIG d   1       3.367  -0.404  -4.966  0.00  0.00     0.062 H 
ATOM     17  H   LIG d   1       4.017  -2.512  -6.018  0.00  0.00     0.062 H 
ATOM     18  H   LIG d   1       6.837  -0.561  -2.501  0.00  0.00     0.062 H 
ATOM     19  H   LIG d   1       8.628  -2.038  -3.254  0.00  0.00     0.031 H 
ATOM     20  H   LIG d   1       7.749  -3.444  -2.595  0.00  0.00     0.031 H 
ATOM     21  H   LIG d   1       8.503  -3.041  -5.519  0.00  0.00     0.027 H 
ATOM     22  H   LIG d   1       9.361  -4.075  -4.354  0.00  0.00     0.027 H 
ATOM     23  H   LIG d   1       5.368  -3.412  -7.414  0.00  0.00     0.027 H 
ATOM     24  H   LIG d   1       7.072  -3.019  -7.111  0.00  0.00     0.027 H 
ATOM     25  H   LIG d   1       5.962  -5.806  -7.690  0.00  0.00     0.027 H 
ATOM     26  H   LIG d   1       6.870  -4.784  -8.811  0.00  0.00     0.027 H 
ATOM     27  H   LIG d   1       8.375  -6.428  -7.739  0.00  0.00     0.027 H 
ATOM     28  H   LIG d   1       8.813  -4.766  -7.290  0.00  0.00     0.027 H 
ENDROOT
BRANCH  15  29
ATOM     29  C   LIG d   1       7.014  -7.151  -5.578  0.00  0.00    -0.054 C 
ATOM     30  H   LIG d   1       7.590  -7.955  -5.121  0.00  0.00     0.024 H 
ATOM     31  H   LIG d   1       6.150  -6.924  -4.954  0.00  0.00     0.024 H 
ATOM     32  H   LIG d   1       6.676  -7.463  -6.566  0.00  0.00     0.024 H 
ENDBRANCH  15  29
BRANCH  15  33
ATOM     33  C   LIG d   1       9.281  -6.309  -5.173  0.00  0.00    -0.030 C 
ATOM     34  H   LIG d   1       9.839  -6.817  -5.959  0.00  0.00     0.082 H 
ATOM     35  H   LIG d   1       9.825  -5.418  -4.858  0.00  0.00     0.082 H 
BRANCH  33  36
ATOM     36  N   LIG d   1       9.116  -7.212  -4.026  0.00  0.00     0.219 N 
ATOM     37  H   LIG d   1       8.359  -6.883  -3.445  0.00  0.00     0.199 HD
ATOM     38  H   LIG d   1       8.906  -8.142  -4.357  0.00  0.00     0.199 HD
ATOM     39  H   LIG d   1       9.969  -7.231  -3.488  0.00  0.00     0.199 HD
ENDBRANCH  33  36
ENDBRANCH  15  33
BRANCH  11  40
ATOM     40  C   LIG d   1       4.864  -4.965  -5.318  0.00  0.00    -0.055 C 
ATOM     41  H   LIG d   1       4.962  -5.539  -4.397  0.00  0.00     0.024 H 
ATOM     42  H   LIG d   1       3.978  -4.333  -5.261  0.00  0.00     0.024 H 
ATOM     43  H   LIG d   1       4.771  -5.647  -6.164  0.00  0.00     0.024 H 
ENDBRANCH  11  40
BRANCH   1  44
ATOM     44  C   LIG d   1       4.655   0.942  -3.001  0.00  0.00    -0.021 C 
ATOM     45  H   LIG d   1       5.355   1.726  -3.289  0.00  0.00     0.034 H 
BRANCH  44  46
ATOM     46  C   LIG d   1       3.245   1.326  -3.455  0.00  0.00    -0.059 C 
ATOM     47  H   LIG d   1       2.918   2.212  -2.911  0.00  0.00     0.024 H 
ATOM     48  H   LIG d   1       3.253   1.539  -4.525  0.00  0.00     0.024 H 
ATOM     49  H   LIG d   1       2.561   0.503  -3.253  0.00  0.00     0.024 H 
ENDBRANCH  44  46
BRANCH  44  50
ATOM     50  C   LIG d   1       4.673   0.773  -1.481  0.00  0.00    -0.059 C 
ATOM     51  H   LIG d   1       5.537   1.293  -1.068  0.00  0.00     0.024 H 
ATOM     52  H   LIG d   1       3.760   1.192  -1.058  0.00  0.00     0.024 H 
ATOM     53  H   LIG d   1       4.735  -0.287  -1.234  0.00  0.00     0.024 H 
ENDBRANCH  44  50
ENDBRANCH   1  44
TORSDOF 7
ENDMDL
MODEL 7
REMARK VINA RESULT:      -4.9      2.471      6.289
REMARK  7 active torsions:
REMARK  status: ('A' for Active; 'I' for Inactive)
REMARK    1  A    between atoms: C_1  and  C_2 
REMARK    2  A    between atoms: C_2  and  C_3 
REMARK    3  A    between atoms: C_2  and  C_4 
REMARK    4  A    between atoms: C_14  and  C_22 
REMARK    5  A    between atoms: C_18  and  C_19 
REMARK    6  A    between atoms: C_18  and  C_20 
REMARK    7  A    between atoms: C_20  and  N_21 
ROOT
ATOM      1  C   LIG d   1       3.426  -0.171  -9.858  0.00  0.00    -0.044 A 
ATOM      2  C   LIG d   1       2.534  -0.714  -8.952  0.00  0.00    -0.058 A 
ATOM      3  C   LIG d   1       2.887  -0.825  -7.622  0.00  0.00    -0.058 A 
ATOM      4  C   LIG d   1       4.133  -0.394  -7.181  0.00  0.00    -0.038 A 
ATOM      5  C   LIG d   1       5.024   0.117  -8.093  0.00  0.00    -0.043 A 
ATOM      6  C   LIG d   1       4.670   0.241  -9.428  0.00  0.00    -0.055 A 
ATOM      7  C   LIG d   1       6.417   0.520  -7.685  0.00  0.00    -0.027 C 
ATOM      8  C   LIG d   1       6.790  -0.271  -6.422  0.00  0.00    -0.045 C 
ATOM      9  C   LIG d   1       5.773   0.092  -5.337  0.00  0.00    -0.021 C 
ATOM     10  H   LIG d   1       5.651   1.190  -5.368  0.00  0.00     0.032 H 
ATOM     11  C   LIG d   1       4.427  -0.517  -5.697  0.00  0.00    -0.003 C 
ATOM     12  C   LIG d   1       4.379  -2.009  -5.365  0.00  0.00    -0.043 C 
ATOM     13  C   LIG d   1       4.763  -2.260  -3.910  0.00  0.00    -0.052 C 
ATOM     14  C   LIG d   1       6.188  -1.763  -3.679  0.00  0.00    -0.043 C 
ATOM     15  C   LIG d   1       6.278  -0.264  -3.952  0.00  0.00     0.011 C 
ATOM     16  H   LIG d   1       1.564  -1.054  -9.284  0.00  0.00     0.062 H 
ATOM     17  H   LIG d   1       2.185  -1.265  -6.930  0.00  0.00     0.062 H 
ATOM     18  H   LIG d   1       5.369   0.661 -10.136  0.00  0.00     0.062 H 
ATOM     19  H   LIG d   1       7.118   0.280  -8.478  0.00  0.00     0.031 H 
ATOM     20  H   LIG d   1       6.442   1.582  -7.462  0.00  0.00     0.031 H 
ATOM     21  H   LIG d   1       6.720  -1.339  -6.642  0.00  0.00     0.027 H 
ATOM     22  H   LIG d   1       7.809  -0.015  -6.169  0.00  0.00     0.027 H 
ATOM     23  H   LIG d   1       3.366  -2.384  -5.538  0.00  0.00     0.027 H 
ATOM     24  H   LIG d   1       5.068  -2.548  -6.018  0.00  0.00     0.027 H 
ATOM     25  H   LIG d   1       4.067  -1.771  -3.237  0.00  0.00     0.027 H 
ATOM     26  H   LIG d   1       4.728  -3.340  -3.715  0.00  0.00     0.027 H 
ATOM     27  H   LIG d   1       6.481  -1.962  -2.645  0.00  0.00     0.027 H 
ATOM     28  H   LIG d   1       6.872  -2.295  -4.346  0.00  0.00     0.027 H 
ENDROOT
BRANCH  15  29
ATOM     29  C   LIG d   1       5.510   0.499  -2.864  0.00  0.00    -0.054 C 
ATOM     30  H   LIG d   1       6.017   0.375  -1.908  0.00  0.00     0.024 H 
ATOM     31  H   LIG d   1       5.472   1.558  -3.120  0.00  0.00     0.024 H 
ATOM     32  H   LIG d   1       4.496   0.106  -2.791  0.00  0.00     0.024 H 
ENDBRANCH  15  29
BRANCH  15  33
ATOM     33  C   LIG d   1       7.752   0.156  -3.795  0.00  0.00    -0.030 C 
ATOM     34  H   LIG d   1       8.167  -0.306  -2.899  0.00  0.00     0.082 H 
ATOM     35  H   LIG d   1       8.318  -0.172  -4.667  0.00  0.00     0.082 H 
BRANCH  33  36
ATOM     36  N   LIG d   1       7.836   1.618  -3.678  0.00  0.00     0.219 N 
ATOM     37  H   LIG d   1       8.793   1.886  -3.501  0.00  0.00     0.199 HD
ATOM     38  H   LIG d   1       7.522   2.042  -4.538  0.00  0.00     0.199 HD
ATOM     39  H   LIG d   1       7.254   1.928  -2.916  0.00  0.00     0.199 HD
ENDBRANCH  33  36
ENDBRANCH  15  33
BRANCH  11  40
ATOM     40  C   LIG d   1       3.286   0.210  -4.970  0.00  0.00    -0.055 C 
ATOM     41  H   LIG d   1       2.645  -0.521  -4.478  0.00  0.00     0.024 H 
ATOM     42  H   LIG d   1       3.704   0.888  -4.226  0.00  0.00     0.024 H 
ATOM     43  H   LIG d   1       2.701   0.779  -5.692  0.00  0.00     0.024 H 
ENDBRANCH  11  40
BRANCH   1  44
ATOM     44  C   LIG d   1       3.043  -0.034 -11.309  0.00  0.00    -0.021 C 
ATOM     45  H   LIG d   1       2.540   0.920 -11.464  0.00  0.00     0.034 H 
BRANCH  44  46
ATOM     46  C   LIG d   1       4.303  -0.093 -12.176  0.00  0.00    -0.059 C 
ATOM     47  H   LIG d   1       4.495   0.892 -12.602  0.00  0.00     0.024 H 
ATOM     48  H   LIG d   1       5.152  -0.396 -11.563  0.00  0.00     0.024 H 
ATOM     49  H   LIG d   1       4.158  -0.814 -12.980  0.00  0.00     0.024 H 
ENDBRANCH  44  46
BRANCH  44  50
ATOM     50  C   LIG d   1       2.102  -1.176 -11.699  0.00  0.00    -0.059 C 
ATOM     51  H   LIG d   1       1.481  -1.443 -10.844  0.00  0.00     0.024 H 
ATOM     52  H   LIG d   1       1.466  -0.857 -12.525  0.00  0.00     0.024 H 
ATOM     53  H   LIG d   1       2.689  -2.042 -12.007  0.00  0.00     0.024 H 
ENDBRANCH  44  50
ENDBRANCH   1  44
TORSDOF 7
ENDMDL
MODEL 8
REMARK VINA RESULT:      -4.9      8.891     10.849
REMARK  7 active torsions:
REMARK  status: ('A' for Active; 'I' for Inactive)
REMARK    1  A    between atoms: C_1  and  C_2 
REMARK    2  A    between atoms: C_2  and  C_3 
REMARK    3  A    between atoms: C_2  and  C_4 
REMARK    4  A    between atoms: C_14  and  C_22 
REMARK    5  A    between atoms: C_18  and  C_19 
REMARK    6  A    between atoms: C_18  and  C_20 
REMARK    7  A    between atoms: C_20  and  N_21 
ROOT
ATOM      1  C   LIG d   1       9.493   3.226  -4.029  0.00  0.00    -0.044 A 
ATOM      2  C   LIG d   1      10.136   3.369  -2.814  0.00  0.00    -0.058 A 
ATOM      3  C   LIG d   1      10.442   4.629  -2.340  0.00  0.00    -0.058 A 
ATOM      4  C   LIG d   1      10.108   5.761  -3.075  0.00  0.00    -0.038 A 
ATOM      5  C   LIG d   1       9.496   5.610  -4.295  0.00  0.00    -0.043 A 
ATOM      6  C   LIG d   1       9.177   4.346  -4.769  0.00  0.00    -0.055 A 
ATOM      7  C   LIG d   1       9.189   6.798  -5.169  0.00  0.00    -0.027 C 
ATOM      8  C   LIG d   1      10.160   7.928  -4.793  0.00  0.00    -0.045 C 
ATOM      9  C   LIG d   1       9.927   8.258  -3.317  0.00  0.00    -0.021 C 
ATOM     10  H   LIG d   1       8.833   8.304  -3.168  0.00  0.00     0.032 H 
ATOM     11  C   LIG d   1      10.446   7.110  -2.466  0.00  0.00    -0.003 C 
ATOM     12  C   LIG d   1      11.968   7.157  -2.326  0.00  0.00    -0.043 C 
ATOM     13  C   LIG d   1      12.430   8.518  -1.815  0.00  0.00    -0.052 C 
ATOM     14  C   LIG d   1      12.007   9.594  -2.812  0.00  0.00    -0.043 C 
ATOM     15  C   LIG d   1      10.487   9.619  -2.950  0.00  0.00     0.011 C 
ATOM     16  H   LIG d   1      10.401   2.495  -2.236  0.00  0.00     0.062 H 
ATOM     17  H   LIG d   1      10.957   4.722  -1.396  0.00  0.00     0.062 H 
ATOM     18  H   LIG d   1       8.679   4.236  -5.721  0.00  0.00     0.062 H 
ATOM     19  H   LIG d   1       9.333   6.535  -6.213  0.00  0.00     0.031 H 
ATOM     20  H   LIG d   1       8.170   7.129  -4.996  0.00  0.00     0.031 H 
ATOM     21  H   LIG d   1      11.184   7.573  -4.929  0.00  0.00     0.027 H 
ATOM     22  H   LIG d   1       9.967   8.755  -5.461  0.00  0.00     0.027 H 
ATOM     23  H   LIG d   1      12.290   6.382  -1.624  0.00  0.00     0.027 H 
ATOM     24  H   LIG d   1      12.427   6.961  -3.297  0.00  0.00     0.027 H 
ATOM     25  H   LIG d   1      12.024   8.719  -0.830  0.00  0.00     0.027 H 
ATOM     26  H   LIG d   1      13.526   8.515  -1.741  0.00  0.00     0.027 H 
ATOM     27  H   LIG d   1      12.356  10.569  -2.466  0.00  0.00     0.027 H 
ATOM     28  H   LIG d   1      12.456   9.385  -3.787  0.00  0.00     0.027 H 
ENDROOT
BRANCH  15  29
ATOM     29  C   LIG d   1       9.866  10.148  -1.651  0.00  0.00    -0.054 C 
ATOM     30  H   LIG d   1       8.791  10.270  -1.785  0.00  0.00     0.024 H 
ATOM     31  H   LIG d   1      10.052   9.439  -0.844  0.00  0.00     0.024 H 
ATOM     32  H   LIG d   1      10.311  11.110  -1.400  0.00  0.00     0.024 H 
ENDBRANCH  15  29
BRANCH  15  33
ATOM     33  C   LIG d   1      10.131  10.655  -4.035  0.00  0.00    -0.030 C 
ATOM     34  H   LIG d   1      10.759  11.537  -3.916  0.00  0.00     0.082 H 
ATOM     35  H   LIG d   1      10.298  10.220  -5.021  0.00  0.00     0.082 H 
BRANCH  33  36
ATOM     36  N   LIG d   1       8.718  11.037  -3.903  0.00  0.00     0.219 N 
ATOM     37  H   LIG d   1       8.277  10.460  -3.202  0.00  0.00     0.199 HD
ATOM     38  H   LIG d   1       8.657  12.006  -3.626  0.00  0.00     0.199 HD
ATOM     39  H   LIG d   1       8.251  10.910  -4.787  0.00  0.00     0.199 HD
ENDBRANCH  33  36
ENDBRANCH  15  33
BRANCH  11  40
ATOM     40  C   LIG d   1       9.800   7.127  -1.072  0.00  0.00    -0.055 C 
ATOM     41  H   LIG d   1      10.051   8.059  -0.567  0.00  0.00     0.024 H 
ATOM     42  H   LIG d   1       8.717   7.048  -1.173  0.00  0.00     0.024 H 
ATOM     43  H   LIG d   1      10.173   6.285  -0.489  0.00  0.00     0.024 H 
ENDBRANCH  11  40
BRANCH   1  44
ATOM     44  C   LIG d   1       9.144   1.854  -4.546  0.00  0.00    -0.021 C 
ATOM     45  H   LIG d   1       9.964   1.167  -4.336  0.00  0.00     0.034 H 
BRANCH  44  46
ATOM     46  C   LIG d   1       7.874   1.356  -3.853  0.00  0.00    -0.059 C 
ATOM     47  H   LIG d   1       8.064   1.241  -2.786  0.00  0.00     0.024 H 
ATOM     48  H   LIG d   1       7.071   2.079  -4.003  0.00  0.00     0.024 H 
ATOM     49  H   LIG d   1       7.582   0.395  -4.275  0.00  0.00     0.024 H 
ENDBRANCH  44  46
BRANCH  44  50
ATOM     50  C   LIG d   1       8.909   1.923  -6.056  0.00  0.00    -0.059 C 
ATOM     51  H   LIG d   1       9.144   0.958  -6.505  0.00  0.00     0.024 H 
ATOM     52  H   LIG d   1       7.864   2.168  -6.250  0.00  0.00     0.024 H 
ATOM     53  H   LIG d   1       9.548   2.692  -6.489  0.00  0.00     0.024 H 
ENDBRANCH  44  50
ENDBRANCH   1  44
TORSDOF 7
ENDMDL
MODEL 9
REMARK VINA RESULT:      -4.9      9.019     10.137
REMARK  7 active torsions:
REMARK  status: ('A' for Active; 'I' for Inactive)
REMARK    1  A    between atoms: C_1  and  C_2 
REMARK    2  A    between atoms: C_2  and  C_3 
REMARK    3  A    between atoms: C_2  and  C_4 
REMARK    4  A    between atoms: C_14  and  C_22 
REMARK    5  A    between atoms: C_18  and  C_19 
REMARK    6  A    between atoms: C_18  and  C_20 
REMARK    7  A    between atoms: C_20  and  N_21 
ROOT
ATOM      1  C   LIG d   1      10.530   7.184  -1.309  0.00  0.00    -0.044 A 
ATOM      2  C   LIG d   1      10.965   8.411  -1.772  0.00  0.00    -0.058 A 
ATOM      3  C   LIG d   1      10.881   8.709  -3.117  0.00  0.00    -0.058 A 
ATOM      4  C   LIG d   1      10.360   7.784  -4.015  0.00  0.00    -0.038 A 
ATOM      5  C   LIG d   1       9.958   6.556  -3.552  0.00  0.00    -0.043 A 
ATOM      6  C   LIG d   1      10.030   6.257  -2.199  0.00  0.00    -0.055 A 
ATOM      7  C   LIG d   1       9.464   5.487  -4.492  0.00  0.00    -0.027 C 
ATOM      8  C   LIG d   1      10.062   5.763  -5.881  0.00  0.00    -0.045 C 
ATOM      9  C   LIG d   1       9.579   7.147  -6.320  0.00  0.00    -0.021 C 
ATOM     10  H   LIG d   1       8.500   7.198  -6.088  0.00  0.00     0.032 H 
ATOM     11  C   LIG d   1      10.268   8.204  -5.471  0.00  0.00    -0.003 C 
ATOM     12  C   LIG d   1      11.700   8.459  -5.943  0.00  0.00    -0.043 C 
ATOM     13  C   LIG d   1      11.736   8.791  -7.432  0.00  0.00    -0.052 C 
ATOM     14  C   LIG d   1      11.175   7.609  -8.219  0.00  0.00    -0.043 C 
ATOM     15  C   LIG d   1       9.725   7.345  -7.816  0.00  0.00     0.011 C 
ATOM     16  H   LIG d   1      11.374   9.136  -1.082  0.00  0.00     0.062 H 
ATOM     17  H   LIG d   1      11.239   9.667  -3.464  0.00  0.00     0.062 H 
ATOM     18  H   LIG d   1       9.693   5.296  -1.839  0.00  0.00     0.062 H 
ATOM     19  H   LIG d   1       9.793   4.512  -4.148  0.00  0.00     0.031 H 
ATOM     20  H   LIG d   1       8.381   5.524  -4.556  0.00  0.00     0.031 H 
ATOM     21  H   LIG d   1      11.152   5.768  -5.800  0.00  0.00     0.027 H 
ATOM     22  H   LIG d   1       9.747   4.963  -6.534  0.00  0.00     0.027 H 
ATOM     23  H   LIG d   1      12.122   9.295  -5.380  0.00  0.00     0.027 H 
ATOM     24  H   LIG d   1      12.306   7.571  -5.757  0.00  0.00     0.027 H 
ATOM     25  H   LIG d   1      11.177   9.697  -7.639  0.00  0.00     0.027 H 
ATOM     26  H   LIG d   1      12.779   8.954  -7.734  0.00  0.00     0.027 H 
ATOM     27  H   LIG d   1      11.219   7.828  -9.288  0.00  0.00     0.027 H 
ATOM     28  H   LIG d   1      11.775   6.718  -8.017  0.00  0.00     0.027 H 
ENDROOT
BRANCH  15  29
ATOM     29  C   LIG d   1       8.840   8.493  -8.318  0.00  0.00    -0.054 C 
ATOM     30  H   LIG d   1       7.795   8.184  -8.291  0.00  0.00     0.024 H 
ATOM     31  H   LIG d   1       8.976   9.365  -7.679  0.00  0.00     0.024 H 
ATOM     32  H   LIG d   1       9.117   8.746  -9.341  0.00  0.00     0.024 H 
ENDBRANCH  15  29
BRANCH  15  33
ATOM     33  C   LIG d   1       9.249   6.089  -8.572  0.00  0.00    -0.030 C 
ATOM     34  H   LIG d   1      10.114   5.516  -8.906  0.00  0.00     0.082 H 
ATOM     35  H   LIG d   1       8.641   5.475  -7.907  0.00  0.00     0.082 H 
BRANCH  33  36
ATOM     36  N   LIG d   1       8.448   6.491  -9.735  0.00  0.00     0.219 N 
ATOM     37  H   LIG d   1       7.961   5.686 -10.103  0.00  0.00     0.199 HD
ATOM     38  H   LIG d   1       7.776   7.191  -9.455  0.00  0.00     0.199 HD
ATOM     39  H   LIG d   1       9.054   6.871 -10.446  0.00  0.00     0.199 HD
ENDBRANCH  33  36
ENDBRANCH  15  33
BRANCH  11  40
ATOM     40  C   LIG d   1       9.478   9.521  -5.490  0.00  0.00    -0.055 C 
ATOM     41  H   LIG d   1       9.700  10.066  -6.407  0.00  0.00     0.024 H 
ATOM     42  H   LIG d   1       8.410   9.304  -5.446  0.00  0.00     0.024 H 
ATOM     43  H   LIG d   1       9.761  10.127  -4.629  0.00  0.00     0.024 H 
ENDBRANCH  11  40
BRANCH   1  44
ATOM     44  C   LIG d   1      10.607   6.857   0.161  0.00  0.00    -0.021 C 
ATOM     45  H   LIG d   1       9.601   6.697   0.550  0.00  0.00     0.034 H 
BRANCH  44  46
ATOM     46  C   LIG d   1      11.437   5.587   0.357  0.00  0.00    -0.059 C 
ATOM     47  H   LIG d   1      12.431   5.734  -0.066  0.00  0.00     0.024 H 
ATOM     48  H   LIG d   1      11.525   5.372   1.423  0.00  0.00     0.024 H 
ATOM     49  H   LIG d   1      10.949   4.752  -0.144  0.00  0.00     0.024 H 
ENDBRANCH  44  46
BRANCH  44  50
ATOM     50  C   LIG d   1      11.265   8.018   0.908  0.00  0.00    -0.059 C 
ATOM     51  H   LIG d   1      10.733   8.943   0.683  0.00  0.00     0.024 H 
ATOM     52  H   LIG d   1      11.226   7.828   1.982  0.00  0.00     0.024 H 
ATOM     53  H   LIG d   1      12.304   8.110   0.594  0.00  0.00     0.024 H 
ENDBRANCH  44  50
ENDBRANCH   1  44
TORSDOF 7
ENDMDL
MODEL 10
REMARK VINA RESULT:      -4.8      9.035     11.458
REMARK  7 active torsions:
REMARK  status: ('A' for Active; 'I' for Inactive)
REMARK    1  A    between atoms: C_1  and  C_2 
REMARK    2  A    between atoms: C_2  and  C_3 
REMARK    3  A    between atoms: C_2  and  C_4 
REMARK    4  A    between atoms: C_14  and  C_22 
REMARK    5  A    between atoms: C_18  and  C_19 
REMARK    6  A    between atoms: C_18  and  C_20 
REMARK    7  A    between atoms: C_20  and  N_21 
ROOT
ATOM      1  C   LIG d   1       9.801   5.532  -7.819  0.00  0.00    -0.044 A 
ATOM      2  C   LIG d   1      10.367   4.674  -6.895  0.00  0.00    -0.058 A 
ATOM      3  C   LIG d   1      10.569   5.098  -5.597  0.00  0.00    -0.058 A 
ATOM      4  C   LIG d   1      10.207   6.382  -5.206  0.00  0.00    -0.038 A 
ATOM      5  C   LIG d   1       9.674   7.238  -6.138  0.00  0.00    -0.043 A 
ATOM      6  C   LIG d   1       9.458   6.814  -7.441  0.00  0.00    -0.055 A 
ATOM      7  C   LIG d   1       9.342   8.666  -5.790  0.00  0.00    -0.027 C 
ATOM      8  C   LIG d   1      10.220   9.081  -4.599  0.00  0.00    -0.045 C 
ATOM      9  C   LIG d   1       9.888   8.141  -3.437  0.00  0.00    -0.021 C 
ATOM     10  H   LIG d   1       8.787   8.058  -3.398  0.00  0.00     0.032 H 
ATOM     11  C   LIG d   1      10.429   6.755  -3.752  0.00  0.00    -0.003 C 
ATOM     12  C   LIG d   1      11.936   6.670  -3.504  0.00  0.00    -0.043 C 
ATOM     13  C   LIG d   1      12.285   7.126  -2.090  0.00  0.00    -0.052 C 
ATOM     14  C   LIG d   1      11.852   8.580  -1.916  0.00  0.00    -0.043 C 
ATOM     15  C   LIG d   1      10.343   8.710  -2.107  0.00  0.00     0.011 C 
ATOM     16  H   LIG d   1      10.654   3.675  -7.189  0.00  0.00     0.062 H 
ATOM     17  H   LIG d   1      11.025   4.420  -4.891  0.00  0.00     0.062 H 
ATOM     18  H   LIG d   1       9.020   7.486  -8.163  0.00  0.00     0.062 H 
ATOM     19  H   LIG d   1       9.559   9.312  -6.635  0.00  0.00     0.031 H 
ATOM     20  H   LIG d   1       8.297   8.743  -5.508  0.00  0.00     0.031 H 
ATOM     21  H   LIG d   1      11.270   8.958  -4.876  0.00  0.00     0.027 H 
ATOM     22  H   LIG d   1      10.015  10.121  -4.392  0.00  0.00     0.027 H 
ATOM     23  H   LIG d   1      12.265   5.636  -3.638  0.00  0.00     0.027 H 
ATOM     24  H   LIG d   1      12.458   7.300  -4.226  0.00  0.00     0.027 H 
ATOM     25  H   LIG d   1      11.814   6.489  -1.351  0.00  0.00     0.027 H 
ATOM     26  H   LIG d   1      13.373   7.063  -1.957  0.00  0.00     0.027 H 
ATOM     27  H   LIG d   1      12.121   8.924  -0.914  0.00  0.00     0.027 H 
ATOM     28  H   LIG d   1      12.366   9.205  -2.651  0.00  0.00     0.027 H 
ENDROOT
BRANCH  15  29
ATOM     29  C   LIG d   1       9.621   8.034  -0.934  0.00  0.00    -0.054 C 
ATOM     30  H   LIG d   1       9.016   8.772  -0.406  0.00  0.00     0.024 H 
ATOM     31  H   LIG d   1       8.976   7.241  -1.311  0.00  0.00     0.024 H 
ATOM     32  H   LIG d   1      10.355   7.610  -0.250  0.00  0.00     0.024 H 
ENDBRANCH  15  29
BRANCH  15  33
ATOM     33  C   LIG d   1       9.984  10.206  -2.013  0.00  0.00    -0.030 C 
ATOM     34  H   LIG d   1      10.633  10.690  -1.284  0.00  0.00     0.082 H 
ATOM     35  H   LIG d   1      10.120  10.674  -2.988  0.00  0.00     0.082 H 
BRANCH  33  36
ATOM     36  N   LIG d   1       8.583  10.348  -1.594  0.00  0.00     0.219 N 
ATOM     37  H   LIG d   1       8.498  10.106  -0.617  0.00  0.00     0.199 HD
ATOM     38  H   LIG d   1       8.287  11.304  -1.730  0.00  0.00     0.199 HD
ATOM     39  H   LIG d   1       8.003   9.735  -2.145  0.00  0.00     0.199 HD
ENDBRANCH  33  36
ENDBRANCH  15  33
BRANCH  11  40
ATOM     40  C   LIG d   1       9.708   5.685  -2.918  0.00  0.00    -0.055 C 
ATOM     41  H   LIG d   1       8.693   6.017  -2.701  0.00  0.00     0.024 H 
ATOM     42  H   LIG d   1       9.673   4.751  -3.479  0.00  0.00     0.024 H 
ATOM     43  H   LIG d   1      10.248   5.528  -1.984  0.00  0.00     0.024 H 
ENDBRANCH  11  40
BRANCH   1  44
ATOM     44  C   LIG d   1       9.566   5.073  -9.235  0.00  0.00    -0.021 C 
ATOM     45  H   LIG d   1      10.496   5.142  -9.800  0.00  0.00     0.034 H 
BRANCH  44  46
ATOM     46  C   LIG d   1       9.083   3.621  -9.226  0.00  0.00    -0.059 C 
ATOM     47  H   LIG d   1       8.945   3.291  -8.197  0.00  0.00     0.024 H 
ATOM     48  H   LIG d   1       8.135   3.550  -9.761  0.00  0.00     0.024 H 
ATOM     49  H   LIG d   1       9.824   2.988  -9.714  0.00  0.00     0.024 H 
ENDBRANCH  44  46
BRANCH  44  50
ATOM     50  C   LIG d   1       8.505   5.959  -9.889  0.00  0.00    -0.059 C 
ATOM     51  H   LIG d   1       7.939   5.375 -10.615  0.00  0.00     0.024 H 
ATOM     52  H   LIG d   1       7.828   6.342  -9.124  0.00  0.00     0.024 H 
ATOM     53  H   LIG d   1       8.989   6.795 -10.394  0.00  0.00     0.024 H 
ENDBRANCH  44  50
ENDBRANCH   1  44
TORSDOF 7
ENDMDL
