MODEL 1
REMARK VINA RESULT:      -6.8      0.000      0.000
REMARK  11 active torsions:
REMARK  status: ('A' for Active; 'I' for Inactive)
REMARK    1  A    between atoms: C_1  and  C_2 
REMARK    2  A    between atoms: C_4  and  O_26 
REMARK    3  A    between atoms: C_5  and  C_25 
REMARK    4  A    between atoms: C_10  and  C_13 
REMARK    5  A    between atoms: C_13  and  C_15 
REMARK    6  A    between atoms: C_13  and  C_16 
REMARK       I    between atoms: C_16  and  N_18 
REMARK    7  A    between atoms: N_18  and  C_19 
REMARK    8  A    between atoms: C_19  and  C_20 
REMARK    9  A    between atoms: O_26  and  C_27 
REMARK   10  A    between atoms: C_27  and  C_28 
REMARK   11  A    between atoms: C_28  and  N_29 
ROOT
ATOM      1  C   LIG d   1       3.253   0.284  -8.584  0.00  0.00    -0.043 A 
ATOM      2  C   LIG d   1       4.331   0.127  -7.739  0.00  0.00    -0.017 A 
ATOM      3  C   LIG d   1       4.873  -1.135  -7.543  0.00  0.00     0.124 A 
ATOM      4  C   LIG d   1       4.327  -2.225  -8.200  0.00  0.00    -0.005 A 
ATOM      5  C   LIG d   1       3.243  -2.064  -9.051  0.00  0.00    -0.037 A 
ATOM      6  C   LIG d   1       2.704  -0.810  -9.240  0.00  0.00    -0.041 A 
ATOM      7  C   LIG d   1       1.518  -0.565 -10.137  0.00  0.00    -0.027 C 
ATOM      8  C   LIG d   1       1.313  -1.740 -11.090  0.00  0.00    -0.045 C 
ATOM      9  C   LIG d   1       1.292  -3.033 -10.265  0.00  0.00    -0.026 C 
ATOM     10  H   LIG d   1       0.588  -2.939  -9.426  0.00  0.00     0.031 H 
ATOM     11  C   LIG d   1       2.702  -3.290  -9.738  0.00  0.00    -0.024 C 
ATOM     12  H   LIG d   1       4.752   0.982  -7.233  0.00  0.00     0.066 H 
ATOM     13  H   LIG d   1       0.614  -0.441  -9.524  0.00  0.00     0.031 H 
ATOM     14  H   LIG d   1       1.688   0.348 -10.728  0.00  0.00     0.031 H 
ATOM     15  H   LIG d   1       0.359  -1.618 -11.623  0.00  0.00     0.027 H 
ATOM     16  H   LIG d   1       2.137  -1.771 -11.817  0.00  0.00     0.027 H 
ATOM     17  H   LIG d   1       3.356  -3.557 -10.581  0.00  0.00     0.032 H 
ATOM     18  H   LIG d   1       2.668  -4.126  -9.023  0.00  0.00     0.032 H 
ENDROOT
BRANCH   9  19
ATOM     19  C   LIG d   1       0.852  -4.202 -11.151  0.00  0.00     0.036 C 
ATOM     20  H   LIG d   1       1.699  -4.884 -11.317  0.00  0.00     0.039 H 
BRANCH  19  21
ATOM     21  C   LIG d   1       0.347  -3.664 -12.491  0.00  0.00    -0.054 C 
ATOM     22  H   LIG d   1       0.761  -4.272 -13.309  0.00  0.00     0.024 H 
ATOM     23  H   LIG d   1       0.668  -2.618 -12.611  0.00  0.00     0.024 H 
ATOM     24  H   LIG d   1      -0.752  -3.714 -12.516  0.00  0.00     0.024 H 
ENDBRANCH  19  21
BRANCH  19  25
ATOM     25  C   LIG d   1      -0.253  -4.962 -10.466  0.00  0.00     0.216 C 
ATOM     26  O   LIG d   1       0.002  -5.959  -9.824  0.00  0.00    -0.276 OA
ATOM     27  N   LIG d   1      -1.528  -4.534 -10.566  0.00  0.00    -0.308 N 
ATOM     28  H   LIG d   1      -1.760  -3.629 -11.148  0.00  0.00     0.149 HD
BRANCH  27  29
ATOM     29  C   LIG d   1      -2.603  -5.273  -9.900  0.00  0.00     0.070 C 
ATOM     30  H   LIG d   1      -2.691  -6.274 -10.348  0.00  0.00     0.054 H 
ATOM     31  H   LIG d   1      -2.374  -5.368  -8.828  0.00  0.00     0.054 H 
BRANCH  29  32
ATOM     32  C   LIG d   1      -3.904  -4.531 -10.071  0.00  0.00     0.122 A 
ATOM     33  O   LIG d   1      -4.687  -4.080  -9.077  0.00  0.00    -0.466 OA
ATOM     34  C   LIG d   1      -5.763  -3.466  -9.598  0.00  0.00     0.092 A 
ATOM     35  C   LIG d   1      -5.674  -3.520 -10.940  0.00  0.00    -0.024 A 
ATOM     36  H   LIG d   1      -6.562  -3.008  -9.036  0.00  0.00     0.103 H 
ATOM     37  C   LIG d   1      -4.472  -4.201 -11.244  0.00  0.00    -0.019 A 
ATOM     38  H   LIG d   1      -6.382  -3.116 -11.648  0.00  0.00     0.065 H 
ATOM     39  H   LIG d   1      -4.088  -4.417 -12.230  0.00  0.00     0.065 H 
ENDBRANCH  29  32
ENDBRANCH  27  29
ENDBRANCH  19  25
ENDBRANCH   9  19
BRANCH   4  40
ATOM     40  C   LIG d   1       4.914  -3.596  -7.990  0.00  0.00    -0.036 C 
ATOM     41  H   LIG d   1       5.938  -3.623  -8.389  0.00  0.00     0.028 H 
ATOM     42  H   LIG d   1       4.298  -4.343  -8.512  0.00  0.00     0.028 H 
ATOM     43  H   LIG d   1       4.934  -3.825  -6.914  0.00  0.00     0.028 H 
ENDBRANCH   4  40
BRANCH   1  44
ATOM     44  C   LIG d   1       2.665   1.655  -8.796  0.00  0.00    -0.039 C 
ATOM     45  H   LIG d   1       1.618   1.560  -9.118  0.00  0.00     0.028 H 
ATOM     46  H   LIG d   1       3.240   2.184  -9.572  0.00  0.00     0.028 H 
ATOM     47  H   LIG d   1       2.710   2.223  -7.856  0.00  0.00     0.028 H 
ENDBRANCH   1  44
BRANCH   3  48
ATOM     48  O   LIG d   1       5.936  -1.301  -6.712  0.00  0.00    -0.490 OA
BRANCH  48  49
ATOM     49  C   LIG d   1       6.046  -0.395  -5.612  0.00  0.00     0.102 C 
ATOM     50  H   LIG d   1       6.905   0.274  -5.774  0.00  0.00     0.071 H 
ATOM     51  H   LIG d   1       5.125   0.202  -5.535  0.00  0.00     0.071 H 
BRANCH  49  52
ATOM     52  C   LIG d   1       6.252  -1.186  -4.319  0.00  0.00     0.033 C 
ATOM     53  H   LIG d   1       6.142  -2.261  -4.526  0.00  0.00     0.046 H 
ATOM     54  H   LIG d   1       7.261  -0.991  -3.926  0.00  0.00     0.046 H 
BRANCH  52  55
ATOM     55  N   LIG d   1       5.252  -0.772  -3.327  0.00  0.00    -0.295 N 
ATOM     56  C   LIG d   1       5.579   0.546  -2.766  0.00  0.00     0.022 C 
ATOM     57  C   LIG d   1       4.547   0.911  -1.696  0.00  0.00     0.060 C 
ATOM     58  H   LIG d   1       6.582   0.514  -2.315  0.00  0.00     0.045 H 
ATOM     59  H   LIG d   1       5.561   1.300  -3.568  0.00  0.00     0.045 H 
ATOM     60  O   LIG d   1       3.239   0.878  -2.273  0.00  0.00    -0.377 OA
ATOM     61  H   LIG d   1       4.754   1.922  -1.314  0.00  0.00     0.057 H 
ATOM     62  H   LIG d   1       4.602   0.188  -0.870  0.00  0.00     0.057 H 
ATOM     63  C   LIG d   1       2.885  -0.393  -2.827  0.00  0.00     0.060 C 
ATOM     64  C   LIG d   1       3.901  -0.770  -3.909  0.00  0.00     0.022 C 
ATOM     65  H   LIG d   1       1.882  -0.334  -3.271  0.00  0.00     0.057 H 
ATOM     66  H   LIG d   1       2.893  -1.156  -2.035  0.00  0.00     0.057 H 
ATOM     67  H   LIG d   1       3.857  -0.038  -4.728  0.00  0.00     0.045 H 
ATOM     68  H   LIG d   1       3.669  -1.772  -4.299  0.00  0.00     0.045 H 
ENDBRANCH  52  55
ENDBRANCH  49  52
ENDBRANCH  48  49
ENDBRANCH   3  48
TORSDOF 11
ENDMDL
MODEL 2
REMARK VINA RESULT:      -6.7      2.498      9.348
REMARK  11 active torsions:
REMARK  status: ('A' for Active; 'I' for Inactive)
REMARK    1  A    between atoms: C_1  and  C_2 
REMARK    2  A    between atoms: C_4  and  O_26 
REMARK    3  A    between atoms: C_5  and  C_25 
REMARK    4  A    between atoms: C_10  and  C_13 
REMARK    5  A    between atoms: C_13  and  C_15 
REMARK    6  A    between atoms: C_13  and  C_16 
REMARK       I    between atoms: C_16  and  N_18 
REMARK    7  A    between atoms: N_18  and  C_19 
REMARK    8  A    between atoms: C_19  and  C_20 
REMARK    9  A    between atoms: O_26  and  C_27 
REMARK   10  A    between atoms: C_27  and  C_28 
REMARK   11  A    between atoms: C_28  and  N_29 
ROOT
ATOM      1  C   LIG d   1       3.320  -1.262 -13.450  0.00  0.00    -0.043 A 
ATOM      2  C   LIG d   1       2.565  -2.316 -13.919  0.00  0.00    -0.017 A 
ATOM      3  C   LIG d   1       1.640  -2.924 -13.082  0.00  0.00     0.124 A 
ATOM      4  C   LIG d   1       1.481  -2.464 -11.786  0.00  0.00    -0.005 A 
ATOM      5  C   LIG d   1       2.242  -1.401 -11.318  0.00  0.00    -0.037 A 
ATOM      6  C   LIG d   1       3.163  -0.803 -12.150  0.00  0.00    -0.041 A 
ATOM      7  C   LIG d   1       4.032   0.344 -11.703  0.00  0.00    -0.027 C 
ATOM      8  C   LIG d   1       3.458   0.996 -10.447  0.00  0.00    -0.045 C 
ATOM      9  C   LIG d   1       3.190  -0.104  -9.412  0.00  0.00    -0.026 C 
ATOM     10  H   LIG d   1       4.082  -0.735  -9.287  0.00  0.00     0.031 H 
ATOM     11  C   LIG d   1       2.015  -0.948  -9.900  0.00  0.00    -0.024 C 
ATOM     12  H   LIG d   1       2.693  -2.668 -14.932  0.00  0.00     0.066 H 
ATOM     13  H   LIG d   1       5.044  -0.026 -11.482  0.00  0.00     0.031 H 
ATOM     14  H   LIG d   1       4.085   1.098 -12.503  0.00  0.00     0.031 H 
ATOM     15  H   LIG d   1       4.182   1.722 -10.047  0.00  0.00     0.027 H 
ATOM     16  H   LIG d   1       2.521   1.513 -10.698  0.00  0.00     0.027 H 
ATOM     17  H   LIG d   1       1.097  -0.345  -9.850  0.00  0.00     0.032 H 
ATOM     18  H   LIG d   1       1.912  -1.827  -9.246  0.00  0.00     0.032 H 
ENDROOT
BRANCH   9  19
ATOM     19  C   LIG d   1       2.842   0.533  -8.064  0.00  0.00     0.036 C 
ATOM     20  H   LIG d   1       1.834   0.219  -7.751  0.00  0.00     0.039 H 
BRANCH  19  21
ATOM     21  C   LIG d   1       2.896   2.057  -8.190  0.00  0.00    -0.054 C 
ATOM     22  H   LIG d   1       2.938   2.506  -7.187  0.00  0.00     0.024 H 
ATOM     23  H   LIG d   1       1.997   2.413  -8.715  0.00  0.00     0.024 H 
ATOM     24  H   LIG d   1       3.792   2.346  -8.759  0.00  0.00     0.024 H 
ENDBRANCH  19  21
BRANCH  19  25
ATOM     25  C   LIG d   1       3.833   0.079  -7.024  0.00  0.00     0.216 C 
ATOM     26  O   LIG d   1       5.009   0.347  -7.148  0.00  0.00    -0.276 OA
ATOM     27  N   LIG d   1       3.413  -0.627  -5.955  0.00  0.00    -0.308 N 
ATOM     28  H   LIG d   1       2.346  -0.871  -5.842  0.00  0.00     0.149 HD
BRANCH  27  29
ATOM     29  C   LIG d   1       4.377  -1.068  -4.945  0.00  0.00     0.070 C 
ATOM     30  H   LIG d   1       4.156  -2.107  -4.656  0.00  0.00     0.054 H 
ATOM     31  H   LIG d   1       5.395  -1.011  -5.358  0.00  0.00     0.054 H 
BRANCH  29  32
ATOM     32  C   LIG d   1       4.278  -0.178  -3.732  0.00  0.00     0.122 A 
ATOM     33  O   LIG d   1       3.717   1.042  -3.697  0.00  0.00    -0.466 OA
ATOM     34  C   LIG d   1       3.807   1.540  -2.453  0.00  0.00     0.092 A 
ATOM     35  C   LIG d   1       4.431   0.635  -1.676  0.00  0.00    -0.024 A 
ATOM     36  H   LIG d   1       3.440   2.503  -2.131  0.00  0.00     0.103 H 
ATOM     37  C   LIG d   1       4.729  -0.475  -2.500  0.00  0.00    -0.019 A 
ATOM     38  H   LIG d   1       4.656   0.735  -0.625  0.00  0.00     0.065 H 
ATOM     39  H   LIG d   1       5.226  -1.385  -2.198  0.00  0.00     0.065 H 
ENDBRANCH  29  32
ENDBRANCH  27  29
ENDBRANCH  19  25
ENDBRANCH   9  19
BRANCH   4  40
ATOM     40  C   LIG d   1       0.477  -3.121 -10.876  0.00  0.00    -0.036 C 
ATOM     41  H   LIG d   1      -0.162  -2.352 -10.418  0.00  0.00     0.028 H 
ATOM     42  H   LIG d   1       1.005  -3.676 -10.087  0.00  0.00     0.028 H 
ATOM     43  H   LIG d   1      -0.146  -3.816 -11.459  0.00  0.00     0.028 H 
ENDBRANCH   4  40
BRANCH   1  44
ATOM     44  C   LIG d   1       4.325  -0.603 -14.360  0.00  0.00    -0.039 C 
ATOM     45  H   LIG d   1       5.311  -0.593 -13.872  0.00  0.00     0.028 H 
ATOM     46  H   LIG d   1       4.009   0.431 -14.567  0.00  0.00     0.028 H 
ATOM     47  H   LIG d   1       4.387  -1.162 -15.304  0.00  0.00     0.028 H 
ENDBRANCH   1  44
BRANCH   3  48
ATOM     48  O   LIG d   1       0.891  -3.965 -13.533  0.00  0.00    -0.490 OA
BRANCH  48  49
ATOM     49  C   LIG d   1      -0.159  -3.657 -14.454  0.00  0.00     0.102 C 
ATOM     50  H   LIG d   1      -0.167  -2.575 -14.653  0.00  0.00     0.071 H 
ATOM     51  H   LIG d   1       0.007  -4.202 -15.395  0.00  0.00     0.071 H 
BRANCH  49  52
ATOM     52  C   LIG d   1      -1.503  -4.075 -13.852  0.00  0.00     0.033 C 
ATOM     53  H   LIG d   1      -2.142  -4.496 -14.642  0.00  0.00     0.046 H 
ATOM     54  H   LIG d   1      -1.336  -4.833 -13.073  0.00  0.00     0.046 H 
BRANCH  52  55
ATOM     55  N   LIG d   1      -2.161  -2.903 -13.262  0.00  0.00    -0.295 N 
ATOM     56  C   LIG d   1      -1.744  -1.667 -13.939  0.00  0.00     0.022 C 
ATOM     57  C   LIG d   1      -2.406  -0.468 -13.255  0.00  0.00     0.060 C 
ATOM     58  H   LIG d   1      -0.650  -1.567 -13.880  0.00  0.00     0.045 H 
ATOM     59  H   LIG d   1      -2.052  -1.705 -14.995  0.00  0.00     0.045 H 
ATOM     60  O   LIG d   1      -3.825  -0.641 -13.271  0.00  0.00    -0.377 OA
ATOM     61  H   LIG d   1      -2.143   0.455 -13.794  0.00  0.00     0.057 H 
ATOM     62  H   LIG d   1      -2.056  -0.397 -12.216  0.00  0.00     0.057 H 
ATOM     63  C   LIG d   1      -4.267  -1.834 -12.618  0.00  0.00     0.060 C 
ATOM     64  C   LIG d   1      -3.624  -3.047 -13.295  0.00  0.00     0.022 C 
ATOM     65  H   LIG d   1      -5.361  -1.910 -12.691  0.00  0.00     0.057 H 
ATOM     66  H   LIG d   1      -3.972  -1.806 -11.559  0.00  0.00     0.057 H 
ATOM     67  H   LIG d   1      -3.962  -3.108 -14.340  0.00  0.00     0.045 H 
ATOM     68  H   LIG d   1      -3.914  -3.964 -12.762  0.00  0.00     0.045 H 
ENDBRANCH  52  55
ENDBRANCH  49  52
ENDBRANCH  48  49
ENDBRANCH   3  48
TORSDOF 11
ENDMDL
MODEL 3
REMARK VINA RESULT:      -6.6      8.225     12.482
REMARK  11 active torsions:
REMARK  status: ('A' for Active; 'I' for Inactive)
REMARK    1  A    between atoms: C_1  and  C_2 
REMARK    2  A    between atoms: C_4  and  O_26 
REMARK    3  A    between atoms: C_5  and  C_25 
REMARK    4  A    between atoms: C_10  and  C_13 
REMARK    5  A    between atoms: C_13  and  C_15 
REMARK    6  A    between atoms: C_13  and  C_16 
REMARK       I    between atoms: C_16  and  N_18 
REMARK    7  A    between atoms: N_18  and  C_19 
REMARK    8  A    between atoms: C_19  and  C_20 
REMARK    9  A    between atoms: O_26  and  C_27 
REMARK   10  A    between atoms: C_27  and  C_28 
REMARK   11  A    between atoms: C_28  and  N_29 
ROOT
ATOM      1  C   LIG d   1       9.853   7.517  -4.793  0.00  0.00    -0.043 A 
ATOM      2  C   LIG d   1      10.077   8.400  -3.758  0.00  0.00    -0.017 A 
ATOM      3  C   LIG d   1      10.242   7.918  -2.467  0.00  0.00     0.124 A 
ATOM      4  C   LIG d   1      10.182   6.555  -2.232  0.00  0.00    -0.005 A 
ATOM      5  C   LIG d   1       9.958   5.668  -3.276  0.00  0.00    -0.037 A 
ATOM      6  C   LIG d   1       9.790   6.150  -4.556  0.00  0.00    -0.041 A 
ATOM      7  C   LIG d   1       9.528   5.248  -5.734  0.00  0.00    -0.027 C 
ATOM      8  C   LIG d   1       9.910   3.807  -5.401  0.00  0.00    -0.045 C 
ATOM      9  C   LIG d   1       9.237   3.421  -4.079  0.00  0.00    -0.026 C 
ATOM     10  H   LIG d   1       8.164   3.659  -4.114  0.00  0.00     0.031 H 
ATOM     11  C   LIG d   1       9.909   4.199  -2.951  0.00  0.00    -0.024 C 
ATOM     12  H   LIG d   1      10.125   9.461  -3.950  0.00  0.00     0.066 H 
ATOM     13  H   LIG d   1       8.460   5.282  -5.992  0.00  0.00     0.031 H 
ATOM     14  H   LIG d   1      10.125   5.585  -6.594  0.00  0.00     0.031 H 
ATOM     15  H   LIG d   1       9.568   3.141  -6.207  0.00  0.00     0.027 H 
ATOM     16  H   LIG d   1      11.003   3.731  -5.303  0.00  0.00     0.027 H 
ATOM     17  H   LIG d   1      10.933   3.819  -2.815  0.00  0.00     0.032 H 
ATOM     18  H   LIG d   1       9.337   4.047  -2.023  0.00  0.00     0.032 H 
ENDROOT
BRANCH   9  19
ATOM     19  C   LIG d   1       9.401   1.918  -3.837  0.00  0.00     0.036 C 
ATOM     20  H   LIG d   1       9.555   1.726  -2.765  0.00  0.00     0.039 H 
BRANCH  19  21
ATOM     21  C   LIG d   1      10.599   1.401  -4.635  0.00  0.00    -0.054 C 
ATOM     22  H   LIG d   1      10.343   0.438  -5.100  0.00  0.00     0.024 H 
ATOM     23  H   LIG d   1      11.458   1.266  -3.960  0.00  0.00     0.024 H 
ATOM     24  H   LIG d   1      10.860   2.128  -5.418  0.00  0.00     0.024 H 
ENDBRANCH  19  21
BRANCH  19  25
ATOM     25  C   LIG d   1       8.154   1.199  -4.282  0.00  0.00     0.216 C 
ATOM     26  O   LIG d   1       7.563   1.566  -5.275  0.00  0.00    -0.276 OA
ATOM     27  N   LIG d   1       7.693   0.147  -3.575  0.00  0.00    -0.308 N 
ATOM     28  H   LIG d   1       8.229  -0.185  -2.674  0.00  0.00     0.149 HD
BRANCH  27  29
ATOM     29  C   LIG d   1       6.481  -0.550  -4.007  0.00  0.00     0.070 C 
ATOM     30  H   LIG d   1       6.434  -0.558  -5.107  0.00  0.00     0.054 H 
ATOM     31  H   LIG d   1       6.499  -1.585  -3.634  0.00  0.00     0.054 H 
BRANCH  29  32
ATOM     32  C   LIG d   1       5.269   0.159  -3.458  0.00  0.00     0.122 A 
ATOM     33  O   LIG d   1       4.202   0.557  -4.169  0.00  0.00    -0.466 OA
ATOM     34  C   LIG d   1       3.317   1.153  -3.353  0.00  0.00     0.092 A 
ATOM     35  C   LIG d   1       3.815   1.140  -2.103  0.00  0.00    -0.024 A 
ATOM     36  H   LIG d   1       2.366   1.571  -3.650  0.00  0.00     0.103 H 
ATOM     37  C   LIG d   1       5.071   0.493  -2.170  0.00  0.00    -0.019 A 
ATOM     38  H   LIG d   1       3.344   1.541  -1.219  0.00  0.00     0.065 H 
ATOM     39  H   LIG d   1       5.743   0.307  -1.346  0.00  0.00     0.065 H 
ENDBRANCH  29  32
ENDBRANCH  27  29
ENDBRANCH  19  25
ENDBRANCH   9  19
BRANCH   4  40
ATOM     40  C   LIG d   1      10.361   6.029  -0.832  0.00  0.00    -0.036 C 
ATOM     41  H   LIG d   1       9.402   5.635  -0.462  0.00  0.00     0.028 H 
ATOM     42  H   LIG d   1      10.700   6.843  -0.175  0.00  0.00     0.028 H 
ATOM     43  H   LIG d   1      11.110   5.223  -0.835  0.00  0.00     0.028 H 
ENDBRANCH   4  40
BRANCH   1  44
ATOM     44  C   LIG d   1       9.675   8.041  -6.195  0.00  0.00    -0.039 C 
ATOM     45  H   LIG d   1       8.773   7.597  -6.641  0.00  0.00     0.028 H 
ATOM     46  H   LIG d   1      10.553   7.773  -6.801  0.00  0.00     0.028 H 
ATOM     47  H   LIG d   1       9.570   9.135  -6.166  0.00  0.00     0.028 H 
ENDBRANCH   1  44
BRANCH   3  48
ATOM     48  O   LIG d   1      10.463   8.779  -1.439  0.00  0.00    -0.490 OA
BRANCH  48  49
ATOM     49  C   LIG d   1       9.400   9.674  -1.104  0.00  0.00     0.102 C 
ATOM     50  H   LIG d   1       8.682   9.720  -1.936  0.00  0.00     0.071 H 
ATOM     51  H   LIG d   1       8.889   9.313  -0.198  0.00  0.00     0.071 H 
BRANCH  49  52
ATOM     52  C   LIG d   1       9.972  11.070  -0.845  0.00  0.00     0.033 C 
ATOM     53  H   LIG d   1       9.265  11.647  -0.231  0.00  0.00     0.046 H 
ATOM     54  H   LIG d   1      10.931  10.981  -0.315  0.00  0.00     0.046 H 
BRANCH  52  55
ATOM     55  N   LIG d   1      10.182  11.758  -2.126  0.00  0.00    -0.295 N 
ATOM     56  C   LIG d   1       8.962  11.731  -2.945  0.00  0.00     0.022 C 
ATOM     57  C   LIG d   1       9.243  12.404  -4.291  0.00  0.00     0.060 C 
ATOM     58  H   LIG d   1       8.654  10.688  -3.111  0.00  0.00     0.045 H 
ATOM     59  H   LIG d   1       8.158  12.272  -2.423  0.00  0.00     0.045 H 
ATOM     60  O   LIG d   1       9.713  13.735  -4.063  0.00  0.00    -0.377 OA
ATOM     61  H   LIG d   1       8.317  12.439  -4.886  0.00  0.00     0.057 H 
ATOM     62  H   LIG d   1      10.008  11.833  -4.836  0.00  0.00     0.057 H 
ATOM     63  C   LIG d   1      10.901  13.799  -3.270  0.00  0.00     0.060 C 
ATOM     64  C   LIG d   1      10.637  13.140  -1.913  0.00  0.00     0.022 C 
ATOM     65  H   LIG d   1      11.187  14.849  -3.117  0.00  0.00     0.057 H 
ATOM     66  H   LIG d   1      11.716  13.268  -3.783  0.00  0.00     0.057 H 
ATOM     67  H   LIG d   1       9.860  13.702  -1.375  0.00  0.00     0.045 H 
ATOM     68  H   LIG d   1      11.563  13.133  -1.320  0.00  0.00     0.045 H 
ENDBRANCH  52  55
ENDBRANCH  49  52
ENDBRANCH  48  49
ENDBRANCH   3  48
TORSDOF 11
ENDMDL
MODEL 4
REMARK VINA RESULT:      -6.6      3.001      8.933
REMARK  11 active torsions:
REMARK  status: ('A' for Active; 'I' for Inactive)
REMARK    1  A    between atoms: C_1  and  C_2 
REMARK    2  A    between atoms: C_4  and  O_26 
REMARK    3  A    between atoms: C_5  and  C_25 
REMARK    4  A    between atoms: C_10  and  C_13 
REMARK    5  A    between atoms: C_13  and  C_15 
REMARK    6  A    between atoms: C_13  and  C_16 
REMARK       I    between atoms: C_16  and  N_18 
REMARK    7  A    between atoms: N_18  and  C_19 
REMARK    8  A    between atoms: C_19  and  C_20 
REMARK    9  A    between atoms: O_26  and  C_27 
REMARK   10  A    between atoms: C_27  and  C_28 
REMARK   11  A    between atoms: C_28  and  N_29 
ROOT
ATOM      1  C   LIG d   1       3.509  -1.192 -13.599  0.00  0.00    -0.043 A 
ATOM      2  C   LIG d   1       2.745  -2.214 -14.121  0.00  0.00    -0.017 A 
ATOM      3  C   LIG d   1       1.766  -2.809 -13.339  0.00  0.00     0.124 A 
ATOM      4  C   LIG d   1       1.564  -2.369 -12.042  0.00  0.00    -0.005 A 
ATOM      5  C   LIG d   1       2.334  -1.338 -11.520  0.00  0.00    -0.037 A 
ATOM      6  C   LIG d   1       3.308  -0.753 -12.298  0.00  0.00    -0.041 A 
ATOM      7  C   LIG d   1       4.190   0.359 -11.790  0.00  0.00    -0.027 C 
ATOM      8  C   LIG d   1       3.580   1.004 -10.548  0.00  0.00    -0.045 C 
ATOM      9  C   LIG d   1       3.233  -0.106  -9.548  0.00  0.00    -0.026 C 
ATOM     10  H   LIG d   1       4.100  -0.766  -9.396  0.00  0.00     0.031 H 
ATOM     11  C   LIG d   1       2.058  -0.905 -10.104  0.00  0.00    -0.024 C 
ATOM     12  H   LIG d   1       2.908  -2.550 -15.134  0.00  0.00     0.066 H 
ATOM     13  H   LIG d   1       5.179  -0.046 -11.532  0.00  0.00     0.031 H 
ATOM     14  H   LIG d   1       4.300   1.126 -12.572  0.00  0.00     0.031 H 
ATOM     15  H   LIG d   1       4.305   1.700 -10.102  0.00  0.00     0.027 H 
ATOM     16  H   LIG d   1       2.670   1.554 -10.829  0.00  0.00     0.027 H 
ATOM     17  H   LIG d   1       1.156  -0.276 -10.082  0.00  0.00     0.032 H 
ATOM     18  H   LIG d   1       1.900  -1.793  -9.473  0.00  0.00     0.032 H 
ENDROOT
BRANCH   9  19
ATOM     19  C   LIG d   1       2.844   0.515  -8.204  0.00  0.00     0.036 C 
ATOM     20  H   LIG d   1       1.837   0.180  -7.914  0.00  0.00     0.039 H 
BRANCH  19  21
ATOM     21  C   LIG d   1       2.872   2.040  -8.319  0.00  0.00    -0.054 C 
ATOM     22  H   LIG d   1       2.264   2.481  -7.515  0.00  0.00     0.024 H 
ATOM     23  H   LIG d   1       2.463   2.341  -9.296  0.00  0.00     0.024 H 
ATOM     24  H   LIG d   1       3.910   2.396  -8.232  0.00  0.00     0.024 H 
ENDBRANCH  19  21
BRANCH  19  25
ATOM     25  C   LIG d   1       3.822   0.074  -7.146  0.00  0.00     0.216 C 
ATOM     26  O   LIG d   1       4.998   0.352  -7.252  0.00  0.00    -0.276 OA
ATOM     27  N   LIG d   1       3.390  -0.631  -6.081  0.00  0.00    -0.308 N 
ATOM     28  H   LIG d   1       2.324  -0.883  -5.985  0.00  0.00     0.149 HD
BRANCH  27  29
ATOM     29  C   LIG d   1       4.341  -1.060  -5.053  0.00  0.00     0.070 C 
ATOM     30  H   LIG d   1       4.115  -2.094  -4.754  0.00  0.00     0.054 H 
ATOM     31  H   LIG d   1       5.364  -1.009  -5.454  0.00  0.00     0.054 H 
BRANCH  29  32
ATOM     32  C   LIG d   1       4.227  -0.154  -3.853  0.00  0.00     0.122 A 
ATOM     33  O   LIG d   1       3.627   1.047  -3.830  0.00  0.00    -0.466 OA
ATOM     34  C   LIG d   1       3.716   1.569  -2.595  0.00  0.00     0.092 A 
ATOM     35  C   LIG d   1       4.378   0.697  -1.812  0.00  0.00    -0.024 A 
ATOM     36  H   LIG d   1       3.323   2.525  -2.284  0.00  0.00     0.103 H 
ATOM     37  C   LIG d   1       4.702  -0.416  -2.622  0.00  0.00    -0.019 A 
ATOM     38  H   LIG d   1       4.612   0.821  -0.766  0.00  0.00     0.065 H 
ATOM     39  H   LIG d   1       5.232  -1.305  -2.312  0.00  0.00     0.065 H 
ENDBRANCH  29  32
ENDBRANCH  27  29
ENDBRANCH  19  25
ENDBRANCH   9  19
BRANCH   4  40
ATOM     40  C   LIG d   1       0.501  -3.013 -11.190  0.00  0.00    -0.036 C 
ATOM     41  H   LIG d   1       0.941  -3.333 -10.234  0.00  0.00     0.028 H 
ATOM     42  H   LIG d   1       0.090  -3.887 -11.715  0.00  0.00     0.028 H 
ATOM     43  H   LIG d   1      -0.304  -2.288 -10.998  0.00  0.00     0.028 H 
ENDBRANCH   4  40
BRANCH   1  44
ATOM     44  C   LIG d   1       4.573  -0.546 -14.450  0.00  0.00    -0.039 C 
ATOM     45  H   LIG d   1       5.308  -0.047 -13.802  0.00  0.00     0.028 H 
ATOM     46  H   LIG d   1       4.107   0.196 -15.116  0.00  0.00     0.028 H 
ATOM     47  H   LIG d   1       5.076  -1.315 -15.053  0.00  0.00     0.028 H 
ENDBRANCH   1  44
BRANCH   3  48
ATOM     48  O   LIG d   1       1.008  -3.818 -13.843  0.00  0.00    -0.490 OA
BRANCH  48  49
ATOM     49  C   LIG d   1       1.653  -5.078 -14.040  0.00  0.00     0.102 C 
ATOM     50  H   LIG d   1       1.920  -5.192 -15.101  0.00  0.00     0.071 H 
ATOM     51  H   LIG d   1       2.565  -5.123 -13.425  0.00  0.00     0.071 H 
BRANCH  49  52
ATOM     52  C   LIG d   1       0.705  -6.206 -13.629  0.00  0.00     0.033 C 
ATOM     53  H   LIG d   1      -0.319  -5.960 -13.950  0.00  0.00     0.046 H 
ATOM     54  H   LIG d   1       1.022  -7.145 -14.106  0.00  0.00     0.046 H 
BRANCH  52  55
ATOM     55  N   LIG d   1       0.735  -6.365 -12.169  0.00  0.00    -0.295 N 
ATOM     56  C   LIG d   1       0.056  -7.603 -11.759  0.00  0.00     0.022 C 
ATOM     57  C   LIG d   1       0.058  -7.698 -10.231  0.00  0.00     0.060 C 
ATOM     58  H   LIG d   1      -0.981  -7.591 -12.126  0.00  0.00     0.045 H 
ATOM     59  H   LIG d   1       0.585  -8.469 -12.183  0.00  0.00     0.045 H 
ATOM     60  O   LIG d   1       1.406  -7.638  -9.757  0.00  0.00    -0.377 OA
ATOM     61  H   LIG d   1      -0.398  -8.651  -9.921  0.00  0.00     0.057 H 
ATOM     62  H   LIG d   1      -0.517  -6.862  -9.809  0.00  0.00     0.057 H 
ATOM     63  C   LIG d   1       2.097  -6.444 -10.137  0.00  0.00     0.060 C 
ATOM     64  C   LIG d   1       2.116  -6.336 -11.664  0.00  0.00     0.022 C 
ATOM     65  H   LIG d   1       3.129  -6.481  -9.759  0.00  0.00     0.057 H 
ATOM     66  H   LIG d   1       1.582  -5.569  -9.714  0.00  0.00     0.057 H 
ATOM     67  H   LIG d   1       2.678  -7.182 -12.087  0.00  0.00     0.045 H 
ATOM     68  H   LIG d   1       2.595  -5.392 -11.961  0.00  0.00     0.045 H 
ENDBRANCH  52  55
ENDBRANCH  49  52
ENDBRANCH  48  49
ENDBRANCH   3  48
TORSDOF 11
ENDMDL
MODEL 5
REMARK VINA RESULT:      -6.5      1.892      9.152
REMARK  11 active torsions:
REMARK  status: ('A' for Active; 'I' for Inactive)
REMARK    1  A    between atoms: C_1  and  C_2 
REMARK    2  A    between atoms: C_4  and  O_26 
REMARK    3  A    between atoms: C_5  and  C_25 
REMARK    4  A    between atoms: C_10  and  C_13 
REMARK    5  A    between atoms: C_13  and  C_15 
REMARK    6  A    between atoms: C_13  and  C_16 
REMARK       I    between atoms: C_16  and  N_18 
REMARK    7  A    between atoms: N_18  and  C_19 
REMARK    8  A    between atoms: C_19  and  C_20 
REMARK    9  A    between atoms: O_26  and  C_27 
REMARK   10  A    between atoms: C_27  and  C_28 
REMARK   11  A    between atoms: C_28  and  N_29 
ROOT
ATOM      1  C   LIG d   1       2.585  -5.383  -9.896  0.00  0.00    -0.043 A 
ATOM      2  C   LIG d   1       1.679  -5.622 -10.907  0.00  0.00    -0.017 A 
ATOM      3  C   LIG d   1       1.088  -4.553 -11.567  0.00  0.00     0.124 A 
ATOM      4  C   LIG d   1       1.418  -3.258 -11.206  0.00  0.00    -0.005 A 
ATOM      5  C   LIG d   1       2.332  -3.021 -10.188  0.00  0.00    -0.037 A 
ATOM      6  C   LIG d   1       2.913  -4.084  -9.532  0.00  0.00    -0.041 A 
ATOM      7  C   LIG d   1       3.901  -3.900  -8.409  0.00  0.00    -0.027 C 
ATOM      8  C   LIG d   1       4.470  -2.483  -8.420  0.00  0.00    -0.045 C 
ATOM      9  C   LIG d   1       3.300  -1.493  -8.472  0.00  0.00    -0.026 C 
ATOM     10  H   LIG d   1       2.564  -1.732  -7.690  0.00  0.00     0.031 H 
ATOM     11  C   LIG d   1       2.649  -1.588  -9.850  0.00  0.00    -0.024 C 
ATOM     12  H   LIG d   1       1.429  -6.635 -11.184  0.00  0.00     0.066 H 
ATOM     13  H   LIG d   1       3.399  -4.075  -7.446  0.00  0.00     0.031 H 
ATOM     14  H   LIG d   1       4.728  -4.617  -8.527  0.00  0.00     0.031 H 
ATOM     15  H   LIG d   1       5.063  -2.318  -7.509  0.00  0.00     0.027 H 
ATOM     16  H   LIG d   1       5.112  -2.353  -9.304  0.00  0.00     0.027 H 
ATOM     17  H   LIG d   1       3.340  -1.178 -10.600  0.00  0.00     0.032 H 
ATOM     18  H   LIG d   1       1.720  -0.998  -9.847  0.00  0.00     0.032 H 
ENDROOT
BRANCH   9  19
ATOM     19  C   LIG d   1       3.818  -0.071  -8.244  0.00  0.00     0.036 C 
ATOM     20  H   LIG d   1       3.585   0.557  -9.117  0.00  0.00     0.039 H 
BRANCH  19  21
ATOM     21  C   LIG d   1       5.331  -0.109  -8.021  0.00  0.00    -0.054 C 
ATOM     22  H   LIG d   1       5.573  -0.885  -7.280  0.00  0.00     0.024 H 
ATOM     23  H   LIG d   1       5.673   0.870  -7.654  0.00  0.00     0.024 H 
ATOM     24  H   LIG d   1       5.836  -0.340  -8.971  0.00  0.00     0.024 H 
ENDBRANCH  19  21
BRANCH  19  25
ATOM     25  C   LIG d   1       3.147   0.520  -7.032  0.00  0.00     0.216 C 
ATOM     26  O   LIG d   1       2.815   1.686  -7.029  0.00  0.00    -0.276 OA
ATOM     27  N   LIG d   1       2.915  -0.249  -5.948  0.00  0.00    -0.308 N 
ATOM     28  H   LIG d   1       3.216  -1.307  -5.951  0.00  0.00     0.149 HD
BRANCH  27  29
ATOM     29  C   LIG d   1       2.262   0.325  -4.770  0.00  0.00     0.070 C 
ATOM     30  H   LIG d   1       1.887   1.331  -5.012  0.00  0.00     0.054 H 
ATOM     31  H   LIG d   1       1.422  -0.317  -4.465  0.00  0.00     0.054 H 
BRANCH  29  32
ATOM     32  C   LIG d   1       3.257   0.419  -3.640  0.00  0.00     0.122 A 
ATOM     33  O   LIG d   1       4.143   1.411  -3.455  0.00  0.00    -0.466 OA
ATOM     34  C   LIG d   1       4.865   1.164  -2.349  0.00  0.00     0.092 A 
ATOM     35  C   LIG d   1       4.442   0.004  -1.814  0.00  0.00    -0.024 A 
ATOM     36  H   LIG d   1       5.651   1.792  -1.956  0.00  0.00     0.103 H 
ATOM     37  C   LIG d   1       3.401  -0.473  -2.644  0.00  0.00    -0.019 A 
ATOM     38  H   LIG d   1       4.821  -0.469  -0.921  0.00  0.00     0.065 H 
ATOM     39  H   LIG d   1       2.833  -1.381  -2.506  0.00  0.00     0.065 H 
ENDBRANCH  29  32
ENDBRANCH  27  29
ENDBRANCH  19  25
ENDBRANCH   9  19
BRANCH   4  40
ATOM     40  C   LIG d   1       0.779  -2.096 -11.921  0.00  0.00    -0.036 C 
ATOM     41  H   LIG d   1       0.224  -2.464 -12.796  0.00  0.00     0.028 H 
ATOM     42  H   LIG d   1       1.560  -1.395 -12.251  0.00  0.00     0.028 H 
ATOM     43  H   LIG d   1       0.087  -1.581 -11.238  0.00  0.00     0.028 H 
ENDBRANCH   4  40
BRANCH   1  44
ATOM     44  C   LIG d   1       3.226  -6.544  -9.180  0.00  0.00    -0.039 C 
ATOM     45  H   LIG d   1       2.475  -7.329  -9.007  0.00  0.00     0.028 H 
ATOM     46  H   LIG d   1       3.627  -6.203  -8.214  0.00  0.00     0.028 H 
ATOM     47  H   LIG d   1       4.043  -6.947  -9.794  0.00  0.00     0.028 H 
ENDBRANCH   1  44
BRANCH   3  48
ATOM     48  O   LIG d   1       0.193  -4.776 -12.564  0.00  0.00    -0.490 OA
BRANCH  48  49
ATOM     49  C   LIG d   1      -0.452  -6.052 -12.584  0.00  0.00     0.102 C 
ATOM     50  H   LIG d   1      -0.046  -6.655 -13.410  0.00  0.00     0.071 H 
ATOM     51  H   LIG d   1      -0.270  -6.569 -11.629  0.00  0.00     0.071 H 
BRANCH  49  52
ATOM     52  C   LIG d   1      -1.956  -5.860 -12.783  0.00  0.00     0.033 C 
ATOM     53  H   LIG d   1      -2.151  -4.837 -13.136  0.00  0.00     0.046 H 
ATOM     54  H   LIG d   1      -2.323  -6.581 -13.528  0.00  0.00     0.046 H 
BRANCH  52  55
ATOM     55  N   LIG d   1      -2.651  -6.078 -11.507  0.00  0.00    -0.295 N 
ATOM     56  C   LIG d   1      -1.835  -6.891 -10.594  0.00  0.00     0.022 C 
ATOM     57  C   LIG d   1      -2.619  -7.144  -9.304  0.00  0.00     0.060 C 
ATOM     58  H   LIG d   1      -1.594  -7.851 -11.074  0.00  0.00     0.045 H 
ATOM     59  H   LIG d   1      -0.902  -6.355 -10.360  0.00  0.00     0.045 H 
ATOM     60  O   LIG d   1      -2.991  -5.890  -8.726  0.00  0.00    -0.377 OA
ATOM     61  H   LIG d   1      -1.990  -7.703  -8.595  0.00  0.00     0.057 H 
ATOM     62  H   LIG d   1      -3.523  -7.726  -9.531  0.00  0.00     0.057 H 
ATOM     63  C   LIG d   1      -3.789  -5.073  -9.587  0.00  0.00     0.060 C 
ATOM     64  C   LIG d   1      -3.016  -4.799 -10.880  0.00  0.00     0.022 C 
ATOM     65  H   LIG d   1      -4.014  -4.120  -9.086  0.00  0.00     0.057 H 
ATOM     66  H   LIG d   1      -4.728  -5.593  -9.825  0.00  0.00     0.057 H 
ATOM     67  H   LIG d   1      -2.103  -4.230 -10.651  0.00  0.00     0.045 H 
ATOM     68  H   LIG d   1      -3.646  -4.219 -11.571  0.00  0.00     0.045 H 
ENDBRANCH  52  55
ENDBRANCH  49  52
ENDBRANCH  48  49
ENDBRANCH   3  48
TORSDOF 11
ENDMDL
MODEL 6
REMARK VINA RESULT:      -6.4      5.270      8.772
REMARK  11 active torsions:
REMARK  status: ('A' for Active; 'I' for Inactive)
REMARK    1  A    between atoms: C_1  and  C_2 
REMARK    2  A    between atoms: C_4  and  O_26 
REMARK    3  A    between atoms: C_5  and  C_25 
REMARK    4  A    between atoms: C_10  and  C_13 
REMARK    5  A    between atoms: C_13  and  C_15 
REMARK    6  A    between atoms: C_13  and  C_16 
REMARK       I    between atoms: C_16  and  N_18 
REMARK    7  A    between atoms: N_18  and  C_19 
REMARK    8  A    between atoms: C_19  and  C_20 
REMARK    9  A    between atoms: O_26  and  C_27 
REMARK   10  A    between atoms: C_27  and  C_28 
REMARK   11  A    between atoms: C_28  and  N_29 
ROOT
ATOM      1  C   LIG d   1       8.085  -4.624  -4.605  0.00  0.00    -0.043 A 
ATOM      2  C   LIG d   1       7.661  -5.633  -5.444  0.00  0.00    -0.017 A 
ATOM      3  C   LIG d   1       6.417  -5.544  -6.052  0.00  0.00     0.124 A 
ATOM      4  C   LIG d   1       5.614  -4.441  -5.812  0.00  0.00    -0.005 A 
ATOM      5  C   LIG d   1       6.045  -3.426  -4.969  0.00  0.00    -0.037 A 
ATOM      6  C   LIG d   1       7.279  -3.519  -4.364  0.00  0.00    -0.041 A 
ATOM      7  C   LIG d   1       7.802  -2.463  -3.426  0.00  0.00    -0.027 C 
ATOM      8  C   LIG d   1       7.027  -1.159  -3.599  0.00  0.00    -0.045 C 
ATOM      9  C   LIG d   1       5.528  -1.473  -3.509  0.00  0.00    -0.026 C 
ATOM     10  H   LIG d   1       5.316  -2.066  -2.608  0.00  0.00     0.031 H 
ATOM     11  C   LIG d   1       5.124  -2.253  -4.757  0.00  0.00    -0.024 C 
ATOM     12  H   LIG d   1       8.294  -6.488  -5.627  0.00  0.00     0.066 H 
ATOM     13  H   LIG d   1       7.693  -2.808  -2.387  0.00  0.00     0.031 H 
ATOM     14  H   LIG d   1       8.865  -2.276  -3.640  0.00  0.00     0.031 H 
ATOM     15  H   LIG d   1       7.312  -0.454  -2.804  0.00  0.00     0.027 H 
ATOM     16  H   LIG d   1       7.261  -0.720  -4.579  0.00  0.00     0.027 H 
ATOM     17  H   LIG d   1       5.175  -1.585  -5.629  0.00  0.00     0.032 H 
ATOM     18  H   LIG d   1       4.093  -2.615  -4.633  0.00  0.00     0.032 H 
ENDROOT
BRANCH   9  19
ATOM     19  C   LIG d   1       4.732  -0.167  -3.438  0.00  0.00     0.036 C 
ATOM     20  H   LIG d   1       5.405   0.690  -3.594  0.00  0.00     0.039 H 
BRANCH  19  21
ATOM     21  C   LIG d   1       4.056  -0.055  -2.071  0.00  0.00    -0.054 C 
ATOM     22  H   LIG d   1       3.245   0.687  -2.122  0.00  0.00     0.024 H 
ATOM     23  H   LIG d   1       4.796   0.261  -1.320  0.00  0.00     0.024 H 
ATOM     24  H   LIG d   1       3.640  -1.033  -1.786  0.00  0.00     0.024 H 
ENDBRANCH  19  21
BRANCH  19  25
ATOM     25  C   LIG d   1       3.683  -0.160  -4.520  0.00  0.00     0.216 C 
ATOM     26  O   LIG d   1       2.546  -0.493  -4.265  0.00  0.00    -0.276 OA
ATOM     27  N   LIG d   1       4.009   0.216  -5.773  0.00  0.00    -0.308 N 
ATOM     28  H   LIG d   1       5.042   0.518  -6.005  0.00  0.00     0.149 HD
BRANCH  27  29
ATOM     29  C   LIG d   1       2.990   0.222  -6.824  0.00  0.00     0.070 C 
ATOM     30  H   LIG d   1       2.822  -0.806  -7.178  0.00  0.00     0.054 H 
ATOM     31  H   LIG d   1       2.050   0.630  -6.422  0.00  0.00     0.054 H 
BRANCH  29  32
ATOM     32  C   LIG d   1       3.457   1.079  -7.973  0.00  0.00     0.122 A 
ATOM     33  O   LIG d   1       4.723   1.467  -8.199  0.00  0.00    -0.466 OA
ATOM     34  C   LIG d   1       4.769   2.219  -9.311  0.00  0.00     0.092 A 
ATOM     35  C   LIG d   1       3.523   2.317  -9.810  0.00  0.00    -0.024 A 
ATOM     36  H   LIG d   1       5.656   2.667  -9.734  0.00  0.00     0.103 H 
ATOM     37  C   LIG d   1       2.679   1.577  -8.950  0.00  0.00    -0.019 A 
ATOM     38  H   LIG d   1       3.226   2.854 -10.698  0.00  0.00     0.065 H 
ATOM     39  H   LIG d   1       1.613   1.442  -9.056  0.00  0.00     0.065 H 
ENDBRANCH  29  32
ENDBRANCH  27  29
ENDBRANCH  19  25
ENDBRANCH   9  19
BRANCH   4  40
ATOM     40  C   LIG d   1       4.263  -4.342  -6.471  0.00  0.00    -0.036 C 
ATOM     41  H   LIG d   1       3.608  -3.694  -5.870  0.00  0.00     0.028 H 
ATOM     42  H   LIG d   1       3.817  -5.345  -6.547  0.00  0.00     0.028 H 
ATOM     43  H   LIG d   1       4.377  -3.915  -7.479  0.00  0.00     0.028 H 
ENDBRANCH   4  40
BRANCH   1  44
ATOM     44  C   LIG d   1       9.437  -4.721  -3.946  0.00  0.00    -0.039 C 
ATOM     45  H   LIG d   1      10.073  -3.893  -4.291  0.00  0.00     0.028 H 
ATOM     46  H   LIG d   1       9.907  -5.680  -4.213  0.00  0.00     0.028 H 
ATOM     47  H   LIG d   1       9.317  -4.663  -2.855  0.00  0.00     0.028 H 
ENDBRANCH   1  44
BRANCH   3  48
ATOM     48  O   LIG d   1       5.988  -6.533  -6.879  0.00  0.00    -0.490 OA
BRANCH  48  49
ATOM     49  C   LIG d   1       6.265  -7.878  -6.480  0.00  0.00     0.102 C 
ATOM     50  H   LIG d   1       6.616  -8.453  -7.350  0.00  0.00     0.071 H 
ATOM     51  H   LIG d   1       7.044  -7.876  -5.704  0.00  0.00     0.071 H 
BRANCH  49  52
ATOM     52  C   LIG d   1       4.992  -8.518  -5.925  0.00  0.00     0.033 C 
ATOM     53  H   LIG d   1       4.348  -7.737  -5.493  0.00  0.00     0.046 H 
ATOM     54  H   LIG d   1       4.453  -9.029  -6.737  0.00  0.00     0.046 H 
BRANCH  52  55
ATOM     55  N   LIG d   1       5.346  -9.491  -4.884  0.00  0.00    -0.295 N 
ATOM     56  C   LIG d   1       6.562  -9.079  -4.169  0.00  0.00     0.022 C 
ATOM     57  C   LIG d   1       6.928 -10.148  -3.136  0.00  0.00     0.060 C 
ATOM     58  H   LIG d   1       7.387  -8.961  -4.886  0.00  0.00     0.045 H 
ATOM     59  H   LIG d   1       6.381  -8.121  -3.659  0.00  0.00     0.045 H 
ATOM     60  O   LIG d   1       5.822 -10.348  -2.253  0.00  0.00    -0.377 OA
ATOM     61  H   LIG d   1       7.805  -9.818  -2.559  0.00  0.00     0.057 H 
ATOM     62  H   LIG d   1       7.162 -11.091  -3.650  0.00  0.00     0.057 H 
ATOM     63  C   LIG d   1       4.621 -10.752  -2.915  0.00  0.00     0.060 C 
ATOM     64  C   LIG d   1       4.231  -9.688  -3.945  0.00  0.00     0.022 C 
ATOM     65  H   LIG d   1       3.813 -10.861  -2.178  0.00  0.00     0.057 H 
ATOM     66  H   LIG d   1       4.785 -11.713  -3.424  0.00  0.00     0.057 H 
ATOM     67  H   LIG d   1       4.013  -8.740  -3.432  0.00  0.00     0.045 H 
ATOM     68  H   LIG d   1       3.340 -10.020  -4.498  0.00  0.00     0.045 H 
ENDBRANCH  52  55
ENDBRANCH  49  52
ENDBRANCH  48  49
ENDBRANCH   3  48
TORSDOF 11
ENDMDL
MODEL 7
REMARK VINA RESULT:      -6.3      8.665     12.669
REMARK  11 active torsions:
REMARK  status: ('A' for Active; 'I' for Inactive)
REMARK    1  A    between atoms: C_1  and  C_2 
REMARK    2  A    between atoms: C_4  and  O_26 
REMARK    3  A    between atoms: C_5  and  C_25 
REMARK    4  A    between atoms: C_10  and  C_13 
REMARK    5  A    between atoms: C_13  and  C_15 
REMARK    6  A    between atoms: C_13  and  C_16 
REMARK       I    between atoms: C_16  and  N_18 
REMARK    7  A    between atoms: N_18  and  C_19 
REMARK    8  A    between atoms: C_19  and  C_20 
REMARK    9  A    between atoms: O_26  and  C_27 
REMARK   10  A    between atoms: C_27  and  C_28 
REMARK   11  A    between atoms: C_28  and  N_29 
ROOT
ATOM      1  C   LIG d   1       9.926   7.360  -6.815  0.00  0.00    -0.043 A 
ATOM      2  C   LIG d   1       9.997   8.570  -6.157  0.00  0.00    -0.017 A 
ATOM      3  C   LIG d   1       9.968   8.601  -4.770  0.00  0.00     0.124 A 
ATOM      4  C   LIG d   1       9.871   7.416  -4.060  0.00  0.00    -0.005 A 
ATOM      5  C   LIG d   1       9.801   6.200  -4.725  0.00  0.00    -0.037 A 
ATOM      6  C   LIG d   1       9.826   6.173  -6.102  0.00  0.00    -0.041 A 
ATOM      7  C   LIG d   1       9.738   4.891  -6.889  0.00  0.00    -0.027 C 
ATOM      8  C   LIG d   1      10.064   3.692  -6.000  0.00  0.00    -0.045 C 
ATOM      9  C   LIG d   1       9.201   3.780  -4.735  0.00  0.00    -0.026 C 
ATOM     10  H   LIG d   1       8.146   3.933  -5.003  0.00  0.00     0.031 H 
ATOM     11  C   LIG d   1       9.702   4.950  -3.892  0.00  0.00    -0.024 C 
ATOM     12  H   LIG d   1      10.075   9.489  -6.718  0.00  0.00     0.066 H 
ATOM     13  H   LIG d   1       8.719   4.773  -7.286  0.00  0.00     0.031 H 
ATOM     14  H   LIG d   1      10.456   4.922  -7.722  0.00  0.00     0.031 H 
ATOM     15  H   LIG d   1       9.842   2.762  -6.543  0.00  0.00     0.027 H 
ATOM     16  H   LIG d   1      11.130   3.714  -5.731  0.00  0.00     0.027 H 
ATOM     17  H   LIG d   1      10.693   4.699  -3.486  0.00  0.00     0.032 H 
ATOM     18  H   LIG d   1       8.999   5.117  -3.062  0.00  0.00     0.032 H 
ENDROOT
BRANCH   9  19
ATOM     19  C   LIG d   1       9.324   2.479  -3.937  0.00  0.00     0.036 C 
ATOM     20  H   LIG d   1       9.208   2.687  -2.863  0.00  0.00     0.039 H 
BRANCH  19  21
ATOM     21  C   LIG d   1      10.693   1.848  -4.198  0.00  0.00    -0.054 C 
ATOM     22  H   LIG d   1      10.695   1.374  -5.191  0.00  0.00     0.024 H 
ATOM     23  H   LIG d   1      10.900   1.089  -3.429  0.00  0.00     0.024 H 
ATOM     24  H   LIG d   1      11.469   2.627  -4.162  0.00  0.00     0.024 H 
ENDBRANCH  19  21
BRANCH  19  25
ATOM     25  C   LIG d   1       8.241   1.524  -4.365  0.00  0.00     0.216 C 
ATOM     26  O   LIG d   1       7.473   1.834  -5.251  0.00  0.00    -0.276 OA
ATOM     27  N   LIG d   1       8.123   0.324  -3.761  0.00  0.00    -0.308 N 
ATOM     28  H   LIG d   1       8.819   0.044  -2.956  0.00  0.00     0.149 HD
BRANCH  27  29
ATOM     29  C   LIG d   1       7.069  -0.604  -4.176  0.00  0.00     0.070 C 
ATOM     30  H   LIG d   1       6.687  -0.306  -5.164  0.00  0.00     0.054 H 
ATOM     31  H   LIG d   1       7.479  -1.623  -4.233  0.00  0.00     0.054 H 
BRANCH  29  32
ATOM     32  C   LIG d   1       5.945  -0.571  -3.172  0.00  0.00     0.122 A 
ATOM     33  O   LIG d   1       5.298  -1.641  -2.681  0.00  0.00    -0.466 OA
ATOM     34  C   LIG d   1       4.359  -1.236  -1.810  0.00  0.00     0.092 A 
ATOM     35  C   LIG d   1       4.400   0.108  -1.736  0.00  0.00    -0.024 A 
ATOM     36  H   LIG d   1       3.687  -1.879  -1.262  0.00  0.00     0.103 H 
ATOM     37  C   LIG d   1       5.427   0.535  -2.609  0.00  0.00    -0.019 A 
ATOM     38  H   LIG d   1       3.772   0.737  -1.123  0.00  0.00     0.065 H 
ATOM     39  H   LIG d   1       5.732   1.555  -2.791  0.00  0.00     0.065 H 
ENDBRANCH  29  32
ENDBRANCH  27  29
ENDBRANCH  19  25
ENDBRANCH   9  19
BRANCH   4  40
ATOM     40  C   LIG d   1       9.840   7.447  -2.554  0.00  0.00    -0.036 C 
ATOM     41  H   LIG d   1      10.136   6.463  -2.161  0.00  0.00     0.028 H 
ATOM     42  H   LIG d   1       8.822   7.686  -2.213  0.00  0.00     0.028 H 
ATOM     43  H   LIG d   1      10.539   8.213  -2.189  0.00  0.00     0.028 H 
ENDBRANCH   4  40
BRANCH   1  44
ATOM     44  C   LIG d   1       9.958   7.328  -8.322  0.00  0.00    -0.039 C 
ATOM     45  H   LIG d   1      10.777   6.676  -8.657  0.00  0.00     0.028 H 
ATOM     46  H   LIG d   1      10.119   8.346  -8.706  0.00  0.00     0.028 H 
ATOM     47  H   LIG d   1       9.001   6.940  -8.700  0.00  0.00     0.028 H 
ENDBRANCH   1  44
BRANCH   3  48
ATOM     48  O   LIG d   1      10.037   9.788  -4.111  0.00  0.00    -0.490 OA
BRANCH  48  49
ATOM     49  C   LIG d   1      11.246  10.537  -4.250  0.00  0.00     0.102 C 
ATOM     50  H   LIG d   1      11.916  10.312  -3.408  0.00  0.00     0.071 H 
ATOM     51  H   LIG d   1      11.740  10.264  -5.195  0.00  0.00     0.071 H 
BRANCH  49  52
ATOM     52  C   LIG d   1      10.921  12.032  -4.258  0.00  0.00     0.033 C 
ATOM     53  H   LIG d   1       9.936  12.195  -3.796  0.00  0.00     0.046 H 
ATOM     54  H   LIG d   1      11.687  12.578  -3.688  0.00  0.00     0.046 H 
BRANCH  52  55
ATOM     55  N   LIG d   1      10.900  12.522  -5.642  0.00  0.00    -0.295 N 
ATOM     56  C   LIG d   1      11.829  11.758  -6.486  0.00  0.00     0.022 C 
ATOM     57  C   LIG d   1      11.820  12.339  -7.903  0.00  0.00     0.060 C 
ATOM     58  H   LIG d   1      12.844  11.824  -6.067  0.00  0.00     0.045 H 
ATOM     59  H   LIG d   1      11.514  10.704  -6.518  0.00  0.00     0.045 H 
ATOM     60  O   LIG d   1      10.485  12.318  -8.412  0.00  0.00    -0.377 OA
ATOM     61  H   LIG d   1      12.471  11.734  -8.553  0.00  0.00     0.057 H 
ATOM     62  H   LIG d   1      12.187  13.375  -7.878  0.00  0.00     0.057 H 
ATOM     63  C   LIG d   1       9.552  13.054  -7.616  0.00  0.00     0.060 C 
ATOM     64  C   LIG d   1       9.538  12.480  -6.196  0.00  0.00     0.022 C 
ATOM     65  H   LIG d   1       8.548  12.972  -8.054  0.00  0.00     0.057 H 
ATOM     66  H   LIG d   1       9.852  14.112  -7.580  0.00  0.00     0.057 H 
ATOM     67  H   LIG d   1       9.186  11.438  -6.223  0.00  0.00     0.045 H 
ATOM     68  H   LIG d   1       8.867  13.078  -5.563  0.00  0.00     0.045 H 
ENDBRANCH  52  55
ENDBRANCH  49  52
ENDBRANCH  48  49
ENDBRANCH   3  48
TORSDOF 11
ENDMDL
MODEL 8
REMARK VINA RESULT:      -6.2      8.434     12.515
REMARK  11 active torsions:
REMARK  status: ('A' for Active; 'I' for Inactive)
REMARK    1  A    between atoms: C_1  and  C_2 
REMARK    2  A    between atoms: C_4  and  O_26 
REMARK    3  A    between atoms: C_5  and  C_25 
REMARK    4  A    between atoms: C_10  and  C_13 
REMARK    5  A    between atoms: C_13  and  C_15 
REMARK    6  A    between atoms: C_13  and  C_16 
REMARK       I    between atoms: C_16  and  N_18 
REMARK    7  A    between atoms: N_18  and  C_19 
REMARK    8  A    between atoms: C_19  and  C_20 
REMARK    9  A    between atoms: O_26  and  C_27 
REMARK   10  A    between atoms: C_27  and  C_28 
REMARK   11  A    between atoms: C_28  and  N_29 
ROOT
ATOM      1  C   LIG d   1       9.834   7.508  -5.548  0.00  0.00    -0.043 A 
ATOM      2  C   LIG d   1       9.949   8.514  -4.612  0.00  0.00    -0.017 A 
ATOM      3  C   LIG d   1       9.994   8.195  -3.262  0.00  0.00     0.124 A 
ATOM      4  C   LIG d   1       9.926   6.869  -2.869  0.00  0.00    -0.005 A 
ATOM      5  C   LIG d   1       9.813   5.859  -3.814  0.00  0.00    -0.037 A 
ATOM      6  C   LIG d   1       9.763   6.179  -5.153  0.00  0.00    -0.041 A 
ATOM      7  C   LIG d   1       9.625   5.135  -6.231  0.00  0.00    -0.027 C 
ATOM      8  C   LIG d   1       9.989   3.754  -5.691  0.00  0.00    -0.045 C 
ATOM      9  C   LIG d   1       9.196   3.515  -4.400  0.00  0.00    -0.026 C 
ATOM     10  H   LIG d   1       8.129   3.724  -4.565  0.00  0.00     0.031 H 
ATOM     11  C   LIG d   1       9.749   4.438  -3.317  0.00  0.00    -0.024 C 
ATOM     12  H   LIG d   1      10.004   9.545  -4.927  0.00  0.00     0.066 H 
ATOM     13  H   LIG d   1       8.586   5.114  -6.590  0.00  0.00     0.031 H 
ATOM     14  H   LIG d   1      10.298   5.379  -7.066  0.00  0.00     0.031 H 
ATOM     15  H   LIG d   1       9.733   2.988  -6.438  0.00  0.00     0.027 H 
ATOM     16  H   LIG d   1      11.068   3.714  -5.482  0.00  0.00     0.027 H 
ATOM     17  H   LIG d   1      10.759   4.100  -3.041  0.00  0.00     0.032 H 
ATOM     18  H   LIG d   1       9.092   4.387  -2.436  0.00  0.00     0.032 H 
ENDROOT
BRANCH   9  19
ATOM     19  C   LIG d   1       9.352   2.056  -3.962  0.00  0.00     0.036 C 
ATOM     20  H   LIG d   1       9.412   1.999  -2.865  0.00  0.00     0.039 H 
BRANCH  19  21
ATOM     21  C   LIG d   1      10.621   1.471  -4.583  0.00  0.00    -0.054 C 
ATOM     22  H   LIG d   1      11.086   0.769  -3.875  0.00  0.00     0.024 H 
ATOM     23  H   LIG d   1      11.327   2.284  -4.811  0.00  0.00     0.024 H 
ATOM     24  H   LIG d   1      10.364   0.938  -5.511  0.00  0.00     0.024 H 
ENDBRANCH  19  21
BRANCH  19  25
ATOM     25  C   LIG d   1       8.156   1.264  -4.422  0.00  0.00     0.216 C 
ATOM     26  O   LIG d   1       7.613   1.538  -5.472  0.00  0.00    -0.276 OA
ATOM     27  N   LIG d   1       7.688   0.251  -3.667  0.00  0.00    -0.308 N 
ATOM     28  H   LIG d   1       8.180   0.003  -2.714  0.00  0.00     0.149 HD
BRANCH  27  29
ATOM     29  C   LIG d   1       6.525  -0.519  -4.113  0.00  0.00     0.070 C 
ATOM     30  H   LIG d   1       6.398  -0.395  -5.199  0.00  0.00     0.054 H 
ATOM     31  H   LIG d   1       6.677  -1.584  -3.881  0.00  0.00     0.054 H 
BRANCH  29  32
ATOM     32  C   LIG d   1       5.290  -0.023  -3.404  0.00  0.00     0.122 A 
ATOM     33  O   LIG d   1       4.031  -0.418  -3.650  0.00  0.00    -0.466 OA
ATOM     34  C   LIG d   1       3.189   0.232  -2.829  0.00  0.00     0.092 A 
ATOM     35  C   LIG d   1       3.910   1.055  -2.045  0.00  0.00    -0.024 A 
ATOM     36  H   LIG d   1       2.116   0.114  -2.803  0.00  0.00     0.103 H 
ATOM     37  C   LIG d   1       5.265   0.885  -2.413  0.00  0.00    -0.019 A 
ATOM     38  H   LIG d   1       3.528   1.713  -1.280  0.00  0.00     0.065 H 
ATOM     39  H   LIG d   1       6.116   1.392  -1.981  0.00  0.00     0.065 H 
ENDBRANCH  29  32
ENDBRANCH  27  29
ENDBRANCH  19  25
ENDBRANCH   9  19
BRANCH   4  40
ATOM     40  C   LIG d   1       9.976   6.520  -1.405  0.00  0.00    -0.036 C 
ATOM     41  H   LIG d   1       9.941   7.442  -0.806  0.00  0.00     0.028 H 
ATOM     42  H   LIG d   1      10.908   5.978  -1.188  0.00  0.00     0.028 H 
ATOM     43  H   LIG d   1       9.114   5.885  -1.150  0.00  0.00     0.028 H 
ENDBRANCH   4  40
BRANCH   1  44
ATOM     44  C   LIG d   1       9.786   7.856  -7.014  0.00  0.00    -0.039 C 
ATOM     45  H   LIG d   1       9.745   8.948  -7.131  0.00  0.00     0.028 H 
ATOM     46  H   LIG d   1       8.890   7.405  -7.468  0.00  0.00     0.028 H 
ATOM     47  H   LIG d   1      10.684   7.466  -7.513  0.00  0.00     0.028 H 
ENDBRANCH   1  44
BRANCH   3  48
ATOM     48  O   LIG d   1      10.106   9.178  -2.331  0.00  0.00    -0.490 OA
BRANCH  48  49
ATOM     49  C   LIG d   1      11.404   9.748  -2.143  0.00  0.00     0.102 C 
ATOM     50  H   LIG d   1      11.733   9.576  -1.108  0.00  0.00     0.071 H 
ATOM     51  H   LIG d   1      12.115   9.277  -2.837  0.00  0.00     0.071 H 
BRANCH  49  52
ATOM     52  C   LIG d   1      11.344  11.252  -2.416  0.00  0.00     0.033 C 
ATOM     53  H   LIG d   1      12.149  11.531  -3.112  0.00  0.00     0.046 H 
ATOM     54  H   LIG d   1      10.371  11.506  -2.861  0.00  0.00     0.046 H 
BRANCH  52  55
ATOM     55  N   LIG d   1      11.511  11.986  -1.155  0.00  0.00    -0.295 N 
ATOM     56  C   LIG d   1      10.385  12.902  -0.925  0.00  0.00     0.022 C 
ATOM     57  C   LIG d   1      10.629  13.689   0.366  0.00  0.00     0.060 C 
ATOM     58  H   LIG d   1      10.301  13.600  -1.771  0.00  0.00     0.045 H 
ATOM     59  H   LIG d   1       9.454  12.323  -0.833  0.00  0.00     0.045 H 
ATOM     60  O   LIG d   1      10.812  12.773   1.448  0.00  0.00    -0.377 OA
ATOM     61  H   LIG d   1       9.762  14.334   0.574  0.00  0.00     0.057 H 
ATOM     62  H   LIG d   1      11.530  14.309   0.255  0.00  0.00     0.057 H 
ATOM     63  C   LIG d   1      11.902  11.866   1.259  0.00  0.00     0.060 C 
ATOM     64  C   LIG d   1      11.670  11.061  -0.023  0.00  0.00     0.022 C 
ATOM     65  H   LIG d   1      11.964  11.181   2.116  0.00  0.00     0.057 H 
ATOM     66  H   LIG d   1      12.841  12.432   1.172  0.00  0.00     0.057 H 
ATOM     67  H   LIG d   1      10.760  10.453   0.083  0.00  0.00     0.045 H 
ATOM     68  H   LIG d   1      12.532  10.403  -0.206  0.00  0.00     0.045 H 
ENDBRANCH  52  55
ENDBRANCH  49  52
ENDBRANCH  48  49
ENDBRANCH   3  48
TORSDOF 11
ENDMDL
MODEL 9
REMARK VINA RESULT:      -6.2      5.493      8.614
REMARK  11 active torsions:
REMARK  status: ('A' for Active; 'I' for Inactive)
REMARK    1  A    between atoms: C_1  and  C_2 
REMARK    2  A    between atoms: C_4  and  O_26 
REMARK    3  A    between atoms: C_5  and  C_25 
REMARK    4  A    between atoms: C_10  and  C_13 
REMARK    5  A    between atoms: C_13  and  C_15 
REMARK    6  A    between atoms: C_13  and  C_16 
REMARK       I    between atoms: C_16  and  N_18 
REMARK    7  A    between atoms: N_18  and  C_19 
REMARK    8  A    between atoms: C_19  and  C_20 
REMARK    9  A    between atoms: O_26  and  C_27 
REMARK   10  A    between atoms: C_27  and  C_28 
REMARK   11  A    between atoms: C_28  and  N_29 
ROOT
ATOM      1  C   LIG d   1       9.862  -1.008  -5.125  0.00  0.00    -0.043 A 
ATOM      2  C   LIG d   1      10.702   0.076  -5.271  0.00  0.00    -0.017 A 
ATOM      3  C   LIG d   1      10.238   1.349  -4.973  0.00  0.00     0.124 A 
ATOM      4  C   LIG d   1       8.937   1.518  -4.530  0.00  0.00    -0.005 A 
ATOM      5  C   LIG d   1       8.095   0.424  -4.383  0.00  0.00    -0.037 A 
ATOM      6  C   LIG d   1       8.557  -0.838  -4.684  0.00  0.00    -0.041 A 
ATOM      7  C   LIG d   1       7.694  -2.067  -4.562  0.00  0.00    -0.027 C 
ATOM      8  C   LIG d   1       6.478  -1.785  -3.682  0.00  0.00    -0.045 C 
ATOM      9  C   LIG d   1       5.792  -0.514  -4.199  0.00  0.00    -0.026 C 
ATOM     10  H   LIG d   1       5.621  -0.588  -5.283  0.00  0.00     0.031 H 
ATOM     11  C   LIG d   1       6.694   0.679  -3.892  0.00  0.00    -0.024 C 
ATOM     12  H   LIG d   1      11.716  -0.065  -5.614  0.00  0.00     0.066 H 
ATOM     13  H   LIG d   1       7.348  -2.373  -5.560  0.00  0.00     0.031 H 
ATOM     14  H   LIG d   1       8.278  -2.882  -4.111  0.00  0.00     0.031 H 
ATOM     15  H   LIG d   1       5.783  -2.635  -3.733  0.00  0.00     0.027 H 
ATOM     16  H   LIG d   1       6.804  -1.639  -2.642  0.00  0.00     0.027 H 
ATOM     17  H   LIG d   1       6.710   0.844  -2.805  0.00  0.00     0.032 H 
ATOM     18  H   LIG d   1       6.287   1.571  -4.391  0.00  0.00     0.032 H 
ENDROOT
BRANCH   9  19
ATOM     19  C   LIG d   1       4.444  -0.335  -3.497  0.00  0.00     0.036 C 
ATOM     20  H   LIG d   1       4.484   0.537  -2.827  0.00  0.00     0.039 H 
BRANCH  19  21
ATOM     21  C   LIG d   1       4.117  -1.594  -2.691  0.00  0.00    -0.054 C 
ATOM     22  H   LIG d   1       3.662  -1.308  -1.732  0.00  0.00     0.024 H 
ATOM     23  H   LIG d   1       5.042  -2.160  -2.505  0.00  0.00     0.024 H 
ATOM     24  H   LIG d   1       3.412  -2.220  -3.259  0.00  0.00     0.024 H 
ENDBRANCH  19  21
BRANCH  19  25
ATOM     25  C   LIG d   1       3.369  -0.104  -4.526  0.00  0.00     0.216 C 
ATOM     26  O   LIG d   1       2.203  -0.090  -4.194  0.00  0.00    -0.276 OA
ATOM     27  N   LIG d   1       3.703   0.086  -5.819  0.00  0.00    -0.308 N 
ATOM     28  H   LIG d   1       4.761   0.072  -6.120  0.00  0.00     0.149 HD
BRANCH  27  29
ATOM     29  C   LIG d   1       2.657   0.310  -6.820  0.00  0.00     0.070 C 
ATOM     30  H   LIG d   1       2.218  -0.655  -7.112  0.00  0.00     0.054 H 
ATOM     31  H   LIG d   1       1.875   0.957  -6.396  0.00  0.00     0.054 H 
BRANCH  29  32
ATOM     32  C   LIG d   1       3.257   0.976  -8.032  0.00  0.00     0.122 A 
ATOM     33  O   LIG d   1       4.279   0.503  -8.764  0.00  0.00    -0.466 OA
ATOM     34  C   LIG d   1       4.544   1.357  -9.766  0.00  0.00     0.092 A 
ATOM     35  C   LIG d   1       3.687   2.391  -9.683  0.00  0.00    -0.024 A 
ATOM     36  H   LIG d   1       5.315   1.234 -10.513  0.00  0.00     0.103 H 
ATOM     37  C   LIG d   1       2.853   2.142  -8.568  0.00  0.00    -0.019 A 
ATOM     38  H   LIG d   1       3.642   3.244 -10.343  0.00  0.00     0.065 H 
ATOM     39  H   LIG d   1       2.049   2.770  -8.213  0.00  0.00     0.065 H 
ENDBRANCH  29  32
ENDBRANCH  27  29
ENDBRANCH  19  25
ENDBRANCH   9  19
BRANCH   4  40
ATOM     40  C   LIG d   1       8.430   2.899  -4.205  0.00  0.00    -0.036 C 
ATOM     41  H   LIG d   1       7.708   3.215  -4.973  0.00  0.00     0.028 H 
ATOM     42  H   LIG d   1       9.274   3.604  -4.185  0.00  0.00     0.028 H 
ATOM     43  H   LIG d   1       7.938   2.888  -3.222  0.00  0.00     0.028 H 
ENDBRANCH   4  40
BRANCH   1  44
ATOM     44  C   LIG d   1      10.368  -2.391  -5.449  0.00  0.00    -0.039 C 
ATOM     45  H   LIG d   1       9.832  -3.130  -4.836  0.00  0.00     0.028 H 
ATOM     46  H   LIG d   1      11.445  -2.447  -5.231  0.00  0.00     0.028 H 
ATOM     47  H   LIG d   1      10.197  -2.604  -6.513  0.00  0.00     0.028 H 
ENDBRANCH   1  44
BRANCH   3  48
ATOM     48  O   LIG d   1      11.056   2.425  -5.113  0.00  0.00    -0.490 OA
BRANCH  48  49
ATOM     49  C   LIG d   1      11.962   2.695  -4.041  0.00  0.00     0.102 C 
ATOM     50  H   LIG d   1      11.416   2.676  -3.086  0.00  0.00     0.071 H 
ATOM     51  H   LIG d   1      12.752   1.930  -4.027  0.00  0.00     0.071 H 
BRANCH  49  52
ATOM     52  C   LIG d   1      12.591   4.076  -4.241  0.00  0.00     0.033 C 
ATOM     53  H   LIG d   1      13.643   4.048  -3.921  0.00  0.00     0.046 H 
ATOM     54  H   LIG d   1      12.538   4.352  -5.304  0.00  0.00     0.046 H 
BRANCH  52  55
ATOM     55  N   LIG d   1      11.862   5.067  -3.440  0.00  0.00    -0.295 N 
ATOM     56  C   LIG d   1      10.863   5.772  -4.256  0.00  0.00     0.022 C 
ATOM     57  C   LIG d   1      10.170   6.836  -3.399  0.00  0.00     0.060 C 
ATOM     58  H   LIG d   1      11.361   6.254  -5.110  0.00  0.00     0.045 H 
ATOM     59  H   LIG d   1      10.117   5.053  -4.625  0.00  0.00     0.045 H 
ATOM     60  O   LIG d   1       9.589   6.211  -2.253  0.00  0.00    -0.377 OA
ATOM     61  H   LIG d   1       9.381   7.327  -3.989  0.00  0.00     0.057 H 
ATOM     62  H   LIG d   1      10.906   7.585  -3.076  0.00  0.00     0.057 H 
ATOM     63  C   LIG d   1      10.533   5.516  -1.434  0.00  0.00     0.060 C 
ATOM     64  C   LIG d   1      11.229   4.440  -2.270  0.00  0.00     0.022 C 
ATOM     65  H   LIG d   1      10.011   5.044  -0.589  0.00  0.00     0.057 H 
ATOM     66  H   LIG d   1      11.282   6.225  -1.052  0.00  0.00     0.057 H 
ATOM     67  H   LIG d   1      10.490   3.699  -2.608  0.00  0.00     0.045 H 
ATOM     68  H   LIG d   1      11.998   3.940  -1.663  0.00  0.00     0.045 H 
ENDBRANCH  52  55
ENDBRANCH  49  52
ENDBRANCH  48  49
ENDBRANCH   3  48
TORSDOF 11
ENDMDL
