MODEL 1
REMARK VINA RESULT:      -7.3      0.000      0.000
REMARK  7 active torsions:
REMARK  status: ('A' for Active; 'I' for Inactive)
REMARK    1  A    between atoms: C_1  and  O_2 
REMARK    2  A    between atoms: O_2  and  C_3 
REMARK    3  A    between atoms: C_8  and  C_9 
REMARK       I    between atoms: N_19  and  C_20 
REMARK       I    between atoms: C_20  and  N_22 
REMARK    4  A    between atoms: N_22  and  C_23 
REMARK    5  A    between atoms: C_28  and  C_29 
REMARK    6  A    between atoms: C_29  and  O_31 
REMARK    7  A    between atoms: O_31  and  C_32 
ROOT
ATOM      1  C   LIG d   1       6.214  -2.018  -5.349  0.00  0.00     0.100 C 
ATOM      2  H   LIG d   1       6.419  -1.216  -6.058  0.00  0.00     0.062 H 
ATOM      3  C   LIG d   1       7.500  -2.723  -4.986  0.00  0.00     0.087 A 
ATOM      4  C   LIG d   1       7.651  -4.064  -5.009  0.00  0.00     0.042 A 
ATOM      5  N   LIG d   1       8.930  -4.327  -4.621  0.00  0.00    -0.348 N 
ATOM      6  C   LIG d   1       9.523  -3.136  -4.376  0.00  0.00     0.094 A 
ATOM      7  N   LIG d   1       8.657  -2.181  -4.599  0.00  0.00    -0.238 NA
ATOM      8  H   LIG d   1       9.339  -5.203  -4.536  0.00  0.00     0.167 HD
ATOM      9  C   LIG d   1       6.576  -5.045  -5.399  0.00  0.00     0.005 C 
ATOM     10  C   LIG d   1       5.216  -4.341  -5.329  0.00  0.00     0.022 C 
ATOM     11  N   LIG d   1       5.323  -3.018  -5.964  0.00  0.00    -0.272 N 
ATOM     12  C   LIG d   1       4.627  -2.728  -7.080  0.00  0.00     0.307 C 
ATOM     13  O   LIG d   1       3.825  -3.528  -7.522  0.00  0.00    -0.252 OA
ATOM     14  N   LIG d   1       4.819  -1.550  -7.708  0.00  0.00    -0.269 N 
ATOM     15  H   LIG d   1      10.543  -2.995  -4.051  0.00  0.00     0.103 H 
ATOM     16  H   LIG d   1       6.754  -5.396  -6.415  0.00  0.00     0.034 H 
ATOM     17  H   LIG d   1       6.585  -5.891  -4.711  0.00  0.00     0.034 H 
ATOM     18  H   LIG d   1       4.468  -4.937  -5.854  0.00  0.00     0.047 H 
ATOM     19  H   LIG d   1       4.920  -4.221  -4.286  0.00  0.00     0.047 H 
ATOM     20  H   LIG d   1       5.518  -0.949  -7.407  0.00  0.00     0.156 HD
ENDROOT
BRANCH   1  21
ATOM     21  C   LIG d   1       5.573  -1.453  -4.108  0.00  0.00     0.021 A 
ATOM     22  C   LIG d   1       5.777  -0.124  -3.765  0.00  0.00     0.125 A 
ATOM     23  C   LIG d   1       5.180   0.395  -2.625  0.00  0.00    -0.020 A 
ATOM     24  C   LIG d   1       4.389  -0.413  -1.832  0.00  0.00    -0.058 A 
ATOM     25  H   LIG d   1       5.333   1.431  -2.359  0.00  0.00     0.065 H 
ATOM     26  C   LIG d   1       4.192  -1.739  -2.173  0.00  0.00    -0.061 A 
ATOM     27  H   LIG d   1       3.925  -0.010  -0.944  0.00  0.00     0.062 H 
ATOM     28  C   LIG d   1       4.786  -2.258  -3.308  0.00  0.00    -0.053 A 
ATOM     29  H   LIG d   1       3.573  -2.369  -1.551  0.00  0.00     0.062 H 
ATOM     30  H   LIG d   1       4.631  -3.295  -3.572  0.00  0.00     0.062 H 
BRANCH  22  31
ATOM     31  O   LIG d   1       6.554   0.669  -4.548  0.00  0.00    -0.495 OA
BRANCH  31  32
ATOM     32  C   LIG d   1       7.584   1.415  -3.896  0.00  0.00     0.079 C 
ATOM     33  H   LIG d   1       8.403   1.589  -4.592  0.00  0.00     0.066 H 
ATOM     34  H   LIG d   1       7.184   2.370  -3.559  0.00  0.00     0.066 H 
ATOM     35  H   LIG d   1       7.951   0.852  -3.037  0.00  0.00     0.066 H 
ENDBRANCH  31  32
ENDBRANCH  22  31
ENDBRANCH   1  21
BRANCH  14  36
ATOM     36  C   LIG d   1       4.013  -1.197  -8.787  0.00  0.00     0.049 A 
ATOM     37  C   LIG d   1       3.084  -0.152  -8.661  0.00  0.00     0.080 A 
ATOM     38  C   LIG d   1       2.285   0.196  -9.753  0.00  0.00    -0.046 A 
ATOM     39  C   LIG d   1       2.406  -0.493 -10.940  0.00  0.00    -0.061 A 
ATOM     40  H   LIG d   1       1.571   1.001  -9.665  0.00  0.00     0.063 H 
ATOM     41  C   LIG d   1       3.321  -1.527 -11.059  0.00  0.00    -0.060 A 
ATOM     42  H   LIG d   1       1.785  -0.225 -11.782  0.00  0.00     0.062 H 
ATOM     43  C   LIG d   1       4.121  -1.878  -9.992  0.00  0.00    -0.040 A 
ATOM     44  H   LIG d   1       3.409  -2.060 -11.995  0.00  0.00     0.062 H 
ATOM     45  H   LIG d   1       4.831  -2.686 -10.093  0.00  0.00     0.064 H 
BRANCH  37  46
ATOM     46  C   LIG d   1       2.955   0.576  -7.386  0.00  0.00     0.341 C 
ATOM     47  O   LIG d   1       2.929   1.791  -7.380  0.00  0.00    -0.245 OA
BRANCH  46  48
ATOM     48  O   LIG d   1       2.865  -0.106  -6.227  0.00  0.00    -0.464 OA
BRANCH  48  49
ATOM     49  C   LIG d   1       2.424   0.623  -5.079  0.00  0.00     0.082 C 
ATOM     50  H   LIG d   1       3.290   0.958  -4.507  0.00  0.00     0.066 H 
ATOM     51  H   LIG d   1       1.843   1.487  -5.399  0.00  0.00     0.066 H 
ATOM     52  H   LIG d   1       1.804  -0.022  -4.456  0.00  0.00     0.066 H 
ENDBRANCH  48  49
ENDBRANCH  46  48
ENDBRANCH  37  46
ENDBRANCH  14  36
TORSDOF 7
ENDMDL
MODEL 2
REMARK VINA RESULT:      -7.2      2.161      3.260
REMARK  7 active torsions:
REMARK  status: ('A' for Active; 'I' for Inactive)
REMARK    1  A    between atoms: C_1  and  O_2 
REMARK    2  A    between atoms: O_2  and  C_3 
REMARK    3  A    between atoms: C_8  and  C_9 
REMARK       I    between atoms: N_19  and  C_20 
REMARK       I    between atoms: C_20  and  N_22 
REMARK    4  A    between atoms: N_22  and  C_23 
REMARK    5  A    between atoms: C_28  and  C_29 
REMARK    6  A    between atoms: C_29  and  O_31 
REMARK    7  A    between atoms: O_31  and  C_32 
ROOT
ATOM      1  C   LIG d   1       5.784  -0.092  -5.348  0.00  0.00     0.100 C 
ATOM      2  H   LIG d   1       5.201   0.702  -5.815  0.00  0.00     0.062 H 
ATOM      3  C   LIG d   1       7.105   0.457  -4.865  0.00  0.00     0.087 A 
ATOM      4  C   LIG d   1       8.297  -0.120  -5.129  0.00  0.00     0.042 A 
ATOM      5  N   LIG d   1       9.251   0.648  -4.533  0.00  0.00    -0.348 N 
ATOM      6  C   LIG d   1       8.612   1.674  -3.924  0.00  0.00     0.094 A 
ATOM      7  N   LIG d   1       7.326   1.550  -4.131  0.00  0.00    -0.238 NA
ATOM      8  H   LIG d   1      10.209   0.489  -4.542  0.00  0.00     0.167 HD
ATOM      9  C   LIG d   1       8.485  -1.377  -5.938  0.00  0.00     0.005 C 
ATOM     10  C   LIG d   1       7.143  -2.114  -6.025  0.00  0.00     0.022 C 
ATOM     11  N   LIG d   1       6.080  -1.145  -6.335  0.00  0.00    -0.272 N 
ATOM     12  C   LIG d   1       5.394  -1.218  -7.494  0.00  0.00     0.307 C 
ATOM     13  O   LIG d   1       5.584  -2.146  -8.255  0.00  0.00    -0.252 OA
ATOM     14  N   LIG d   1       4.498  -0.260  -7.808  0.00  0.00    -0.269 N 
ATOM     15  H   LIG d   1       9.084   2.465  -3.362  0.00  0.00     0.103 H 
ATOM     16  H   LIG d   1       8.825  -1.118  -6.941  0.00  0.00     0.034 H 
ATOM     17  H   LIG d   1       9.222  -2.017  -5.453  0.00  0.00     0.034 H 
ATOM     18  H   LIG d   1       7.190  -2.867  -6.812  0.00  0.00     0.047 H 
ATOM     19  H   LIG d   1       6.928  -2.596  -5.071  0.00  0.00     0.047 H 
ATOM     20  H   LIG d   1       4.409   0.524  -7.244  0.00  0.00     0.156 HD
ENDROOT
BRANCH   1  21
ATOM     21  C   LIG d   1       5.017  -0.675  -4.189  0.00  0.00     0.021 A 
ATOM     22  C   LIG d   1       3.630  -0.649  -4.191  0.00  0.00     0.125 A 
ATOM     23  C   LIG d   1       2.927  -1.192  -3.125  0.00  0.00    -0.020 A 
ATOM     24  C   LIG d   1       3.609  -1.751  -2.063  0.00  0.00    -0.058 A 
ATOM     25  H   LIG d   1       1.847  -1.177  -3.127  0.00  0.00     0.065 H 
ATOM     26  C   LIG d   1       4.992  -1.771  -2.060  0.00  0.00    -0.061 A 
ATOM     27  H   LIG d   1       3.063  -2.174  -1.233  0.00  0.00     0.062 H 
ATOM     28  C   LIG d   1       5.695  -1.231  -3.122  0.00  0.00    -0.053 A 
ATOM     29  H   LIG d   1       5.524  -2.209  -1.229  0.00  0.00     0.062 H 
ATOM     30  H   LIG d   1       6.775  -1.247  -3.117  0.00  0.00     0.062 H 
BRANCH  22  31
ATOM     31  O   LIG d   1       2.961  -0.099  -5.239  0.00  0.00    -0.495 OA
BRANCH  31  32
ATOM     32  C   LIG d   1       2.363   1.181  -5.026  0.00  0.00     0.079 C 
ATOM     33  H   LIG d   1       1.281   1.096  -5.116  0.00  0.00     0.066 H 
ATOM     34  H   LIG d   1       2.617   1.540  -4.029  0.00  0.00     0.066 H 
ATOM     35  H   LIG d   1       2.736   1.884  -5.770  0.00  0.00     0.066 H 
ENDBRANCH  31  32
ENDBRANCH  22  31
ENDBRANCH   1  21
BRANCH  14  36
ATOM     36  C   LIG d   1       3.702  -0.398  -8.942  0.00  0.00     0.049 A 
ATOM     37  C   LIG d   1       4.169   0.045 -10.189  0.00  0.00     0.080 A 
ATOM     38  C   LIG d   1       3.362  -0.103 -11.321  0.00  0.00    -0.046 A 
ATOM     39  C   LIG d   1       2.114  -0.673 -11.203  0.00  0.00    -0.061 A 
ATOM     40  H   LIG d   1       3.716   0.231 -12.284  0.00  0.00     0.063 H 
ATOM     41  C   LIG d   1       1.654  -1.105  -9.969  0.00  0.00    -0.060 A 
ATOM     42  H   LIG d   1       1.490  -0.784 -12.078  0.00  0.00     0.062 H 
ATOM     43  C   LIG d   1       2.441  -0.971  -8.844  0.00  0.00    -0.040 A 
ATOM     44  H   LIG d   1       0.673  -1.551  -9.889  0.00  0.00     0.062 H 
ATOM     45  H   LIG d   1       2.075  -1.310  -7.886  0.00  0.00     0.064 H 
BRANCH  37  46
ATOM     46  C   LIG d   1       5.503   0.660 -10.305  0.00  0.00     0.341 C 
ATOM     47  O   LIG d   1       6.382   0.092 -10.923  0.00  0.00    -0.245 OA
BRANCH  46  48
ATOM     48  O   LIG d   1       5.748   1.853  -9.728  0.00  0.00    -0.464 OA
BRANCH  48  49
ATOM     49  C   LIG d   1       6.941   1.962  -8.948  0.00  0.00     0.082 C 
ATOM     50  H   LIG d   1       6.869   1.305  -8.081  0.00  0.00     0.066 H 
ATOM     51  H   LIG d   1       7.799   1.672  -9.553  0.00  0.00     0.066 H 
ATOM     52  H   LIG d   1       7.063   2.993  -8.614  0.00  0.00     0.066 H 
ENDBRANCH  48  49
ENDBRANCH  46  48
ENDBRANCH  37  46
ENDBRANCH  14  36
TORSDOF 7
ENDMDL
MODEL 3
REMARK VINA RESULT:      -7.1      1.875      2.657
REMARK  7 active torsions:
REMARK  status: ('A' for Active; 'I' for Inactive)
REMARK    1  A    between atoms: C_1  and  O_2 
REMARK    2  A    between atoms: O_2  and  C_3 
REMARK    3  A    between atoms: C_8  and  C_9 
REMARK       I    between atoms: N_19  and  C_20 
REMARK       I    between atoms: C_20  and  N_22 
REMARK    4  A    between atoms: N_22  and  C_23 
REMARK    5  A    between atoms: C_28  and  C_29 
REMARK    6  A    between atoms: C_29  and  O_31 
REMARK    7  A    between atoms: O_31  and  C_32 
ROOT
ATOM      1  C   LIG d   1       6.237  -1.638  -5.147  0.00  0.00     0.100 C 
ATOM      2  H   LIG d   1       6.732  -0.839  -5.699  0.00  0.00     0.062 H 
ATOM      3  C   LIG d   1       7.239  -2.708  -4.785  0.00  0.00     0.087 A 
ATOM      4  C   LIG d   1       7.041  -4.025  -5.005  0.00  0.00     0.042 A 
ATOM      5  N   LIG d   1       8.148  -4.675  -4.549  0.00  0.00    -0.348 N 
ATOM      6  C   LIG d   1       8.991  -3.734  -4.066  0.00  0.00     0.094 A 
ATOM      7  N   LIG d   1       8.437  -2.558  -4.214  0.00  0.00    -0.238 NA
ATOM      8  H   LIG d   1       8.303  -5.634  -4.566  0.00  0.00     0.167 HD
ATOM      9  C   LIG d   1       5.810  -4.616  -5.640  0.00  0.00     0.005 C 
ATOM     10  C   LIG d   1       4.679  -3.581  -5.584  0.00  0.00     0.022 C 
ATOM     11  N   LIG d   1       5.206  -2.268  -5.989  0.00  0.00    -0.272 N 
ATOM     12  C   LIG d   1       4.759  -1.658  -7.105  0.00  0.00     0.307 C 
ATOM     13  O   LIG d   1       3.842  -2.145  -7.738  0.00  0.00    -0.252 OA
ATOM     14  N   LIG d   1       5.328  -0.508  -7.519  0.00  0.00    -0.269 N 
ATOM     15  H   LIG d   1       9.961  -3.921  -3.632  0.00  0.00     0.103 H 
ATOM     16  H   LIG d   1       6.021  -4.870  -6.679  0.00  0.00     0.034 H 
ATOM     17  H   LIG d   1       5.511  -5.512  -5.096  0.00  0.00     0.034 H 
ATOM     18  H   LIG d   1       3.878  -3.877  -6.261  0.00  0.00     0.047 H 
ATOM     19  H   LIG d   1       4.292  -3.518  -4.566  0.00  0.00     0.047 H 
ATOM     20  H   LIG d   1       6.113  -0.165  -7.064  0.00  0.00     0.156 HD
ENDROOT
BRANCH   1  21
ATOM     21  C   LIG d   1       5.608  -1.081  -3.895  0.00  0.00     0.021 A 
ATOM     22  C   LIG d   1       5.755   0.262  -3.583  0.00  0.00     0.125 A 
ATOM     23  C   LIG d   1       5.170   0.773  -2.433  0.00  0.00    -0.020 A 
ATOM     24  C   LIG d   1       4.447  -0.058  -1.600  0.00  0.00    -0.058 A 
ATOM     25  H   LIG d   1       5.279   1.820  -2.191  0.00  0.00     0.065 H 
ATOM     26  C   LIG d   1       4.306  -1.399  -1.911  0.00  0.00    -0.061 A 
ATOM     27  H   LIG d   1       3.991   0.338  -0.705  0.00  0.00     0.062 H 
ATOM     28  C   LIG d   1       4.889  -1.910  -3.056  0.00  0.00    -0.053 A 
ATOM     29  H   LIG d   1       3.740  -2.047  -1.259  0.00  0.00     0.062 H 
ATOM     30  H   LIG d   1       4.778  -2.957  -3.297  0.00  0.00     0.062 H 
BRANCH  22  31
ATOM     31  O   LIG d   1       6.466   1.078  -4.405  0.00  0.00    -0.495 OA
BRANCH  31  32
ATOM     32  C   LIG d   1       7.745   1.513  -3.939  0.00  0.00     0.079 C 
ATOM     33  H   LIG d   1       8.210   2.148  -4.693  0.00  0.00     0.066 H 
ATOM     34  H   LIG d   1       7.623   2.077  -3.015  0.00  0.00     0.066 H 
ATOM     35  H   LIG d   1       8.378   0.645  -3.754  0.00  0.00     0.066 H 
ENDBRANCH  31  32
ENDBRANCH  22  31
ENDBRANCH   1  21
BRANCH  14  36
ATOM     36  C   LIG d   1       4.787   0.187  -8.598  0.00  0.00     0.049 A 
ATOM     37  C   LIG d   1       5.258  -0.054  -9.898  0.00  0.00     0.080 A 
ATOM     38  C   LIG d   1       4.704   0.646 -10.973  0.00  0.00    -0.046 A 
ATOM     39  C   LIG d   1       3.709   1.572 -10.750  0.00  0.00    -0.061 A 
ATOM     40  H   LIG d   1       5.058   0.464 -11.977  0.00  0.00     0.063 H 
ATOM     41  C   LIG d   1       3.250   1.811  -9.464  0.00  0.00    -0.060 A 
ATOM     42  H   LIG d   1       3.284   2.115 -11.581  0.00  0.00     0.062 H 
ATOM     43  C   LIG d   1       3.783   1.124  -8.393  0.00  0.00    -0.040 A 
ATOM     44  H   LIG d   1       2.469   2.539  -9.300  0.00  0.00     0.062 H 
ATOM     45  H   LIG d   1       3.420   1.316  -7.394  0.00  0.00     0.064 H 
BRANCH  37  46
ATOM     46  C   LIG d   1       6.328  -1.041 -10.129  0.00  0.00     0.341 C 
ATOM     47  O   LIG d   1       6.104  -2.035 -10.792  0.00  0.00    -0.245 OA
BRANCH  46  48
ATOM     48  O   LIG d   1       7.554  -0.842  -9.605  0.00  0.00    -0.464 OA
BRANCH  48  49
ATOM     49  C   LIG d   1       8.356   0.177 -10.204  0.00  0.00     0.082 C 
ATOM     50  H   LIG d   1       8.254   0.129 -11.289  0.00  0.00     0.066 H 
ATOM     51  H   LIG d   1       8.027   1.154  -9.850  0.00  0.00     0.066 H 
ATOM     52  H   LIG d   1       9.401   0.025  -9.930  0.00  0.00     0.066 H 
ENDBRANCH  48  49
ENDBRANCH  46  48
ENDBRANCH  37  46
ENDBRANCH  14  36
TORSDOF 7
ENDMDL
MODEL 4
REMARK VINA RESULT:      -6.9      1.707      2.826
REMARK  7 active torsions:
REMARK  status: ('A' for Active; 'I' for Inactive)
REMARK    1  A    between atoms: C_1  and  O_2 
REMARK    2  A    between atoms: O_2  and  C_3 
REMARK    3  A    between atoms: C_8  and  C_9 
REMARK       I    between atoms: N_19  and  C_20 
REMARK       I    between atoms: C_20  and  N_22 
REMARK    4  A    between atoms: N_22  and  C_23 
REMARK    5  A    between atoms: C_28  and  C_29 
REMARK    6  A    between atoms: C_29  and  O_31 
REMARK    7  A    between atoms: O_31  and  C_32 
ROOT
ATOM      1  C   LIG d   1       5.414  -2.281  -5.839  0.00  0.00     0.100 C 
ATOM      2  H   LIG d   1       5.629  -1.443  -6.502  0.00  0.00     0.062 H 
ATOM      3  C   LIG d   1       6.704  -2.888  -5.343  0.00  0.00     0.087 A 
ATOM      4  C   LIG d   1       6.971  -4.211  -5.375  0.00  0.00     0.042 A 
ATOM      5  N   LIG d   1       8.215  -4.379  -4.845  0.00  0.00    -0.348 N 
ATOM      6  C   LIG d   1       8.672  -3.150  -4.508  0.00  0.00     0.094 A 
ATOM      7  N   LIG d   1       7.759  -2.264  -4.812  0.00  0.00    -0.238 NA
ATOM      8  H   LIG d   1       8.685  -5.220  -4.731  0.00  0.00     0.167 HD
ATOM      9  C   LIG d   1       6.036  -5.265  -5.908  0.00  0.00     0.005 C 
ATOM     10  C   LIG d   1       4.621  -4.678  -5.983  0.00  0.00     0.022 C 
ATOM     11  N   LIG d   1       4.688  -3.332  -6.574  0.00  0.00    -0.272 N 
ATOM     12  C   LIG d   1       4.102  -3.066  -7.759  0.00  0.00     0.307 C 
ATOM     13  O   LIG d   1       3.428  -3.916  -8.308  0.00  0.00    -0.252 OA
ATOM     14  N   LIG d   1       4.264  -1.858  -8.335  0.00  0.00    -0.269 N 
ATOM     15  H   LIG d   1       9.632  -2.937  -4.063  0.00  0.00     0.103 H 
ATOM     16  H   LIG d   1       6.359  -5.569  -6.904  0.00  0.00     0.034 H 
ATOM     17  H   LIG d   1       6.038  -6.127  -5.241  0.00  0.00     0.034 H 
ATOM     18  H   LIG d   1       3.993  -5.317  -6.604  0.00  0.00     0.047 H 
ATOM     19  H   LIG d   1       4.198  -4.614  -4.980  0.00  0.00     0.047 H 
ATOM     20  H   LIG d   1       4.871  -1.211  -7.942  0.00  0.00     0.156 HD
ENDROOT
BRANCH   1  21
ATOM     21  C   LIG d   1       4.588  -1.808  -4.670  0.00  0.00     0.021 A 
ATOM     22  C   LIG d   1       3.852  -0.636  -4.769  0.00  0.00     0.125 A 
ATOM     23  C   LIG d   1       3.088  -0.206  -3.694  0.00  0.00    -0.020 A 
ATOM     24  C   LIG d   1       3.066  -0.943  -2.526  0.00  0.00    -0.058 A 
ATOM     25  H   LIG d   1       2.511   0.703  -3.771  0.00  0.00     0.065 H 
ATOM     26  C   LIG d   1       3.804  -2.109  -2.428  0.00  0.00    -0.061 A 
ATOM     27  H   LIG d   1       2.472  -0.610  -1.688  0.00  0.00     0.062 H 
ATOM     28  C   LIG d   1       4.566  -2.538  -3.498  0.00  0.00    -0.053 A 
ATOM     29  H   LIG d   1       3.785  -2.683  -1.514  0.00  0.00     0.062 H 
ATOM     30  H   LIG d   1       5.143  -3.449  -3.419  0.00  0.00     0.062 H 
BRANCH  22  31
ATOM     31  O   LIG d   1       3.875   0.087  -5.920  0.00  0.00    -0.495 OA
BRANCH  31  32
ATOM     32  C   LIG d   1       2.628   0.612  -6.381  0.00  0.00     0.079 C 
ATOM     33  H   LIG d   1       2.284   0.032  -7.237  0.00  0.00     0.066 H 
ATOM     34  H   LIG d   1       1.891   0.552  -5.582  0.00  0.00     0.066 H 
ATOM     35  H   LIG d   1       2.760   1.653  -6.676  0.00  0.00     0.066 H 
ENDBRANCH  31  32
ENDBRANCH  22  31
ENDBRANCH   1  21
BRANCH  14  36
ATOM     36  C   LIG d   1       3.561  -1.540  -9.494  0.00  0.00     0.049 A 
ATOM     37  C   LIG d   1       4.230  -1.463 -10.725  0.00  0.00     0.080 A 
ATOM     38  C   LIG d   1       3.513  -1.148 -11.883  0.00  0.00    -0.046 A 
ATOM     39  C   LIG d   1       2.158  -0.907 -11.806  0.00  0.00    -0.061 A 
ATOM     40  H   LIG d   1       4.019  -1.091 -12.834  0.00  0.00     0.063 H 
ATOM     41  C   LIG d   1       1.502  -0.979 -10.587  0.00  0.00    -0.060 A 
ATOM     42  H   LIG d   1       1.606  -0.660 -12.700  0.00  0.00     0.062 H 
ATOM     43  C   LIG d   1       2.196  -1.294  -9.438  0.00  0.00    -0.040 A 
ATOM     44  H   LIG d   1       0.440  -0.788 -10.538  0.00  0.00     0.062 H 
ATOM     45  H   LIG d   1       1.677  -1.348  -8.492  0.00  0.00     0.064 H 
BRANCH  37  46
ATOM     46  C   LIG d   1       5.680  -1.716 -10.799  0.00  0.00     0.341 C 
ATOM     47  O   LIG d   1       6.116  -2.827 -10.566  0.00  0.00    -0.245 OA
BRANCH  46  48
ATOM     48  O   LIG d   1       6.523  -0.716 -11.125  0.00  0.00    -0.464 OA
BRANCH  48  49
ATOM     49  C   LIG d   1       6.910   0.174 -10.076  0.00  0.00     0.082 C 
ATOM     50  H   LIG d   1       6.079   0.299  -9.381  0.00  0.00     0.066 H 
ATOM     51  H   LIG d   1       7.768  -0.240  -9.546  0.00  0.00     0.066 H 
ATOM     52  H   LIG d   1       7.178   1.141 -10.501  0.00  0.00     0.066 H 
ENDBRANCH  48  49
ENDBRANCH  46  48
ENDBRANCH  37  46
ENDBRANCH  14  36
TORSDOF 7
ENDMDL
MODEL 5
REMARK VINA RESULT:      -6.4      1.803      4.085
REMARK  7 active torsions:
REMARK  status: ('A' for Active; 'I' for Inactive)
REMARK    1  A    between atoms: C_1  and  O_2 
REMARK    2  A    between atoms: O_2  and  C_3 
REMARK    3  A    between atoms: C_8  and  C_9 
REMARK       I    between atoms: N_19  and  C_20 
REMARK       I    between atoms: C_20  and  N_22 
REMARK    4  A    between atoms: N_22  and  C_23 
REMARK    5  A    between atoms: C_28  and  C_29 
REMARK    6  A    between atoms: C_29  and  O_31 
REMARK    7  A    between atoms: O_31  and  C_32 
ROOT
ATOM      1  C   LIG d   1       5.453  -2.035  -5.239  0.00  0.00     0.100 C 
ATOM      2  H   LIG d   1       4.635  -2.303  -5.908  0.00  0.00     0.062 H 
ATOM      3  C   LIG d   1       4.926  -1.841  -3.837  0.00  0.00     0.087 A 
ATOM      4  C   LIG d   1       5.206  -0.763  -3.073  0.00  0.00     0.042 A 
ATOM      5  N   LIG d   1       4.565  -0.941  -1.884  0.00  0.00    -0.348 N 
ATOM      6  C   LIG d   1       3.909  -2.122  -1.960  0.00  0.00     0.094 A 
ATOM      7  N   LIG d   1       4.131  -2.652  -3.134  0.00  0.00    -0.238 NA
ATOM      8  H   LIG d   1       4.578  -0.335  -1.126  0.00  0.00     0.167 HD
ATOM      9  C   LIG d   1       6.071   0.393  -3.501  0.00  0.00     0.005 C 
ATOM     10  C   LIG d   1       6.911  -0.038  -4.710  0.00  0.00     0.022 C 
ATOM     11  N   LIG d   1       6.052  -0.757  -5.663  0.00  0.00    -0.272 N 
ATOM     12  C   LIG d   1       5.817  -0.260  -6.894  0.00  0.00     0.307 C 
ATOM     13  O   LIG d   1       6.392   0.746  -7.263  0.00  0.00    -0.252 OA
ATOM     14  N   LIG d   1       4.943  -0.877  -7.715  0.00  0.00    -0.269 N 
ATOM     15  H   LIG d   1       3.302  -2.555  -1.179  0.00  0.00     0.103 H 
ATOM     16  H   LIG d   1       5.440   1.238  -3.779  0.00  0.00     0.034 H 
ATOM     17  H   LIG d   1       6.730   0.681  -2.682  0.00  0.00     0.034 H 
ATOM     18  H   LIG d   1       7.335   0.842  -5.193  0.00  0.00     0.047 H 
ATOM     19  H   LIG d   1       7.716  -0.695  -4.379  0.00  0.00     0.047 H 
ATOM     20  H   LIG d   1       4.420  -1.626  -7.390  0.00  0.00     0.156 HD
ENDROOT
BRANCH   1  21
ATOM     21  C   LIG d   1       6.498  -3.120  -5.248  0.00  0.00     0.021 A 
ATOM     22  C   LIG d   1       6.561  -4.014  -6.307  0.00  0.00     0.125 A 
ATOM     23  C   LIG d   1       7.528  -5.009  -6.316  0.00  0.00    -0.020 A 
ATOM     24  C   LIG d   1       8.421  -5.111  -5.267  0.00  0.00    -0.058 A 
ATOM     25  H   LIG d   1       7.582  -5.703  -7.141  0.00  0.00     0.065 H 
ATOM     26  C   LIG d   1       8.353  -4.222  -4.210  0.00  0.00    -0.061 A 
ATOM     27  H   LIG d   1       9.174  -5.885  -5.273  0.00  0.00     0.062 H 
ATOM     28  C   LIG d   1       7.390  -3.229  -4.200  0.00  0.00    -0.053 A 
ATOM     29  H   LIG d   1       9.053  -4.303  -3.391  0.00  0.00     0.062 H 
ATOM     30  H   LIG d   1       7.338  -2.536  -3.372  0.00  0.00     0.062 H 
BRANCH  22  31
ATOM     31  O   LIG d   1       5.681  -3.911  -7.338  0.00  0.00    -0.495 OA
BRANCH  31  32
ATOM     32  C   LIG d   1       4.674  -4.920  -7.434  0.00  0.00     0.079 C 
ATOM     33  H   LIG d   1       4.185  -5.039  -6.468  0.00  0.00     0.066 H 
ATOM     34  H   LIG d   1       3.936  -4.628  -8.180  0.00  0.00     0.066 H 
ATOM     35  H   LIG d   1       5.133  -5.864  -7.728  0.00  0.00     0.066 H 
ENDBRANCH  31  32
ENDBRANCH  22  31
ENDBRANCH   1  21
BRANCH  14  36
ATOM     36  C   LIG d   1       4.792  -0.437  -9.027  0.00  0.00     0.049 A 
ATOM     37  C   LIG d   1       3.841   0.548  -9.335  0.00  0.00     0.080 A 
ATOM     38  C   LIG d   1       3.703   0.986 -10.655  0.00  0.00    -0.046 A 
ATOM     39  C   LIG d   1       4.492   0.441 -11.645  0.00  0.00    -0.061 A 
ATOM     40  H   LIG d   1       2.977   1.746 -10.900  0.00  0.00     0.063 H 
ATOM     41  C   LIG d   1       5.426  -0.535 -11.338  0.00  0.00    -0.060 A 
ATOM     42  H   LIG d   1       4.381   0.777 -12.665  0.00  0.00     0.062 H 
ATOM     43  C   LIG d   1       5.578  -0.973 -10.039  0.00  0.00    -0.040 A 
ATOM     44  H   LIG d   1       6.040  -0.956 -12.121  0.00  0.00     0.062 H 
ATOM     45  H   LIG d   1       6.309  -1.734  -9.808  0.00  0.00     0.064 H 
BRANCH  37  46
ATOM     46  C   LIG d   1       2.996   1.122  -8.273  0.00  0.00     0.341 C 
ATOM     47  O   LIG d   1       2.889   2.328  -8.166  0.00  0.00    -0.245 OA
BRANCH  46  48
ATOM     48  O   LIG d   1       2.342   0.309  -7.420  0.00  0.00    -0.464 OA
BRANCH  48  49
ATOM     49  C   LIG d   1       2.495   0.575  -6.024  0.00  0.00     0.082 C 
ATOM     50  H   LIG d   1       1.662   1.187  -5.678  0.00  0.00     0.066 H 
ATOM     51  H   LIG d   1       2.508  -0.366  -5.474  0.00  0.00     0.066 H 
ATOM     52  H   LIG d   1       3.432   1.107  -5.856  0.00  0.00     0.066 H 
ENDBRANCH  48  49
ENDBRANCH  46  48
ENDBRANCH  37  46
ENDBRANCH  14  36
TORSDOF 7
ENDMDL
MODEL 6
REMARK VINA RESULT:      -6.3      2.176      4.927
REMARK  7 active torsions:
REMARK  status: ('A' for Active; 'I' for Inactive)
REMARK    1  A    between atoms: C_1  and  O_2 
REMARK    2  A    between atoms: O_2  and  C_3 
REMARK    3  A    between atoms: C_8  and  C_9 
REMARK       I    between atoms: N_19  and  C_20 
REMARK       I    between atoms: C_20  and  N_22 
REMARK    4  A    between atoms: N_22  and  C_23 
REMARK    5  A    between atoms: C_28  and  C_29 
REMARK    6  A    between atoms: C_29  and  O_31 
REMARK    7  A    between atoms: O_31  and  C_32 
ROOT
ATOM      1  C   LIG d   1       6.949  -3.952  -5.853  0.00  0.00     0.100 C 
ATOM      2  H   LIG d   1       7.114  -2.881  -5.972  0.00  0.00     0.062 H 
ATOM      3  C   LIG d   1       6.914  -4.619  -7.208  0.00  0.00     0.087 A 
ATOM      4  C   LIG d   1       5.943  -5.474  -7.597  0.00  0.00     0.042 A 
ATOM      5  N   LIG d   1       6.248  -5.870  -8.864  0.00  0.00    -0.348 N 
ATOM      6  C   LIG d   1       7.395  -5.242  -9.211  0.00  0.00     0.094 A 
ATOM      7  N   LIG d   1       7.785  -4.494  -8.212  0.00  0.00    -0.238 NA
ATOM      8  H   LIG d   1       5.739  -6.488  -9.414  0.00  0.00     0.167 HD
ATOM      9  C   LIG d   1       4.765  -5.880  -6.752  0.00  0.00     0.005 C 
ATOM     10  C   LIG d   1       5.067  -5.543  -5.286  0.00  0.00     0.022 C 
ATOM     11  N   LIG d   1       5.644  -4.192  -5.211  0.00  0.00    -0.272 N 
ATOM     12  C   LIG d   1       4.996  -3.197  -4.573  0.00  0.00     0.307 C 
ATOM     13  O   LIG d   1       3.967  -3.431  -3.969  0.00  0.00    -0.252 OA
ATOM     14  N   LIG d   1       5.488  -1.941  -4.606  0.00  0.00    -0.269 N 
ATOM     15  H   LIG d   1       7.905  -5.342 -10.158  0.00  0.00     0.103 H 
ATOM     16  H   LIG d   1       3.878  -5.335  -7.076  0.00  0.00     0.034 H 
ATOM     17  H   LIG d   1       4.595  -6.952  -6.852  0.00  0.00     0.034 H 
ATOM     18  H   LIG d   1       4.145  -5.578  -4.706  0.00  0.00     0.047 H 
ATOM     19  H   LIG d   1       5.778  -6.265  -4.885  0.00  0.00     0.047 H 
ATOM     20  H   LIG d   1       6.258  -1.738  -5.159  0.00  0.00     0.156 HD
ENDROOT
BRANCH   1  21
ATOM     21  C   LIG d   1       8.050  -4.550  -5.016  0.00  0.00     0.021 A 
ATOM     22  C   LIG d   1       8.889  -3.725  -4.281  0.00  0.00     0.125 A 
ATOM     23  C   LIG d   1       9.899  -4.278  -3.507  0.00  0.00    -0.020 A 
ATOM     24  C   LIG d   1      10.070  -5.648  -3.474  0.00  0.00    -0.058 A 
ATOM     25  H   LIG d   1      10.550  -3.638  -2.931  0.00  0.00     0.065 H 
ATOM     26  C   LIG d   1       9.235  -6.469  -4.212  0.00  0.00    -0.061 A 
ATOM     27  H   LIG d   1      10.855  -6.080  -2.872  0.00  0.00     0.062 H 
ATOM     28  C   LIG d   1       8.229  -5.919  -4.984  0.00  0.00    -0.053 A 
ATOM     29  H   LIG d   1       9.370  -7.539  -4.185  0.00  0.00     0.062 H 
ATOM     30  H   LIG d   1       7.578  -6.562  -5.560  0.00  0.00     0.062 H 
BRANCH  22  31
ATOM     31  O   LIG d   1       8.718  -2.376  -4.315  0.00  0.00    -0.495 OA
BRANCH  31  32
ATOM     32  C   LIG d   1       9.628  -1.627  -5.124  0.00  0.00     0.079 C 
ATOM     33  H   LIG d   1       9.310  -1.673  -6.165  0.00  0.00     0.066 H 
ATOM     34  H   LIG d   1       9.639  -0.590  -4.793  0.00  0.00     0.066 H 
ATOM     35  H   LIG d   1      10.628  -2.050  -5.031  0.00  0.00     0.066 H 
ENDBRANCH  31  32
ENDBRANCH  22  31
ENDBRANCH   1  21
BRANCH  14  36
ATOM     36  C   LIG d   1       4.889  -0.940  -3.847  0.00  0.00     0.049 A 
ATOM     37  C   LIG d   1       4.099   0.040  -4.470  0.00  0.00     0.080 A 
ATOM     38  C   LIG d   1       3.499   1.037  -3.697  0.00  0.00    -0.046 A 
ATOM     39  C   LIG d   1       3.694   1.058  -2.333  0.00  0.00    -0.061 A 
ATOM     40  H   LIG d   1       2.887   1.791  -4.168  0.00  0.00     0.063 H 
ATOM     41  C   LIG d   1       4.478   0.093  -1.722  0.00  0.00    -0.060 A 
ATOM     42  H   LIG d   1       3.233   1.832  -1.737  0.00  0.00     0.062 H 
ATOM     43  C   LIG d   1       5.072  -0.901  -2.471  0.00  0.00    -0.040 A 
ATOM     44  H   LIG d   1       4.624   0.119  -0.652  0.00  0.00     0.062 H 
ATOM     45  H   LIG d   1       5.683  -1.650  -1.988  0.00  0.00     0.064 H 
BRANCH  37  46
ATOM     46  C   LIG d   1       3.901   0.014  -5.930  0.00  0.00     0.341 C 
ATOM     47  O   LIG d   1       4.861   0.048  -6.675  0.00  0.00    -0.245 OA
BRANCH  46  48
ATOM     48  O   LIG d   1       2.655  -0.048  -6.440  0.00  0.00    -0.464 OA
BRANCH  48  49
ATOM     49  C   LIG d   1       2.540  -0.154  -7.860  0.00  0.00     0.082 C 
ATOM     50  H   LIG d   1       3.264   0.509  -8.333  0.00  0.00     0.066 H 
ATOM     51  H   LIG d   1       2.735  -1.183  -8.165  0.00  0.00     0.066 H 
ATOM     52  H   LIG d   1       1.532   0.129  -8.165  0.00  0.00     0.066 H 
ENDBRANCH  48  49
ENDBRANCH  46  48
ENDBRANCH  37  46
ENDBRANCH  14  36
TORSDOF 7
ENDMDL
MODEL 7
REMARK VINA RESULT:      -6.3      2.955      5.859
REMARK  7 active torsions:
REMARK  status: ('A' for Active; 'I' for Inactive)
REMARK    1  A    between atoms: C_1  and  O_2 
REMARK    2  A    between atoms: O_2  and  C_3 
REMARK    3  A    between atoms: C_8  and  C_9 
REMARK       I    between atoms: N_19  and  C_20 
REMARK       I    between atoms: C_20  and  N_22 
REMARK    4  A    between atoms: N_22  and  C_23 
REMARK    5  A    between atoms: C_28  and  C_29 
REMARK    6  A    between atoms: C_29  and  O_31 
REMARK    7  A    between atoms: O_31  and  C_32 
ROOT
ATOM      1  C   LIG d   1       4.711  -0.141  -6.619  0.00  0.00     0.100 C 
ATOM      2  H   LIG d   1       4.860   0.926  -6.449  0.00  0.00     0.062 H 
ATOM      3  C   LIG d   1       4.134  -0.783  -5.380  0.00  0.00     0.087 A 
ATOM      4  C   LIG d   1       4.629  -1.906  -4.818  0.00  0.00     0.042 A 
ATOM      5  N   LIG d   1       3.856  -2.181  -3.731  0.00  0.00    -0.348 N 
ATOM      6  C   LIG d   1       2.913  -1.214  -3.660  0.00  0.00     0.094 A 
ATOM      7  N   LIG d   1       3.089  -0.380  -4.652  0.00  0.00    -0.238 NA
ATOM      8  H   LIG d   1       3.961  -2.931  -3.123  0.00  0.00     0.167 HD
ATOM      9  C   LIG d   1       5.817  -2.674  -5.334  0.00  0.00     0.005 C 
ATOM     10  C   LIG d   1       6.083  -2.258  -6.786  0.00  0.00     0.022 C 
ATOM     11  N   LIG d   1       6.005  -0.792  -6.890  0.00  0.00    -0.272 N 
ATOM     12  C   LIG d   1       7.088  -0.063  -7.223  0.00  0.00     0.307 C 
ATOM     13  O   LIG d   1       8.123  -0.619  -7.535  0.00  0.00    -0.252 OA
ATOM     14  N   LIG d   1       7.025   1.284  -7.209  0.00  0.00    -0.269 N 
ATOM     15  H   LIG d   1       2.141  -1.142  -2.908  0.00  0.00     0.103 H 
ATOM     16  H   LIG d   1       6.692  -2.448  -4.724  0.00  0.00     0.034 H 
ATOM     17  H   LIG d   1       5.608  -3.744  -5.294  0.00  0.00     0.034 H 
ATOM     18  H   LIG d   1       7.077  -2.591  -7.086  0.00  0.00     0.047 H 
ATOM     19  H   LIG d   1       5.335  -2.709  -7.439  0.00  0.00     0.047 H 
ATOM     20  H   LIG d   1       6.229   1.728  -6.877  0.00  0.00     0.156 HD
ENDROOT
BRANCH   1  21
ATOM     21  C   LIG d   1       3.777  -0.347  -7.784  0.00  0.00     0.021 A 
ATOM     22  C   LIG d   1       3.381   0.735  -8.556  0.00  0.00     0.125 A 
ATOM     23  C   LIG d   1       2.526   0.541  -9.632  0.00  0.00    -0.020 A 
ATOM     24  C   LIG d   1       2.068  -0.728  -9.928  0.00  0.00    -0.058 A 
ATOM     25  H   LIG d   1       2.220   1.381 -10.237  0.00  0.00     0.065 H 
ATOM     26  C   LIG d   1       2.461  -1.805  -9.154  0.00  0.00    -0.061 A 
ATOM     27  H   LIG d   1       1.403  -0.881 -10.765  0.00  0.00     0.062 H 
ATOM     28  C   LIG d   1       3.313  -1.614  -8.081  0.00  0.00    -0.053 A 
ATOM     29  H   LIG d   1       2.103  -2.796  -9.387  0.00  0.00     0.062 H 
ATOM     30  H   LIG d   1       3.618  -2.456  -7.477  0.00  0.00     0.062 H 
BRANCH  22  31
ATOM     31  O   LIG d   1       3.834   1.982  -8.263  0.00  0.00    -0.495 OA
BRANCH  31  32
ATOM     32  C   LIG d   1       4.130   2.841  -9.367  0.00  0.00     0.079 C 
ATOM     33  H   LIG d   1       3.209   3.086  -9.894  0.00  0.00     0.066 H 
ATOM     34  H   LIG d   1       4.595   3.756  -9.001  0.00  0.00     0.066 H 
ATOM     35  H   LIG d   1       4.814   2.333 -10.047  0.00  0.00     0.066 H 
ENDBRANCH  31  32
ENDBRANCH  22  31
ENDBRANCH   1  21
BRANCH  14  36
ATOM     36  C   LIG d   1       8.102   2.036  -7.670  0.00  0.00     0.049 A 
ATOM     37  C   LIG d   1       9.062   2.519  -6.767  0.00  0.00     0.080 A 
ATOM     38  C   LIG d   1      10.142   3.268  -7.243  0.00  0.00    -0.046 A 
ATOM     39  C   LIG d   1      10.251   3.535  -8.590  0.00  0.00    -0.061 A 
ATOM     40  H   LIG d   1      10.887   3.639  -6.556  0.00  0.00     0.063 H 
ATOM     41  C   LIG d   1       9.298   3.061  -9.477  0.00  0.00    -0.060 A 
ATOM     42  H   LIG d   1      11.084   4.118  -8.956  0.00  0.00     0.062 H 
ATOM     43  C   LIG d   1       8.230   2.316  -9.024  0.00  0.00    -0.040 A 
ATOM     44  H   LIG d   1       9.393   3.276 -10.532  0.00  0.00     0.062 H 
ATOM     45  H   LIG d   1       7.492   1.950  -9.722  0.00  0.00     0.064 H 
BRANCH  37  46
ATOM     46  C   LIG d   1       8.936   2.234  -5.327  0.00  0.00     0.341 C 
ATOM     47  O   LIG d   1       9.899   1.843  -4.698  0.00  0.00    -0.245 OA
BRANCH  46  48
ATOM     48  O   LIG d   1       7.752   2.409  -4.707  0.00  0.00    -0.464 OA
BRANCH  48  49
ATOM     49  C   LIG d   1       7.390   1.444  -3.717  0.00  0.00     0.082 C 
ATOM     50  H   LIG d   1       6.811   0.646  -4.182  0.00  0.00     0.066 H 
ATOM     51  H   LIG d   1       8.292   1.026  -3.270  0.00  0.00     0.066 H 
ATOM     52  H   LIG d   1       6.790   1.924  -2.943  0.00  0.00     0.066 H 
ENDBRANCH  48  49
ENDBRANCH  46  48
ENDBRANCH  37  46
ENDBRANCH  14  36
TORSDOF 7
ENDMDL
MODEL 8
REMARK VINA RESULT:      -6.3      2.673      5.125
REMARK  7 active torsions:
REMARK  status: ('A' for Active; 'I' for Inactive)
REMARK    1  A    between atoms: C_1  and  O_2 
REMARK    2  A    between atoms: O_2  and  C_3 
REMARK    3  A    between atoms: C_8  and  C_9 
REMARK       I    between atoms: N_19  and  C_20 
REMARK       I    between atoms: C_20  and  N_22 
REMARK    4  A    between atoms: N_22  and  C_23 
REMARK    5  A    between atoms: C_28  and  C_29 
REMARK    6  A    between atoms: C_29  and  O_31 
REMARK    7  A    between atoms: O_31  and  C_32 
ROOT
ATOM      1  C   LIG d   1       5.294  -1.065  -6.214  0.00  0.00     0.100 C 
ATOM      2  H   LIG d   1       6.380  -1.137  -6.144  0.00  0.00     0.062 H 
ATOM      3  C   LIG d   1       4.721  -2.382  -6.682  0.00  0.00     0.087 A 
ATOM      4  C   LIG d   1       3.831  -2.495  -7.690  0.00  0.00     0.042 A 
ATOM      5  N   LIG d   1       3.545  -3.821  -7.820  0.00  0.00    -0.348 N 
ATOM      6  C   LIG d   1       4.273  -4.477  -6.888  0.00  0.00     0.094 A 
ATOM      7  N   LIG d   1       4.975  -3.605  -6.212  0.00  0.00    -0.238 NA
ATOM      8  H   LIG d   1       2.933  -4.219  -8.461  0.00  0.00     0.167 HD
ATOM      9  C   LIG d   1       3.287  -1.342  -8.492  0.00  0.00     0.005 C 
ATOM     10  C   LIG d   1       3.542  -0.041  -7.722  0.00  0.00     0.022 C 
ATOM     11  N   LIG d   1       4.921  -0.045  -7.210  0.00  0.00    -0.272 N 
ATOM     12  C   LIG d   1       5.822   0.860  -7.642  0.00  0.00     0.307 C 
ATOM     13  O   LIG d   1       5.476   1.752  -8.392  0.00  0.00    -0.252 OA
ATOM     14  N   LIG d   1       7.108   0.775  -7.244  0.00  0.00    -0.269 N 
ATOM     15  H   LIG d   1       4.275  -5.545  -6.729  0.00  0.00     0.103 H 
ATOM     16  H   LIG d   1       3.790  -1.299  -9.458  0.00  0.00     0.034 H 
ATOM     17  H   LIG d   1       2.215  -1.474  -8.641  0.00  0.00     0.034 H 
ATOM     18  H   LIG d   1       3.403   0.811  -8.388  0.00  0.00     0.047 H 
ATOM     19  H   LIG d   1       2.844   0.032  -6.887  0.00  0.00     0.047 H 
ATOM     20  H   LIG d   1       7.402   0.015  -6.717  0.00  0.00     0.156 HD
ENDROOT
BRANCH   1  21
ATOM     21  C   LIG d   1       4.718  -0.705  -4.869  0.00  0.00     0.021 A 
ATOM     22  C   LIG d   1       5.538  -0.663  -3.751  0.00  0.00     0.125 A 
ATOM     23  C   LIG d   1       5.005  -0.325  -2.515  0.00  0.00    -0.020 A 
ATOM     24  C   LIG d   1       3.660  -0.036  -2.400  0.00  0.00    -0.058 A 
ATOM     25  H   LIG d   1       5.643  -0.287  -1.644  0.00  0.00     0.065 H 
ATOM     26  C   LIG d   1       2.843  -0.084  -3.515  0.00  0.00    -0.061 A 
ATOM     27  H   LIG d   1       3.244   0.226  -1.439  0.00  0.00     0.062 H 
ATOM     28  C   LIG d   1       3.372  -0.421  -4.748  0.00  0.00    -0.053 A 
ATOM     29  H   LIG d   1       1.791   0.142  -3.424  0.00  0.00     0.062 H 
ATOM     30  H   LIG d   1       2.731  -0.458  -5.618  0.00  0.00     0.062 H 
BRANCH  22  31
ATOM     31  O   LIG d   1       6.862  -0.946  -3.868  0.00  0.00    -0.495 OA
BRANCH  31  32
ATOM     32  C   LIG d   1       7.285  -2.248  -3.459  0.00  0.00     0.079 C 
ATOM     33  H   LIG d   1       8.044  -2.157  -2.682  0.00  0.00     0.066 H 
ATOM     34  H   LIG d   1       6.432  -2.802  -3.069  0.00  0.00     0.066 H 
ATOM     35  H   LIG d   1       7.703  -2.779  -4.314  0.00  0.00     0.066 H 
ENDBRANCH  31  32
ENDBRANCH  22  31
ENDBRANCH   1  21
BRANCH  14  36
ATOM     36  C   LIG d   1       8.011   1.777  -7.588  0.00  0.00     0.049 A 
ATOM     37  C   LIG d   1       8.725   2.455  -6.589  0.00  0.00     0.080 A 
ATOM     38  C   LIG d   1       9.633   3.456  -6.947  0.00  0.00    -0.046 A 
ATOM     39  C   LIG d   1       9.812   3.775  -8.276  0.00  0.00    -0.061 A 
ATOM     40  H   LIG d   1      10.189   3.979  -6.185  0.00  0.00     0.063 H 
ATOM     41  C   LIG d   1       9.101   3.106  -9.259  0.00  0.00    -0.060 A 
ATOM     42  H   LIG d   1      10.511   4.551  -8.551  0.00  0.00     0.062 H 
ATOM     43  C   LIG d   1       8.206   2.113  -8.921  0.00  0.00    -0.040 A 
ATOM     44  H   LIG d   1       9.250   3.364 -10.298  0.00  0.00     0.062 H 
ATOM     45  H   LIG d   1       7.656   1.596  -9.694  0.00  0.00     0.064 H 
BRANCH  37  46
ATOM     46  C   LIG d   1       8.523   2.113  -5.170  0.00  0.00     0.341 C 
ATOM     47  O   LIG d   1       7.423   2.232  -4.666  0.00  0.00    -0.245 OA
BRANCH  46  48
ATOM     48  O   LIG d   1       9.557   1.666  -4.430  0.00  0.00    -0.464 OA
BRANCH  48  49
ATOM     49  C   LIG d   1       9.965   2.478  -3.327  0.00  0.00     0.082 C 
ATOM     50  H   LIG d   1       9.373   3.393  -3.313  0.00  0.00     0.066 H 
ATOM     51  H   LIG d   1       9.811   1.930  -2.397  0.00  0.00     0.066 H 
ATOM     52  H   LIG d   1      11.021   2.728  -3.431  0.00  0.00     0.066 H 
ENDBRANCH  48  49
ENDBRANCH  46  48
ENDBRANCH  37  46
ENDBRANCH  14  36
TORSDOF 7
ENDMDL
MODEL 9
REMARK VINA RESULT:      -6.2      3.046      5.655
REMARK  7 active torsions:
REMARK  status: ('A' for Active; 'I' for Inactive)
REMARK    1  A    between atoms: C_1  and  O_2 
REMARK    2  A    between atoms: O_2  and  C_3 
REMARK    3  A    between atoms: C_8  and  C_9 
REMARK       I    between atoms: N_19  and  C_20 
REMARK       I    between atoms: C_20  and  N_22 
REMARK    4  A    between atoms: N_22  and  C_23 
REMARK    5  A    between atoms: C_28  and  C_29 
REMARK    6  A    between atoms: C_29  and  O_31 
REMARK    7  A    between atoms: O_31  and  C_32 
ROOT
ATOM      1  C   LIG d   1       4.803  -0.455  -5.987  0.00  0.00     0.100 C 
ATOM      2  H   LIG d   1       4.856   0.634  -5.979  0.00  0.00     0.062 H 
ATOM      3  C   LIG d   1       4.177  -0.949  -4.705  0.00  0.00     0.087 A 
ATOM      4  C   LIG d   1       4.708  -1.926  -3.939  0.00  0.00     0.042 A 
ATOM      5  N   LIG d   1       3.871  -2.099  -2.879  0.00  0.00    -0.348 N 
ATOM      6  C   LIG d   1       2.855  -1.219  -3.027  0.00  0.00     0.094 A 
ATOM      7  N   LIG d   1       3.049  -0.534  -4.125  0.00  0.00    -0.238 NA
ATOM      8  H   LIG d   1       3.983  -2.734  -2.153  0.00  0.00     0.167 HD
ATOM      9  C   LIG d   1       5.990  -2.656  -4.243  0.00  0.00     0.005 C 
ATOM     10  C   LIG d   1       6.342  -2.444  -5.721  0.00  0.00     0.022 C 
ATOM     11  N   LIG d   1       6.161  -1.024  -6.061  0.00  0.00    -0.272 N 
ATOM     12  C   LIG d   1       7.210  -0.261  -6.429  0.00  0.00     0.307 C 
ATOM     13  O   LIG d   1       8.306  -0.766  -6.577  0.00  0.00    -0.252 OA
ATOM     14  N   LIG d   1       7.043   1.061  -6.633  0.00  0.00    -0.269 N 
ATOM     15  H   LIG d   1       2.021  -1.101  -2.352  0.00  0.00     0.103 H 
ATOM     16  H   LIG d   1       6.792  -2.264  -3.617  0.00  0.00     0.034 H 
ATOM     17  H   LIG d   1       5.860  -3.721  -4.048  0.00  0.00     0.034 H 
ATOM     18  H   LIG d   1       7.379  -2.731  -5.895  0.00  0.00     0.047 H 
ATOM     19  H   LIG d   1       5.686  -3.053  -6.344  0.00  0.00     0.047 H 
ATOM     20  H   LIG d   1       6.191   1.479  -6.432  0.00  0.00     0.156 HD
ENDROOT
BRANCH   1  21
ATOM     21  C   LIG d   1       3.987  -0.918  -7.167  0.00  0.00     0.021 A 
ATOM     22  C   LIG d   1       3.087  -0.053  -7.771  0.00  0.00     0.125 A 
ATOM     23  C   LIG d   1       2.342  -0.480  -8.860  0.00  0.00    -0.020 A 
ATOM     24  C   LIG d   1       2.494  -1.767  -9.337  0.00  0.00    -0.058 A 
ATOM     25  H   LIG d   1       1.643   0.194  -9.335  0.00  0.00     0.065 H 
ATOM     26  C   LIG d   1       3.389  -2.630  -8.730  0.00  0.00    -0.061 A 
ATOM     27  H   LIG d   1       1.914  -2.101 -10.185  0.00  0.00     0.062 H 
ATOM     28  C   LIG d   1       4.132  -2.206  -7.645  0.00  0.00    -0.053 A 
ATOM     29  H   LIG d   1       3.506  -3.636  -9.105  0.00  0.00     0.062 H 
ATOM     30  H   LIG d   1       4.830  -2.882  -7.172  0.00  0.00     0.062 H 
BRANCH  22  31
ATOM     31  O   LIG d   1       2.940   1.214  -7.299  0.00  0.00    -0.495 OA
BRANCH  31  32
ATOM     32  C   LIG d   1       2.801   2.254  -8.269  0.00  0.00     0.079 C 
ATOM     33  H   LIG d   1       3.711   2.321  -8.864  0.00  0.00     0.066 H 
ATOM     34  H   LIG d   1       1.956   2.033  -8.921  0.00  0.00     0.066 H 
ATOM     35  H   LIG d   1       2.628   3.203  -7.761  0.00  0.00     0.066 H 
ENDBRANCH  31  32
ENDBRANCH  22  31
ENDBRANCH   1  21
BRANCH  14  36
ATOM     36  C   LIG d   1       8.095   1.825  -7.132  0.00  0.00     0.049 A 
ATOM     37  C   LIG d   1       8.321   1.893  -8.516  0.00  0.00     0.080 A 
ATOM     38  C   LIG d   1       9.376   2.668  -9.005  0.00  0.00    -0.046 A 
ATOM     39  C   LIG d   1      10.191   3.350  -8.128  0.00  0.00    -0.061 A 
ATOM     40  H   LIG d   1       9.555   2.729 -10.068  0.00  0.00     0.063 H 
ATOM     41  C   LIG d   1       9.967   3.277  -6.762  0.00  0.00    -0.060 A 
ATOM     42  H   LIG d   1      11.008   3.946  -8.507  0.00  0.00     0.062 H 
ATOM     43  C   LIG d   1       8.926   2.521  -6.265  0.00  0.00    -0.040 A 
ATOM     44  H   LIG d   1      10.612   3.816  -6.083  0.00  0.00     0.062 H 
ATOM     45  H   LIG d   1       8.758   2.468  -5.199  0.00  0.00     0.064 H 
BRANCH  37  46
ATOM     46  C   LIG d   1       7.450   1.156  -9.448  0.00  0.00     0.341 C 
ATOM     47  O   LIG d   1       7.893   0.217 -10.080  0.00  0.00    -0.245 OA
BRANCH  46  48
ATOM     48  O   LIG d   1       6.161   1.522  -9.598  0.00  0.00    -0.464 OA
BRANCH  48  49
ATOM     49  C   LIG d   1       5.349   0.702 -10.441  0.00  0.00     0.082 C 
ATOM     50  H   LIG d   1       5.298  -0.305 -10.028  0.00  0.00     0.066 H 
ATOM     51  H   LIG d   1       4.345   1.123 -10.498  0.00  0.00     0.066 H 
ATOM     52  H   LIG d   1       5.784   0.665 -11.440  0.00  0.00     0.066 H 
ENDBRANCH  48  49
ENDBRANCH  46  48
ENDBRANCH  37  46
ENDBRANCH  14  36
TORSDOF 7
ENDMDL
MODEL 10
REMARK VINA RESULT:      -6.1      1.877      3.724
REMARK  7 active torsions:
REMARK  status: ('A' for Active; 'I' for Inactive)
REMARK    1  A    between atoms: C_1  and  O_2 
REMARK    2  A    between atoms: O_2  and  C_3 
REMARK    3  A    between atoms: C_8  and  C_9 
REMARK       I    between atoms: N_19  and  C_20 
REMARK       I    between atoms: C_20  and  N_22 
REMARK    4  A    between atoms: N_22  and  C_23 
REMARK    5  A    between atoms: C_28  and  C_29 
REMARK    6  A    between atoms: C_29  and  O_31 
REMARK    7  A    between atoms: O_31  and  C_32 
ROOT
ATOM      1  C   LIG d   1       7.261  -0.753  -5.665  0.00  0.00     0.100 C 
ATOM      2  H   LIG d   1       7.231  -1.066  -6.708  0.00  0.00     0.062 H 
ATOM      3  C   LIG d   1       8.020  -1.770  -4.845  0.00  0.00     0.087 A 
ATOM      4  C   LIG d   1       7.561  -2.294  -3.689  0.00  0.00     0.042 A 
ATOM      5  N   LIG d   1       8.510  -3.162  -3.241  0.00  0.00    -0.348 N 
ATOM      6  C   LIG d   1       9.521  -3.143  -4.140  0.00  0.00     0.094 A 
ATOM      7  N   LIG d   1       9.216  -2.306  -5.098  0.00  0.00    -0.238 NA
ATOM      8  H   LIG d   1       8.470  -3.693  -2.430  0.00  0.00     0.167 HD
ATOM      9  C   LIG d   1       6.238  -1.953  -3.055  0.00  0.00     0.005 C 
ATOM     10  C   LIG d   1       5.723  -0.641  -3.661  0.00  0.00     0.022 C 
ATOM     11  N   LIG d   1       5.892  -0.685  -5.122  0.00  0.00    -0.272 N 
ATOM     12  C   LIG d   1       4.824  -0.665  -5.943  0.00  0.00     0.307 C 
ATOM     13  O   LIG d   1       3.708  -0.513  -5.486  0.00  0.00    -0.252 OA
ATOM     14  N   LIG d   1       4.993  -0.813  -7.273  0.00  0.00    -0.269 N 
ATOM     15  H   LIG d   1      10.429  -3.723  -4.078  0.00  0.00     0.103 H 
ATOM     16  H   LIG d   1       5.522  -2.751  -3.251  0.00  0.00     0.034 H 
ATOM     17  H   LIG d   1       6.368  -1.832  -1.979  0.00  0.00     0.034 H 
ATOM     18  H   LIG d   1       4.666  -0.518  -3.420  0.00  0.00     0.047 H 
ATOM     19  H   LIG d   1       6.290   0.196  -3.254  0.00  0.00     0.047 H 
ATOM     20  H   LIG d   1       5.871  -1.020  -7.629  0.00  0.00     0.156 HD
ENDROOT
BRANCH   1  21
ATOM     21  C   LIG d   1       7.926   0.595  -5.553  0.00  0.00     0.021 A 
ATOM     22  C   LIG d   1       8.088   1.384  -6.682  0.00  0.00     0.125 A 
ATOM     23  C   LIG d   1       8.695   2.627  -6.575  0.00  0.00    -0.020 A 
ATOM     24  C   LIG d   1       9.141   3.073  -5.346  0.00  0.00    -0.058 A 
ATOM     25  H   LIG d   1       8.819   3.245  -7.452  0.00  0.00     0.065 H 
ATOM     26  C   LIG d   1       8.982   2.282  -4.223  0.00  0.00    -0.061 A 
ATOM     27  H   LIG d   1       9.614   4.040  -5.262  0.00  0.00     0.062 H 
ATOM     28  C   LIG d   1       8.377   1.043  -4.327  0.00  0.00    -0.053 A 
ATOM     29  H   LIG d   1       9.331   2.632  -3.263  0.00  0.00     0.062 H 
ATOM     30  H   LIG d   1       8.255   0.426  -3.448  0.00  0.00     0.062 H 
BRANCH  22  31
ATOM     31  O   LIG d   1       7.648   0.943  -7.890  0.00  0.00    -0.495 OA
BRANCH  31  32
ATOM     32  C   LIG d   1       6.942   1.881  -8.705  0.00  0.00     0.079 C 
ATOM     33  H   LIG d   1       5.927   1.523  -8.875  0.00  0.00     0.066 H 
ATOM     34  H   LIG d   1       6.907   2.846  -8.201  0.00  0.00     0.066 H 
ATOM     35  H   LIG d   1       7.454   1.989  -9.661  0.00  0.00     0.066 H 
ENDBRANCH  31  32
ENDBRANCH  22  31
ENDBRANCH   1  21
BRANCH  14  36
ATOM     36  C   LIG d   1       3.907  -0.669  -8.133  0.00  0.00     0.049 A 
ATOM     37  C   LIG d   1       3.335  -1.797  -8.740  0.00  0.00     0.080 A 
ATOM     38  C   LIG d   1       2.242  -1.640  -9.597  0.00  0.00    -0.046 A 
ATOM     39  C   LIG d   1       1.742  -0.381  -9.847  0.00  0.00    -0.061 A 
ATOM     40  H   LIG d   1       1.793  -2.503 -10.064  0.00  0.00     0.063 H 
ATOM     41  C   LIG d   1       2.313   0.731  -9.250  0.00  0.00    -0.060 A 
ATOM     42  H   LIG d   1       0.900  -0.261 -10.512  0.00  0.00     0.062 H 
ATOM     43  C   LIG d   1       3.389   0.592  -8.397  0.00  0.00    -0.040 A 
ATOM     44  H   LIG d   1       1.913   1.714  -9.453  0.00  0.00     0.062 H 
ATOM     45  H   LIG d   1       3.828   1.464  -7.936  0.00  0.00     0.064 H 
BRANCH  37  46
ATOM     46  C   LIG d   1       3.879  -3.140  -8.472  0.00  0.00     0.341 C 
ATOM     47  O   LIG d   1       4.319  -3.811  -9.386  0.00  0.00    -0.245 OA
BRANCH  46  48
ATOM     48  O   LIG d   1       3.890  -3.625  -7.215  0.00  0.00    -0.464 OA
BRANCH  48  49
ATOM     49  C   LIG d   1       3.841  -5.045  -7.067  0.00  0.00     0.082 C 
ATOM     50  H   LIG d   1       4.078  -5.518  -8.020  0.00  0.00     0.066 H 
ATOM     51  H   LIG d   1       4.568  -5.357  -6.316  0.00  0.00     0.066 H 
ATOM     52  H   LIG d   1       2.841  -5.344  -6.751  0.00  0.00     0.066 H 
ENDBRANCH  48  49
ENDBRANCH  46  48
ENDBRANCH  37  46
ENDBRANCH  14  36
TORSDOF 7
ENDMDL
