MODEL 1
REMARK VINA RESULT:      -6.9      0.000      0.000
REMARK  12 active torsions:
REMARK  status: ('A' for Active; 'I' for Inactive)
REMARK    1  A    between atoms: C_1  and  C_2 
REMARK    2  A    between atoms: C_2  and  C_3 
REMARK    3  A    between atoms: C_2  and  C_4 
REMARK    4  A    between atoms: C_14  and  C_35 
REMARK    5  A    between atoms: C_18  and  C_19 
REMARK    6  A    between atoms: C_18  and  C_20 
REMARK    7  A    between atoms: C_20  and  N_21 
REMARK       I    between atoms: N_21  and  C_22 
REMARK       I    between atoms: C_22  and  N_24 
REMARK    8  A    between atoms: N_24  and  C_25 
REMARK    9  A    between atoms: C_28  and  O_33 
REMARK   10  A    between atoms: C_30  and  O_31 
REMARK   11  A    between atoms: O_31  and  C_32 
REMARK   12  A    between atoms: O_33  and  C_34 
ROOT
ATOM      1  C   LIG d   1       3.431  -0.581  -3.846  0.00  0.00    -0.044 A 
ATOM      2  C   LIG d   1       2.532   0.306  -4.409  0.00  0.00    -0.058 A 
ATOM      3  C   LIG d   1       2.556   0.528  -5.772  0.00  0.00    -0.058 A 
ATOM      4  C   LIG d   1       3.472  -0.132  -6.573  0.00  0.00    -0.038 A 
ATOM      5  C   LIG d   1       4.372  -1.014  -6.020  0.00  0.00    -0.043 A 
ATOM      6  C   LIG d   1       4.344  -1.235  -4.645  0.00  0.00    -0.055 A 
ATOM      7  C   LIG d   1       5.398  -1.767  -6.818  0.00  0.00    -0.027 C 
ATOM      8  C   LIG d   1       5.289  -1.540  -8.321  0.00  0.00    -0.045 C 
ATOM      9  C   LIG d   1       4.863  -0.101  -8.599  0.00  0.00    -0.025 C 
ATOM     10  H   LIG d   1       5.540   0.543  -7.986  0.00  0.00     0.032 H 
ATOM     11  C   LIG d   1       3.459   0.128  -8.064  0.00  0.00    -0.003 C 
ATOM     12  C   LIG d   1       2.995   1.554  -8.340  0.00  0.00    -0.043 C 
ATOM     13  C   LIG d   1       3.067   1.837  -9.841  0.00  0.00    -0.052 C 
ATOM     14  C   LIG d   1       4.503   1.697 -10.328  0.00  0.00    -0.046 C 
ATOM     15  C   LIG d   1       5.073   0.307 -10.042  0.00  0.00    -0.013 C 
ATOM     16  H   LIG d   1       1.815   0.822  -3.789  0.00  0.00     0.062 H 
ATOM     17  H   LIG d   1       1.850   1.222  -6.204  0.00  0.00     0.062 H 
ATOM     18  H   LIG d   1       5.047  -1.925  -4.202  0.00  0.00     0.062 H 
ATOM     19  H   LIG d   1       5.291  -2.837  -6.613  0.00  0.00     0.031 H 
ATOM     20  H   LIG d   1       6.396  -1.460  -6.487  0.00  0.00     0.031 H 
ATOM     21  H   LIG d   1       4.588  -2.255  -8.748  0.00  0.00     0.027 H 
ATOM     22  H   LIG d   1       6.272  -1.730  -8.769  0.00  0.00     0.027 H 
ATOM     23  H   LIG d   1       1.966   1.677  -7.999  0.00  0.00     0.027 H 
ATOM     24  H   LIG d   1       3.637   2.257  -7.804  0.00  0.00     0.027 H 
ATOM     25  H   LIG d   1       2.409   1.172 -10.393  0.00  0.00     0.027 H 
ATOM     26  H   LIG d   1       2.734   2.867 -10.018  0.00  0.00     0.027 H 
ATOM     27  H   LIG d   1       5.126   2.448  -9.832  0.00  0.00     0.027 H 
ATOM     28  H   LIG d   1       4.537   1.882 -11.406  0.00  0.00     0.027 H 
ENDROOT
BRANCH  15  29
ATOM     29  C   LIG d   1       4.508  -0.708 -11.033  0.00  0.00    -0.058 C 
ATOM     30  H   LIG d   1       4.765  -1.716 -10.708  0.00  0.00     0.024 H 
ATOM     31  H   LIG d   1       3.423  -0.607 -11.078  0.00  0.00     0.024 H 
ATOM     32  H   LIG d   1       4.930  -0.526 -12.021  0.00  0.00     0.024 H 
ENDBRANCH  15  29
BRANCH  15  33
ATOM     33  C   LIG d   1       6.598   0.395 -10.298  0.00  0.00     0.019 C 
ATOM     34  H   LIG d   1       6.779   0.576 -11.358  0.00  0.00     0.047 H 
ATOM     35  H   LIG d   1       7.070  -0.543 -10.006  0.00  0.00     0.047 H 
BRANCH  33  36
ATOM     36  N   LIG d   1       7.164   1.493  -9.511  0.00  0.00    -0.299 N 
ATOM     37  C   LIG d   1       7.984   1.227  -8.474  0.00  0.00     0.304 C 
ATOM     38  O   LIG d   1       8.253   0.076  -8.192  0.00  0.00    -0.253 OA
ATOM     39  N   LIG d   1       8.504   2.237  -7.751  0.00  0.00    -0.266 N 
ATOM     40  H   LIG d   1       8.224   3.151  -7.922  0.00  0.00     0.157 HD
ATOM     41  H   LIG d   1       6.948   2.412  -9.736  0.00  0.00     0.150 HD
BRANCH  39  42
ATOM     42  C   LIG d   1       9.451   1.969  -6.750  0.00  0.00     0.077 A 
ATOM     43  C   LIG d   1       9.046   1.843  -5.423  0.00  0.00     0.145 A 
ATOM     44  C   LIG d   1       9.984   1.583  -4.438  0.00  0.00     0.024 A 
ATOM     45  C   LIG d   1      11.322   1.439  -4.775  0.00  0.00     0.124 A 
ATOM     46  H   LIG d   1       9.673   1.490  -3.407  0.00  0.00     0.069 H 
ATOM     47  C   LIG d   1      11.722   1.559  -6.098  0.00  0.00    -0.018 A 
ATOM     48  C   LIG d   1      10.789   1.823  -7.082  0.00  0.00    -0.033 A 
ATOM     49  H   LIG d   1      12.764   1.446  -6.358  0.00  0.00     0.066 H 
ATOM     50  H   LIG d   1      11.103   1.917  -8.112  0.00  0.00     0.064 H 
BRANCH  43  51
ATOM     51  O   LIG d   1       7.734   1.980  -5.095  0.00  0.00    -0.493 OA
BRANCH  51  52
ATOM     52  C   LIG d   1       7.275   1.268  -3.945  0.00  0.00     0.079 C 
ATOM     53  H   LIG d   1       6.551   1.878  -3.405  0.00  0.00     0.066 H 
ATOM     54  H   LIG d   1       6.803   0.337  -4.259  0.00  0.00     0.066 H 
ATOM     55  H   LIG d   1       8.121   1.046  -3.294  0.00  0.00     0.066 H 
ENDBRANCH  51  52
ENDBRANCH  43  51
BRANCH  45  56
ATOM     56  O   LIG d   1      12.241   1.179  -3.808  0.00  0.00    -0.495 OA
BRANCH  56  57
ATOM     57  C   LIG d   1      13.001  -0.025  -3.941  0.00  0.00     0.079 C 
ATOM     58  H   LIG d   1      14.056   0.221  -4.046  0.00  0.00     0.066 H 
ATOM     59  H   LIG d   1      12.858  -0.643  -3.054  0.00  0.00     0.066 H 
ATOM     60  H   LIG d   1      12.664  -0.570  -4.822  0.00  0.00     0.066 H 
ENDBRANCH  56  57
ENDBRANCH  45  56
ENDBRANCH  39  42
ENDBRANCH  33  36
ENDBRANCH  15  33
BRANCH  11  61
ATOM     61  C   LIG d   1       2.446  -0.846  -8.664  0.00  0.00    -0.055 C 
ATOM     62  H   LIG d   1       1.982  -0.394  -9.541  0.00  0.00     0.024 H 
ATOM     63  H   LIG d   1       2.954  -1.766  -8.955  0.00  0.00     0.024 H 
ATOM     64  H   LIG d   1       1.678  -1.074  -7.924  0.00  0.00     0.024 H 
ENDBRANCH  11  61
BRANCH   1  65
ATOM     65  C   LIG d   1       3.409  -0.835  -2.361  0.00  0.00    -0.021 C 
ATOM     66  H   LIG d   1       2.404  -0.664  -1.978  0.00  0.00     0.034 H 
BRANCH  65  67
ATOM     67  C   LIG d   1       3.821  -2.283  -2.085  0.00  0.00    -0.059 C 
ATOM     68  H   LIG d   1       4.894  -2.393  -2.246  0.00  0.00     0.024 H 
ATOM     69  H   LIG d   1       3.581  -2.539  -1.053  0.00  0.00     0.024 H 
ATOM     70  H   LIG d   1       3.282  -2.949  -2.760  0.00  0.00     0.024 H 
ENDBRANCH  65  67
BRANCH  65  71
ATOM     71  C   LIG d   1       4.388   0.115  -1.666  0.00  0.00    -0.059 C 
ATOM     72  H   LIG d   1       5.410  -0.197  -1.880  0.00  0.00     0.024 H 
ATOM     73  H   LIG d   1       4.233   1.129  -2.036  0.00  0.00     0.024 H 
ATOM     74  H   LIG d   1       4.218   0.089  -0.591  0.00  0.00     0.024 H 
ENDBRANCH  65  71
ENDBRANCH   1  65
TORSDOF 12
ENDMDL
MODEL 2
REMARK VINA RESULT:      -6.4      5.289      9.038
REMARK  12 active torsions:
REMARK  status: ('A' for Active; 'I' for Inactive)
REMARK    1  A    between atoms: C_1  and  C_2 
REMARK    2  A    between atoms: C_2  and  C_3 
REMARK    3  A    between atoms: C_2  and  C_4 
REMARK    4  A    between atoms: C_14  and  C_35 
REMARK    5  A    between atoms: C_18  and  C_19 
REMARK    6  A    between atoms: C_18  and  C_20 
REMARK    7  A    between atoms: C_20  and  N_21 
REMARK       I    between atoms: N_21  and  C_22 
REMARK       I    between atoms: C_22  and  N_24 
REMARK    8  A    between atoms: N_24  and  C_25 
REMARK    9  A    between atoms: C_28  and  O_33 
REMARK   10  A    between atoms: C_30  and  O_31 
REMARK   11  A    between atoms: O_31  and  C_32 
REMARK   12  A    between atoms: O_33  and  C_34 
ROOT
ATOM      1  C   LIG d   1       3.722  -0.514  -4.237  0.00  0.00    -0.044 A 
ATOM      2  C   LIG d   1       4.742  -1.349  -4.655  0.00  0.00    -0.058 A 
ATOM      3  C   LIG d   1       5.019  -1.465  -6.003  0.00  0.00    -0.058 A 
ATOM      4  C   LIG d   1       4.283  -0.752  -6.934  0.00  0.00    -0.038 A 
ATOM      5  C   LIG d   1       3.263   0.078  -6.526  0.00  0.00    -0.043 A 
ATOM      6  C   LIG d   1       2.988   0.193  -5.165  0.00  0.00    -0.055 A 
ATOM      7  C   LIG d   1       2.417   0.882  -7.470  0.00  0.00    -0.027 C 
ATOM      8  C   LIG d   1       2.854   0.773  -8.927  0.00  0.00    -0.045 C 
ATOM      9  C   LIG d   1       3.364  -0.637  -9.210  0.00  0.00    -0.025 C 
ATOM     10  H   LIG d   1       2.587  -1.331  -8.809  0.00  0.00     0.032 H 
ATOM     11  C   LIG d   1       4.624  -0.896  -8.401  0.00  0.00    -0.003 C 
ATOM     12  C   LIG d   1       5.171  -2.293  -8.674  0.00  0.00    -0.043 C 
ATOM     13  C   LIG d   1       5.433  -2.460 -10.171  0.00  0.00    -0.052 C 
ATOM     14  C   LIG d   1       4.134  -2.293 -10.947  0.00  0.00    -0.046 C 
ATOM     15  C   LIG d   1       3.481  -0.934 -10.690  0.00  0.00    -0.013 C 
ATOM     16  H   LIG d   1       5.321  -1.905  -3.934  0.00  0.00     0.062 H 
ATOM     17  H   LIG d   1       5.818  -2.118  -6.321  0.00  0.00     0.062 H 
ATOM     18  H   LIG d   1       2.190   0.841  -4.837  0.00  0.00     0.062 H 
ATOM     19  H   LIG d   1       2.451   1.934  -7.169  0.00  0.00     0.031 H 
ATOM     20  H   LIG d   1       1.379   0.543  -7.389  0.00  0.00     0.031 H 
ATOM     21  H   LIG d   1       3.613   1.524  -9.137  0.00  0.00     0.027 H 
ATOM     22  H   LIG d   1       1.987   0.989  -9.563  0.00  0.00     0.027 H 
ATOM     23  H   LIG d   1       6.105  -2.433  -8.127  0.00  0.00     0.027 H 
ATOM     24  H   LIG d   1       4.447  -3.040  -8.344  0.00  0.00     0.027 H 
ATOM     25  H   LIG d   1       6.179  -1.749 -10.516  0.00  0.00     0.027 H 
ATOM     26  H   LIG d   1       5.822  -3.471 -10.347  0.00  0.00     0.027 H 
ATOM     27  H   LIG d   1       3.436  -3.085 -10.656  0.00  0.00     0.027 H 
ATOM     28  H   LIG d   1       4.338  -2.395 -12.017  0.00  0.00     0.027 H 
ENDROOT
BRANCH  15  29
ATOM     29  C   LIG d   1       4.224   0.159 -11.457  0.00  0.00    -0.058 C 
ATOM     30  H   LIG d   1       3.526   0.681 -12.113  0.00  0.00     0.024 H 
ATOM     31  H   LIG d   1       4.658   0.867 -10.752  0.00  0.00     0.024 H 
ATOM     32  H   LIG d   1       5.017  -0.291 -12.055  0.00  0.00     0.024 H 
ENDBRANCH  15  29
BRANCH  15  33
ATOM     33  C   LIG d   1       2.051  -1.013 -11.278  0.00  0.00     0.019 C 
ATOM     34  H   LIG d   1       2.096  -1.417 -12.290  0.00  0.00     0.047 H 
ATOM     35  H   LIG d   1       1.614  -0.015 -11.307  0.00  0.00     0.047 H 
BRANCH  33  36
ATOM     36  N   LIG d   1       1.225  -1.885 -10.440  0.00  0.00    -0.299 N 
ATOM     37  C   LIG d   1       0.753  -3.047 -10.935  0.00  0.00     0.304 C 
ATOM     38  O   LIG d   1       1.013  -3.372 -12.077  0.00  0.00    -0.253 OA
ATOM     39  N   LIG d   1      -0.007  -3.848 -10.163  0.00  0.00    -0.266 N 
ATOM     40  H   LIG d   1      -0.285  -3.552  -9.281  0.00  0.00     0.157 HD
ATOM     41  H   LIG d   1       1.017  -1.626  -9.528  0.00  0.00     0.150 HD
BRANCH  39  42
ATOM     42  C   LIG d   1      -0.397  -5.112 -10.634  0.00  0.00     0.077 A 
ATOM     43  C   LIG d   1       0.362  -6.237 -10.322  0.00  0.00     0.145 A 
ATOM     44  C   LIG d   1      -0.023  -7.481 -10.793  0.00  0.00     0.024 A 
ATOM     45  C   LIG d   1      -1.171  -7.606 -11.563  0.00  0.00     0.124 A 
ATOM     46  H   LIG d   1       0.567  -8.355 -10.557  0.00  0.00     0.069 H 
ATOM     47  C   LIG d   1      -1.929  -6.485 -11.866  0.00  0.00    -0.018 A 
ATOM     48  C   LIG d   1      -1.543  -5.242 -11.403  0.00  0.00    -0.033 A 
ATOM     49  H   LIG d   1      -2.821  -6.585 -12.466  0.00  0.00     0.066 H 
ATOM     50  H   LIG d   1      -2.135  -4.370 -11.641  0.00  0.00     0.064 H 
BRANCH  43  51
ATOM     51  O   LIG d   1       1.483  -6.114  -9.563  0.00  0.00    -0.493 OA
BRANCH  51  52
ATOM     52  C   LIG d   1       2.738  -6.267 -10.229  0.00  0.00     0.079 C 
ATOM     53  H   LIG d   1       3.201  -5.288 -10.361  0.00  0.00     0.066 H 
ATOM     54  H   LIG d   1       3.392  -6.900  -9.631  0.00  0.00     0.066 H 
ATOM     55  H   LIG d   1       2.577  -6.726 -11.205  0.00  0.00     0.066 H 
ENDBRANCH  51  52
ENDBRANCH  43  51
BRANCH  45  56
ATOM     56  O   LIG d   1      -1.551  -8.828 -12.020  0.00  0.00    -0.495 OA
BRANCH  56  57
ATOM     57  C   LIG d   1      -1.395  -9.933 -11.126  0.00  0.00     0.079 C 
ATOM     58  H   LIG d   1      -0.759 -10.687 -11.588  0.00  0.00     0.066 H 
ATOM     59  H   LIG d   1      -0.935  -9.588 -10.200  0.00  0.00     0.066 H 
ATOM     60  H   LIG d   1      -2.371 -10.364 -10.909  0.00  0.00     0.066 H 
ENDBRANCH  56  57
ENDBRANCH  45  56
ENDBRANCH  39  42
ENDBRANCH  33  36
ENDBRANCH  15  33
BRANCH  11  61
ATOM     61  C   LIG d   1       5.720   0.129  -8.692  0.00  0.00    -0.055 C 
ATOM     62  H   LIG d   1       5.289   0.982  -9.217  0.00  0.00     0.024 H 
ATOM     63  H   LIG d   1       6.161   0.466  -7.753  0.00  0.00     0.024 H 
ATOM     64  H   LIG d   1       6.491  -0.328  -9.312  0.00  0.00     0.024 H 
ENDBRANCH  11  61
BRANCH   1  65
ATOM     65  C   LIG d   1       3.415  -0.376  -2.769  0.00  0.00    -0.021 C 
ATOM     66  H   LIG d   1       2.368  -0.617  -2.592  0.00  0.00     0.034 H 
BRANCH  65  67
ATOM     67  C   LIG d   1       4.302  -1.334  -1.970  0.00  0.00    -0.059 C 
ATOM     68  H   LIG d   1       5.112  -0.774  -1.502  0.00  0.00     0.024 H 
ATOM     69  H   LIG d   1       3.706  -1.823  -1.199  0.00  0.00     0.024 H 
ATOM     70  H   LIG d   1       4.719  -2.086  -2.639  0.00  0.00     0.024 H 
ENDBRANCH  65  67
BRANCH  65  71
ATOM     71  C   LIG d   1       3.689   1.063  -2.324  0.00  0.00    -0.059 C 
ATOM     72  H   LIG d   1       3.351   1.753  -3.098  0.00  0.00     0.024 H 
ATOM     73  H   LIG d   1       3.150   1.265  -1.398  0.00  0.00     0.024 H 
ATOM     74  H   LIG d   1       4.757   1.195  -2.160  0.00  0.00     0.024 H 
ENDBRANCH  65  71
ENDBRANCH   1  65
TORSDOF 12
ENDMDL
MODEL 3
REMARK VINA RESULT:      -6.4      6.086      9.881
REMARK  12 active torsions:
REMARK  status: ('A' for Active; 'I' for Inactive)
REMARK    1  A    between atoms: C_1  and  C_2 
REMARK    2  A    between atoms: C_2  and  C_3 
REMARK    3  A    between atoms: C_2  and  C_4 
REMARK    4  A    between atoms: C_14  and  C_35 
REMARK    5  A    between atoms: C_18  and  C_19 
REMARK    6  A    between atoms: C_18  and  C_20 
REMARK    7  A    between atoms: C_20  and  N_21 
REMARK       I    between atoms: N_21  and  C_22 
REMARK       I    between atoms: C_22  and  N_24 
REMARK    8  A    between atoms: N_24  and  C_25 
REMARK    9  A    between atoms: C_28  and  O_33 
REMARK   10  A    between atoms: C_30  and  O_31 
REMARK   11  A    between atoms: O_31  and  C_32 
REMARK   12  A    between atoms: O_33  and  C_34 
ROOT
ATOM      1  C   LIG d   1       3.648  -0.473  -4.290  0.00  0.00    -0.044 A 
ATOM      2  C   LIG d   1       4.501  -1.543  -4.487  0.00  0.00    -0.058 A 
ATOM      3  C   LIG d   1       4.739  -1.998  -5.769  0.00  0.00    -0.058 A 
ATOM      4  C   LIG d   1       4.129  -1.391  -6.853  0.00  0.00    -0.038 A 
ATOM      5  C   LIG d   1       3.275  -0.327  -6.665  0.00  0.00    -0.043 A 
ATOM      6  C   LIG d   1       3.039   0.129  -5.370  0.00  0.00    -0.055 A 
ATOM      7  C   LIG d   1       2.573   0.384  -7.785  0.00  0.00    -0.027 C 
ATOM      8  C   LIG d   1       2.969  -0.117  -9.170  0.00  0.00    -0.045 C 
ATOM      9  C   LIG d   1       3.220  -1.621  -9.125  0.00  0.00    -0.025 C 
ATOM     10  H   LIG d   1       2.338  -2.064  -8.604  0.00  0.00     0.032 H 
ATOM     11  C   LIG d   1       4.424  -1.910  -8.243  0.00  0.00    -0.003 C 
ATOM     12  C   LIG d   1       4.715  -3.406  -8.189  0.00  0.00    -0.043 C 
ATOM     13  C   LIG d   1       4.927  -3.940  -9.606  0.00  0.00    -0.052 C 
ATOM     14  C   LIG d   1       3.669  -3.726 -10.436  0.00  0.00    -0.046 C 
ATOM     15  C   LIG d   1       3.268  -2.251 -10.501  0.00  0.00    -0.013 C 
ATOM     16  H   LIG d   1       4.981  -2.019  -3.646  0.00  0.00     0.062 H 
ATOM     17  H   LIG d   1       5.408  -2.834  -5.914  0.00  0.00     0.062 H 
ATOM     18  H   LIG d   1       2.370   0.962  -5.214  0.00  0.00     0.062 H 
ATOM     19  H   LIG d   1       2.794   1.454  -7.719  0.00  0.00     0.031 H 
ATOM     20  H   LIG d   1       1.492   0.257  -7.661  0.00  0.00     0.031 H 
ATOM     21  H   LIG d   1       3.845   0.427  -9.518  0.00  0.00     0.027 H 
ATOM     22  H   LIG d   1       2.146   0.102  -9.862  0.00  0.00     0.027 H 
ATOM     23  H   LIG d   1       5.615  -3.583  -7.599  0.00  0.00     0.027 H 
ATOM     24  H   LIG d   1       3.874  -3.925  -7.725  0.00  0.00     0.027 H 
ATOM     25  H   LIG d   1       5.782  -3.463 -10.076  0.00  0.00     0.027 H 
ATOM     26  H   LIG d   1       5.131  -5.017  -9.547  0.00  0.00     0.027 H 
ATOM     27  H   LIG d   1       2.846  -4.300  -9.999  0.00  0.00     0.027 H 
ATOM     28  H   LIG d   1       3.841  -4.093 -11.452  0.00  0.00     0.027 H 
ENDROOT
BRANCH  15  29
ATOM     29  C   LIG d   1       4.182  -1.499 -11.466  0.00  0.00    -0.058 C 
ATOM     30  H   LIG d   1       4.900  -0.907 -10.899  0.00  0.00     0.024 H 
ATOM     31  H   LIG d   1       4.715  -2.214 -12.093  0.00  0.00     0.024 H 
ATOM     32  H   LIG d   1       3.583  -0.840 -12.095  0.00  0.00     0.024 H 
ENDBRANCH  15  29
BRANCH  15  33
ATOM     33  C   LIG d   1       1.840  -2.208 -11.097  0.00  0.00     0.019 C 
ATOM     34  H   LIG d   1       1.834  -2.714 -12.064  0.00  0.00     0.047 H 
ATOM     35  H   LIG d   1       1.532  -1.171 -11.230  0.00  0.00     0.047 H 
BRANCH  33  36
ATOM     36  N   LIG d   1       0.909  -2.881 -10.188  0.00  0.00    -0.299 N 
ATOM     37  C   LIG d   1       0.211  -3.954 -10.610  0.00  0.00     0.304 C 
ATOM     38  O   LIG d   1       0.354  -4.364 -11.746  0.00  0.00    -0.253 OA
ATOM     39  N   LIG d   1      -0.645  -4.573  -9.774  0.00  0.00    -0.266 N 
ATOM     40  H   LIG d   1      -0.822  -4.198  -8.896  0.00  0.00     0.157 HD
ATOM     41  H   LIG d   1       0.795  -2.554  -9.282  0.00  0.00     0.150 HD
BRANCH  39  42
ATOM     42  C   LIG d   1      -1.280  -5.760 -10.171  0.00  0.00     0.077 A 
ATOM     43  C   LIG d   1      -2.582  -5.722 -10.666  0.00  0.00     0.145 A 
ATOM     44  C   LIG d   1      -3.207  -6.896 -11.052  0.00  0.00     0.024 A 
ATOM     45  C   LIG d   1      -2.534  -8.105 -10.956  0.00  0.00     0.124 A 
ATOM     46  H   LIG d   1      -4.219  -6.870 -11.432  0.00  0.00     0.069 H 
ATOM     47  C   LIG d   1      -1.235  -8.139 -10.469  0.00  0.00    -0.018 A 
ATOM     48  C   LIG d   1      -0.611  -6.971 -10.078  0.00  0.00    -0.033 A 
ATOM     49  H   LIG d   1      -0.713  -9.082 -10.395  0.00  0.00     0.066 H 
ATOM     50  H   LIG d   1       0.400  -7.000  -9.698  0.00  0.00     0.064 H 
BRANCH  43  51
ATOM     51  O   LIG d   1      -3.239  -4.536 -10.764  0.00  0.00    -0.493 OA
BRANCH  51  52
ATOM     52  C   LIG d   1      -4.397  -4.366  -9.945  0.00  0.00     0.079 C 
ATOM     53  H   LIG d   1      -4.780  -5.344  -9.650  0.00  0.00     0.066 H 
ATOM     54  H   LIG d   1      -4.131  -3.797  -9.054  0.00  0.00     0.066 H 
ATOM     55  H   LIG d   1      -5.163  -3.830 -10.505  0.00  0.00     0.066 H 
ENDBRANCH  51  52
ENDBRANCH  43  51
BRANCH  45  56
ATOM     56  O   LIG d   1      -3.146  -9.256 -11.340  0.00  0.00    -0.495 OA
BRANCH  56  57
ATOM     57  C   LIG d   1      -3.261 -10.288 -10.358  0.00  0.00     0.079 C 
ATOM     58  H   LIG d   1      -3.668  -9.872  -9.437  0.00  0.00     0.066 H 
ATOM     59  H   LIG d   1      -3.925 -11.069 -10.727  0.00  0.00     0.066 H 
ATOM     60  H   LIG d   1      -2.277 -10.712 -10.162  0.00  0.00     0.066 H 
ENDBRANCH  56  57
ENDBRANCH  45  56
ENDBRANCH  39  42
ENDBRANCH  33  36
ENDBRANCH  15  33
BRANCH  11  61
ATOM     61  C   LIG d   1       5.679  -1.180  -8.720  0.00  0.00    -0.055 C 
ATOM     62  H   LIG d   1       6.285  -0.897  -7.858  0.00  0.00     0.024 H 
ATOM     63  H   LIG d   1       6.258  -1.837  -9.369  0.00  0.00     0.024 H 
ATOM     64  H   LIG d   1       5.393  -0.284  -9.272  0.00  0.00     0.024 H 
ENDBRANCH  11  61
BRANCH   1  65
ATOM     65  C   LIG d   1       3.386   0.036  -2.896  0.00  0.00    -0.021 C 
ATOM     66  H   LIG d   1       2.336  -0.116  -2.645  0.00  0.00     0.034 H 
BRANCH  65  67
ATOM     67  C   LIG d   1       4.264  -0.727  -1.901  0.00  0.00    -0.059 C 
ATOM     68  H   LIG d   1       4.644  -1.634  -2.373  0.00  0.00     0.024 H 
ATOM     69  H   LIG d   1       5.100  -0.097  -1.598  0.00  0.00     0.024 H 
ATOM     70  H   LIG d   1       3.672  -0.994  -1.025  0.00  0.00     0.024 H 
ENDBRANCH  65  67
BRANCH  65  71
ATOM     71  C   LIG d   1       3.715   1.528  -2.827  0.00  0.00    -0.059 C 
ATOM     72  H   LIG d   1       3.406   2.012  -3.754  0.00  0.00     0.024 H 
ATOM     73  H   LIG d   1       3.185   1.979  -1.988  0.00  0.00     0.024 H 
ATOM     74  H   LIG d   1       4.788   1.657  -2.691  0.00  0.00     0.024 H 
ENDBRANCH  65  71
ENDBRANCH   1  65
TORSDOF 12
ENDMDL
MODEL 4
REMARK VINA RESULT:      -6.3      7.627      9.598
REMARK  12 active torsions:
REMARK  status: ('A' for Active; 'I' for Inactive)
REMARK    1  A    between atoms: C_1  and  C_2 
REMARK    2  A    between atoms: C_2  and  C_3 
REMARK    3  A    between atoms: C_2  and  C_4 
REMARK    4  A    between atoms: C_14  and  C_35 
REMARK    5  A    between atoms: C_18  and  C_19 
REMARK    6  A    between atoms: C_18  and  C_20 
REMARK    7  A    between atoms: C_20  and  N_21 
REMARK       I    between atoms: N_21  and  C_22 
REMARK       I    between atoms: C_22  and  N_24 
REMARK    8  A    between atoms: N_24  and  C_25 
REMARK    9  A    between atoms: C_28  and  O_33 
REMARK   10  A    between atoms: C_30  and  O_31 
REMARK   11  A    between atoms: O_31  and  C_32 
REMARK   12  A    between atoms: O_33  and  C_34 
ROOT
ATOM      1  C   LIG d   1       4.895  -1.464  -2.986  0.00  0.00    -0.044 A 
ATOM      2  C   LIG d   1       6.202  -1.027  -2.884  0.00  0.00    -0.058 A 
ATOM      3  C   LIG d   1       7.210  -1.738  -3.507  0.00  0.00    -0.058 A 
ATOM      4  C   LIG d   1       6.916  -2.880  -4.230  0.00  0.00    -0.038 A 
ATOM      5  C   LIG d   1       5.618  -3.324  -4.335  0.00  0.00    -0.043 A 
ATOM      6  C   LIG d   1       4.605  -2.604  -3.705  0.00  0.00    -0.055 A 
ATOM      7  C   LIG d   1       5.217  -4.554  -5.098  0.00  0.00    -0.027 C 
ATOM      8  C   LIG d   1       6.374  -5.219  -5.835  0.00  0.00    -0.045 C 
ATOM      9  C   LIG d   1       7.654  -5.089  -5.015  0.00  0.00    -0.025 C 
ATOM     10  H   LIG d   1       7.391  -5.418  -3.981  0.00  0.00     0.032 H 
ATOM     11  C   LIG d   1       8.045  -3.625  -4.910  0.00  0.00    -0.003 C 
ATOM     12  C   LIG d   1       9.333  -3.460  -4.109  0.00  0.00    -0.043 C 
ATOM     13  C   LIG d   1      10.448  -4.284  -4.753  0.00  0.00    -0.052 C 
ATOM     14  C   LIG d   1      10.070  -5.759  -4.755  0.00  0.00    -0.046 C 
ATOM     15  C   LIG d   1       8.754  -6.014  -5.492  0.00  0.00    -0.013 C 
ATOM     16  H   LIG d   1       6.436  -0.135  -2.322  0.00  0.00     0.062 H 
ATOM     17  H   LIG d   1       8.228  -1.389  -3.422  0.00  0.00     0.062 H 
ATOM     18  H   LIG d   1       3.584  -2.945  -3.781  0.00  0.00     0.062 H 
ATOM     19  H   LIG d   1       4.443  -4.284  -5.823  0.00  0.00     0.031 H 
ATOM     20  H   LIG d   1       4.784  -5.277  -4.398  0.00  0.00     0.031 H 
ATOM     21  H   LIG d   1       6.482  -4.772  -6.822  0.00  0.00     0.027 H 
ATOM     22  H   LIG d   1       6.127  -6.279  -5.975  0.00  0.00     0.027 H 
ATOM     23  H   LIG d   1       9.624  -2.409  -4.096  0.00  0.00     0.027 H 
ATOM     24  H   LIG d   1       9.172  -3.801  -3.085  0.00  0.00     0.027 H 
ATOM     25  H   LIG d   1      10.651  -3.940  -5.764  0.00  0.00     0.027 H 
ATOM     26  H   LIG d   1      11.364  -4.156  -4.162  0.00  0.00     0.027 H 
ATOM     27  H   LIG d   1       9.973  -6.107  -3.722  0.00  0.00     0.027 H 
ATOM     28  H   LIG d   1      10.866  -6.335  -5.236  0.00  0.00     0.027 H 
ENDROOT
BRANCH  15  29
ATOM     29  C   LIG d   1       8.976  -5.942  -7.002  0.00  0.00    -0.058 C 
ATOM     30  H   LIG d   1       8.033  -5.706  -7.497  0.00  0.00     0.024 H 
ATOM     31  H   LIG d   1       9.707  -5.165  -7.226  0.00  0.00     0.024 H 
ATOM     32  H   LIG d   1       9.345  -6.903  -7.362  0.00  0.00     0.024 H 
ENDBRANCH  15  29
BRANCH  15  33
ATOM     33  C   LIG d   1       8.337  -7.467  -5.161  0.00  0.00     0.019 C 
ATOM     34  H   LIG d   1       9.150  -8.147  -5.419  0.00  0.00     0.047 H 
ATOM     35  H   LIG d   1       7.449  -7.731  -5.736  0.00  0.00     0.047 H 
BRANCH  33  36
ATOM     36  N   LIG d   1       8.043  -7.578  -3.730  0.00  0.00    -0.299 N 
ATOM     37  C   LIG d   1       8.536  -8.610  -3.018  0.00  0.00     0.304 C 
ATOM     38  O   LIG d   1       9.226  -9.451  -3.563  0.00  0.00    -0.253 OA
ATOM     39  N   LIG d   1       8.265  -8.711  -1.702  0.00  0.00    -0.266 N 
ATOM     40  H   LIG d   1       7.648  -8.090  -1.284  0.00  0.00     0.157 HD
ATOM     41  H   LIG d   1       7.492  -6.908  -3.295  0.00  0.00     0.150 HD
BRANCH  39  42
ATOM     42  C   LIG d   1       8.876  -9.716  -0.935  0.00  0.00     0.077 A 
ATOM     43  C   LIG d   1      10.081  -9.460  -0.284  0.00  0.00     0.145 A 
ATOM     44  C   LIG d   1      10.682 -10.456   0.468  0.00  0.00     0.024 A 
ATOM     45  C   LIG d   1      10.079 -11.700   0.582  0.00  0.00     0.124 A 
ATOM     46  H   LIG d   1      11.620 -10.262   0.970  0.00  0.00     0.069 H 
ATOM     47  C   LIG d   1       8.876 -11.949  -0.062  0.00  0.00    -0.018 A 
ATOM     48  C   LIG d   1       8.276 -10.960  -0.818  0.00  0.00    -0.033 A 
ATOM     49  H   LIG d   1       8.408 -12.919   0.028  0.00  0.00     0.066 H 
ATOM     50  H   LIG d   1       7.340 -11.157  -1.318  0.00  0.00     0.064 H 
BRANCH  43  51
ATOM     51  O   LIG d   1      10.668  -8.239  -0.392  0.00  0.00    -0.493 OA
BRANCH  51  52
ATOM     52  C   LIG d   1      11.862  -8.161  -1.172  0.00  0.00     0.079 C 
ATOM     53  H   LIG d   1      11.647  -7.657  -2.116  0.00  0.00     0.066 H 
ATOM     54  H   LIG d   1      12.618  -7.598  -0.625  0.00  0.00     0.066 H 
ATOM     55  H   LIG d   1      12.231  -9.166  -1.374  0.00  0.00     0.066 H 
ENDBRANCH  51  52
ENDBRANCH  43  51
BRANCH  45  56
ATOM     56  O   LIG d   1      10.668 -12.674   1.324  0.00  0.00    -0.495 OA
BRANCH  56  57
ATOM     57  C   LIG d   1      11.509 -12.251   2.400  0.00  0.00     0.079 C 
ATOM     58  H   LIG d   1      12.046 -13.110   2.801  0.00  0.00     0.066 H 
ATOM     59  H   LIG d   1      12.224 -11.514   2.034  0.00  0.00     0.066 H 
ATOM     60  H   LIG d   1      10.898 -11.806   3.184  0.00  0.00     0.066 H 
ENDBRANCH  56  57
ENDBRANCH  45  56
ENDBRANCH  39  42
ENDBRANCH  33  36
ENDBRANCH  15  33
BRANCH  11  61
ATOM     61  C   LIG d   1       8.229  -2.974  -6.280  0.00  0.00    -0.055 C 
ATOM     62  H   LIG d   1       8.320  -1.894  -6.161  0.00  0.00     0.024 H 
ATOM     63  H   LIG d   1       9.134  -3.364  -6.749  0.00  0.00     0.024 H 
ATOM     64  H   LIG d   1       7.368  -3.199  -6.909  0.00  0.00     0.024 H 
ENDBRANCH  11  61
BRANCH   1  65
ATOM     65  C   LIG d   1       3.787  -0.693  -2.316  0.00  0.00    -0.021 C 
ATOM     66  H   LIG d   1       3.470  -1.221  -1.417  0.00  0.00     0.034 H 
BRANCH  65  67
ATOM     67  C   LIG d   1       4.293   0.701  -1.937  0.00  0.00    -0.059 C 
ATOM     68  H   LIG d   1       5.012   1.041  -2.683  0.00  0.00     0.024 H 
ATOM     69  H   LIG d   1       3.453   1.394  -1.900  0.00  0.00     0.024 H 
ATOM     70  H   LIG d   1       4.775   0.660  -0.960  0.00  0.00     0.024 H 
ENDBRANCH  65  67
BRANCH  65  71
ATOM     71  C   LIG d   1       2.602  -0.563  -3.275  0.00  0.00    -0.059 C 
ATOM     72  H   LIG d   1       2.972  -0.408  -4.289  0.00  0.00     0.024 H 
ATOM     73  H   LIG d   1       2.006  -1.475  -3.242  0.00  0.00     0.024 H 
ATOM     74  H   LIG d   1       1.987   0.286  -2.979  0.00  0.00     0.024 H 
ENDBRANCH  65  71
ENDBRANCH   1  65
TORSDOF 12
ENDMDL
MODEL 5
REMARK VINA RESULT:      -6.2      5.405      9.593
REMARK  12 active torsions:
REMARK  status: ('A' for Active; 'I' for Inactive)
REMARK    1  A    between atoms: C_1  and  C_2 
REMARK    2  A    between atoms: C_2  and  C_3 
REMARK    3  A    between atoms: C_2  and  C_4 
REMARK    4  A    between atoms: C_14  and  C_35 
REMARK    5  A    between atoms: C_18  and  C_19 
REMARK    6  A    between atoms: C_18  and  C_20 
REMARK    7  A    between atoms: C_20  and  N_21 
REMARK       I    between atoms: N_21  and  C_22 
REMARK       I    between atoms: C_22  and  N_24 
REMARK    8  A    between atoms: N_24  and  C_25 
REMARK    9  A    between atoms: C_28  and  O_33 
REMARK   10  A    between atoms: C_30  and  O_31 
REMARK   11  A    between atoms: O_31  and  C_32 
REMARK   12  A    between atoms: O_33  and  C_34 
ROOT
ATOM      1  C   LIG d   1       9.594  10.399  -4.523  0.00  0.00    -0.044 A 
ATOM      2  C   LIG d   1      10.268  10.074  -3.360  0.00  0.00    -0.058 A 
ATOM      3  C   LIG d   1      10.657   8.767  -3.140  0.00  0.00    -0.058 A 
ATOM      4  C   LIG d   1      10.377   7.786  -4.075  0.00  0.00    -0.038 A 
ATOM      5  C   LIG d   1       9.703   8.101  -5.234  0.00  0.00    -0.043 A 
ATOM      6  C   LIG d   1       9.313   9.420  -5.451  0.00  0.00    -0.055 A 
ATOM      7  C   LIG d   1       9.358   7.096  -6.295  0.00  0.00    -0.027 C 
ATOM      8  C   LIG d   1       9.912   5.702  -6.020  0.00  0.00    -0.045 C 
ATOM      9  C   LIG d   1       9.883   5.420  -4.520  0.00  0.00    -0.025 C 
ATOM     10  H   LIG d   1       8.855   5.688  -4.177  0.00  0.00     0.032 H 
ATOM     11  C   LIG d   1      10.831   6.368  -3.805  0.00  0.00    -0.003 C 
ATOM     12  C   LIG d   1      10.839   6.102  -2.303  0.00  0.00    -0.043 C 
ATOM     13  C   LIG d   1      11.216   4.643  -2.042  0.00  0.00    -0.052 C 
ATOM     14  C   LIG d   1      10.192   3.718  -2.687  0.00  0.00    -0.046 C 
ATOM     15  C   LIG d   1      10.075   3.954  -4.194  0.00  0.00    -0.013 C 
ATOM     16  H   LIG d   1      10.491  10.835  -2.629  0.00  0.00     0.062 H 
ATOM     17  H   LIG d   1      11.184   8.522  -2.230  0.00  0.00     0.062 H 
ATOM     18  H   LIG d   1       8.783   9.676  -6.357  0.00  0.00     0.062 H 
ATOM     19  H   LIG d   1       9.747   7.448  -7.256  0.00  0.00     0.031 H 
ATOM     20  H   LIG d   1       8.268   7.031  -6.378  0.00  0.00     0.031 H 
ATOM     21  H   LIG d   1      10.920   5.624  -6.424  0.00  0.00     0.027 H 
ATOM     22  H   LIG d   1       9.284   4.974  -6.548  0.00  0.00     0.027 H 
ATOM     23  H   LIG d   1      11.569   6.754  -1.820  0.00  0.00     0.027 H 
ATOM     24  H   LIG d   1       9.849   6.303  -1.891  0.00  0.00     0.027 H 
ATOM     25  H   LIG d   1      12.214   4.428  -2.413  0.00  0.00     0.027 H 
ATOM     26  H   LIG d   1      11.213   4.470  -0.958  0.00  0.00     0.027 H 
ATOM     27  H   LIG d   1       9.215   3.883  -2.223  0.00  0.00     0.027 H 
ATOM     28  H   LIG d   1      10.484   2.679  -2.510  0.00  0.00     0.027 H 
ENDROOT
BRANCH  15  29
ATOM     29  C   LIG d   1      11.271   3.338  -4.917  0.00  0.00    -0.058 C 
ATOM     30  H   LIG d   1      11.965   2.923  -4.185  0.00  0.00     0.024 H 
ATOM     31  H   LIG d   1      10.926   2.544  -5.580  0.00  0.00     0.024 H 
ATOM     32  H   LIG d   1      11.777   4.105  -5.503  0.00  0.00     0.024 H 
ENDBRANCH  15  29
BRANCH  15  33
ATOM     33  C   LIG d   1       8.814   3.189  -4.663  0.00  0.00     0.019 C 
ATOM     34  H   LIG d   1       9.019   2.700  -5.616  0.00  0.00     0.047 H 
ATOM     35  H   LIG d   1       7.988   3.890  -4.787  0.00  0.00     0.047 H 
BRANCH  33  36
ATOM     36  N   LIG d   1       8.454   2.180  -3.664  0.00  0.00    -0.299 N 
ATOM     37  C   LIG d   1       7.626   1.169  -3.994  0.00  0.00     0.304 C 
ATOM     38  O   LIG d   1       7.178   1.093  -5.122  0.00  0.00    -0.253 OA
ATOM     39  N   LIG d   1       7.295   0.242  -3.075  0.00  0.00    -0.266 N 
ATOM     40  H   LIG d   1       7.583   0.347  -2.154  0.00  0.00     0.157 HD
ATOM     41  H   LIG d   1       8.810   2.241  -2.763  0.00  0.00     0.150 HD
BRANCH  39  42
ATOM     42  C   LIG d   1       6.533  -0.877  -3.448  0.00  0.00     0.077 A 
ATOM     43  C   LIG d   1       5.204  -0.982  -3.041  0.00  0.00     0.145 A 
ATOM     44  C   LIG d   1       4.458  -2.090  -3.407  0.00  0.00     0.024 A 
ATOM     45  C   LIG d   1       5.028  -3.085  -4.187  0.00  0.00     0.124 A 
ATOM     46  H   LIG d   1       3.428  -2.177  -3.088  0.00  0.00     0.069 H 
ATOM     47  C   LIG d   1       6.349  -2.974  -4.596  0.00  0.00    -0.018 A 
ATOM     48  C   LIG d   1       7.099  -1.873  -4.228  0.00  0.00    -0.033 A 
ATOM     49  H   LIG d   1       6.792  -3.750  -5.204  0.00  0.00     0.066 H 
ATOM     50  H   LIG d   1       8.127  -1.790  -4.547  0.00  0.00     0.064 H 
BRANCH  43  51
ATOM     51  O   LIG d   1       4.645  -0.004  -2.281  0.00  0.00    -0.493 OA
BRANCH  51  52
ATOM     52  C   LIG d   1       3.543   0.707  -2.848  0.00  0.00     0.079 C 
ATOM     53  H   LIG d   1       3.863   1.202  -3.766  0.00  0.00     0.066 H 
ATOM     54  H   LIG d   1       2.738   0.009  -3.074  0.00  0.00     0.066 H 
ATOM     55  H   LIG d   1       3.189   1.454  -2.137  0.00  0.00     0.066 H 
ENDBRANCH  51  52
ENDBRANCH  43  51
BRANCH  45  56
ATOM     56  O   LIG d   1       4.293  -4.169  -4.550  0.00  0.00    -0.495 OA
BRANCH  56  57
ATOM     57  C   LIG d   1       4.743  -4.907  -5.688  0.00  0.00     0.079 C 
ATOM     58  H   LIG d   1       4.111  -4.677  -6.544  0.00  0.00     0.066 H 
ATOM     59  H   LIG d   1       5.774  -4.633  -5.914  0.00  0.00     0.066 H 
ATOM     60  H   LIG d   1       4.690  -5.973  -5.472  0.00  0.00     0.066 H 
ENDBRANCH  56  57
ENDBRANCH  45  56
ENDBRANCH  39  42
ENDBRANCH  33  36
ENDBRANCH  15  33
BRANCH  11  61
ATOM     61  C   LIG d   1      12.262   6.264  -4.333  0.00  0.00    -0.055 C 
ATOM     62  H   LIG d   1      12.929   6.835  -3.688  0.00  0.00     0.024 H 
ATOM     63  H   LIG d   1      12.571   5.218  -4.341  0.00  0.00     0.024 H 
ATOM     64  H   LIG d   1      12.306   6.664  -5.346  0.00  0.00     0.024 H 
ENDBRANCH  11  61
BRANCH   1  65
ATOM     65  C   LIG d   1       9.169  11.823  -4.775  0.00  0.00    -0.021 C 
ATOM     66  H   LIG d   1       8.308  11.832  -5.442  0.00  0.00     0.034 H 
BRANCH  65  67
ATOM     67  C   LIG d   1       8.794  12.486  -3.448  0.00  0.00    -0.059 C 
ATOM     68  H   LIG d   1       9.649  13.044  -3.067  0.00  0.00     0.024 H 
ATOM     69  H   LIG d   1       7.957  13.166  -3.606  0.00  0.00     0.024 H 
ATOM     70  H   LIG d   1       8.509  11.720  -2.727  0.00  0.00     0.024 H 
ENDBRANCH  65  67
BRANCH  65  71
ATOM     71  C   LIG d   1      10.323  12.592  -5.422  0.00  0.00    -0.059 C 
ATOM     72  H   LIG d   1      10.486  12.220  -6.434  0.00  0.00     0.024 H 
ATOM     73  H   LIG d   1      10.074  13.653  -5.461  0.00  0.00     0.024 H 
ATOM     74  H   LIG d   1      11.228  12.452  -4.833  0.00  0.00     0.024 H 
ENDBRANCH  65  71
ENDBRANCH   1  65
TORSDOF 12
ENDMDL
MODEL 6
REMARK VINA RESULT:      -6.0      5.581      9.706
REMARK  12 active torsions:
REMARK  status: ('A' for Active; 'I' for Inactive)
REMARK    1  A    between atoms: C_1  and  C_2 
REMARK    2  A    between atoms: C_2  and  C_3 
REMARK    3  A    between atoms: C_2  and  C_4 
REMARK    4  A    between atoms: C_14  and  C_35 
REMARK    5  A    between atoms: C_18  and  C_19 
REMARK    6  A    between atoms: C_18  and  C_20 
REMARK    7  A    between atoms: C_20  and  N_21 
REMARK       I    between atoms: N_21  and  C_22 
REMARK       I    between atoms: C_22  and  N_24 
REMARK    8  A    between atoms: N_24  and  C_25 
REMARK    9  A    between atoms: C_28  and  O_33 
REMARK   10  A    between atoms: C_30  and  O_31 
REMARK   11  A    between atoms: O_31  and  C_32 
REMARK   12  A    between atoms: O_33  and  C_34 
ROOT
ATOM      1  C   LIG d   1       3.990  -0.640  -3.258  0.00  0.00    -0.044 A 
ATOM      2  C   LIG d   1       4.036  -1.923  -2.745  0.00  0.00    -0.058 A 
ATOM      3  C   LIG d   1       4.388  -2.974  -3.569  0.00  0.00    -0.058 A 
ATOM      4  C   LIG d   1       4.694  -2.749  -4.900  0.00  0.00    -0.038 A 
ATOM      5  C   LIG d   1       4.646  -1.476  -5.420  0.00  0.00    -0.043 A 
ATOM      6  C   LIG d   1       4.291  -0.419  -4.585  0.00  0.00    -0.055 A 
ATOM      7  C   LIG d   1       4.959  -1.148  -6.851  0.00  0.00    -0.027 C 
ATOM      8  C   LIG d   1       5.434  -2.349  -7.662  0.00  0.00    -0.045 C 
ATOM      9  C   LIG d   1       4.703  -3.607  -7.203  0.00  0.00    -0.025 C 
ATOM     10  H   LIG d   1       3.618  -3.342  -7.185  0.00  0.00     0.032 H 
ATOM     11  C   LIG d   1       5.088  -3.925  -5.768  0.00  0.00    -0.003 C 
ATOM     12  C   LIG d   1       4.385  -5.189  -5.282  0.00  0.00    -0.043 C 
ATOM     13  C   LIG d   1       4.720  -6.354  -6.214  0.00  0.00    -0.052 C 
ATOM     14  C   LIG d   1       4.234  -6.047  -7.624  0.00  0.00    -0.046 C 
ATOM     15  C   LIG d   1       4.846  -4.759  -8.175  0.00  0.00    -0.013 C 
ATOM     16  H   LIG d   1       3.802  -2.104  -1.708  0.00  0.00     0.062 H 
ATOM     17  H   LIG d   1       4.424  -3.973  -3.160  0.00  0.00     0.062 H 
ATOM     18  H   LIG d   1       4.250   0.584  -4.984  0.00  0.00     0.062 H 
ATOM     19  H   LIG d   1       5.733  -0.375  -6.877  0.00  0.00     0.031 H 
ATOM     20  H   LIG d   1       4.060  -0.739  -7.324  0.00  0.00     0.031 H 
ATOM     21  H   LIG d   1       6.513  -2.453  -7.562  0.00  0.00     0.027 H 
ATOM     22  H   LIG d   1       5.216  -2.156  -8.720  0.00  0.00     0.027 H 
ATOM     23  H   LIG d   1       4.721  -5.429  -4.272  0.00  0.00     0.027 H 
ATOM     24  H   LIG d   1       3.306  -5.027  -5.273  0.00  0.00     0.027 H 
ATOM     25  H   LIG d   1       5.787  -6.557  -6.213  0.00  0.00     0.027 H 
ATOM     26  H   LIG d   1       4.204  -7.251  -5.851  0.00  0.00     0.027 H 
ATOM     27  H   LIG d   1       3.144  -5.949  -7.616  0.00  0.00     0.027 H 
ATOM     28  H   LIG d   1       4.497  -6.879  -8.285  0.00  0.00     0.027 H 
ENDROOT
BRANCH  15  29
ATOM     29  C   LIG d   1       6.295  -5.003  -8.595  0.00  0.00    -0.058 C 
ATOM     30  H   LIG d   1       6.575  -4.286  -9.367  0.00  0.00     0.024 H 
ATOM     31  H   LIG d   1       6.949  -4.882  -7.732  0.00  0.00     0.024 H 
ATOM     32  H   LIG d   1       6.395  -6.016  -8.987  0.00  0.00     0.024 H 
ENDBRANCH  15  29
BRANCH  15  33
ATOM     33  C   LIG d   1       4.053  -4.406  -9.457  0.00  0.00     0.019 C 
ATOM     34  H   LIG d   1       4.691  -4.549 -10.331  0.00  0.00     0.047 H 
ATOM     35  H   LIG d   1       3.731  -3.366  -9.411  0.00  0.00     0.047 H 
BRANCH  33  36
ATOM     36  N   LIG d   1       2.880  -5.277  -9.561  0.00  0.00    -0.299 N 
ATOM     37  C   LIG d   1       1.723  -4.794 -10.058  0.00  0.00     0.304 C 
ATOM     38  O   LIG d   1       1.654  -3.635 -10.419  0.00  0.00    -0.253 OA
ATOM     39  N   LIG d   1       0.644  -5.595 -10.153  0.00  0.00    -0.266 N 
ATOM     40  H   LIG d   1       0.673  -6.494  -9.788  0.00  0.00     0.157 HD
ATOM     41  H   LIG d   1       2.935  -6.201  -9.272  0.00  0.00     0.150 HD
BRANCH  39  42
ATOM     42  C   LIG d   1      -0.522  -5.130 -10.780  0.00  0.00     0.077 A 
ATOM     43  C   LIG d   1      -1.758  -5.282 -10.154  0.00  0.00     0.145 A 
ATOM     44  C   LIG d   1      -2.907  -4.826 -10.779  0.00  0.00     0.024 A 
ATOM     45  C   LIG d   1      -2.826  -4.210 -12.019  0.00  0.00     0.124 A 
ATOM     46  H   LIG d   1      -3.867  -4.947 -10.297  0.00  0.00     0.069 H 
ATOM     47  C   LIG d   1      -1.593  -4.055 -12.637  0.00  0.00    -0.018 A 
ATOM     48  C   LIG d   1      -0.446  -4.513 -12.019  0.00  0.00    -0.033 A 
ATOM     49  H   LIG d   1      -1.532  -3.575 -13.603  0.00  0.00     0.066 H 
ATOM     50  H   LIG d   1       0.513  -4.392 -12.503  0.00  0.00     0.064 H 
BRANCH  43  51
ATOM     51  O   LIG d   1      -1.836  -5.881  -8.937  0.00  0.00    -0.493 OA
BRANCH  51  52
ATOM     52  C   LIG d   1      -2.523  -7.131  -8.872  0.00  0.00     0.079 C 
ATOM     53  H   LIG d   1      -2.066  -7.834  -9.569  0.00  0.00     0.066 H 
ATOM     54  H   LIG d   1      -2.458  -7.530  -7.860  0.00  0.00     0.066 H 
ATOM     55  H   LIG d   1      -3.570  -6.985  -9.139  0.00  0.00     0.066 H 
ENDBRANCH  51  52
ENDBRANCH  43  51
BRANCH  45  56
ATOM     56  O   LIG d   1      -3.953  -3.759 -12.628  0.00  0.00    -0.495 OA
BRANCH  56  57
ATOM     57  C   LIG d   1      -4.566  -2.592 -12.077  0.00  0.00     0.079 C 
ATOM     58  H   LIG d   1      -4.558  -1.793 -12.817  0.00  0.00     0.066 H 
ATOM     59  H   LIG d   1      -5.596  -2.818 -11.799  0.00  0.00     0.066 H 
ATOM     60  H   LIG d   1      -4.014  -2.275 -11.193  0.00  0.00     0.066 H 
ENDBRANCH  56  57
ENDBRANCH  45  56
ENDBRANCH  39  42
ENDBRANCH  33  36
ENDBRANCH  15  33
BRANCH  11  61
ATOM     61  C   LIG d   1       6.596  -4.101  -5.598  0.00  0.00    -0.055 C 
ATOM     62  H   LIG d   1       7.119  -3.412  -6.261  0.00  0.00     0.024 H 
ATOM     63  H   LIG d   1       6.873  -3.891  -4.564  0.00  0.00     0.024 H 
ATOM     64  H   LIG d   1       6.874  -5.126  -5.848  0.00  0.00     0.024 H 
ENDBRANCH  11  61
BRANCH   1  65
ATOM     65  C   LIG d   1       3.612   0.515  -2.367  0.00  0.00    -0.021 C 
ATOM     66  H   LIG d   1       2.737   0.247  -1.776  0.00  0.00     0.034 H 
BRANCH  65  67
ATOM     67  C   LIG d   1       4.780   0.841  -1.433  0.00  0.00    -0.059 C 
ATOM     68  H   LIG d   1       5.400   1.616  -1.883  0.00  0.00     0.024 H 
ATOM     69  H   LIG d   1       4.392   1.194  -0.477  0.00  0.00     0.024 H 
ATOM     70  H   LIG d   1       5.379  -0.057  -1.273  0.00  0.00     0.024 H 
ENDBRANCH  65  67
BRANCH  65  71
ATOM     71  C   LIG d   1       3.291   1.739  -3.227  0.00  0.00    -0.059 C 
ATOM     72  H   LIG d   1       3.742   1.620  -4.213  0.00  0.00     0.024 H 
ATOM     73  H   LIG d   1       2.210   1.835  -3.333  0.00  0.00     0.024 H 
ATOM     74  H   LIG d   1       3.691   2.633  -2.750  0.00  0.00     0.024 H 
ENDBRANCH  65  71
ENDBRANCH   1  65
TORSDOF 12
ENDMDL
MODEL 7
REMARK VINA RESULT:      -5.9      3.242      7.396
REMARK  12 active torsions:
REMARK  status: ('A' for Active; 'I' for Inactive)
REMARK    1  A    between atoms: C_1  and  C_2 
REMARK    2  A    between atoms: C_2  and  C_3 
REMARK    3  A    between atoms: C_2  and  C_4 
REMARK    4  A    between atoms: C_14  and  C_35 
REMARK    5  A    between atoms: C_18  and  C_19 
REMARK    6  A    between atoms: C_18  and  C_20 
REMARK    7  A    between atoms: C_20  and  N_21 
REMARK       I    between atoms: N_21  and  C_22 
REMARK       I    between atoms: C_22  and  N_24 
REMARK    8  A    between atoms: N_24  and  C_25 
REMARK    9  A    between atoms: C_28  and  O_33 
REMARK   10  A    between atoms: C_30  and  O_31 
REMARK   11  A    between atoms: O_31  and  C_32 
REMARK   12  A    between atoms: O_33  and  C_34 
ROOT
ATOM      1  C   LIG d   1       8.296  -4.309  -6.850  0.00  0.00    -0.044 A 
ATOM      2  C   LIG d   1       9.020  -3.204  -6.441  0.00  0.00    -0.058 A 
ATOM      3  C   LIG d   1       8.462  -2.319  -5.539  0.00  0.00    -0.058 A 
ATOM      4  C   LIG d   1       7.186  -2.533  -5.046  0.00  0.00    -0.038 A 
ATOM      5  C   LIG d   1       6.458  -3.629  -5.450  0.00  0.00    -0.043 A 
ATOM      6  C   LIG d   1       7.025  -4.519  -6.359  0.00  0.00    -0.055 A 
ATOM      7  C   LIG d   1       5.069  -3.931  -4.965  0.00  0.00    -0.027 C 
ATOM      8  C   LIG d   1       4.571  -2.960  -3.899  0.00  0.00    -0.045 C 
ATOM      9  C   LIG d   1       5.101  -1.559  -4.186  0.00  0.00    -0.025 C 
ATOM     10  H   LIG d   1       4.882  -1.362  -5.263  0.00  0.00     0.032 H 
ATOM     11  C   LIG d   1       6.614  -1.548  -4.050  0.00  0.00    -0.003 C 
ATOM     12  C   LIG d   1       7.176  -0.155  -4.314  0.00  0.00    -0.043 C 
ATOM     13  C   LIG d   1       6.529   0.850  -3.360  0.00  0.00    -0.052 C 
ATOM     14  C   LIG d   1       5.024   0.889  -3.589  0.00  0.00    -0.046 C 
ATOM     15  C   LIG d   1       4.379  -0.484  -3.399  0.00  0.00    -0.013 C 
ATOM     16  H   LIG d   1      10.015  -3.034  -6.821  0.00  0.00     0.062 H 
ATOM     17  H   LIG d   1       9.034  -1.459  -5.225  0.00  0.00     0.062 H 
ATOM     18  H   LIG d   1       6.461  -5.381  -6.682  0.00  0.00     0.062 H 
ATOM     19  H   LIG d   1       5.050  -4.946  -4.556  0.00  0.00     0.031 H 
ATOM     20  H   LIG d   1       4.383  -3.899  -5.817  0.00  0.00     0.031 H 
ATOM     21  H   LIG d   1       4.876  -3.312  -2.915  0.00  0.00     0.027 H 
ATOM     22  H   LIG d   1       3.474  -2.956  -3.925  0.00  0.00     0.027 H 
ATOM     23  H   LIG d   1       8.255  -0.159  -4.153  0.00  0.00     0.027 H 
ATOM     24  H   LIG d   1       6.968   0.134  -5.345  0.00  0.00     0.027 H 
ATOM     25  H   LIG d   1       6.753   0.603  -2.326  0.00  0.00     0.027 H 
ATOM     26  H   LIG d   1       6.943   1.845  -3.568  0.00  0.00     0.027 H 
ATOM     27  H   LIG d   1       4.823   1.240  -4.606  0.00  0.00     0.027 H 
ATOM     28  H   LIG d   1       4.571   1.596  -2.887  0.00  0.00     0.027 H 
ENDROOT
BRANCH  15  29
ATOM     29  C   LIG d   1       4.268  -0.813  -1.911  0.00  0.00    -0.058 C 
ATOM     30  H   LIG d   1       4.186   0.112  -1.340  0.00  0.00     0.024 H 
ATOM     31  H   LIG d   1       3.383  -1.425  -1.739  0.00  0.00     0.024 H 
ATOM     32  H   LIG d   1       5.156  -1.359  -1.592  0.00  0.00     0.024 H 
ENDBRANCH  15  29
BRANCH  15  33
ATOM     33  C   LIG d   1       2.936  -0.374  -3.951  0.00  0.00     0.019 C 
ATOM     34  H   LIG d   1       2.258  -0.101  -3.142  0.00  0.00     0.047 H 
ATOM     35  H   LIG d   1       2.632  -1.334  -4.369  0.00  0.00     0.047 H 
BRANCH  33  36
ATOM     36  N   LIG d   1       2.889   0.651  -4.995  0.00  0.00    -0.299 N 
ATOM     37  C   LIG d   1       3.150   0.322  -6.276  0.00  0.00     0.304 C 
ATOM     38  O   LIG d   1       3.425  -0.827  -6.565  0.00  0.00    -0.253 OA
ATOM     39  N   LIG d   1       3.107   1.265  -7.237  0.00  0.00    -0.266 N 
ATOM     40  H   LIG d   1       2.971   2.196  -6.997  0.00  0.00     0.157 HD
ATOM     41  H   LIG d   1       2.670   1.568  -4.766  0.00  0.00     0.150 HD
BRANCH  39  42
ATOM     42  C   LIG d   1       3.259   0.903  -8.584  0.00  0.00     0.077 A 
ATOM     43  C   LIG d   1       4.382   1.318  -9.296  0.00  0.00     0.145 A 
ATOM     44  C   LIG d   1       4.526   0.963 -10.627  0.00  0.00     0.024 A 
ATOM     45  C   LIG d   1       3.558   0.185 -11.245  0.00  0.00     0.124 A 
ATOM     46  H   LIG d   1       5.394   1.288 -11.182  0.00  0.00     0.069 H 
ATOM     47  C   LIG d   1       2.443  -0.232 -10.533  0.00  0.00    -0.018 A 
ATOM     48  C   LIG d   1       2.294   0.126  -9.207  0.00  0.00    -0.033 A 
ATOM     49  H   LIG d   1       1.690  -0.837 -11.017  0.00  0.00     0.066 H 
ATOM     50  H   LIG d   1       1.425  -0.200  -8.655  0.00  0.00     0.064 H 
BRANCH  43  51
ATOM     51  O   LIG d   1       5.333   2.075  -8.687  0.00  0.00    -0.493 OA
BRANCH  51  52
ATOM     52  C   LIG d   1       6.693   1.686  -8.878  0.00  0.00     0.079 C 
ATOM     53  H   LIG d   1       7.209   2.444  -9.470  0.00  0.00     0.066 H 
ATOM     54  H   LIG d   1       7.183   1.587  -7.910  0.00  0.00     0.066 H 
ATOM     55  H   LIG d   1       6.728   0.731  -9.403  0.00  0.00     0.066 H 
ENDBRANCH  51  52
ENDBRANCH  43  51
BRANCH  45  56
ATOM     56  O   LIG d   1       3.702  -0.167 -12.550  0.00  0.00    -0.495 OA
BRANCH  56  57
ATOM     57  C   LIG d   1       3.114  -1.405 -12.957  0.00  0.00     0.079 C 
ATOM     58  H   LIG d   1       3.665  -2.233 -12.511  0.00  0.00     0.066 H 
ATOM     59  H   LIG d   1       2.076  -1.440 -12.626  0.00  0.00     0.066 H 
ATOM     60  H   LIG d   1       3.152  -1.485 -14.042  0.00  0.00     0.066 H 
ENDBRANCH  56  57
ENDBRANCH  45  56
ENDBRANCH  39  42
ENDBRANCH  33  36
ENDBRANCH  15  33
BRANCH  11  61
ATOM     61  C   LIG d   1       7.074  -2.013  -2.668  0.00  0.00    -0.055 C 
ATOM     62  H   LIG d   1       7.335  -1.146  -2.061  0.00  0.00     0.024 H 
ATOM     63  H   LIG d   1       6.269  -2.565  -2.184  0.00  0.00     0.024 H 
ATOM     64  H   LIG d   1       7.946  -2.659  -2.773  0.00  0.00     0.024 H 
ENDBRANCH  11  61
BRANCH   1  65
ATOM     65  C   LIG d   1       8.897  -5.284  -7.828  0.00  0.00    -0.021 C 
ATOM     66  H   LIG d   1       9.191  -4.755  -8.734  0.00  0.00     0.034 H 
BRANCH  65  67
ATOM     67  C   LIG d   1      10.127  -5.944  -7.201  0.00  0.00    -0.059 C 
ATOM     68  H   LIG d   1      11.028  -5.438  -7.549  0.00  0.00     0.024 H 
ATOM     69  H   LIG d   1      10.065  -5.869  -6.115  0.00  0.00     0.024 H 
ATOM     70  H   LIG d   1      10.165  -6.994  -7.491  0.00  0.00     0.024 H 
ENDBRANCH  65  67
BRANCH  65  71
ATOM     71  C   LIG d   1       7.865  -6.359  -8.178  0.00  0.00    -0.059 C 
ATOM     72  H   LIG d   1       8.027  -6.699  -9.201  0.00  0.00     0.024 H 
ATOM     73  H   LIG d   1       7.973  -7.201  -7.494  0.00  0.00     0.024 H 
ATOM     74  H   LIG d   1       6.863  -5.942  -8.087  0.00  0.00     0.024 H 
ENDBRANCH  65  71
ENDBRANCH   1  65
TORSDOF 12
ENDMDL
MODEL 8
REMARK VINA RESULT:      -5.9      2.664      5.750
REMARK  12 active torsions:
REMARK  status: ('A' for Active; 'I' for Inactive)
REMARK    1  A    between atoms: C_1  and  C_2 
REMARK    2  A    between atoms: C_2  and  C_3 
REMARK    3  A    between atoms: C_2  and  C_4 
REMARK    4  A    between atoms: C_14  and  C_35 
REMARK    5  A    between atoms: C_18  and  C_19 
REMARK    6  A    between atoms: C_18  and  C_20 
REMARK    7  A    between atoms: C_20  and  N_21 
REMARK       I    between atoms: N_21  and  C_22 
REMARK       I    between atoms: C_22  and  N_24 
REMARK    8  A    between atoms: N_24  and  C_25 
REMARK    9  A    between atoms: C_28  and  O_33 
REMARK   10  A    between atoms: C_30  and  O_31 
REMARK   11  A    between atoms: O_31  and  C_32 
REMARK   12  A    between atoms: O_33  and  C_34 
ROOT
ATOM      1  C   LIG d   1       3.956  -1.203  -9.842  0.00  0.00    -0.044 A 
ATOM      2  C   LIG d   1       4.798  -2.292  -9.710  0.00  0.00    -0.058 A 
ATOM      3  C   LIG d   1       5.223  -2.677  -8.454  0.00  0.00    -0.058 A 
ATOM      4  C   LIG d   1       4.810  -1.981  -7.331  0.00  0.00    -0.038 A 
ATOM      5  C   LIG d   1       3.974  -0.894  -7.454  0.00  0.00    -0.043 A 
ATOM      6  C   LIG d   1       3.548  -0.510  -8.723  0.00  0.00    -0.055 A 
ATOM      7  C   LIG d   1       3.484  -0.085  -6.288  0.00  0.00    -0.027 C 
ATOM      8  C   LIG d   1       3.918  -0.639  -4.935  0.00  0.00    -0.045 C 
ATOM      9  C   LIG d   1       5.318  -1.237  -5.045  0.00  0.00    -0.025 C 
ATOM     10  H   LIG d   1       5.942  -0.465  -5.556  0.00  0.00     0.032 H 
ATOM     11  C   LIG d   1       5.286  -2.441  -5.970  0.00  0.00    -0.003 C 
ATOM     12  C   LIG d   1       6.669  -3.075  -6.089  0.00  0.00    -0.043 C 
ATOM     13  C   LIG d   1       7.179  -3.459  -4.701  0.00  0.00    -0.052 C 
ATOM     14  C   LIG d   1       7.295  -2.217  -3.827  0.00  0.00    -0.046 C 
ATOM     15  C   LIG d   1       5.960  -1.482  -3.696  0.00  0.00    -0.013 C 
ATOM     16  H   LIG d   1       5.121  -2.840 -10.582  0.00  0.00     0.062 H 
ATOM     17  H   LIG d   1       5.880  -3.529  -8.360  0.00  0.00     0.062 H 
ATOM     18  H   LIG d   1       2.893   0.342  -8.829  0.00  0.00     0.062 H 
ATOM     19  H   LIG d   1       2.391  -0.045  -6.319  0.00  0.00     0.031 H 
ATOM     20  H   LIG d   1       3.860   0.938  -6.386  0.00  0.00     0.031 H 
ATOM     21  H   LIG d   1       3.193  -1.374  -4.592  0.00  0.00     0.027 H 
ATOM     22  H   LIG d   1       3.922   0.186  -4.212  0.00  0.00     0.027 H 
ATOM     23  H   LIG d   1       6.608  -3.970  -6.711  0.00  0.00     0.027 H 
ATOM     24  H   LIG d   1       7.358  -2.364  -6.548  0.00  0.00     0.027 H 
ATOM     25  H   LIG d   1       6.527  -4.194  -4.237  0.00  0.00     0.027 H 
ATOM     26  H   LIG d   1       8.175  -3.909  -4.807  0.00  0.00     0.027 H 
ATOM     27  H   LIG d   1       8.035  -1.538  -4.262  0.00  0.00     0.027 H 
ATOM     28  H   LIG d   1       7.642  -2.508  -2.831  0.00  0.00     0.027 H 
ENDROOT
BRANCH  15  29
ATOM     29  C   LIG d   1       5.042  -2.227  -2.728  0.00  0.00    -0.058 C 
ATOM     30  H   LIG d   1       4.107  -2.474  -3.232  0.00  0.00     0.024 H 
ATOM     31  H   LIG d   1       5.530  -3.145  -2.398  0.00  0.00     0.024 H 
ATOM     32  H   LIG d   1       4.834  -1.596  -1.864  0.00  0.00     0.024 H 
ENDBRANCH  15  29
BRANCH  15  33
ATOM     33  C   LIG d   1       6.276  -0.107  -3.057  0.00  0.00     0.019 C 
ATOM     34  H   LIG d   1       6.166  -0.175  -1.974  0.00  0.00     0.047 H 
ATOM     35  H   LIG d   1       5.583   0.641  -3.445  0.00  0.00     0.047 H 
BRANCH  33  36
ATOM     36  N   LIG d   1       7.649   0.282  -3.386  0.00  0.00    -0.299 N 
ATOM     37  C   LIG d   1       7.886   1.441  -4.032  0.00  0.00     0.304 C 
ATOM     38  O   LIG d   1       6.959   2.165  -4.342  0.00  0.00    -0.253 OA
ATOM     39  N   LIG d   1       9.149   1.798  -4.334  0.00  0.00    -0.266 N 
ATOM     40  H   LIG d   1       9.881   1.184  -4.163  0.00  0.00     0.157 HD
ATOM     41  H   LIG d   1       8.389  -0.296  -3.140  0.00  0.00     0.150 HD
BRANCH  39  42
ATOM     42  C   LIG d   1       9.407   3.058  -4.896  0.00  0.00     0.077 A 
ATOM     43  C   LIG d   1       9.603   4.163  -4.071  0.00  0.00     0.145 A 
ATOM     44  C   LIG d   1       9.852   5.405  -4.630  0.00  0.00     0.024 A 
ATOM     45  C   LIG d   1       9.919   5.545  -6.009  0.00  0.00     0.124 A 
ATOM     46  H   LIG d   1       9.999   6.265  -3.992  0.00  0.00     0.069 H 
ATOM     47  C   LIG d   1       9.730   4.442  -6.828  0.00  0.00    -0.018 A 
ATOM     48  C   LIG d   1       9.475   3.202  -6.274  0.00  0.00    -0.033 A 
ATOM     49  H   LIG d   1       9.782   4.553  -7.901  0.00  0.00     0.066 H 
ATOM     50  H   LIG d   1       9.328   2.345  -6.914  0.00  0.00     0.064 H 
BRANCH  43  51
ATOM     51  O   LIG d   1       9.543   4.024  -2.720  0.00  0.00    -0.493 OA
BRANCH  51  52
ATOM     52  C   LIG d   1      10.350   4.907  -1.940  0.00  0.00     0.079 C 
ATOM     53  H   LIG d   1      10.391   4.549  -0.911  0.00  0.00     0.066 H 
ATOM     54  H   LIG d   1      11.358   4.938  -2.354  0.00  0.00     0.066 H 
ATOM     55  H   LIG d   1       9.917   5.907  -1.960  0.00  0.00     0.066 H 
ENDBRANCH  51  52
ENDBRANCH  43  51
BRANCH  45  56
ATOM     56  O   LIG d   1      10.169   6.764  -6.556  0.00  0.00    -0.495 OA
BRANCH  56  57
ATOM     57  C   LIG d   1       9.637   7.903  -5.874  0.00  0.00     0.079 C 
ATOM     58  H   LIG d   1      10.454   8.527  -5.517  0.00  0.00     0.066 H 
ATOM     59  H   LIG d   1       9.014   8.478  -6.560  0.00  0.00     0.066 H 
ATOM     60  H   LIG d   1       9.035   7.571  -5.029  0.00  0.00     0.066 H 
ENDBRANCH  56  57
ENDBRANCH  45  56
ENDBRANCH  39  42
ENDBRANCH  33  36
ENDBRANCH  15  33
BRANCH  11  61
ATOM     61  C   LIG d   1       4.294  -3.505  -5.502  0.00  0.00    -0.055 C 
ATOM     62  H   LIG d   1       4.540  -3.809  -4.484  0.00  0.00     0.024 H 
ATOM     63  H   LIG d   1       3.284  -3.095  -5.524  0.00  0.00     0.024 H 
ATOM     64  H   LIG d   1       4.349  -4.371  -6.162  0.00  0.00     0.024 H 
ENDBRANCH  11  61
BRANCH   1  65
ATOM     65  C   LIG d   1       3.482  -0.778 -11.208  0.00  0.00    -0.021 C 
ATOM     66  H   LIG d   1       3.915  -1.433 -11.963  0.00  0.00     0.034 H 
BRANCH  65  67
ATOM     67  C   LIG d   1       1.955  -0.868 -11.268  0.00  0.00    -0.059 C 
ATOM     68  H   LIG d   1       1.654  -1.277 -12.233  0.00  0.00     0.024 H 
ATOM     69  H   LIG d   1       1.598  -1.520 -10.470  0.00  0.00     0.024 H 
ATOM     70  H   LIG d   1       1.527   0.127 -11.145  0.00  0.00     0.024 H 
ENDBRANCH  65  67
BRANCH  65  71
ATOM     71  C   LIG d   1       3.918   0.665 -11.473  0.00  0.00    -0.059 C 
ATOM     72  H   LIG d   1       5.007   0.714 -11.510  0.00  0.00     0.024 H 
ATOM     73  H   LIG d   1       3.507   0.998 -12.426  0.00  0.00     0.024 H 
ATOM     74  H   LIG d   1       3.552   1.307 -10.673  0.00  0.00     0.024 H 
ENDBRANCH  65  71
ENDBRANCH   1  65
TORSDOF 12
ENDMDL
MODEL 9
REMARK VINA RESULT:      -5.9      4.914      9.344
REMARK  12 active torsions:
REMARK  status: ('A' for Active; 'I' for Inactive)
REMARK    1  A    between atoms: C_1  and  C_2 
REMARK    2  A    between atoms: C_2  and  C_3 
REMARK    3  A    between atoms: C_2  and  C_4 
REMARK    4  A    between atoms: C_14  and  C_35 
REMARK    5  A    between atoms: C_18  and  C_19 
REMARK    6  A    between atoms: C_18  and  C_20 
REMARK    7  A    between atoms: C_20  and  N_21 
REMARK       I    between atoms: N_21  and  C_22 
REMARK       I    between atoms: C_22  and  N_24 
REMARK    8  A    between atoms: N_24  and  C_25 
REMARK    9  A    between atoms: C_28  and  O_33 
REMARK   10  A    between atoms: C_30  and  O_31 
REMARK   11  A    between atoms: O_31  and  C_32 
REMARK   12  A    between atoms: O_33  and  C_34 
ROOT
ATOM      1  C   LIG d   1      10.961   8.373  -0.744  0.00  0.00    -0.044 A 
ATOM      2  C   LIG d   1      12.033   7.509  -0.618  0.00  0.00    -0.058 A 
ATOM      3  C   LIG d   1      12.151   6.438  -1.482  0.00  0.00    -0.058 A 
ATOM      4  C   LIG d   1      11.205   6.228  -2.470  0.00  0.00    -0.038 A 
ATOM      5  C   LIG d   1      10.132   7.081  -2.601  0.00  0.00    -0.043 A 
ATOM      6  C   LIG d   1      10.018   8.160  -1.727  0.00  0.00    -0.055 A 
ATOM      7  C   LIG d   1       9.063   6.921  -3.642  0.00  0.00    -0.027 C 
ATOM      8  C   LIG d   1       9.324   5.776  -4.615  0.00  0.00    -0.045 C 
ATOM      9  C   LIG d   1       9.999   4.619  -3.883  0.00  0.00    -0.025 C 
ATOM     10  H   LIG d   1       9.391   4.441  -2.964  0.00  0.00     0.032 H 
ATOM     11  C   LIG d   1      11.375   5.051  -3.406  0.00  0.00    -0.003 C 
ATOM     12  C   LIG d   1      12.086   3.911  -2.684  0.00  0.00    -0.043 C 
ATOM     13  C   LIG d   1      12.178   2.696  -3.608  0.00  0.00    -0.052 C 
ATOM     14  C   LIG d   1      10.780   2.225  -3.989  0.00  0.00    -0.046 C 
ATOM     15  C   LIG d   1       9.971   3.328  -4.673  0.00  0.00    -0.013 C 
ATOM     16  H   LIG d   1      12.774   7.670   0.149  0.00  0.00     0.062 H 
ATOM     17  H   LIG d   1      12.992   5.769  -1.377  0.00  0.00     0.062 H 
ATOM     18  H   LIG d   1       9.180   8.834  -1.821  0.00  0.00     0.062 H 
ATOM     19  H   LIG d   1       8.978   7.854  -4.209  0.00  0.00     0.031 H 
ATOM     20  H   LIG d   1       8.106   6.745  -3.140  0.00  0.00     0.031 H 
ATOM     21  H   LIG d   1       9.930   6.134  -5.445  0.00  0.00     0.027 H 
ATOM     22  H   LIG d   1       8.361   5.447  -5.023  0.00  0.00     0.027 H 
ATOM     23  H   LIG d   1      13.092   4.226  -2.403  0.00  0.00     0.027 H 
ATOM     24  H   LIG d   1      11.528   3.644  -1.785  0.00  0.00     0.027 H 
ATOM     25  H   LIG d   1      12.759   2.927  -4.496  0.00  0.00     0.027 H 
ATOM     26  H   LIG d   1      12.688   1.886  -3.071  0.00  0.00     0.027 H 
ATOM     27  H   LIG d   1      10.251   1.901  -3.088  0.00  0.00     0.027 H 
ATOM     28  H   LIG d   1      10.861   1.369  -4.666  0.00  0.00     0.027 H 
ENDROOT
BRANCH  15  29
ATOM     29  C   LIG d   1      10.438   3.505  -6.117  0.00  0.00    -0.058 C 
ATOM     30  H   LIG d   1      10.004   2.722  -6.739  0.00  0.00     0.024 H 
ATOM     31  H   LIG d   1      10.119   4.480  -6.485  0.00  0.00     0.024 H 
ATOM     32  H   LIG d   1      11.526   3.441  -6.157  0.00  0.00     0.024 H 
ENDBRANCH  15  29
BRANCH  15  33
ATOM     33  C   LIG d   1       8.505   2.830  -4.727  0.00  0.00     0.019 C 
ATOM     34  H   LIG d   1       8.256   2.541  -5.748  0.00  0.00     0.047 H 
ATOM     35  H   LIG d   1       7.838   3.629  -4.404  0.00  0.00     0.047 H 
BRANCH  33  36
ATOM     36  N   LIG d   1       8.349   1.675  -3.840  0.00  0.00    -0.299 N 
ATOM     37  C   LIG d   1       7.497   0.683  -4.169  0.00  0.00     0.304 C 
ATOM     38  O   LIG d   1       6.858   0.747  -5.201  0.00  0.00    -0.253 OA
ATOM     39  N   LIG d   1       7.353  -0.380  -3.353  0.00  0.00    -0.266 N 
ATOM     40  H   LIG d   1       7.798  -0.393  -2.490  0.00  0.00     0.157 HD
ATOM     41  H   LIG d   1       8.858   1.623  -3.016  0.00  0.00     0.150 HD
BRANCH  39  42
ATOM     42  C   LIG d   1       6.561  -1.468  -3.750  0.00  0.00     0.077 A 
ATOM     43  C   LIG d   1       5.248  -1.577  -3.296  0.00  0.00     0.145 A 
ATOM     44  C   LIG d   1       4.471  -2.655  -3.686  0.00  0.00     0.024 A 
ATOM     45  C   LIG d   1       4.996  -3.617  -4.536  0.00  0.00     0.124 A 
ATOM     46  H   LIG d   1       3.454  -2.744  -3.332  0.00  0.00     0.069 H 
ATOM     47  C   LIG d   1       6.302  -3.503  -4.992  0.00  0.00    -0.018 A 
ATOM     48  C   LIG d   1       7.081  -2.432  -4.600  0.00  0.00    -0.033 A 
ATOM     49  H   LIG d   1       6.708  -4.254  -5.654  0.00  0.00     0.066 H 
ATOM     50  H   LIG d   1       8.097  -2.346  -4.955  0.00  0.00     0.064 H 
BRANCH  43  51
ATOM     51  O   LIG d   1       4.733  -0.630  -2.468  0.00  0.00    -0.493 OA
BRANCH  51  52
ATOM     52  C   LIG d   1       3.383  -0.228  -2.703  0.00  0.00     0.079 C 
ATOM     53  H   LIG d   1       3.374   0.740  -3.206  0.00  0.00     0.066 H 
ATOM     54  H   LIG d   1       2.887  -0.967  -3.331  0.00  0.00     0.066 H 
ATOM     55  H   LIG d   1       2.857  -0.147  -1.751  0.00  0.00     0.066 H 
ENDBRANCH  51  52
ENDBRANCH  43  51
BRANCH  45  56
ATOM     56  O   LIG d   1       4.231  -4.672  -4.922  0.00  0.00    -0.495 OA
BRANCH  56  57
ATOM     57  C   LIG d   1       4.154  -4.938  -6.325  0.00  0.00     0.079 C 
ATOM     58  H   LIG d   1       4.939  -5.639  -6.606  0.00  0.00     0.066 H 
ATOM     59  H   LIG d   1       3.181  -5.371  -6.559  0.00  0.00     0.066 H 
ATOM     60  H   LIG d   1       4.280  -4.009  -6.878  0.00  0.00     0.066 H 
ENDBRANCH  56  57
ENDBRANCH  45  56
ENDBRANCH  39  42
ENDBRANCH  33  36
ENDBRANCH  15  33
BRANCH  11  61
ATOM     61  C   LIG d   1      12.260   5.537  -4.554  0.00  0.00    -0.055 C 
ATOM     62  H   LIG d   1      13.289   5.626  -4.207  0.00  0.00     0.024 H 
ATOM     63  H   LIG d   1      12.216   4.820  -5.375  0.00  0.00     0.024 H 
ATOM     64  H   LIG d   1      11.908   6.508  -4.901  0.00  0.00     0.024 H 
ENDBRANCH  11  61
BRANCH   1  65
ATOM     65  C   LIG d   1      10.825   9.548   0.189  0.00  0.00    -0.021 C 
ATOM     66  H   LIG d   1      10.822   9.194   1.220  0.00  0.00     0.034 H 
BRANCH  65  67
ATOM     67  C   LIG d   1      12.002  10.503  -0.018  0.00  0.00    -0.059 C 
ATOM     68  H   LIG d   1      11.752  11.483   0.389  0.00  0.00     0.024 H 
ATOM     69  H   LIG d   1      12.882  10.111   0.492  0.00  0.00     0.024 H 
ATOM     70  H   LIG d   1      12.211  10.596  -1.085  0.00  0.00     0.024 H 
ENDBRANCH  65  67
BRANCH  65  71
ATOM     71  C   LIG d   1       9.514  10.283  -0.102  0.00  0.00    -0.059 C 
ATOM     72  H   LIG d   1       8.700   9.800   0.438  0.00  0.00     0.024 H 
ATOM     73  H   LIG d   1       9.600  11.320   0.223  0.00  0.00     0.024 H 
ATOM     74  H   LIG d   1       9.311  10.251  -1.171  0.00  0.00     0.024 H 
ENDBRANCH  65  71
ENDBRANCH   1  65
TORSDOF 12
ENDMDL
