MODEL 1
REMARK VINA RESULT:      -6.9      0.000      0.000
REMARK  10 active torsions:
REMARK  status: ('A' for Active; 'I' for Inactive)
REMARK    1  A    between atoms: C_1  and  C_2 
REMARK    2  A    between atoms: C_5  and  O_37 
REMARK    3  A    between atoms: C_7  and  C_34 
REMARK    4  A    between atoms: C_7  and  C_35 
REMARK    5  A    between atoms: C_14  and  C_16 
REMARK    6  A    between atoms: C_21  and  C_23 
REMARK    7  A    between atoms: C_23  and  C_24 
REMARK       I    between atoms: C_24  and  N_26 
REMARK    8  A    between atoms: N_26  and  C_27 
REMARK    9  A    between atoms: C_27  and  C_28 
REMARK   10  A    between atoms: C_35  and  O_36 
ROOT
ATOM      1  C   LIG d   1       2.644  -1.833 -10.060  0.00  0.00    -0.019 C 
ATOM      2  C   LIG d   1       1.485  -0.903 -10.433  0.00  0.00    -0.044 C 
ATOM      3  C   LIG d   1       1.008  -1.192 -11.854  0.00  0.00    -0.026 C 
ATOM      4  C   LIG d   1       0.517  -2.641 -11.924  0.00  0.00     0.063 C 
ATOM      5  H   LIG d   1      -0.283  -2.791 -11.199  0.00  0.00     0.060 H 
ATOM      6  C   LIG d   1       1.685  -3.570 -11.598  0.00  0.00     0.021 C 
ATOM      7  C   LIG d   1       2.208  -3.295 -10.186  0.00  0.00    -0.021 C 
ATOM      8  H   LIG d   1       1.438  -3.528  -9.451  0.00  0.00     0.032 H 
ATOM      9  C   LIG d   1       3.435  -4.202  -9.970  0.00  0.00    -0.016 C 
ATOM     10  C   LIG d   1       4.183  -3.730  -8.774  0.00  0.00     0.014 A 
ATOM     11  C   LIG d   1       4.054  -2.543  -8.122  0.00  0.00     0.056 A 
ATOM     12  N   LIG d   1       4.841  -2.339  -7.070  0.00  0.00    -0.243 NA
ATOM     13  C   LIG d   1       5.716  -3.240  -6.655  0.00  0.00     0.109 A 
ATOM     14  S   LIG d   1       5.459  -4.548  -7.848  0.00  0.00    -0.072 SA
ATOM     15  C   LIG d   1       3.035  -1.521  -8.609  0.00  0.00     0.016 C 
ATOM     16  H   LIG d   1       2.148  -1.563  -7.977  0.00  0.00     0.037 H 
ATOM     17  H   LIG d   1       1.819   0.133 -10.368  0.00  0.00     0.027 H 
ATOM     18  H   LIG d   1       0.661  -1.060  -9.737  0.00  0.00     0.027 H 
ATOM     19  H   LIG d   1       1.834  -1.052 -12.552  0.00  0.00     0.029 H 
ATOM     20  H   LIG d   1       0.192  -0.517 -12.111  0.00  0.00     0.029 H 
ATOM     21  H   LIG d   1       4.081  -4.155 -10.846  0.00  0.00     0.032 H 
ATOM     22  H   LIG d   1       3.107  -5.229  -9.812  0.00  0.00     0.032 H 
ENDROOT
BRANCH  15  23
ATOM     23  C   LIG d   1       3.645  -0.119  -8.537  0.00  0.00     0.033 C 
ATOM     24  H   LIG d   1       4.729  -0.198  -8.464  0.00  0.00     0.036 H 
ATOM     25  H   LIG d   1       3.381   0.439  -9.436  0.00  0.00     0.036 H 
BRANCH  23  26
ATOM     26  C   LIG d   1       3.110   0.599  -7.325  0.00  0.00     0.214 C 
ATOM     27  O   LIG d   1       2.829   1.778  -7.394  0.00  0.00    -0.276 OA
ATOM     28  N   LIG d   1       2.944  -0.067  -6.166  0.00  0.00    -0.311 N 
ATOM     29  H   LIG d   1       3.170  -1.008  -6.111  0.00  0.00     0.149 HD
BRANCH  28  30
ATOM     30  C   LIG d   1       2.424   0.632  -4.988  0.00  0.00     0.038 C 
ATOM     31  H   LIG d   1       2.566   1.705  -5.109  0.00  0.00     0.051 H 
ATOM     32  H   LIG d   1       1.361   0.416  -4.877  0.00  0.00     0.051 H 
BRANCH  30  33
ATOM     33  C   LIG d   1       3.162   0.163  -3.760  0.00  0.00    -0.012 A 
ATOM     34  C   LIG d   1       3.134  -1.169  -3.393  0.00  0.00     0.032 A 
ATOM     35  N   LIG d   1       3.778  -1.586  -2.320  0.00  0.00    -0.263 NA
ATOM     36  H   LIG d   1       2.579  -1.876  -3.992  0.00  0.00     0.083 H 
ATOM     37  C   LIG d   1       4.468  -0.760  -1.560  0.00  0.00     0.028 A 
ATOM     38  C   LIG d   1       4.542   0.586  -1.865  0.00  0.00    -0.043 A 
ATOM     39  H   LIG d   1       4.983  -1.139  -0.689  0.00  0.00     0.083 H 
ATOM     40  C   LIG d   1       3.882   1.061  -2.988  0.00  0.00    -0.054 A 
ATOM     41  H   LIG d   1       5.109   1.258  -1.238  0.00  0.00     0.063 H 
ATOM     42  H   LIG d   1       3.925   2.108  -3.252  0.00  0.00     0.062 H 
ENDBRANCH  30  33
ENDBRANCH  28  30
ENDBRANCH  23  26
ENDBRANCH  15  23
BRANCH   1  43
ATOM     43  C   LIG d   1       3.833  -1.571 -10.987  0.00  0.00    -0.059 C 
ATOM     44  H   LIG d   1       3.768  -0.556 -11.380  0.00  0.00     0.024 H 
ATOM     45  H   LIG d   1       4.762  -1.685 -10.428  0.00  0.00     0.024 H 
ATOM     46  H   LIG d   1       3.813  -2.283 -11.812  0.00  0.00     0.024 H 
ENDBRANCH   1  43
BRANCH   6  47
ATOM     47  C   LIG d   1       1.215  -5.024 -11.690  0.00  0.00    -0.055 C 
ATOM     48  H   LIG d   1       2.059  -5.690 -11.507  0.00  0.00     0.024 H 
ATOM     49  H   LIG d   1       0.443  -5.204 -10.943  0.00  0.00     0.024 H 
ATOM     50  H   LIG d   1       0.811  -5.214 -12.684  0.00  0.00     0.024 H 
ENDBRANCH   6  47
BRANCH   6  51
ATOM     51  C   LIG d   1       2.811  -3.343 -12.609  0.00  0.00     0.052 C 
ATOM     52  H   LIG d   1       2.782  -2.311 -12.958  0.00  0.00     0.056 H 
ATOM     53  H   LIG d   1       3.771  -3.539 -12.133  0.00  0.00     0.056 H 
BRANCH  51  54
ATOM     54  O   LIG d   1       2.640  -4.227 -13.719  0.00  0.00    -0.394 OA
ATOM     55  H   LIG d   1       2.759  -5.160 -13.500  0.00  0.00     0.209 HD
ENDBRANCH  51  54
ENDBRANCH   6  51
BRANCH  13  56
ATOM     56  C   LIG d   1       6.657  -3.179  -5.517  0.00  0.00     0.014 A 
ATOM     57  C   LIG d   1       7.688  -4.075  -5.410  0.00  0.00    -0.015 A 
ATOM     58  S   LIG d   1       8.476  -3.551  -3.897  0.00  0.00    -0.104 SA
ATOM     59  H   LIG d   1       7.954  -4.887  -6.070  0.00  0.00     0.070 H 
ATOM     60  C   LIG d   1       7.398  -2.185  -3.502  0.00  0.00    -0.024 A 
ATOM     61  C   LIG d   1       6.517  -2.208  -4.527  0.00  0.00    -0.045 A 
ATOM     62  H   LIG d   1       7.439  -1.511  -2.659  0.00  0.00     0.069 H 
ATOM     63  H   LIG d   1       5.720  -1.482  -4.580  0.00  0.00     0.063 H 
ENDBRANCH  13  56
BRANCH   4  64
ATOM     64  O   LIG d   1       0.034  -2.921 -13.239  0.00  0.00    -0.391 OA
ATOM     65  H   LIG d   1      -0.134  -3.859 -13.405  0.00  0.00     0.210 HD
ENDBRANCH   4  64
TORSDOF 10
ENDMDL
MODEL 2
REMARK VINA RESULT:      -6.8      2.958      4.474
REMARK  10 active torsions:
REMARK  status: ('A' for Active; 'I' for Inactive)
REMARK    1  A    between atoms: C_1  and  C_2 
REMARK    2  A    between atoms: C_5  and  O_37 
REMARK    3  A    between atoms: C_7  and  C_34 
REMARK    4  A    between atoms: C_7  and  C_35 
REMARK    5  A    between atoms: C_14  and  C_16 
REMARK    6  A    between atoms: C_21  and  C_23 
REMARK    7  A    between atoms: C_23  and  C_24 
REMARK       I    between atoms: C_24  and  N_26 
REMARK    8  A    between atoms: N_26  and  C_27 
REMARK    9  A    between atoms: C_27  and  C_28 
REMARK   10  A    between atoms: C_35  and  O_36 
ROOT
ATOM      1  C   LIG d   1       4.243  -2.042  -8.051  0.00  0.00    -0.019 C 
ATOM      2  C   LIG d   1       4.306  -0.776  -7.190  0.00  0.00    -0.044 C 
ATOM      3  C   LIG d   1       4.268   0.470  -8.071  0.00  0.00    -0.026 C 
ATOM      4  C   LIG d   1       2.954   0.476  -8.859  0.00  0.00     0.063 C 
ATOM      5  H   LIG d   1       2.113   0.455  -8.166  0.00  0.00     0.060 H 
ATOM      6  C   LIG d   1       2.913  -0.761  -9.753  0.00  0.00     0.021 C 
ATOM      7  C   LIG d   1       2.974  -2.035  -8.906  0.00  0.00    -0.021 C 
ATOM      8  H   LIG d   1       2.088  -2.105  -8.274  0.00  0.00     0.032 H 
ATOM      9  C   LIG d   1       3.021  -3.228  -9.879  0.00  0.00    -0.016 C 
ATOM     10  C   LIG d   1       3.431  -4.448  -9.134  0.00  0.00     0.014 A 
ATOM     11  C   LIG d   1       3.983  -4.522  -7.892  0.00  0.00     0.056 A 
ATOM     12  N   LIG d   1       4.274  -5.733  -7.428  0.00  0.00    -0.243 NA
ATOM     13  C   LIG d   1       4.042  -6.834  -8.126  0.00  0.00     0.109 A 
ATOM     14  S   LIG d   1       3.341  -6.152  -9.624  0.00  0.00    -0.072 SA
ATOM     15  C   LIG d   1       4.235  -3.245  -7.100  0.00  0.00     0.016 C 
ATOM     16  H   LIG d   1       3.446  -3.117  -6.358  0.00  0.00     0.037 H 
ATOM     17  H   LIG d   1       5.230  -0.780  -6.610  0.00  0.00     0.027 H 
ATOM     18  H   LIG d   1       3.455  -0.764  -6.510  0.00  0.00     0.027 H 
ATOM     19  H   LIG d   1       5.109   0.453  -8.764  0.00  0.00     0.029 H 
ATOM     20  H   LIG d   1       4.324   1.361  -7.447  0.00  0.00     0.029 H 
ATOM     21  H   LIG d   1       3.743  -3.024 -10.670  0.00  0.00     0.032 H 
ATOM     22  H   LIG d   1       2.035  -3.383 -10.316  0.00  0.00     0.032 H 
ENDROOT
BRANCH  15  23
ATOM     23  C   LIG d   1       5.588  -3.345  -6.392  0.00  0.00     0.033 C 
ATOM     24  H   LIG d   1       5.966  -4.363  -6.471  0.00  0.00     0.036 H 
ATOM     25  H   LIG d   1       6.294  -2.659  -6.861  0.00  0.00     0.036 H 
BRANCH  23  26
ATOM     26  C   LIG d   1       5.423  -2.979  -4.940  0.00  0.00     0.214 C 
ATOM     27  O   LIG d   1       6.400  -2.772  -4.252  0.00  0.00    -0.276 OA
ATOM     28  N   LIG d   1       4.189  -2.883  -4.405  0.00  0.00    -0.311 N 
ATOM     29  H   LIG d   1       3.408  -3.050  -4.956  0.00  0.00     0.149 HD
BRANCH  28  30
ATOM     30  C   LIG d   1       4.028  -2.528  -2.993  0.00  0.00     0.038 C 
ATOM     31  H   LIG d   1       3.111  -2.973  -2.609  0.00  0.00     0.051 H 
ATOM     32  H   LIG d   1       4.880  -2.903  -2.425  0.00  0.00     0.051 H 
BRANCH  30  33
ATOM     33  C   LIG d   1       3.955  -1.029  -2.858  0.00  0.00    -0.012 A 
ATOM     34  C   LIG d   1       3.296  -0.272  -3.808  0.00  0.00     0.032 A 
ATOM     35  N   LIG d   1       3.228   1.040  -3.696  0.00  0.00    -0.263 NA
ATOM     36  H   LIG d   1       2.833  -0.761  -4.653  0.00  0.00     0.083 H 
ATOM     37  C   LIG d   1       3.778   1.679  -2.683  0.00  0.00     0.028 A 
ATOM     38  C   LIG d   1       4.452   0.989  -1.693  0.00  0.00    -0.043 A 
ATOM     39  H   LIG d   1       3.700   2.755  -2.625  0.00  0.00     0.083 H 
ATOM     40  C   LIG d   1       4.542  -0.393  -1.775  0.00  0.00    -0.054 A 
ATOM     41  H   LIG d   1       4.901   1.518  -0.866  0.00  0.00     0.063 H 
ATOM     42  H   LIG d   1       5.059  -0.958  -1.014  0.00  0.00     0.062 H 
ENDBRANCH  30  33
ENDBRANCH  28  30
ENDBRANCH  23  26
ENDBRANCH  15  23
BRANCH   1  43
ATOM     43  C   LIG d   1       5.473  -2.106  -8.960  0.00  0.00    -0.059 C 
ATOM     44  H   LIG d   1       5.152  -2.193  -9.998  0.00  0.00     0.024 H 
ATOM     45  H   LIG d   1       6.063  -1.198  -8.837  0.00  0.00     0.024 H 
ATOM     46  H   LIG d   1       6.077  -2.973  -8.693  0.00  0.00     0.024 H 
ENDBRANCH   1  43
BRANCH   6  47
ATOM     47  C   LIG d   1       1.617  -0.755 -10.567  0.00  0.00    -0.055 C 
ATOM     48  H   LIG d   1       1.529  -1.692 -11.117  0.00  0.00     0.024 H 
ATOM     49  H   LIG d   1       0.767  -0.648  -9.894  0.00  0.00     0.024 H 
ATOM     50  H   LIG d   1       1.632   0.078 -11.269  0.00  0.00     0.024 H 
ENDBRANCH   6  47
BRANCH   6  51
ATOM     51  C   LIG d   1       4.106  -0.734 -10.712  0.00  0.00     0.052 C 
ATOM     52  H   LIG d   1       4.998  -0.415 -10.172  0.00  0.00     0.056 H 
ATOM     53  H   LIG d   1       4.266  -1.730 -11.122  0.00  0.00     0.056 H 
BRANCH  51  54
ATOM     54  O   LIG d   1       3.841   0.183 -11.776  0.00  0.00    -0.394 OA
ATOM     55  H   LIG d   1       4.494   0.891 -11.856  0.00  0.00     0.209 HD
ENDBRANCH  51  54
ENDBRANCH   6  51
BRANCH  13  56
ATOM     56  C   LIG d   1       4.299  -8.244  -7.766  0.00  0.00     0.014 A 
ATOM     57  C   LIG d   1       4.146  -9.242  -8.692  0.00  0.00    -0.015 A 
ATOM     58  S   LIG d   1       4.575 -10.692  -7.743  0.00  0.00    -0.104 SA
ATOM     59  H   LIG d   1       3.846  -9.171  -9.726  0.00  0.00     0.070 H 
ATOM     60  C   LIG d   1       4.927  -9.890  -6.188  0.00  0.00    -0.024 A 
ATOM     61  C   LIG d   1       4.702  -8.590  -6.478  0.00  0.00    -0.045 A 
ATOM     62  H   LIG d   1       5.241 -10.332  -5.254  0.00  0.00     0.069 H 
ATOM     63  H   LIG d   1       4.837  -7.830  -5.724  0.00  0.00     0.063 H 
ENDBRANCH  13  56
BRANCH   4  64
ATOM     64  O   LIG d   1       2.885   1.653  -9.665  0.00  0.00    -0.391 OA
ATOM     65  H   LIG d   1       3.747   1.993  -9.940  0.00  0.00     0.210 HD
ENDBRANCH   4  64
TORSDOF 10
ENDMDL
MODEL 3
REMARK VINA RESULT:      -6.2      5.119      7.969
REMARK  10 active torsions:
REMARK  status: ('A' for Active; 'I' for Inactive)
REMARK    1  A    between atoms: C_1  and  C_2 
REMARK    2  A    between atoms: C_5  and  O_37 
REMARK    3  A    between atoms: C_7  and  C_34 
REMARK    4  A    between atoms: C_7  and  C_35 
REMARK    5  A    between atoms: C_14  and  C_16 
REMARK    6  A    between atoms: C_21  and  C_23 
REMARK    7  A    between atoms: C_23  and  C_24 
REMARK       I    between atoms: C_24  and  N_26 
REMARK    8  A    between atoms: N_26  and  C_27 
REMARK    9  A    between atoms: C_27  and  C_28 
REMARK   10  A    between atoms: C_35  and  O_36 
ROOT
ATOM      1  C   LIG d   1       6.375  -1.242  -4.097  0.00  0.00    -0.019 C 
ATOM      2  C   LIG d   1       6.925  -0.068  -3.280  0.00  0.00    -0.044 C 
ATOM      3  C   LIG d   1       5.887   1.048  -3.188  0.00  0.00    -0.026 C 
ATOM      4  C   LIG d   1       4.639   0.504  -2.486  0.00  0.00     0.063 C 
ATOM      5  H   LIG d   1       4.909   0.131  -1.499  0.00  0.00     0.060 H 
ATOM      6  C   LIG d   1       4.063  -0.635  -3.325  0.00  0.00     0.021 C 
ATOM      7  C   LIG d   1       5.086  -1.767  -3.461  0.00  0.00    -0.021 C 
ATOM      8  H   LIG d   1       5.292  -2.203  -2.484  0.00  0.00     0.032 H 
ATOM      9  C   LIG d   1       4.468  -2.830  -4.391  0.00  0.00    -0.016 C 
ATOM     10  C   LIG d   1       5.535  -3.766  -4.836  0.00  0.00     0.014 A 
ATOM     11  C   LIG d   1       6.883  -3.602  -4.739  0.00  0.00     0.056 A 
ATOM     12  N   LIG d   1       7.648  -4.581  -5.214  0.00  0.00    -0.243 NA
ATOM     13  C   LIG d   1       7.142  -5.676  -5.757  0.00  0.00     0.109 A 
ATOM     14  S   LIG d   1       5.388  -5.350  -5.623  0.00  0.00    -0.072 SA
ATOM     15  C   LIG d   1       7.447  -2.339  -4.104  0.00  0.00     0.016 C 
ATOM     16  H   LIG d   1       7.754  -2.554  -3.080  0.00  0.00     0.037 H 
ATOM     17  H   LIG d   1       7.825   0.315  -3.762  0.00  0.00     0.027 H 
ATOM     18  H   LIG d   1       7.173  -0.414  -2.277  0.00  0.00     0.027 H 
ATOM     19  H   LIG d   1       5.624   1.387  -4.191  0.00  0.00     0.029 H 
ATOM     20  H   LIG d   1       6.295   1.881  -2.615  0.00  0.00     0.029 H 
ATOM     21  H   LIG d   1       4.027  -2.341  -5.259  0.00  0.00     0.032 H 
ATOM     22  H   LIG d   1       3.699  -3.384  -3.853  0.00  0.00     0.032 H 
ENDROOT
BRANCH  15  23
ATOM     23  C   LIG d   1       8.659  -1.862  -4.909  0.00  0.00     0.033 C 
ATOM     24  H   LIG d   1       8.432  -1.916  -5.973  0.00  0.00     0.036 H 
ATOM     25  H   LIG d   1       8.891  -0.832  -4.639  0.00  0.00     0.036 H 
BRANCH  23  26
ATOM     26  C   LIG d   1       9.843  -2.741  -4.600  0.00  0.00     0.214 C 
ATOM     27  O   LIG d   1      10.698  -2.924  -5.443  0.00  0.00    -0.276 OA
ATOM     28  N   LIG d   1       9.954  -3.322  -3.390  0.00  0.00    -0.311 N 
ATOM     29  H   LIG d   1       9.271  -3.175  -2.717  0.00  0.00     0.149 HD
BRANCH  28  30
ATOM     30  C   LIG d   1      11.106  -4.176  -3.090  0.00  0.00     0.038 C 
ATOM     31  H   LIG d   1      11.922  -3.940  -3.773  0.00  0.00     0.051 H 
ATOM     32  H   LIG d   1      11.430  -4.002  -2.063  0.00  0.00     0.051 H 
BRANCH  30  33
ATOM     33  C   LIG d   1      10.716  -5.622  -3.255  0.00  0.00    -0.012 A 
ATOM     34  C   LIG d   1      11.472  -6.465  -4.048  0.00  0.00     0.032 A 
ATOM     35  N   LIG d   1      11.136  -7.731  -4.197  0.00  0.00    -0.263 NA
ATOM     36  H   LIG d   1      12.347  -6.081  -4.552  0.00  0.00     0.083 H 
ATOM     37  C   LIG d   1      10.077  -8.243  -3.601  0.00  0.00     0.028 A 
ATOM     38  C   LIG d   1       9.274  -7.461  -2.792  0.00  0.00    -0.043 A 
ATOM     39  H   LIG d   1       9.835  -9.286  -3.747  0.00  0.00     0.083 H 
ATOM     40  C   LIG d   1       9.598  -6.126  -2.609  0.00  0.00    -0.054 A 
ATOM     41  H   LIG d   1       8.408  -7.887  -2.308  0.00  0.00     0.063 H 
ATOM     42  H   LIG d   1       8.990  -5.492  -1.979  0.00  0.00     0.062 H 
ENDBRANCH  30  33
ENDBRANCH  28  30
ENDBRANCH  23  26
ENDBRANCH  15  23
BRANCH   1  43
ATOM     43  C   LIG d   1       6.091  -0.783  -5.529  0.00  0.00    -0.059 C 
ATOM     44  H   LIG d   1       6.949  -1.013  -6.160  0.00  0.00     0.024 H 
ATOM     45  H   LIG d   1       5.211  -1.302  -5.909  0.00  0.00     0.024 H 
ATOM     46  H   LIG d   1       5.911   0.292  -5.537  0.00  0.00     0.024 H 
ENDBRANCH   1  43
BRANCH   6  47
ATOM     47  C   LIG d   1       2.800  -1.173  -2.650  0.00  0.00    -0.055 C 
ATOM     48  H   LIG d   1       3.078  -1.757  -1.772  0.00  0.00     0.024 H 
ATOM     49  H   LIG d   1       2.168  -0.339  -2.345  0.00  0.00     0.024 H 
ATOM     50  H   LIG d   1       2.254  -1.806  -3.349  0.00  0.00     0.024 H 
ENDBRANCH   6  47
BRANCH   6  51
ATOM     51  C   LIG d   1       3.703  -0.109  -4.716  0.00  0.00     0.052 C 
ATOM     52  H   LIG d   1       4.166   0.866  -4.867  0.00  0.00     0.056 H 
ATOM     53  H   LIG d   1       4.064  -0.805  -5.473  0.00  0.00     0.056 H 
BRANCH  51  54
ATOM     54  O   LIG d   1       2.283   0.017  -4.824  0.00  0.00    -0.394 OA
ATOM     55  H   LIG d   1       1.847   0.266  -3.998  0.00  0.00     0.209 HD
ENDBRANCH  51  54
ENDBRANCH   6  51
BRANCH  13  56
ATOM     56  C   LIG d   1       7.838  -6.849  -6.326  0.00  0.00     0.014 A 
ATOM     57  C   LIG d   1       7.316  -8.108  -6.190  0.00  0.00    -0.015 A 
ATOM     58  S   LIG d   1       8.529  -9.104  -7.040  0.00  0.00    -0.104 SA
ATOM     59  H   LIG d   1       6.408  -8.418  -5.697  0.00  0.00     0.070 H 
ATOM     60  C   LIG d   1       9.647  -7.797  -7.521  0.00  0.00    -0.024 A 
ATOM     61  C   LIG d   1       9.040  -6.700  -7.014  0.00  0.00    -0.045 A 
ATOM     62  H   LIG d   1      10.571  -7.865  -8.075  0.00  0.00     0.069 H 
ATOM     63  H   LIG d   1       9.479  -5.723  -7.146  0.00  0.00     0.063 H 
ENDBRANCH  13  56
BRANCH   4  64
ATOM     64  O   LIG d   1       3.668   1.544  -2.360  0.00  0.00    -0.391 OA
ATOM     65  H   LIG d   1       3.966   2.299  -1.834  0.00  0.00     0.210 HD
ENDBRANCH   4  64
TORSDOF 10
ENDMDL
MODEL 4
REMARK VINA RESULT:      -6.2      5.451      7.844
REMARK  10 active torsions:
REMARK  status: ('A' for Active; 'I' for Inactive)
REMARK    1  A    between atoms: C_1  and  C_2 
REMARK    2  A    between atoms: C_5  and  O_37 
REMARK    3  A    between atoms: C_7  and  C_34 
REMARK    4  A    between atoms: C_7  and  C_35 
REMARK    5  A    between atoms: C_14  and  C_16 
REMARK    6  A    between atoms: C_21  and  C_23 
REMARK    7  A    between atoms: C_23  and  C_24 
REMARK       I    between atoms: C_24  and  N_26 
REMARK    8  A    between atoms: N_26  and  C_27 
REMARK    9  A    between atoms: C_27  and  C_28 
REMARK   10  A    between atoms: C_35  and  O_36 
ROOT
ATOM      1  C   LIG d   1       6.677  -0.304  -4.123  0.00  0.00    -0.019 C 
ATOM      2  C   LIG d   1       6.576   1.057  -3.426  0.00  0.00    -0.044 C 
ATOM      3  C   LIG d   1       5.115   1.419  -3.174  0.00  0.00    -0.026 C 
ATOM      4  C   LIG d   1       4.493   0.354  -2.265  0.00  0.00     0.063 C 
ATOM      5  H   LIG d   1       5.054   0.298  -1.333  0.00  0.00     0.060 H 
ATOM      6  C   LIG d   1       4.550  -0.994  -2.980  0.00  0.00     0.021 C 
ATOM      7  C   LIG d   1       6.002  -1.383  -3.272  0.00  0.00    -0.021 C 
ATOM      8  H   LIG d   1       6.545  -1.527  -2.338  0.00  0.00     0.032 H 
ATOM      9  C   LIG d   1       5.970  -2.700  -4.071  0.00  0.00    -0.016 C 
ATOM     10  C   LIG d   1       7.308  -2.934  -4.677  0.00  0.00     0.014 A 
ATOM     11  C   LIG d   1       8.330  -2.046  -4.812  0.00  0.00     0.056 A 
ATOM     12  N   LIG d   1       9.441  -2.484  -5.397  0.00  0.00    -0.243 NA
ATOM     13  C   LIG d   1       9.569  -3.727  -5.833  0.00  0.00     0.109 A 
ATOM     14  S   LIG d   1       7.971  -4.409  -5.409  0.00  0.00    -0.072 SA
ATOM     15  C   LIG d   1       8.167  -0.622  -4.297  0.00  0.00     0.016 C 
ATOM     16  H   LIG d   1       8.674  -0.523  -3.337  0.00  0.00     0.037 H 
ATOM     17  H   LIG d   1       7.033   1.819  -4.057  0.00  0.00     0.027 H 
ATOM     18  H   LIG d   1       7.106   1.012  -2.475  0.00  0.00     0.027 H 
ATOM     19  H   LIG d   1       4.577   1.449  -4.122  0.00  0.00     0.029 H 
ATOM     20  H   LIG d   1       5.057   2.393  -2.689  0.00  0.00     0.029 H 
ATOM     21  H   LIG d   1       5.220  -2.630  -4.858  0.00  0.00     0.032 H 
ATOM     22  H   LIG d   1       5.723  -3.526  -3.403  0.00  0.00     0.032 H 
ENDROOT
BRANCH  15  23
ATOM     23  C   LIG d   1       8.783   0.355  -5.301  0.00  0.00     0.033 C 
ATOM     24  H   LIG d   1       9.177  -0.198  -6.153  0.00  0.00     0.036 H 
ATOM     25  H   LIG d   1       8.019   1.054  -5.643  0.00  0.00     0.036 H 
BRANCH  23  26
ATOM     26  C   LIG d   1       9.900   1.119  -4.637  0.00  0.00     0.214 C 
ATOM     27  O   LIG d   1      11.039   0.999  -5.038  0.00  0.00    -0.276 OA
ATOM     28  N   LIG d   1       9.633   1.936  -3.599  0.00  0.00    -0.311 N 
ATOM     29  H   LIG d   1       8.723   2.031  -3.278  0.00  0.00     0.149 HD
BRANCH  28  30
ATOM     30  C   LIG d   1      10.719   2.678  -2.953  0.00  0.00     0.038 C 
ATOM     31  H   LIG d   1      10.872   2.296  -1.945  0.00  0.00     0.051 H 
ATOM     32  H   LIG d   1      11.635   2.556  -3.531  0.00  0.00     0.051 H 
BRANCH  30  33
ATOM     33  C   LIG d   1      10.358   4.140  -2.887  0.00  0.00    -0.012 A 
ATOM     34  C   LIG d   1      10.612   4.872  -1.743  0.00  0.00     0.032 A 
ATOM     35  N   LIG d   1      10.299   6.152  -1.678  0.00  0.00    -0.263 NA
ATOM     36  H   LIG d   1      11.072   4.391  -0.892  0.00  0.00     0.083 H 
ATOM     37  C   LIG d   1       9.737   6.781  -2.691  0.00  0.00     0.028 A 
ATOM     38  C   LIG d   1       9.454   6.114  -3.868  0.00  0.00    -0.043 A 
ATOM     39  H   LIG d   1       9.496   7.830  -2.600  0.00  0.00     0.083 H 
ATOM     40  C   LIG d   1       9.772   4.768  -3.975  0.00  0.00    -0.054 A 
ATOM     41  H   LIG d   1       8.993   6.635  -4.694  0.00  0.00     0.063 H 
ATOM     42  H   LIG d   1       9.566   4.223  -4.884  0.00  0.00     0.062 H 
ENDBRANCH  30  33
ENDBRANCH  28  30
ENDBRANCH  23  26
ENDBRANCH  15  23
BRANCH   1  43
ATOM     43  C   LIG d   1       5.997  -0.231  -5.492  0.00  0.00    -0.059 C 
ATOM     44  H   LIG d   1       6.757  -0.210  -6.273  0.00  0.00     0.024 H 
ATOM     45  H   LIG d   1       5.360  -1.105  -5.629  0.00  0.00     0.024 H 
ATOM     46  H   LIG d   1       5.392   0.673  -5.549  0.00  0.00     0.024 H 
ENDBRANCH   1  43
BRANCH   6  47
ATOM     47  C   LIG d   1       3.909  -2.064  -2.094  0.00  0.00    -0.055 C 
ATOM     48  H   LIG d   1       4.659  -2.474  -1.418  0.00  0.00     0.024 H 
ATOM     49  H   LIG d   1       3.102  -1.619  -1.512  0.00  0.00     0.024 H 
ATOM     50  H   LIG d   1       3.508  -2.862  -2.718  0.00  0.00     0.024 H 
ENDBRANCH   6  47
BRANCH   6  51
ATOM     51  C   LIG d   1       3.776  -0.904  -4.297  0.00  0.00     0.052 C 
ATOM     52  H   LIG d   1       4.030   0.027  -4.804  0.00  0.00     0.056 H 
ATOM     53  H   LIG d   1       4.039  -1.748  -4.932  0.00  0.00     0.056 H 
BRANCH  51  54
ATOM     54  O   LIG d   1       2.372  -0.930  -4.026  0.00  0.00    -0.394 OA
ATOM     55  H   LIG d   1       2.087  -1.692  -3.504  0.00  0.00     0.209 HD
ENDBRANCH  51  54
ENDBRANCH   6  51
BRANCH  13  56
ATOM     56  C   LIG d   1      10.720  -4.374  -6.496  0.00  0.00     0.014 A 
ATOM     57  C   LIG d   1      11.241  -3.862  -7.655  0.00  0.00    -0.015 A 
ATOM     58  S   LIG d   1      12.569  -5.004  -7.999  0.00  0.00    -0.104 SA
ATOM     59  H   LIG d   1      10.929  -2.994  -8.215  0.00  0.00     0.070 H 
ATOM     60  C   LIG d   1      12.354  -6.083  -6.593  0.00  0.00    -0.024 A 
ATOM     61  C   LIG d   1      11.302  -5.520  -5.957  0.00  0.00    -0.045 A 
ATOM     62  H   LIG d   1      12.920  -6.961  -6.320  0.00  0.00     0.069 H 
ATOM     63  H   LIG d   1      10.923  -5.949  -5.042  0.00  0.00     0.063 H 
ENDBRANCH  13  56
BRANCH   4  64
ATOM     64  O   LIG d   1       3.133   0.694  -1.990  0.00  0.00    -0.391 OA
ATOM     65  H   LIG d   1       2.866   1.557  -2.335  0.00  0.00     0.210 HD
ENDBRANCH   4  64
TORSDOF 10
ENDMDL
MODEL 5
REMARK VINA RESULT:      -6.1     10.064     12.721
REMARK  10 active torsions:
REMARK  status: ('A' for Active; 'I' for Inactive)
REMARK    1  A    between atoms: C_1  and  C_2 
REMARK    2  A    between atoms: C_5  and  O_37 
REMARK    3  A    between atoms: C_7  and  C_34 
REMARK    4  A    between atoms: C_7  and  C_35 
REMARK    5  A    between atoms: C_14  and  C_16 
REMARK    6  A    between atoms: C_21  and  C_23 
REMARK    7  A    between atoms: C_23  and  C_24 
REMARK       I    between atoms: C_24  and  N_26 
REMARK    8  A    between atoms: N_26  and  C_27 
REMARK    9  A    between atoms: C_27  and  C_28 
REMARK   10  A    between atoms: C_35  and  O_36 
ROOT
ATOM      1  C   LIG d   1      10.067   4.914  -5.445  0.00  0.00    -0.019 C 
ATOM      2  C   LIG d   1       9.679   4.614  -6.896  0.00  0.00    -0.044 C 
ATOM      3  C   LIG d   1       9.844   3.126  -7.194  0.00  0.00    -0.026 C 
ATOM      4  C   LIG d   1       8.921   2.331  -6.265  0.00  0.00     0.063 C 
ATOM      5  H   LIG d   1       7.891   2.653  -6.411  0.00  0.00     0.060 H 
ATOM      6  C   LIG d   1       9.339   2.593  -4.819  0.00  0.00     0.021 C 
ATOM      7  C   LIG d   1       9.210   4.082  -4.487  0.00  0.00    -0.021 C 
ATOM      8  H   LIG d   1       8.165   4.389  -4.547  0.00  0.00     0.032 H 
ATOM      9  C   LIG d   1       9.734   4.276  -3.051  0.00  0.00    -0.016 C 
ATOM     10  C   LIG d   1       9.960   5.726  -2.808  0.00  0.00     0.014 A 
ATOM     11  C   LIG d   1      10.017   6.728  -3.727  0.00  0.00     0.056 A 
ATOM     12  N   LIG d   1      10.237   7.958  -3.271  0.00  0.00    -0.243 NA
ATOM     13  C   LIG d   1      10.391   8.219  -1.984  0.00  0.00     0.109 A 
ATOM     14  S   LIG d   1      10.229   6.584  -1.277  0.00  0.00    -0.072 SA
ATOM     15  C   LIG d   1       9.829   6.410  -5.205  0.00  0.00     0.016 C 
ATOM     16  H   LIG d   1       8.813   6.669  -5.505  0.00  0.00     0.037 H 
ATOM     17  H   LIG d   1      10.318   5.190  -7.566  0.00  0.00     0.027 H 
ATOM     18  H   LIG d   1       8.640   4.901  -7.055  0.00  0.00     0.027 H 
ATOM     19  H   LIG d   1      10.879   2.831  -7.021  0.00  0.00     0.029 H 
ATOM     20  H   LIG d   1       9.575   2.929  -8.232  0.00  0.00     0.029 H 
ATOM     21  H   LIG d   1      10.672   3.736  -2.930  0.00  0.00     0.032 H 
ATOM     22  H   LIG d   1       9.000   3.898  -2.340  0.00  0.00     0.032 H 
ENDROOT
BRANCH  15  23
ATOM     23  C   LIG d   1      10.827   7.224  -6.032  0.00  0.00     0.033 C 
ATOM     24  H   LIG d   1      11.692   7.472  -5.417  0.00  0.00     0.036 H 
ATOM     25  H   LIG d   1      11.150   6.637  -6.892  0.00  0.00     0.036 H 
BRANCH  23  26
ATOM     26  C   LIG d   1      10.168   8.492  -6.509  0.00  0.00     0.214 C 
ATOM     27  O   LIG d   1       9.246   8.438  -7.296  0.00  0.00    -0.276 OA
ATOM     28  N   LIG d   1      10.602   9.687  -6.060  0.00  0.00    -0.311 N 
ATOM     29  H   LIG d   1      11.339   9.730  -5.431  0.00  0.00     0.149 HD
BRANCH  28  30
ATOM     30  C   LIG d   1       9.961  10.920  -6.523  0.00  0.00     0.038 C 
ATOM     31  H   LIG d   1      10.669  11.497  -7.117  0.00  0.00     0.051 H 
ATOM     32  H   LIG d   1       9.093  10.671  -7.134  0.00  0.00     0.051 H 
BRANCH  30  33
ATOM     33  C   LIG d   1       9.521  11.735  -5.334  0.00  0.00    -0.012 A 
ATOM     34  C   LIG d   1       9.727  13.101  -5.309  0.00  0.00     0.032 A 
ATOM     35  N   LIG d   1       9.344  13.821  -4.272  0.00  0.00    -0.263 NA
ATOM     36  H   LIG d   1      10.207  13.585  -6.146  0.00  0.00     0.083 H 
ATOM     37  C   LIG d   1       8.755  13.274  -3.227  0.00  0.00     0.028 A 
ATOM     38  C   LIG d   1       8.515  11.913  -3.183  0.00  0.00    -0.043 A 
ATOM     39  H   LIG d   1       8.455  13.896  -2.397  0.00  0.00     0.083 H 
ATOM     40  C   LIG d   1       8.900  11.125  -4.256  0.00  0.00    -0.054 A 
ATOM     41  H   LIG d   1       8.032  11.472  -2.324  0.00  0.00     0.063 H 
ATOM     42  H   LIG d   1       8.722  10.059  -4.250  0.00  0.00     0.062 H 
ENDBRANCH  30  33
ENDBRANCH  28  30
ENDBRANCH  23  26
ENDBRANCH  15  23
BRANCH   1  43
ATOM     43  C   LIG d   1      11.545   4.581  -5.229  0.00  0.00    -0.059 C 
ATOM     44  H   LIG d   1      11.648   3.521  -5.000  0.00  0.00     0.024 H 
ATOM     45  H   LIG d   1      12.106   4.814  -6.134  0.00  0.00     0.024 H 
ATOM     46  H   LIG d   1      11.932   5.172  -4.398  0.00  0.00     0.024 H 
ENDBRANCH   1  43
BRANCH   6  47
ATOM     47  C   LIG d   1       8.442   1.785  -3.879  0.00  0.00    -0.055 C 
ATOM     48  H   LIG d   1       8.723   1.987  -2.845  0.00  0.00     0.024 H 
ATOM     49  H   LIG d   1       7.402   2.071  -4.034  0.00  0.00     0.024 H 
ATOM     50  H   LIG d   1       8.561   0.722  -4.087  0.00  0.00     0.024 H 
ENDBRANCH   6  47
BRANCH   6  51
ATOM     51  C   LIG d   1      10.792   2.156  -4.624  0.00  0.00     0.052 C 
ATOM     52  H   LIG d   1      11.328   2.245  -5.569  0.00  0.00     0.056 H 
ATOM     53  H   LIG d   1      11.266   2.790  -3.876  0.00  0.00     0.056 H 
BRANCH  51  54
ATOM     54  O   LIG d   1      10.825   0.795  -4.186  0.00  0.00    -0.394 OA
ATOM     55  H   LIG d   1      11.093   0.168  -4.871  0.00  0.00     0.209 HD
ENDBRANCH  51  54
ENDBRANCH   6  51
BRANCH  13  56
ATOM     56  C   LIG d   1      10.638   9.512  -1.311  0.00  0.00     0.014 A 
ATOM     57  C   LIG d   1      11.624  10.355  -1.752  0.00  0.00    -0.015 A 
ATOM     58  S   LIG d   1      11.479  11.720  -0.612  0.00  0.00    -0.104 SA
ATOM     59  H   LIG d   1      12.310  10.227  -2.576  0.00  0.00     0.070 H 
ATOM     60  C   LIG d   1      10.129  11.092   0.373  0.00  0.00    -0.024 A 
ATOM     61  C   LIG d   1       9.873   9.903  -0.214  0.00  0.00    -0.045 A 
ATOM     62  H   LIG d   1       9.640  11.548   1.222  0.00  0.00     0.069 H 
ATOM     63  H   LIG d   1       9.084   9.267   0.158  0.00  0.00     0.063 H 
ENDBRANCH  13  56
BRANCH   4  64
ATOM     64  O   LIG d   1       9.037   0.937  -6.552  0.00  0.00    -0.391 OA
ATOM     65  H   LIG d   1       8.732   0.362  -5.837  0.00  0.00     0.210 HD
ENDBRANCH   4  64
TORSDOF 10
ENDMDL
MODEL 6
REMARK VINA RESULT:      -5.9      4.084      8.069
REMARK  10 active torsions:
REMARK  status: ('A' for Active; 'I' for Inactive)
REMARK    1  A    between atoms: C_1  and  C_2 
REMARK    2  A    between atoms: C_5  and  O_37 
REMARK    3  A    between atoms: C_7  and  C_34 
REMARK    4  A    between atoms: C_7  and  C_35 
REMARK    5  A    between atoms: C_14  and  C_16 
REMARK    6  A    between atoms: C_21  and  C_23 
REMARK    7  A    between atoms: C_23  and  C_24 
REMARK       I    between atoms: C_24  and  N_26 
REMARK    8  A    between atoms: N_26  and  C_27 
REMARK    9  A    between atoms: C_27  and  C_28 
REMARK   10  A    between atoms: C_35  and  O_36 
ROOT
ATOM      1  C   LIG d   1       4.878  -2.264  -4.830  0.00  0.00    -0.019 C 
ATOM      2  C   LIG d   1       4.530  -2.880  -3.471  0.00  0.00    -0.044 C 
ATOM      3  C   LIG d   1       4.740  -1.859  -2.355  0.00  0.00    -0.026 C 
ATOM      4  C   LIG d   1       3.817  -0.661  -2.602  0.00  0.00     0.063 C 
ATOM      5  H   LIG d   1       2.782  -1.000  -2.640  0.00  0.00     0.060 H 
ATOM      6  C   LIG d   1       4.195  -0.019  -3.935  0.00  0.00     0.021 C 
ATOM      7  C   LIG d   1       4.020  -1.021  -5.080  0.00  0.00    -0.021 C 
ATOM      8  H   LIG d   1       2.970  -1.296  -5.178  0.00  0.00     0.032 H 
ATOM      9  C   LIG d   1       4.506  -0.331  -6.368  0.00  0.00    -0.016 C 
ATOM     10  C   LIG d   1       4.690  -1.356  -7.430  0.00  0.00     0.014 A 
ATOM     11  C   LIG d   1       4.743  -2.708  -7.285  0.00  0.00     0.056 A 
ATOM     12  N   LIG d   1       4.920  -3.430  -8.387  0.00  0.00    -0.243 NA
ATOM     13  C   LIG d   1       5.038  -2.879  -9.584  0.00  0.00     0.109 A 
ATOM     14  S   LIG d   1       4.902  -1.142  -9.180  0.00  0.00    -0.072 SA
ATOM     15  C   LIG d   1       4.596  -3.326  -5.901  0.00  0.00     0.016 C 
ATOM     16  H   LIG d   1       3.581  -3.705  -5.778  0.00  0.00     0.037 H 
ATOM     17  H   LIG d   1       5.170  -3.745  -3.293  0.00  0.00     0.027 H 
ATOM     18  H   LIG d   1       3.488  -3.198  -3.477  0.00  0.00     0.027 H 
ATOM     19  H   LIG d   1       5.778  -1.526  -2.355  0.00  0.00     0.029 H 
ATOM     20  H   LIG d   1       4.500  -2.313  -1.394  0.00  0.00     0.029 H 
ATOM     21  H   LIG d   1       5.456   0.170  -6.177  0.00  0.00     0.032 H 
ATOM     22  H   LIG d   1       3.766   0.401  -6.693  0.00  0.00     0.032 H 
ENDROOT
BRANCH  15  23
ATOM     23  C   LIG d   1       5.591  -4.478  -5.749  0.00  0.00     0.033 C 
ATOM     24  H   LIG d   1       6.312  -4.446  -6.566  0.00  0.00     0.036 H 
ATOM     25  H   LIG d   1       6.116  -4.383  -4.798  0.00  0.00     0.036 H 
BRANCH  23  26
ATOM     26  C   LIG d   1       4.850  -5.790  -5.784  0.00  0.00     0.214 C 
ATOM     27  O   LIG d   1       3.639  -5.800  -5.867  0.00  0.00    -0.276 OA
ATOM     28  N   LIG d   1       5.532  -6.951  -5.724  0.00  0.00    -0.311 N 
ATOM     29  H   LIG d   1       6.499  -6.942  -5.657  0.00  0.00     0.149 HD
BRANCH  28  30
ATOM     30  C   LIG d   1       4.811  -8.226  -5.757  0.00  0.00     0.038 C 
ATOM     31  H   LIG d   1       3.738  -8.037  -5.768  0.00  0.00     0.051 H 
ATOM     32  H   LIG d   1       5.091  -8.778  -6.655  0.00  0.00     0.051 H 
BRANCH  30  33
ATOM     33  C   LIG d   1       5.168  -9.037  -4.538  0.00  0.00    -0.012 A 
ATOM     34  C   LIG d   1       4.190  -9.729  -3.848  0.00  0.00     0.032 A 
ATOM     35  N   LIG d   1       4.495 -10.440  -2.781  0.00  0.00    -0.263 NA
ATOM     36  H   LIG d   1       3.165  -9.685  -4.187  0.00  0.00     0.083 H 
ATOM     37  C   LIG d   1       5.731 -10.523  -2.331  0.00  0.00     0.028 A 
ATOM     38  C   LIG d   1       6.761  -9.859  -2.970  0.00  0.00    -0.043 A 
ATOM     39  H   LIG d   1       5.941 -11.116  -1.454  0.00  0.00     0.083 H 
ATOM     40  C   LIG d   1       6.480  -9.104  -4.098  0.00  0.00    -0.054 A 
ATOM     41  H   LIG d   1       7.772  -9.930  -2.597  0.00  0.00     0.063 H 
ATOM     42  H   LIG d   1       7.266  -8.577  -4.620  0.00  0.00     0.062 H 
ENDBRANCH  30  33
ENDBRANCH  28  30
ENDBRANCH  23  26
ENDBRANCH  15  23
BRANCH   1  43
ATOM     43  C   LIG d   1       6.358  -1.879  -4.856  0.00  0.00    -0.059 C 
ATOM     44  H   LIG d   1       6.960  -2.732  -4.541  0.00  0.00     0.024 H 
ATOM     45  H   LIG d   1       6.641  -1.590  -5.868  0.00  0.00     0.024 H 
ATOM     46  H   LIG d   1       6.528  -1.043  -4.177  0.00  0.00     0.024 H 
ENDBRANCH   1  43
BRANCH   6  47
ATOM     47  C   LIG d   1       3.298   1.195  -4.184  0.00  0.00    -0.055 C 
ATOM     48  H   LIG d   1       2.910   1.562  -3.233  0.00  0.00     0.024 H 
ATOM     49  H   LIG d   1       3.877   1.982  -4.667  0.00  0.00     0.024 H 
ATOM     50  H   LIG d   1       2.467   0.908  -4.828  0.00  0.00     0.024 H 
ENDBRANCH   6  47
BRANCH   6  51
ATOM     51  C   LIG d   1       5.655   0.439  -3.882  0.00  0.00     0.052 C 
ATOM     52  H   LIG d   1       6.258  -0.329  -3.397  0.00  0.00     0.056 H 
ATOM     53  H   LIG d   1       6.021   0.603  -4.895  0.00  0.00     0.056 H 
BRANCH  51  54
ATOM     54  O   LIG d   1       5.745   1.656  -3.139  0.00  0.00    -0.394 OA
ATOM     55  H   LIG d   1       5.864   2.443  -3.687  0.00  0.00     0.209 HD
ENDBRANCH  51  54
ENDBRANCH   6  51
BRANCH  13  56
ATOM     56  C   LIG d   1       5.236  -3.524 -10.899  0.00  0.00     0.014 A 
ATOM     57  C   LIG d   1       5.969  -2.908 -11.879  0.00  0.00    -0.015 A 
ATOM     58  S   LIG d   1       5.882  -4.098 -13.206  0.00  0.00    -0.104 SA
ATOM     59  H   LIG d   1       6.470  -1.952 -11.855  0.00  0.00     0.070 H 
ATOM     60  C   LIG d   1       4.886  -5.330 -12.385  0.00  0.00    -0.024 A 
ATOM     61  C   LIG d   1       4.682  -4.773 -11.171  0.00  0.00    -0.045 A 
ATOM     62  H   LIG d   1       4.536  -6.280 -12.762  0.00  0.00     0.069 H 
ATOM     63  H   LIG d   1       4.103  -5.291 -10.422  0.00  0.00     0.063 H 
ENDBRANCH  13  56
BRANCH   4  64
ATOM     64  O   LIG d   1       3.975   0.291  -1.549  0.00  0.00    -0.391 OA
ATOM     65  H   LIG d   1       3.751   1.197  -1.802  0.00  0.00     0.210 HD
ENDBRANCH   4  64
TORSDOF 10
ENDMDL
MODEL 7
REMARK VINA RESULT:      -5.9      5.426      8.262
REMARK  10 active torsions:
REMARK  status: ('A' for Active; 'I' for Inactive)
REMARK    1  A    between atoms: C_1  and  C_2 
REMARK    2  A    between atoms: C_5  and  O_37 
REMARK    3  A    between atoms: C_7  and  C_34 
REMARK    4  A    between atoms: C_7  and  C_35 
REMARK    5  A    between atoms: C_14  and  C_16 
REMARK    6  A    between atoms: C_21  and  C_23 
REMARK    7  A    between atoms: C_23  and  C_24 
REMARK       I    between atoms: C_24  and  N_26 
REMARK    8  A    between atoms: N_26  and  C_27 
REMARK    9  A    between atoms: C_27  and  C_28 
REMARK   10  A    between atoms: C_35  and  O_36 
ROOT
ATOM      1  C   LIG d   1       6.756  -0.532  -4.262  0.00  0.00    -0.019 C 
ATOM      2  C   LIG d   1       6.893   0.799  -3.515  0.00  0.00    -0.044 C 
ATOM      3  C   LIG d   1       5.516   1.345  -3.143  0.00  0.00    -0.026 C 
ATOM      4  C   LIG d   1       4.818   0.336  -2.225  0.00  0.00     0.063 C 
ATOM      5  H   LIG d   1       5.429   0.164  -1.340  0.00  0.00     0.060 H 
ATOM      6  C   LIG d   1       4.638  -0.976  -2.987  0.00  0.00     0.021 C 
ATOM      7  C   LIG d   1       5.999  -1.544  -3.399  0.00  0.00    -0.021 C 
ATOM      8  H   LIG d   1       6.580  -1.801  -2.514  0.00  0.00     0.032 H 
ATOM      9  C   LIG d   1       5.729  -2.810  -4.236  0.00  0.00    -0.016 C 
ATOM     10  C   LIG d   1       6.976  -3.197  -4.948  0.00  0.00     0.014 A 
ATOM     11  C   LIG d   1       8.100  -2.451  -5.129  0.00  0.00     0.056 A 
ATOM     12  N   LIG d   1       9.096  -3.010  -5.809  0.00  0.00    -0.243 NA
ATOM     13  C   LIG d   1       9.021  -4.239  -6.294  0.00  0.00     0.109 A 
ATOM     14  S   LIG d   1       7.377  -4.716  -5.775  0.00  0.00    -0.072 SA
ATOM     15  C   LIG d   1       8.172  -1.041  -4.557  0.00  0.00     0.016 C 
ATOM     16  H   LIG d   1       8.753  -1.053  -3.634  0.00  0.00     0.037 H 
ATOM     17  H   LIG d   1       7.406   1.519  -4.153  0.00  0.00     0.027 H 
ATOM     18  H   LIG d   1       7.476   0.642  -2.608  0.00  0.00     0.027 H 
ATOM     19  H   LIG d   1       4.924   1.488  -4.047  0.00  0.00     0.029 H 
ATOM     20  H   LIG d   1       5.628   2.296  -2.623  0.00  0.00     0.029 H 
ATOM     21  H   LIG d   1       4.943  -2.605  -4.963  0.00  0.00     0.032 H 
ATOM     22  H   LIG d   1       5.418  -3.622  -3.580  0.00  0.00     0.032 H 
ENDROOT
BRANCH  15  23
ATOM     23  C   LIG d   1       8.846  -0.114  -5.571  0.00  0.00     0.033 C 
ATOM     24  H   LIG d   1       8.896  -0.610  -6.539  0.00  0.00     0.036 H 
ATOM     25  H   LIG d   1       8.268   0.805  -5.663  0.00  0.00     0.036 H 
BRANCH  23  26
ATOM     26  C   LIG d   1      10.240   0.215  -5.101  0.00  0.00     0.214 C 
ATOM     27  O   LIG d   1      10.602   1.372  -5.040  0.00  0.00    -0.276 OA
ATOM     28  N   LIG d   1      11.083  -0.775  -4.749  0.00  0.00    -0.311 N 
ATOM     29  H   LIG d   1      10.794  -1.699  -4.798  0.00  0.00     0.149 HD
BRANCH  28  30
ATOM     30  C   LIG d   1      12.438  -0.456  -4.292  0.00  0.00     0.038 C 
ATOM     31  H   LIG d   1      12.990   0.026  -5.099  0.00  0.00     0.051 H 
ATOM     32  H   LIG d   1      12.383   0.218  -3.437  0.00  0.00     0.051 H 
BRANCH  30  33
ATOM     33  C   LIG d   1      13.144  -1.724  -3.888  0.00  0.00    -0.012 A 
ATOM     34  C   LIG d   1      14.454  -1.685  -3.447  0.00  0.00     0.032 A 
ATOM     35  N   LIG d   1      15.078  -2.791  -3.091  0.00  0.00    -0.263 NA
ATOM     36  H   LIG d   1      14.972  -0.739  -3.394  0.00  0.00     0.083 H 
ATOM     37  C   LIG d   1      14.486  -3.968  -3.138  0.00  0.00     0.028 A 
ATOM     38  C   LIG d   1      13.177  -4.084  -3.568  0.00  0.00    -0.043 A 
ATOM     39  H   LIG d   1      15.030  -4.852  -2.838  0.00  0.00     0.083 H 
ATOM     40  C   LIG d   1      12.487  -2.943  -3.946  0.00  0.00    -0.054 A 
ATOM     41  H   LIG d   1      12.698  -5.051  -3.604  0.00  0.00     0.063 H 
ATOM     42  H   LIG d   1      11.462  -3.003  -4.282  0.00  0.00     0.062 H 
ENDBRANCH  30  33
ENDBRANCH  28  30
ENDBRANCH  23  26
ENDBRANCH  15  23
BRANCH   1  43
ATOM     43  C   LIG d   1       5.999  -0.309  -5.573  0.00  0.00    -0.059 C 
ATOM     44  H   LIG d   1       6.315  -1.053  -6.304  0.00  0.00     0.024 H 
ATOM     45  H   LIG d   1       4.928  -0.404  -5.397  0.00  0.00     0.024 H 
ATOM     46  H   LIG d   1       6.218   0.689  -5.953  0.00  0.00     0.024 H 
ENDBRANCH   1  43
BRANCH   6  47
ATOM     47  C   LIG d   1       3.918  -1.986  -2.091  0.00  0.00    -0.055 C 
ATOM     48  H   LIG d   1       3.378  -2.702  -2.712  0.00  0.00     0.024 H 
ATOM     49  H   LIG d   1       4.648  -2.514  -1.479  0.00  0.00     0.024 H 
ATOM     50  H   LIG d   1       3.213  -1.462  -1.445  0.00  0.00     0.024 H 
ENDBRANCH   6  47
BRANCH   6  51
ATOM     51  C   LIG d   1       3.794  -0.724  -4.239  0.00  0.00     0.052 C 
ATOM     52  H   LIG d   1       3.971   0.290  -4.598  0.00  0.00     0.056 H 
ATOM     53  H   LIG d   1       4.072  -1.438  -5.013  0.00  0.00     0.056 H 
BRANCH  51  54
ATOM     54  O   LIG d   1       2.410  -0.882  -3.919  0.00  0.00    -0.394 OA
ATOM     55  H   LIG d   1       1.987  -0.074  -3.598  0.00  0.00     0.209 HD
ENDBRANCH  51  54
ENDBRANCH   6  51
BRANCH  13  56
ATOM     56  C   LIG d   1      10.023  -5.007  -7.063  0.00  0.00     0.014 A 
ATOM     57  C   LIG d   1      10.400  -4.609  -8.318  0.00  0.00    -0.015 A 
ATOM     58  S   LIG d   1      11.593  -5.861  -8.759  0.00  0.00    -0.104 SA
ATOM     59  H   LIG d   1      10.062  -3.760  -8.892  0.00  0.00     0.070 H 
ATOM     60  C   LIG d   1      11.519  -6.828  -7.261  0.00  0.00    -0.024 A 
ATOM     61  C   LIG d   1      10.607  -6.153  -6.527  0.00  0.00    -0.045 A 
ATOM     62  H   LIG d   1      12.066  -7.724  -7.005  0.00  0.00     0.069 H 
ATOM     63  H   LIG d   1      10.339  -6.494  -5.538  0.00  0.00     0.063 H 
ENDBRANCH  13  56
BRANCH   4  64
ATOM     64  O   LIG d   1       3.540   0.845  -1.839  0.00  0.00    -0.391 OA
ATOM     65  H   LIG d   1       3.496   1.810  -1.802  0.00  0.00     0.210 HD
ENDBRANCH   4  64
TORSDOF 10
ENDMDL
MODEL 8
REMARK VINA RESULT:      -5.9      3.132      3.714
REMARK  10 active torsions:
REMARK  status: ('A' for Active; 'I' for Inactive)
REMARK    1  A    between atoms: C_1  and  C_2 
REMARK    2  A    between atoms: C_5  and  O_37 
REMARK    3  A    between atoms: C_7  and  C_34 
REMARK    4  A    between atoms: C_7  and  C_35 
REMARK    5  A    between atoms: C_14  and  C_16 
REMARK    6  A    between atoms: C_21  and  C_23 
REMARK    7  A    between atoms: C_23  and  C_24 
REMARK       I    between atoms: C_24  and  N_26 
REMARK    8  A    between atoms: N_26  and  C_27 
REMARK    9  A    between atoms: C_27  and  C_28 
REMARK   10  A    between atoms: C_35  and  O_36 
ROOT
ATOM      1  C   LIG d   1       4.038  -0.309 -10.488  0.00  0.00    -0.019 C 
ATOM      2  C   LIG d   1       2.633  -0.918 -10.519  0.00  0.00    -0.044 C 
ATOM      3  C   LIG d   1       2.217  -1.226 -11.955  0.00  0.00    -0.026 C 
ATOM      4  C   LIG d   1       3.204  -2.237 -12.548  0.00  0.00     0.063 C 
ATOM      5  H   LIG d   1       3.215  -3.139 -11.936  0.00  0.00     0.060 H 
ATOM      6  C   LIG d   1       4.597  -1.611 -12.561  0.00  0.00     0.021 C 
ATOM      7  C   LIG d   1       5.041  -1.265 -11.137  0.00  0.00    -0.021 C 
ATOM      8  H   LIG d   1       5.138  -2.175 -10.545  0.00  0.00     0.032 H 
ATOM      9  C   LIG d   1       6.406  -0.558 -11.244  0.00  0.00    -0.016 C 
ATOM     10  C   LIG d   1       6.713   0.105  -9.949  0.00  0.00     0.014 A 
ATOM     11  C   LIG d   1       5.863   0.354  -8.916  0.00  0.00     0.056 A 
ATOM     12  N   LIG d   1       6.367   0.969  -7.851  0.00  0.00    -0.243 NA
ATOM     13  C   LIG d   1       7.638   1.329  -7.775  0.00  0.00     0.109 A 
ATOM     14  S   LIG d   1       8.250   0.772  -9.361  0.00  0.00    -0.072 SA
ATOM     15  C   LIG d   1       4.405  -0.073  -9.018  0.00  0.00     0.016 C 
ATOM     16  H   LIG d   1       4.257  -0.995  -8.455  0.00  0.00     0.037 H 
ATOM     17  H   LIG d   1       1.925  -0.214 -10.082  0.00  0.00     0.027 H 
ATOM     18  H   LIG d   1       2.629  -1.839  -9.937  0.00  0.00     0.027 H 
ATOM     19  H   LIG d   1       2.235  -0.310 -12.545  0.00  0.00     0.029 H 
ATOM     20  H   LIG d   1       1.213  -1.649 -11.963  0.00  0.00     0.029 H 
ATOM     21  H   LIG d   1       6.368   0.189 -12.036  0.00  0.00     0.032 H 
ATOM     22  H   LIG d   1       7.180  -1.291 -11.470  0.00  0.00     0.032 H 
ENDROOT
BRANCH  15  23
ATOM     23  C   LIG d   1       3.511   1.025  -8.439  0.00  0.00     0.033 C 
ATOM     24  H   LIG d   1       4.118   1.895  -8.190  0.00  0.00     0.036 H 
ATOM     25  H   LIG d   1       2.758   1.307  -9.176  0.00  0.00     0.036 H 
BRANCH  23  26
ATOM     26  C   LIG d   1       2.829   0.515  -7.196  0.00  0.00     0.214 C 
ATOM     27  O   LIG d   1       2.048  -0.411  -7.269  0.00  0.00    -0.276 OA
ATOM     28  N   LIG d   1       3.087   1.086  -6.003  0.00  0.00    -0.311 N 
ATOM     29  H   LIG d   1       3.711   1.827  -5.944  0.00  0.00     0.149 HD
BRANCH  28  30
ATOM     30  C   LIG d   1       2.424   0.590  -4.794  0.00  0.00     0.038 C 
ATOM     31  H   LIG d   1       2.090   1.433  -4.190  0.00  0.00     0.051 H 
ATOM     32  H   LIG d   1       1.565  -0.019  -5.075  0.00  0.00     0.051 H 
BRANCH  30  33
ATOM     33  C   LIG d   1       3.393  -0.246  -3.998  0.00  0.00    -0.012 A 
ATOM     34  C   LIG d   1       4.754  -0.137  -4.214  0.00  0.00     0.032 A 
ATOM     35  N   LIG d   1       5.607  -0.865  -3.521  0.00  0.00    -0.263 NA
ATOM     36  H   LIG d   1       5.122   0.553  -4.960  0.00  0.00     0.083 H 
ATOM     37  C   LIG d   1       5.204  -1.718  -2.601  0.00  0.00     0.028 A 
ATOM     38  C   LIG d   1       3.858  -1.881  -2.329  0.00  0.00    -0.043 A 
ATOM     39  H   LIG d   1       5.933  -2.297  -2.054  0.00  0.00     0.083 H 
ATOM     40  C   LIG d   1       2.931  -1.130  -3.035  0.00  0.00    -0.054 A 
ATOM     41  H   LIG d   1       3.535  -2.582  -1.575  0.00  0.00     0.063 H 
ATOM     42  H   LIG d   1       1.874  -1.234  -2.841  0.00  0.00     0.062 H 
ENDBRANCH  30  33
ENDBRANCH  28  30
ENDBRANCH  23  26
ENDBRANCH  15  23
BRANCH   1  43
ATOM     43  C   LIG d   1       4.037   1.023 -11.243  0.00  0.00    -0.059 C 
ATOM     44  H   LIG d   1       4.435   1.805 -10.598  0.00  0.00     0.024 H 
ATOM     45  H   LIG d   1       4.657   0.936 -12.135  0.00  0.00     0.024 H 
ATOM     46  H   LIG d   1       3.016   1.275 -11.533  0.00  0.00     0.024 H 
ENDBRANCH   1  43
BRANCH   6  47
ATOM     47  C   LIG d   1       5.591  -2.600 -13.175  0.00  0.00    -0.055 C 
ATOM     48  H   LIG d   1       5.333  -3.613 -12.864  0.00  0.00     0.024 H 
ATOM     49  H   LIG d   1       5.548  -2.532 -14.261  0.00  0.00     0.024 H 
ATOM     50  H   LIG d   1       6.598  -2.362 -12.835  0.00  0.00     0.024 H 
ENDBRANCH   6  47
BRANCH   6  51
ATOM     51  C   LIG d   1       4.572  -0.336 -13.407  0.00  0.00     0.052 C 
ATOM     52  H   LIG d   1       3.583   0.118 -13.349  0.00  0.00     0.056 H 
ATOM     53  H   LIG d   1       5.318   0.364 -13.032  0.00  0.00     0.056 H 
BRANCH  51  54
ATOM     54  O   LIG d   1       4.867  -0.662 -14.768  0.00  0.00    -0.394 OA
ATOM     55  H   LIG d   1       5.000  -1.606 -14.925  0.00  0.00     0.209 HD
ENDBRANCH  51  54
ENDBRANCH   6  51
BRANCH  13  56
ATOM     56  C   LIG d   1       8.356   2.011  -6.678  0.00  0.00     0.014 A 
ATOM     57  C   LIG d   1       9.331   2.935  -6.946  0.00  0.00    -0.015 A 
ATOM     58  S   LIG d   1       9.841   3.420  -5.306  0.00  0.00    -0.104 SA
ATOM     59  H   LIG d   1       9.696   3.281  -7.901  0.00  0.00     0.070 H 
ATOM     60  C   LIG d   1       8.737   2.374  -4.372  0.00  0.00    -0.024 A 
ATOM     61  C   LIG d   1       8.059   1.729  -5.346  0.00  0.00    -0.045 A 
ATOM     62  H   LIG d   1       8.637   2.280  -3.300  0.00  0.00     0.069 H 
ATOM     63  H   LIG d   1       7.293   1.010  -5.096  0.00  0.00     0.063 H 
ENDBRANCH  13  56
BRANCH   4  64
ATOM     64  O   LIG d   1       2.813  -2.564 -13.882  0.00  0.00    -0.391 OA
ATOM     65  H   LIG d   1       3.451  -3.115 -14.356  0.00  0.00     0.210 HD
ENDBRANCH   4  64
TORSDOF 10
ENDMDL
MODEL 9
REMARK VINA RESULT:      -5.8      8.478     12.725
REMARK  10 active torsions:
REMARK  status: ('A' for Active; 'I' for Inactive)
REMARK    1  A    between atoms: C_1  and  C_2 
REMARK    2  A    between atoms: C_5  and  O_37 
REMARK    3  A    between atoms: C_7  and  C_34 
REMARK    4  A    between atoms: C_7  and  C_35 
REMARK    5  A    between atoms: C_14  and  C_16 
REMARK    6  A    between atoms: C_21  and  C_23 
REMARK    7  A    between atoms: C_23  and  C_24 
REMARK       I    between atoms: C_24  and  N_26 
REMARK    8  A    between atoms: N_26  and  C_27 
REMARK    9  A    between atoms: C_27  and  C_28 
REMARK   10  A    between atoms: C_35  and  O_36 
ROOT
ATOM      1  C   LIG d   1      11.246   5.689  -2.487  0.00  0.00    -0.019 C 
ATOM      2  C   LIG d   1      11.463   4.729  -1.313  0.00  0.00    -0.044 C 
ATOM      3  C   LIG d   1      11.933   5.496  -0.079  0.00  0.00    -0.026 C 
ATOM      4  C   LIG d   1      10.854   6.512   0.310  0.00  0.00     0.063 C 
ATOM      5  H   LIG d   1       9.915   5.993   0.499  0.00  0.00     0.060 H 
ATOM      6  C   LIG d   1      10.671   7.497  -0.843  0.00  0.00     0.021 C 
ATOM      7  C   LIG d   1      10.222   6.762  -2.108  0.00  0.00    -0.021 C 
ATOM      8  H   LIG d   1       9.241   6.314  -1.952  0.00  0.00     0.032 H 
ATOM      9  C   LIG d   1      10.150   7.804  -3.241  0.00  0.00    -0.016 C 
ATOM     10  C   LIG d   1      10.067   7.098  -4.547  0.00  0.00     0.014 A 
ATOM     11  C   LIG d   1      10.317   5.786  -4.805  0.00  0.00     0.056 A 
ATOM     12  N   LIG d   1      10.179   5.378  -6.062  0.00  0.00    -0.243 NA
ATOM     13  C   LIG d   1       9.813   6.194  -7.037  0.00  0.00     0.109 A 
ATOM     14  S   LIG d   1       9.633   7.736  -6.146  0.00  0.00    -0.072 SA
ATOM     15  C   LIG d   1      10.730   4.858  -3.670  0.00  0.00     0.016 C 
ATOM     16  H   LIG d   1       9.870   4.269  -3.351  0.00  0.00     0.037 H 
ATOM     17  H   LIG d   1      12.217   3.990  -1.586  0.00  0.00     0.027 H 
ATOM     18  H   LIG d   1      10.526   4.221  -1.087  0.00  0.00     0.027 H 
ATOM     19  H   LIG d   1      12.862   6.019  -0.305  0.00  0.00     0.029 H 
ATOM     20  H   LIG d   1      12.094   4.801   0.745  0.00  0.00     0.029 H 
ATOM     21  H   LIG d   1      11.045   8.427  -3.219  0.00  0.00     0.032 H 
ATOM     22  H   LIG d   1       9.267   8.428  -3.107  0.00  0.00     0.032 H 
ENDROOT
BRANCH  15  23
ATOM     23  C   LIG d   1      11.838   3.921  -4.156  0.00  0.00     0.033 C 
ATOM     24  H   LIG d   1      12.177   4.240  -5.141  0.00  0.00     0.036 H 
ATOM     25  H   LIG d   1      12.673   3.952  -3.456  0.00  0.00     0.036 H 
BRANCH  23  26
ATOM     26  C   LIG d   1      11.305   2.514  -4.238  0.00  0.00     0.214 C 
ATOM     27  O   LIG d   1      11.794   1.639  -3.554  0.00  0.00    -0.276 OA
ATOM     28  N   LIG d   1      10.285   2.228  -5.071  0.00  0.00    -0.311 N 
ATOM     29  H   LIG d   1       9.894   2.927  -5.618  0.00  0.00     0.149 HD
BRANCH  28  30
ATOM     30  C   LIG d   1       9.766   0.860  -5.151  0.00  0.00     0.038 C 
ATOM     31  H   LIG d   1       9.653   0.575  -6.196  0.00  0.00     0.051 H 
ATOM     32  H   LIG d   1      10.463   0.178  -4.662  0.00  0.00     0.051 H 
BRANCH  30  33
ATOM     33  C   LIG d   1       8.428   0.789  -4.462  0.00  0.00    -0.012 A 
ATOM     34  C   LIG d   1       7.826   1.938  -3.984  0.00  0.00     0.032 A 
ATOM     35  N   LIG d   1       6.654   1.883  -3.381  0.00  0.00    -0.263 NA
ATOM     36  H   LIG d   1       8.320   2.890  -4.106  0.00  0.00     0.083 H 
ATOM     37  C   LIG d   1       6.014   0.744  -3.210  0.00  0.00     0.028 A 
ATOM     38  C   LIG d   1       6.554  -0.445  -3.663  0.00  0.00    -0.043 A 
ATOM     39  H   LIG d   1       5.056   0.740  -2.711  0.00  0.00     0.083 H 
ATOM     40  C   LIG d   1       7.782  -0.427  -4.306  0.00  0.00    -0.054 A 
ATOM     41  H   LIG d   1       6.024  -1.375  -3.519  0.00  0.00     0.063 H 
ATOM     42  H   LIG d   1       8.226  -1.341  -4.673  0.00  0.00     0.062 H 
ENDBRANCH  30  33
ENDBRANCH  28  30
ENDBRANCH  23  26
ENDBRANCH  15  23
BRANCH   1  43
ATOM     43  C   LIG d   1      12.573   6.354  -2.859  0.00  0.00    -0.059 C 
ATOM     44  H   LIG d   1      12.448   7.437  -2.857  0.00  0.00     0.024 H 
ATOM     45  H   LIG d   1      13.336   6.075  -2.133  0.00  0.00     0.024 H 
ATOM     46  H   LIG d   1      12.878   6.025  -3.853  0.00  0.00     0.024 H 
ENDBRANCH   1  43
BRANCH   6  47
ATOM     47  C   LIG d   1       9.614   8.535  -0.459  0.00  0.00    -0.055 C 
ATOM     48  H   LIG d   1       8.899   8.086   0.232  0.00  0.00     0.024 H 
ATOM     49  H   LIG d   1      10.097   9.386   0.021  0.00  0.00     0.024 H 
ATOM     50  H   LIG d   1       9.092   8.871  -1.354  0.00  0.00     0.024 H 
ENDBRANCH   6  47
BRANCH   6  51
ATOM     51  C   LIG d   1      11.998   8.210  -1.116  0.00  0.00     0.052 C 
ATOM     52  H   LIG d   1      12.824   7.537  -0.891  0.00  0.00     0.056 H 
ATOM     53  H   LIG d   1      12.042   8.506  -2.163  0.00  0.00     0.056 H 
BRANCH  51  54
ATOM     54  O   LIG d   1      12.092   9.372  -0.288  0.00  0.00    -0.394 OA
ATOM     55  H   LIG d   1      13.000   9.639  -0.089  0.00  0.00     0.209 HD
ENDBRANCH  51  54
ENDBRANCH   6  51
BRANCH  13  56
ATOM     56  C   LIG d   1       9.612   5.911  -8.473  0.00  0.00     0.014 A 
ATOM     57  C   LIG d   1       9.284   6.914  -9.347  0.00  0.00    -0.015 A 
ATOM     58  S   LIG d   1       9.169   6.032 -10.894  0.00  0.00    -0.104 SA
ATOM     59  H   LIG d   1       9.134   7.965  -9.151  0.00  0.00     0.070 H 
ATOM     60  C   LIG d   1       9.561   4.398 -10.291  0.00  0.00    -0.024 A 
ATOM     61  C   LIG d   1       9.752   4.617  -8.971  0.00  0.00    -0.045 A 
ATOM     62  H   LIG d   1       9.629   3.471 -10.841  0.00  0.00     0.069 H 
ATOM     63  H   LIG d   1      10.015   3.802  -8.314  0.00  0.00     0.063 H 
ENDBRANCH  13  56
BRANCH   4  64
ATOM     64  O   LIG d   1      11.260   7.217   1.484  0.00  0.00    -0.391 OA
ATOM     65  H   LIG d   1      10.531   7.627   1.969  0.00  0.00     0.210 HD
ENDBRANCH   4  64
TORSDOF 10
ENDMDL
