MODEL 1
REMARK VINA RESULT:      -3.8      0.000      0.000
REMARK  7 active torsions:
REMARK  status: ('A' for Active; 'I' for Inactive)
REMARK    1  A    between atoms: C_1  and  C_2 
REMARK    2  A    between atoms: C_2  and  C_4 
REMARK    3  A    between atoms: C_2  and  N_21 
REMARK    4  A    between atoms: C_4  and  C_5 
REMARK    5  A    between atoms: C_5  and  O_7 
REMARK    6  A    between atoms: O_7  and  C_8 
REMARK    7  A    between atoms: C_9  and  N_21 
ROOT
ATOM      1  C   LIG d   1       2.945  -0.726  -2.765  0.00  0.00    -0.015 C 
ATOM      2  H   LIG d   1       1.998  -0.823  -2.236  0.00  0.00     0.085 H 
ENDROOT
BRANCH   1   3
ATOM      3  C   LIG d   1       3.574   0.631  -2.439  0.00  0.00    -0.021 C 
ATOM      4  H   LIG d   1       3.080   1.409  -3.020  0.00  0.00     0.028 H 
ATOM      5  H   LIG d   1       3.456   0.841  -1.376  0.00  0.00     0.028 H 
ATOM      6  H   LIG d   1       4.635   0.608  -2.689  0.00  0.00     0.028 H 
ENDBRANCH   1   3
BRANCH   1   7
ATOM      7  C   LIG d   1       3.891  -1.845  -2.326  0.00  0.00     0.087 C 
ATOM      8  H   LIG d   1       4.631  -1.444  -1.633  0.00  0.00     0.043 H 
ATOM      9  H   LIG d   1       3.320  -2.631  -1.833  0.00  0.00     0.043 H 
BRANCH   7  10
ATOM     10  C   LIG d   1       4.591  -2.414  -3.533  0.00  0.00     0.312 C 
ATOM     11  O   LIG d   1       4.259  -3.490  -3.971  0.00  0.00    -0.251 OA
BRANCH  10  12
ATOM     12  O   LIG d   1       5.580  -1.725  -4.122  0.00  0.00    -0.468 OA
BRANCH  12  13
ATOM     13  C   LIG d   1       6.817  -1.580  -3.375  0.00  0.00     0.082 C 
ATOM     14  H   LIG d   1       6.953  -2.445  -2.725  0.00  0.00     0.066 H 
ATOM     15  H   LIG d   1       7.655  -1.510  -4.068  0.00  0.00     0.066 H 
ATOM     16  H   LIG d   1       6.771  -0.675  -2.768  0.00  0.00     0.066 H 
ENDBRANCH  12  13
ENDBRANCH  10  12
ENDBRANCH   7  10
ENDBRANCH   1   7
BRANCH   1  17
ATOM     17  N   LIG d   1       2.718  -0.826  -4.219  0.00  0.00     0.227 N 
ATOM     18  H   LIG d   1       1.883  -1.398  -4.393  0.00  0.00     0.201 HD
ATOM     19  H   LIG d   1       3.532  -1.268  -4.659  0.00  0.00     0.201 HD
BRANCH  17  20
ATOM     20  C   LIG d   1       2.518   0.515  -4.799  0.00  0.00    -0.045 C 
ATOM     21  H   LIG d   1       1.622   0.969  -4.374  0.00  0.00     0.078 H 
ATOM     22  H   LIG d   1       2.401   0.423  -5.879  0.00  0.00     0.078 H 
ATOM     23  H   LIG d   1       3.382   1.142  -4.580  0.00  0.00     0.078 H 
ENDBRANCH  17  20
ENDBRANCH   1  17
TORSDOF 7
ENDMDL
MODEL 2
REMARK VINA RESULT:      -3.6      2.487      2.911
REMARK  7 active torsions:
REMARK  status: ('A' for Active; 'I' for Inactive)
REMARK    1  A    between atoms: C_1  and  C_2 
REMARK    2  A    between atoms: C_2  and  C_4 
REMARK    3  A    between atoms: C_2  and  N_21 
REMARK    4  A    between atoms: C_4  and  C_5 
REMARK    5  A    between atoms: C_5  and  O_7 
REMARK    6  A    between atoms: O_7  and  C_8 
REMARK    7  A    between atoms: C_9  and  N_21 
ROOT
ATOM      1  C   LIG d   1       4.207  -0.857  -3.804  0.00  0.00    -0.015 C 
ATOM      2  H   LIG d   1       4.451  -1.637  -4.525  0.00  0.00     0.085 H 
ENDROOT
BRANCH   1   3
ATOM      3  C   LIG d   1       3.014  -1.303  -2.955  0.00  0.00    -0.021 C 
ATOM      4  H   LIG d   1       3.001  -0.740  -2.022  0.00  0.00     0.028 H 
ATOM      5  H   LIG d   1       2.089  -1.121  -3.502  0.00  0.00     0.028 H 
ATOM      6  H   LIG d   1       3.101  -2.367  -2.736  0.00  0.00     0.028 H 
ENDBRANCH   1   3
BRANCH   1   7
ATOM      7  C   LIG d   1       5.413  -0.607  -2.896  0.00  0.00     0.087 C 
ATOM      8  H   LIG d   1       5.318  -1.209  -1.992  0.00  0.00     0.043 H 
ATOM      9  H   LIG d   1       6.327  -0.882  -3.422  0.00  0.00     0.043 H 
BRANCH   7  10
ATOM     10  C   LIG d   1       5.467   0.852  -2.524  0.00  0.00     0.312 C 
ATOM     11  O   LIG d   1       4.842   1.257  -1.573  0.00  0.00    -0.251 OA
BRANCH  10  12
ATOM     12  O   LIG d   1       6.212   1.702  -3.249  0.00  0.00    -0.468 OA
BRANCH  12  13
ATOM     13  C   LIG d   1       7.445   1.181  -3.812  0.00  0.00     0.082 C 
ATOM     14  H   LIG d   1       8.227   1.938  -3.738  0.00  0.00     0.066 H 
ATOM     15  H   LIG d   1       7.749   0.291  -3.261  0.00  0.00     0.066 H 
ATOM     16  H   LIG d   1       7.287   0.925  -4.859  0.00  0.00     0.066 H 
ENDBRANCH  12  13
ENDBRANCH  10  12
ENDBRANCH   7  10
ENDBRANCH   1   7
BRANCH   1  17
ATOM     17  N   LIG d   1       3.867   0.390  -4.513  0.00  0.00     0.227 N 
ATOM     18  H   LIG d   1       4.380   0.426  -5.402  0.00  0.00     0.201 HD
ATOM     19  H   LIG d   1       4.134   1.193  -3.933  0.00  0.00     0.201 HD
BRANCH  17  20
ATOM     20  C   LIG d   1       2.418   0.446  -4.784  0.00  0.00    -0.045 C 
ATOM     21  H   LIG d   1       2.160   1.420  -5.201  0.00  0.00     0.078 H 
ATOM     22  H   LIG d   1       1.873   0.294  -3.852  0.00  0.00     0.078 H 
ATOM     23  H   LIG d   1       2.148  -0.335  -5.494  0.00  0.00     0.078 H 
ENDBRANCH  17  20
ENDBRANCH   1  17
TORSDOF 7
ENDMDL
MODEL 3
REMARK VINA RESULT:      -3.5      2.522      3.351
REMARK  7 active torsions:
REMARK  status: ('A' for Active; 'I' for Inactive)
REMARK    1  A    between atoms: C_1  and  C_2 
REMARK    2  A    between atoms: C_2  and  C_4 
REMARK    3  A    between atoms: C_2  and  N_21 
REMARK    4  A    between atoms: C_4  and  C_5 
REMARK    5  A    between atoms: C_5  and  O_7 
REMARK    6  A    between atoms: O_7  and  C_8 
REMARK    7  A    between atoms: C_9  and  N_21 
ROOT
ATOM      1  C   LIG d   1       3.536   0.433  -2.546  0.00  0.00    -0.015 C 
ATOM      2  H   LIG d   1       2.849   0.887  -1.833  0.00  0.00     0.085 H 
ENDROOT
BRANCH   1   3
ATOM      3  C   LIG d   1       4.360  -0.648  -1.842  0.00  0.00    -0.021 C 
ATOM      4  H   LIG d   1       4.550  -1.469  -2.534  0.00  0.00     0.028 H 
ATOM      5  H   LIG d   1       5.309  -0.225  -1.512  0.00  0.00     0.028 H 
ATOM      6  H   LIG d   1       3.809  -1.020  -0.979  0.00  0.00     0.028 H 
ENDBRANCH   1   3
BRANCH   1   7
ATOM      7  C   LIG d   1       2.740  -0.198  -3.691  0.00  0.00     0.087 C 
ATOM      8  H   LIG d   1       3.082  -1.221  -3.850  0.00  0.00     0.043 H 
ATOM      9  H   LIG d   1       1.681  -0.204  -3.436  0.00  0.00     0.043 H 
BRANCH   7  10
ATOM     10  C   LIG d   1       2.950   0.603  -4.949  0.00  0.00     0.312 C 
ATOM     11  O   LIG d   1       2.398   1.669  -5.085  0.00  0.00    -0.251 OA
BRANCH  10  12
ATOM     12  O   LIG d   1       3.750   0.133  -5.919  0.00  0.00    -0.468 OA
BRANCH  12  13
ATOM     13  C   LIG d   1       4.391  -1.148  -5.680  0.00  0.00     0.082 C 
ATOM     14  H   LIG d   1       5.018  -1.081  -4.790  0.00  0.00     0.066 H 
ATOM     15  H   LIG d   1       3.630  -1.914  -5.531  0.00  0.00     0.066 H 
ATOM     16  H   LIG d   1       5.009  -1.411  -6.539  0.00  0.00     0.066 H 
ENDBRANCH  12  13
ENDBRANCH  10  12
ENDBRANCH   7  10
ENDBRANCH   1   7
BRANCH   1  17
ATOM     17  N   LIG d   1       4.440   1.461  -3.094  0.00  0.00     0.227 N 
ATOM     18  H   LIG d   1       4.294   2.344  -2.590  0.00  0.00     0.201 HD
ATOM     19  H   LIG d   1       4.234   1.598  -4.090  0.00  0.00     0.201 HD
BRANCH  17  20
ATOM     20  C   LIG d   1       5.846   1.041  -2.942  0.00  0.00    -0.045 C 
ATOM     21  H   LIG d   1       6.032   0.750  -1.908  0.00  0.00     0.078 H 
ATOM     22  H   LIG d   1       6.499   1.872  -3.208  0.00  0.00     0.078 H 
ATOM     23  H   LIG d   1       6.049   0.195  -3.599  0.00  0.00     0.078 H 
ENDBRANCH  17  20
ENDBRANCH   1  17
TORSDOF 7
ENDMDL
MODEL 4
REMARK VINA RESULT:      -3.5      2.435      3.835
REMARK  7 active torsions:
REMARK  status: ('A' for Active; 'I' for Inactive)
REMARK    1  A    between atoms: C_1  and  C_2 
REMARK    2  A    between atoms: C_2  and  C_4 
REMARK    3  A    between atoms: C_2  and  N_21 
REMARK    4  A    between atoms: C_4  and  C_5 
REMARK    5  A    between atoms: C_5  and  O_7 
REMARK    6  A    between atoms: O_7  and  C_8 
REMARK    7  A    between atoms: C_9  and  N_21 
ROOT
ATOM      1  C   LIG d   1       4.768  -1.133  -2.246  0.00  0.00    -0.015 C 
ATOM      2  H   LIG d   1       5.440  -1.301  -1.405  0.00  0.00     0.085 H 
ENDROOT
BRANCH   1   3
ATOM      3  C   LIG d   1       3.825  -2.329  -2.394  0.00  0.00    -0.021 C 
ATOM      4  H   LIG d   1       3.865  -2.936  -1.489  0.00  0.00     0.028 H 
ATOM      5  H   LIG d   1       2.807  -1.973  -2.547  0.00  0.00     0.028 H 
ATOM      6  H   LIG d   1       4.132  -2.930  -3.249  0.00  0.00     0.028 H 
ENDBRANCH   1   3
BRANCH   1   7
ATOM      7  C   LIG d   1       3.948   0.135  -1.996  0.00  0.00     0.087 C 
ATOM      8  H   LIG d   1       2.889  -0.086  -2.128  0.00  0.00     0.043 H 
ATOM      9  H   LIG d   1       4.121   0.485  -0.979  0.00  0.00     0.043 H 
BRANCH   7  10
ATOM     10  C   LIG d   1       4.364   1.204  -2.973  0.00  0.00     0.312 C 
ATOM     11  O   LIG d   1       5.432   1.754  -2.847  0.00  0.00    -0.251 OA
BRANCH  10  12
ATOM     12  O   LIG d   1       3.549   1.543  -3.984  0.00  0.00    -0.468 OA
BRANCH  12  13
ATOM     13  C   LIG d   1       2.611   0.533  -4.441  0.00  0.00     0.082 C 
ATOM     14  H   LIG d   1       1.798   1.012  -4.987  0.00  0.00     0.066 H 
ATOM     15  H   LIG d   1       3.124  -0.171  -5.095  0.00  0.00     0.066 H 
ATOM     16  H   LIG d   1       2.204  -0.001  -3.581  0.00  0.00     0.066 H 
ENDBRANCH  12  13
ENDBRANCH  10  12
ENDBRANCH   7  10
ENDBRANCH   1   7
BRANCH   1  17
ATOM     17  N   LIG d   1       5.549  -0.966  -3.486  0.00  0.00     0.227 N 
ATOM     18  H   LIG d   1       5.735   0.032  -3.638  0.00  0.00     0.201 HD
ATOM     19  H   LIG d   1       5.013  -1.339  -4.277  0.00  0.00     0.201 HD
BRANCH  17  20
ATOM     20  C   LIG d   1       6.831  -1.689  -3.383  0.00  0.00    -0.045 C 
ATOM     21  H   LIG d   1       7.591  -1.029  -2.964  0.00  0.00     0.078 H 
ATOM     22  H   LIG d   1       7.140  -2.013  -4.377  0.00  0.00     0.078 H 
ATOM     23  H   LIG d   1       6.711  -2.559  -2.738  0.00  0.00     0.078 H 
ENDBRANCH  17  20
ENDBRANCH   1  17
TORSDOF 7
ENDMDL
MODEL 5
REMARK VINA RESULT:      -3.3      2.544      3.935
REMARK  7 active torsions:
REMARK  status: ('A' for Active; 'I' for Inactive)
REMARK    1  A    between atoms: C_1  and  C_2 
REMARK    2  A    between atoms: C_2  and  C_4 
REMARK    3  A    between atoms: C_2  and  N_21 
REMARK    4  A    between atoms: C_4  and  C_5 
REMARK    5  A    between atoms: C_5  and  O_7 
REMARK    6  A    between atoms: O_7  and  C_8 
REMARK    7  A    between atoms: C_9  and  N_21 
ROOT
ATOM      1  C   LIG d   1       3.497  -0.193  -3.939  0.00  0.00    -0.015 C 
ATOM      2  H   LIG d   1       4.503  -0.027  -4.323  0.00  0.00     0.085 H 
ENDROOT
BRANCH   1   3
ATOM      3  C   LIG d   1       3.346   0.503  -2.584  0.00  0.00    -0.021 C 
ATOM      4  H   LIG d   1       3.671  -0.172  -1.791  0.00  0.00     0.028 H 
ATOM      5  H   LIG d   1       3.960   1.403  -2.567  0.00  0.00     0.028 H 
ATOM      6  H   LIG d   1       2.302   0.772  -2.428  0.00  0.00     0.028 H 
ENDBRANCH   1   3
BRANCH   1   7
ATOM      7  C   LIG d   1       2.475   0.382  -4.923  0.00  0.00     0.087 C 
ATOM      8  H   LIG d   1       1.559  -0.207  -4.881  0.00  0.00     0.043 H 
ATOM      9  H   LIG d   1       2.255   1.415  -4.655  0.00  0.00     0.043 H 
BRANCH   7  10
ATOM     10  C   LIG d   1       3.040   0.334  -6.319  0.00  0.00     0.312 C 
ATOM     11  O   LIG d   1       3.576  -0.672  -6.719  0.00  0.00    -0.251 OA
BRANCH  10  12
ATOM     12  O   LIG d   1       2.947   1.408  -7.117  0.00  0.00    -0.468 OA
BRANCH  12  13
ATOM     13  C   LIG d   1       2.964   1.168  -8.549  0.00  0.00     0.082 C 
ATOM     14  H   LIG d   1       1.994   1.431  -8.974  0.00  0.00     0.066 H 
ATOM     15  H   LIG d   1       3.741   1.777  -9.011  0.00  0.00     0.066 H 
ATOM     16  H   LIG d   1       3.168   0.114  -8.738  0.00  0.00     0.066 H 
ENDBRANCH  12  13
ENDBRANCH  10  12
ENDBRANCH   7  10
ENDBRANCH   1   7
BRANCH   1  17
ATOM     17  N   LIG d   1       3.254  -1.639  -3.779  0.00  0.00     0.227 N 
ATOM     18  H   LIG d   1       3.683  -2.143  -4.564  0.00  0.00     0.201 HD
ATOM     19  H   LIG d   1       2.243  -1.814  -3.771  0.00  0.00     0.201 HD
BRANCH  17  20
ATOM     20  C   LIG d   1       3.842  -2.119  -2.514  0.00  0.00    -0.045 C 
ATOM     21  H   LIG d   1       3.577  -1.438  -1.705  0.00  0.00     0.078 H 
ATOM     22  H   LIG d   1       4.927  -2.157  -2.615  0.00  0.00     0.078 H 
ATOM     23  H   LIG d   1       3.463  -3.116  -2.289  0.00  0.00     0.078 H 
ENDBRANCH  17  20
ENDBRANCH   1  17
TORSDOF 7
ENDMDL
MODEL 6
REMARK VINA RESULT:      -3.0      1.946      2.662
REMARK  7 active torsions:
REMARK  status: ('A' for Active; 'I' for Inactive)
REMARK    1  A    between atoms: C_1  and  C_2 
REMARK    2  A    between atoms: C_2  and  C_4 
REMARK    3  A    between atoms: C_2  and  N_21 
REMARK    4  A    between atoms: C_4  and  C_5 
REMARK    5  A    between atoms: C_5  and  O_7 
REMARK    6  A    between atoms: O_7  and  C_8 
REMARK    7  A    between atoms: C_9  and  N_21 
ROOT
ATOM      1  C   LIG d   1       3.545   0.010  -4.107  0.00  0.00    -0.015 C 
ATOM      2  H   LIG d   1       2.846   0.456  -4.814  0.00  0.00     0.085 H 
ENDROOT
BRANCH   1   3
ATOM      3  C   LIG d   1       2.766  -0.748  -3.029  0.00  0.00    -0.021 C 
ATOM      4  H   LIG d   1       1.923  -1.266  -3.487  0.00  0.00     0.028 H 
ATOM      5  H   LIG d   1       3.422  -1.474  -2.549  0.00  0.00     0.028 H 
ATOM      6  H   LIG d   1       2.399  -0.043  -2.283  0.00  0.00     0.028 H 
ENDBRANCH   1   3
BRANCH   1   7
ATOM      7  C   LIG d   1       4.468  -0.961  -4.847  0.00  0.00     0.087 C 
ATOM      8  H   LIG d   1       4.554  -1.886  -4.276  0.00  0.00     0.043 H 
ATOM      9  H   LIG d   1       4.053  -1.179  -5.830  0.00  0.00     0.043 H 
BRANCH   7  10
ATOM     10  C   LIG d   1       5.831  -0.338  -5.003  0.00  0.00     0.312 C 
ATOM     11  O   LIG d   1       6.067   0.363  -5.958  0.00  0.00    -0.251 OA
BRANCH  10  12
ATOM     12  O   LIG d   1       6.781  -0.561  -4.082  0.00  0.00    -0.468 OA
BRANCH  12  13
ATOM     13  C   LIG d   1       6.715  -1.820  -3.361  0.00  0.00     0.082 C 
ATOM     14  H   LIG d   1       5.868  -1.803  -2.675  0.00  0.00     0.066 H 
ATOM     15  H   LIG d   1       6.594  -2.639  -4.069  0.00  0.00     0.066 H 
ATOM     16  H   LIG d   1       7.636  -1.962  -2.795  0.00  0.00     0.066 H 
ENDBRANCH  12  13
ENDBRANCH  10  12
ENDBRANCH   7  10
ENDBRANCH   1   7
BRANCH   1  17
ATOM     17  N   LIG d   1       4.359   1.065  -3.475  0.00  0.00     0.227 N 
ATOM     18  H   LIG d   1       4.043   1.983  -3.811  0.00  0.00     0.201 HD
ATOM     19  H   LIG d   1       5.344   0.930  -3.727  0.00  0.00     0.201 HD
BRANCH  17  20
ATOM     20  C   LIG d   1       4.219   1.009  -2.008  0.00  0.00    -0.045 C 
ATOM     21  H   LIG d   1       4.830   0.197  -1.612  0.00  0.00     0.078 H 
ATOM     22  H   LIG d   1       3.173   0.834  -1.755  0.00  0.00     0.078 H 
ATOM     23  H   LIG d   1       4.545   1.954  -1.573  0.00  0.00     0.078 H 
ENDBRANCH  17  20
ENDBRANCH   1  17
TORSDOF 7
ENDMDL
MODEL 7
REMARK VINA RESULT:      -3.0      1.446      2.399
REMARK  7 active torsions:
REMARK  status: ('A' for Active; 'I' for Inactive)
REMARK    1  A    between atoms: C_1  and  C_2 
REMARK    2  A    between atoms: C_2  and  C_4 
REMARK    3  A    between atoms: C_2  and  N_21 
REMARK    4  A    between atoms: C_4  and  C_5 
REMARK    5  A    between atoms: C_5  and  O_7 
REMARK    6  A    between atoms: O_7  and  C_8 
REMARK    7  A    between atoms: C_9  and  N_21 
ROOT
ATOM      1  C   LIG d   1       3.590   0.227  -3.877  0.00  0.00    -0.015 C 
ATOM      2  H   LIG d   1       4.473   0.035  -4.485  0.00  0.00     0.085 H 
ENDROOT
BRANCH   1   3
ATOM      3  C   LIG d   1       2.362   0.342  -4.783  0.00  0.00    -0.021 C 
ATOM      4  H   LIG d   1       2.106   1.393  -4.916  0.00  0.00     0.028 H 
ATOM      5  H   LIG d   1       2.582  -0.104  -5.753  0.00  0.00     0.028 H 
ATOM      6  H   LIG d   1       1.523  -0.182  -4.325  0.00  0.00     0.028 H 
ENDBRANCH   1   3
BRANCH   1   7
ATOM      7  C   LIG d   1       3.390  -0.927  -2.891  0.00  0.00     0.087 C 
ATOM      8  H   LIG d   1       3.515  -0.560  -1.873  0.00  0.00     0.043 H 
ATOM      9  H   LIG d   1       2.387  -1.336  -3.010  0.00  0.00     0.043 H 
BRANCH   7  10
ATOM     10  C   LIG d   1       4.407  -2.004  -3.166  0.00  0.00     0.312 C 
ATOM     11  O   LIG d   1       5.534  -1.891  -2.746  0.00  0.00    -0.251 OA
BRANCH  10  12
ATOM     12  O   LIG d   1       4.061  -3.089  -3.875  0.00  0.00    -0.468 OA
BRANCH  12  13
ATOM     13  C   LIG d   1       4.833  -3.367  -5.073  0.00  0.00     0.082 C 
ATOM     14  H   LIG d   1       5.831  -2.940  -4.970  0.00  0.00     0.066 H 
ATOM     15  H   LIG d   1       4.911  -4.445  -5.213  0.00  0.00     0.066 H 
ATOM     16  H   LIG d   1       4.337  -2.924  -5.936  0.00  0.00     0.066 H 
ENDBRANCH  12  13
ENDBRANCH  10  12
ENDBRANCH   7  10
ENDBRANCH   1   7
BRANCH   1  17
ATOM     17  N   LIG d   1       3.765   1.482  -3.124  0.00  0.00     0.227 N 
ATOM     18  H   LIG d   1       2.847   1.919  -2.974  0.00  0.00     0.201 HD
ATOM     19  H   LIG d   1       4.362   2.120  -3.661  0.00  0.00     0.201 HD
BRANCH  17  20
ATOM     20  C   LIG d   1       4.394   1.212  -1.817  0.00  0.00    -0.045 C 
ATOM     21  H   LIG d   1       4.956   0.279  -1.867  0.00  0.00     0.078 H 
ATOM     22  H   LIG d   1       3.617   1.127  -1.057  0.00  0.00     0.078 H 
ATOM     23  H   LIG d   1       5.068   2.028  -1.558  0.00  0.00     0.078 H 
ENDBRANCH  17  20
ENDBRANCH   1  17
TORSDOF 7
ENDMDL
MODEL 8
REMARK VINA RESULT:      -3.0      1.914      3.125
REMARK  7 active torsions:
REMARK  status: ('A' for Active; 'I' for Inactive)
REMARK    1  A    between atoms: C_1  and  C_2 
REMARK    2  A    between atoms: C_2  and  C_4 
REMARK    3  A    between atoms: C_2  and  N_21 
REMARK    4  A    between atoms: C_4  and  C_5 
REMARK    5  A    between atoms: C_5  and  O_7 
REMARK    6  A    between atoms: O_7  and  C_8 
REMARK    7  A    between atoms: C_9  and  N_21 
ROOT
ATOM      1  C   LIG d   1       4.481  -1.590  -4.895  0.00  0.00    -0.015 C 
ATOM      2  H   LIG d   1       4.375  -1.091  -5.858  0.00  0.00     0.085 H 
ENDROOT
BRANCH   1   3
ATOM      3  C   LIG d   1       5.941  -1.517  -4.441  0.00  0.00    -0.021 C 
ATOM      4  H   LIG d   1       6.087  -2.168  -3.580  0.00  0.00     0.028 H 
ATOM      5  H   LIG d   1       6.591  -1.839  -5.254  0.00  0.00     0.028 H 
ATOM      6  H   LIG d   1       6.185  -0.491  -4.167  0.00  0.00     0.028 H 
ENDBRANCH   1   3
BRANCH   1   7
ATOM      7  C   LIG d   1       3.591  -0.896  -3.861  0.00  0.00     0.087 C 
ATOM      8  H   LIG d   1       3.819   0.170  -3.843  0.00  0.00     0.043 H 
ATOM      9  H   LIG d   1       2.545  -1.039  -4.128  0.00  0.00     0.043 H 
BRANCH   7  10
ATOM     10  C   LIG d   1       3.848  -1.488  -2.499  0.00  0.00     0.312 C 
ATOM     11  O   LIG d   1       3.564  -2.641  -2.280  0.00  0.00    -0.251 OA
BRANCH  10  12
ATOM     12  O   LIG d   1       4.393  -0.734  -1.532  0.00  0.00    -0.468 OA
BRANCH  12  13
ATOM     13  C   LIG d   1       4.512   0.689  -1.794  0.00  0.00     0.082 C 
ATOM     14  H   LIG d   1       5.285   0.858  -2.544  0.00  0.00     0.066 H 
ATOM     15  H   LIG d   1       3.560   1.072  -2.160  0.00  0.00     0.066 H 
ATOM     16  H   LIG d   1       4.782   1.207  -0.873  0.00  0.00     0.066 H 
ENDBRANCH  12  13
ENDBRANCH  10  12
ENDBRANCH   7  10
ENDBRANCH   1   7
BRANCH   1  17
ATOM     17  N   LIG d   1       4.073  -3.002  -5.015  0.00  0.00     0.227 N 
ATOM     18  H   LIG d   1       3.501  -3.119  -5.860  0.00  0.00     0.201 HD
ATOM     19  H   LIG d   1       3.523  -3.267  -4.191  0.00  0.00     0.201 HD
BRANCH  17  20
ATOM     20  C   LIG d   1       5.261  -3.871  -5.108  0.00  0.00    -0.045 C 
ATOM     21  H   LIG d   1       5.697  -4.003  -4.118  0.00  0.00     0.078 H 
ATOM     22  H   LIG d   1       5.994  -3.406  -5.768  0.00  0.00     0.078 H 
ATOM     23  H   LIG d   1       4.974  -4.842  -5.511  0.00  0.00     0.078 H 
ENDBRANCH  17  20
ENDBRANCH   1  17
TORSDOF 7
ENDMDL
MODEL 9
REMARK VINA RESULT:      -2.9      1.621      2.219
REMARK  7 active torsions:
REMARK  status: ('A' for Active; 'I' for Inactive)
REMARK    1  A    between atoms: C_1  and  C_2 
REMARK    2  A    between atoms: C_2  and  C_4 
REMARK    3  A    between atoms: C_2  and  N_21 
REMARK    4  A    between atoms: C_4  and  C_5 
REMARK    5  A    between atoms: C_5  and  O_7 
REMARK    6  A    between atoms: O_7  and  C_8 
REMARK    7  A    between atoms: C_9  and  N_21 
ROOT
ATOM      1  C   LIG d   1       4.811  -0.725  -2.295  0.00  0.00    -0.015 C 
ATOM      2  H   LIG d   1       4.971  -1.327  -1.401  0.00  0.00     0.085 H 
ENDROOT
BRANCH   1   3
ATOM      3  C   LIG d   1       4.303   0.661  -1.892  0.00  0.00    -0.021 C 
ATOM      4  H   LIG d   1       3.356   0.861  -2.394  0.00  0.00     0.028 H 
ATOM      5  H   LIG d   1       4.155   0.695  -0.812  0.00  0.00     0.028 H 
ATOM      6  H   LIG d   1       5.035   1.415  -2.181  0.00  0.00     0.028 H 
ENDBRANCH   1   3
BRANCH   1   7
ATOM      7  C   LIG d   1       6.132  -0.582  -3.055  0.00  0.00     0.087 C 
ATOM      8  H   LIG d   1       6.542   0.414  -2.885  0.00  0.00     0.043 H 
ATOM      9  H   LIG d   1       6.838  -1.331  -2.701  0.00  0.00     0.043 H 
BRANCH   7  10
ATOM     10  C   LIG d   1       5.887  -0.779  -4.529  0.00  0.00     0.312 C 
ATOM     11  O   LIG d   1       5.562   0.158  -5.218  0.00  0.00    -0.251 OA
BRANCH  10  12
ATOM     12  O   LIG d   1       6.030  -1.997  -5.075  0.00  0.00    -0.468 OA
BRANCH  12  13
ATOM     13  C   LIG d   1       7.014  -2.878  -4.472  0.00  0.00     0.082 C 
ATOM     14  H   LIG d   1       7.924  -2.315  -4.259  0.00  0.00     0.066 H 
ATOM     15  H   LIG d   1       6.615  -3.288  -3.545  0.00  0.00     0.066 H 
ATOM     16  H   LIG d   1       7.244  -3.691  -5.160  0.00  0.00     0.066 H 
ENDBRANCH  12  13
ENDBRANCH  10  12
ENDBRANCH   7  10
ENDBRANCH   1   7
BRANCH   1  17
ATOM     17  N   LIG d   1       3.818  -1.378  -3.168  0.00  0.00     0.227 N 
ATOM     18  H   LIG d   1       3.646  -2.333  -2.830  0.00  0.00     0.201 HD
ATOM     19  H   LIG d   1       4.182  -1.416  -4.126  0.00  0.00     0.201 HD
BRANCH  17  20
ATOM     20  C   LIG d   1       2.552  -0.623  -3.156  0.00  0.00    -0.045 C 
ATOM     21  H   LIG d   1       2.312  -0.324  -2.136  0.00  0.00     0.078 H 
ATOM     22  H   LIG d   1       1.754  -1.257  -3.545  0.00  0.00     0.078 H 
ATOM     23  H   LIG d   1       2.648   0.264  -3.782  0.00  0.00     0.078 H 
ENDBRANCH  17  20
ENDBRANCH   1  17
TORSDOF 7
ENDMDL
MODEL 10
REMARK VINA RESULT:      -2.9      2.097      3.036
REMARK  7 active torsions:
REMARK  status: ('A' for Active; 'I' for Inactive)
REMARK    1  A    between atoms: C_1  and  C_2 
REMARK    2  A    between atoms: C_2  and  C_4 
REMARK    3  A    between atoms: C_2  and  N_21 
REMARK    4  A    between atoms: C_4  and  C_5 
REMARK    5  A    between atoms: C_5  and  O_7 
REMARK    6  A    between atoms: O_7  and  C_8 
REMARK    7  A    between atoms: C_9  and  N_21 
ROOT
ATOM      1  C   LIG d   1       3.524  -0.792  -3.637  0.00  0.00    -0.015 C 
ATOM      2  H   LIG d   1       2.469  -1.036  -3.759  0.00  0.00     0.085 H 
ENDROOT
BRANCH   1   3
ATOM      3  C   LIG d   1       4.000  -1.261  -2.260  0.00  0.00    -0.021 C 
ATOM      4  H   LIG d   1       4.329  -0.400  -1.677  0.00  0.00     0.028 H 
ATOM      5  H   LIG d   1       3.180  -1.758  -1.741  0.00  0.00     0.028 H 
ATOM      6  H   LIG d   1       4.829  -1.957  -2.380  0.00  0.00     0.028 H 
ENDBRANCH   1   3
BRANCH   1   7
ATOM      7  C   LIG d   1       4.339  -1.497  -4.724  0.00  0.00     0.087 C 
ATOM      8  H   LIG d   1       5.007  -2.224  -4.263  0.00  0.00     0.043 H 
ATOM      9  H   LIG d   1       3.664  -2.007  -5.410  0.00  0.00     0.043 H 
BRANCH   7  10
ATOM     10  C   LIG d   1       5.150  -0.479  -5.482  0.00  0.00     0.312 C 
ATOM     11  O   LIG d   1       6.278  -0.224  -5.132  0.00  0.00    -0.251 OA
BRANCH  10  12
ATOM     12  O   LIG d   1       4.621   0.144  -6.547  0.00  0.00    -0.468 OA
BRANCH  12  13
ATOM     13  C   LIG d   1       3.719  -0.631  -7.381  0.00  0.00     0.082 C 
ATOM     14  H   LIG d   1       3.480  -0.064  -8.282  0.00  0.00     0.066 H 
ATOM     15  H   LIG d   1       4.196  -1.570  -7.658  0.00  0.00     0.066 H 
ATOM     16  H   LIG d   1       2.802  -0.838  -6.829  0.00  0.00     0.066 H 
ENDBRANCH  12  13
ENDBRANCH  10  12
ENDBRANCH   7  10
ENDBRANCH   1   7
BRANCH   1  17
ATOM     17  N   LIG d   1       3.718   0.665  -3.754  0.00  0.00     0.227 N 
ATOM     18  H   LIG d   1       2.946   1.066  -4.301  0.00  0.00     0.201 HD
ATOM     19  H   LIG d   1       4.607   0.852  -4.231  0.00  0.00     0.201 HD
BRANCH  17  20
ATOM     20  C   LIG d   1       3.741   1.288  -2.418  0.00  0.00    -0.045 C 
ATOM     21  H   LIG d   1       2.951   0.860  -1.800  0.00  0.00     0.078 H 
ATOM     22  H   LIG d   1       3.581   2.361  -2.520  0.00  0.00     0.078 H 
ATOM     23  H   LIG d   1       4.708   1.108  -1.947  0.00  0.00     0.078 H 
ENDBRANCH  17  20
ENDBRANCH   1  17
TORSDOF 7
ENDMDL
