MODEL 1
REMARK VINA RESULT:      -6.3      0.000      0.000
REMARK  9 active torsions:
REMARK  status: ('A' for Active; 'I' for Inactive)
REMARK    1  A    between atoms: C_1  and  N_2 
REMARK    2  A    between atoms: N_5  and  C_8 
REMARK    3  A    between atoms: C_10  and  C_20 
REMARK    4  A    between atoms: C_13  and  C_18 
REMARK    5  A    between atoms: C_15  and  O_17 
REMARK    6  A    between atoms: C_18  and  O_19 
REMARK    7  A    between atoms: C_20  and  N_21 
REMARK    8  A    between atoms: N_21  and  C_22 
REMARK    9  A    between atoms: C_22  and  C_23 
ROOT
ATOM      1  C   LIG d   1       3.087   0.974  -9.785  0.00  0.00     0.070 C 
ATOM      2  H   LIG d   1       2.223   1.472 -10.248  0.00  0.00     0.052 H 
ATOM      3  C   LIG d   1       3.152   1.127  -8.249  0.00  0.00     0.117 C 
ATOM      4  H   LIG d   1       2.703   2.058  -7.872  0.00  0.00     0.067 H 
ATOM      5  O   LIG d   1       4.563   1.122  -7.938  0.00  0.00    -0.362 OA
ATOM      6  C   LIG d   1       5.184   1.911  -8.976  0.00  0.00     0.110 C 
ATOM      7  H   LIG d   1       5.087   2.977  -8.724  0.00  0.00     0.065 H 
ATOM      8  C   LIG d   1       4.455   1.501 -10.274  0.00  0.00     0.102 C 
ATOM      9  H   LIG d   1       4.397   2.292 -11.037  0.00  0.00     0.064 H 
ENDROOT
BRANCH   3  10
ATOM     10  C   LIG d   1       2.451  -0.049  -7.567  0.00  0.00    -0.005 C 
ATOM     11  H   LIG d   1       1.398   0.209  -7.381  0.00  0.00     0.084 H 
ATOM     12  H   LIG d   1       2.502  -0.935  -8.218  0.00  0.00     0.084 H 
BRANCH  10  13
ATOM     13  N   LIG d   1       3.117  -0.341  -6.290  0.00  0.00     0.233 N 
ATOM     14  H   LIG d   1       3.082  -1.424  -6.098  0.00  0.00     0.202 HD
ATOM     15  H   LIG d   1       4.164  -0.010  -6.339  0.00  0.00     0.202 HD
BRANCH  13  16
ATOM     16  C   LIG d   1       2.454   0.356  -5.179  0.00  0.00     0.010 C 
ATOM     17  H   LIG d   1       2.475   1.440  -5.363  0.00  0.00     0.088 H 
ATOM     18  H   LIG d   1       1.411   0.016  -5.104  0.00  0.00     0.088 H 
BRANCH  16  19
ATOM     19  C   LIG d   1       3.176   0.050  -3.893  0.00  0.00     0.086 A 
ATOM     20  N   LIG d   1       3.337  -1.204  -3.517  0.00  0.00    -0.255 NA
ATOM     21  C   LIG d   1       3.962  -1.519  -2.400  0.00  0.00     0.028 A 
ATOM     22  C   LIG d   1       4.474  -0.535  -1.575  0.00  0.00    -0.044 A 
ATOM     23  H   LIG d   1       4.074  -2.558  -2.126  0.00  0.00     0.083 H 
ATOM     24  C   LIG d   1       4.325   0.794  -1.937  0.00  0.00    -0.058 A 
ATOM     25  H   LIG d   1       4.987  -0.800  -0.661  0.00  0.00     0.063 H 
ATOM     26  C   LIG d   1       3.667   1.087  -3.121  0.00  0.00    -0.035 A 
ATOM     27  H   LIG d   1       4.715   1.585  -1.313  0.00  0.00     0.062 H 
ATOM     28  H   LIG d   1       3.536   2.112  -3.436  0.00  0.00     0.064 H 
ENDBRANCH  16  19
ENDBRANCH  13  16
ENDBRANCH  10  13
ENDBRANCH   3  10
BRANCH   1  29
ATOM     29  N   LIG d   1       2.918  -0.438 -10.155  0.00  0.00    -0.292 N 
ATOM     30  C   LIG d   1       1.559  -0.905  -9.849  0.00  0.00     0.012 C 
ATOM     31  C   LIG d   1       1.448  -2.396 -10.174  0.00  0.00     0.011 C 
ATOM     32  H   LIG d   1       0.832  -0.343 -10.454  0.00  0.00     0.044 H 
ATOM     33  H   LIG d   1       1.347  -0.746  -8.781  0.00  0.00     0.044 H 
ATOM     34  N   LIG d   1       1.768  -2.610 -11.592  0.00  0.00    -0.303 N 
ATOM     35  H   LIG d   1       0.424  -2.742  -9.973  0.00  0.00     0.044 H 
ATOM     36  H   LIG d   1       2.154  -2.962  -9.549  0.00  0.00     0.044 H 
ATOM     37  C   LIG d   1       3.128  -2.144 -11.899  0.00  0.00     0.011 C 
ATOM     38  C   LIG d   1       3.238  -0.653 -11.574  0.00  0.00     0.012 C 
ATOM     39  H   LIG d   1       3.853  -2.707 -11.293  0.00  0.00     0.044 H 
ATOM     40  H   LIG d   1       3.339  -2.304 -12.967  0.00  0.00     0.044 H 
ATOM     41  H   LIG d   1       2.531  -0.087 -12.199  0.00  0.00     0.044 H 
ATOM     42  H   LIG d   1       4.263  -0.307 -11.774  0.00  0.00     0.044 H 
BRANCH  34  43
ATOM     43  C   LIG d   1       1.600  -4.022 -11.962  0.00  0.00    -0.013 C 
ATOM     44  H   LIG d   1       1.658  -4.647 -11.058  0.00  0.00     0.039 H 
ATOM     45  H   LIG d   1       2.397  -4.315 -12.662  0.00  0.00     0.039 H 
ATOM     46  H   LIG d   1       0.621  -4.161 -12.443  0.00  0.00     0.039 H 
ENDBRANCH  34  43
ENDBRANCH   1  29
BRANCH   8  47
ATOM     47  O   LIG d   1       5.175   0.471 -10.953  0.00  0.00    -0.388 OA
ATOM     48  H   LIG d   1       4.703  -0.073 -11.785  0.00  0.00     0.210 HD
ENDBRANCH   8  47
BRANCH   6  49
ATOM     49  C   LIG d   1       6.675   1.582  -9.076  0.00  0.00     0.073 C 
ATOM     50  H   LIG d   1       7.013   1.120  -8.137  0.00  0.00     0.058 H 
ATOM     51  H   LIG d   1       6.841   0.884  -9.910  0.00  0.00     0.058 H 
BRANCH  49  52
ATOM     52  O   LIG d   1       7.413   2.784  -9.308  0.00  0.00    -0.392 OA
ATOM     53  H   LIG d   1       8.512   2.774  -9.252  0.00  0.00     0.209 HD
ENDBRANCH  49  52
ENDBRANCH   6  49
TORSDOF 9
ENDMDL
MODEL 2
REMARK VINA RESULT:      -6.2      2.480      3.219
REMARK  9 active torsions:
REMARK  status: ('A' for Active; 'I' for Inactive)
REMARK    1  A    between atoms: C_1  and  N_2 
REMARK    2  A    between atoms: N_5  and  C_8 
REMARK    3  A    between atoms: C_10  and  C_20 
REMARK    4  A    between atoms: C_13  and  C_18 
REMARK    5  A    between atoms: C_15  and  O_17 
REMARK    6  A    between atoms: C_18  and  O_19 
REMARK    7  A    between atoms: C_20  and  N_21 
REMARK    8  A    between atoms: N_21  and  C_22 
REMARK    9  A    between atoms: C_22  and  C_23 
ROOT
ATOM      1  C   LIG d   1       4.945  -1.068  -8.580  0.00  0.00     0.070 C 
ATOM      2  H   LIG d   1       5.662  -0.397  -9.074  0.00  0.00     0.052 H 
ATOM      3  C   LIG d   1       4.620  -0.678  -7.122  0.00  0.00     0.117 C 
ATOM      4  H   LIG d   1       5.442  -0.165  -6.601  0.00  0.00     0.067 H 
ATOM      5  O   LIG d   1       4.348  -1.931  -6.456  0.00  0.00    -0.362 OA
ATOM      6  C   LIG d   1       5.330  -2.857  -6.972  0.00  0.00     0.110 C 
ATOM      7  H   LIG d   1       6.274  -2.720  -6.425  0.00  0.00     0.065 H 
ATOM      8  C   LIG d   1       5.423  -2.535  -8.480  0.00  0.00     0.102 C 
ATOM      9  H   LIG d   1       6.407  -2.730  -8.931  0.00  0.00     0.064 H 
ENDROOT
BRANCH   3  10
ATOM     10  C   LIG d   1       3.389   0.229  -7.075  0.00  0.00    -0.005 C 
ATOM     11  H   LIG d   1       3.702   1.261  -6.856  0.00  0.00     0.084 H 
ATOM     12  H   LIG d   1       2.875   0.200  -8.047  0.00  0.00     0.084 H 
BRANCH  10  13
ATOM     13  N   LIG d   1       2.476  -0.240  -6.024  0.00  0.00     0.233 N 
ATOM     14  H   LIG d   1       1.468  -0.372  -6.446  0.00  0.00     0.202 HD
ATOM     15  H   LIG d   1       2.836  -1.200  -5.627  0.00  0.00     0.202 HD
BRANCH  13  16
ATOM     16  C   LIG d   1       2.401   0.727  -4.921  0.00  0.00     0.010 C 
ATOM     17  H   LIG d   1       2.845   1.681  -5.239  0.00  0.00     0.088 H 
ATOM     18  H   LIG d   1       1.348   0.887  -4.645  0.00  0.00     0.088 H 
BRANCH  16  19
ATOM     19  C   LIG d   1       3.157   0.193  -3.732  0.00  0.00     0.086 A 
ATOM     20  N   LIG d   1       3.170  -1.105  -3.498  0.00  0.00    -0.255 NA
ATOM     21  C   LIG d   1       3.817  -1.617  -2.470  0.00  0.00     0.028 A 
ATOM     22  C   LIG d   1       4.510  -0.803  -1.594  0.00  0.00    -0.044 A 
ATOM     23  H   LIG d   1       3.805  -2.686  -2.310  0.00  0.00     0.083 H 
ATOM     24  C   LIG d   1       4.519   0.566  -1.808  0.00  0.00    -0.058 A 
ATOM     25  H   LIG d   1       5.040  -1.230  -0.754  0.00  0.00     0.063 H 
ATOM     26  C   LIG d   1       3.832   1.068  -2.902  0.00  0.00    -0.035 A 
ATOM     27  H   LIG d   1       5.053   1.227  -1.140  0.00  0.00     0.062 H 
ATOM     28  H   LIG d   1       3.820   2.130  -3.102  0.00  0.00     0.064 H 
ENDBRANCH  16  19
ENDBRANCH  13  16
ENDBRANCH  10  13
ENDBRANCH   3  10
BRANCH   1  29
ATOM     29  N   LIG d   1       3.742  -0.975  -9.418  0.00  0.00    -0.292 N 
ATOM     30  C   LIG d   1       4.097  -0.836 -10.837  0.00  0.00     0.012 C 
ATOM     31  C   LIG d   1       2.822  -0.663 -11.666  0.00  0.00     0.011 C 
ATOM     32  H   LIG d   1       4.633  -1.736 -11.172  0.00  0.00     0.044 H 
ATOM     33  H   LIG d   1       4.743   0.045 -10.970  0.00  0.00     0.044 H 
ATOM     34  N   LIG d   1       1.946  -1.823 -11.457  0.00  0.00    -0.303 N 
ATOM     35  H   LIG d   1       3.083  -0.587 -12.731  0.00  0.00     0.044 H 
ATOM     36  H   LIG d   1       2.301   0.253 -11.351  0.00  0.00     0.044 H 
ATOM     37  C   LIG d   1       1.589  -1.963 -10.038  0.00  0.00     0.011 C 
ATOM     38  C   LIG d   1       2.864  -2.136  -9.210  0.00  0.00     0.012 C 
ATOM     39  H   LIG d   1       1.054  -1.062  -9.705  0.00  0.00     0.044 H 
ATOM     40  H   LIG d   1       0.943  -2.844  -9.907  0.00  0.00     0.044 H 
ATOM     41  H   LIG d   1       3.387  -3.052  -9.526  0.00  0.00     0.044 H 
ATOM     42  H   LIG d   1       2.604  -2.211  -8.144  0.00  0.00     0.044 H 
BRANCH  34  43
ATOM     43  C   LIG d   1       0.742  -1.731 -12.295  0.00  0.00    -0.013 C 
ATOM     44  H   LIG d   1       1.031  -1.758 -13.356  0.00  0.00     0.039 H 
ATOM     45  H   LIG d   1       0.219  -0.786 -12.081  0.00  0.00     0.039 H 
ATOM     46  H   LIG d   1       0.076  -2.577 -12.075  0.00  0.00     0.039 H 
ENDBRANCH  34  43
ENDBRANCH   1  29
BRANCH   8  47
ATOM     47  O   LIG d   1       4.564  -3.394  -9.232  0.00  0.00    -0.388 OA
ATOM     48  H   LIG d   1       3.767  -2.963  -9.856  0.00  0.00     0.210 HD
ENDBRANCH   8  47
BRANCH   6  49
ATOM     49  C   LIG d   1       4.866  -4.299  -6.763  0.00  0.00     0.073 C 
ATOM     50  H   LIG d   1       5.104  -4.895  -7.656  0.00  0.00     0.058 H 
ATOM     51  H   LIG d   1       5.380  -4.727  -5.889  0.00  0.00     0.058 H 
BRANCH  49  52
ATOM     52  O   LIG d   1       3.455  -4.318  -6.541  0.00  0.00    -0.392 OA
ATOM     53  H   LIG d   1       2.780  -4.700  -7.322  0.00  0.00     0.209 HD
ENDBRANCH  49  52
ENDBRANCH   6  49
TORSDOF 9
ENDMDL
MODEL 3
REMARK VINA RESULT:      -6.2      2.598      4.828
REMARK  9 active torsions:
REMARK  status: ('A' for Active; 'I' for Inactive)
REMARK    1  A    between atoms: C_1  and  N_2 
REMARK    2  A    between atoms: N_5  and  C_8 
REMARK    3  A    between atoms: C_10  and  C_20 
REMARK    4  A    between atoms: C_13  and  C_18 
REMARK    5  A    between atoms: C_15  and  O_17 
REMARK    6  A    between atoms: C_18  and  O_19 
REMARK    7  A    between atoms: C_20  and  N_21 
REMARK    8  A    between atoms: N_21  and  C_22 
REMARK    9  A    between atoms: C_22  and  C_23 
ROOT
ATOM      1  C   LIG d   1       5.755  -0.547  -8.323  0.00  0.00     0.070 C 
ATOM      2  H   LIG d   1       6.379  -1.452  -8.331  0.00  0.00     0.052 H 
ATOM      3  C   LIG d   1       4.267  -0.811  -8.005  0.00  0.00     0.117 C 
ATOM      4  H   LIG d   1       3.909  -1.801  -8.323  0.00  0.00     0.067 H 
ATOM      5  O   LIG d   1       3.547   0.208  -8.735  0.00  0.00    -0.362 OA
ATOM      6  C   LIG d   1       4.220   0.309 -10.010  0.00  0.00     0.110 C 
ATOM      7  H   LIG d   1       3.854  -0.488 -10.673  0.00  0.00     0.065 H 
ATOM      8  C   LIG d   1       5.724   0.207  -9.672  0.00  0.00     0.102 C 
ATOM      9  H   LIG d   1       6.342  -0.240 -10.464  0.00  0.00     0.064 H 
ENDROOT
BRANCH   3  10
ATOM     10  C   LIG d   1       4.010  -0.672  -6.504  0.00  0.00    -0.005 C 
ATOM     11  H   LIG d   1       3.567  -1.603  -6.120  0.00  0.00     0.084 H 
ATOM     12  H   LIG d   1       4.962  -0.478  -5.985  0.00  0.00     0.084 H 
BRANCH  10  13
ATOM     13  N   LIG d   1       3.087   0.445  -6.266  0.00  0.00     0.233 N 
ATOM     14  H   LIG d   1       3.661   1.373  -6.127  0.00  0.00     0.202 HD
ATOM     15  H   LIG d   1       2.415   0.556  -7.130  0.00  0.00     0.202 HD
BRANCH  13  16
ATOM     16  C   LIG d   1       2.274   0.210  -5.065  0.00  0.00     0.010 C 
ATOM     17  H   LIG d   1       1.479   0.968  -5.007  0.00  0.00     0.088 H 
ATOM     18  H   LIG d   1       1.823  -0.791  -5.118  0.00  0.00     0.088 H 
BRANCH  16  19
ATOM     19  C   LIG d   1       3.148   0.304  -3.841  0.00  0.00     0.086 A 
ATOM     20  N   LIG d   1       3.732   1.447  -3.542  0.00  0.00    -0.255 NA
ATOM     21  C   LIG d   1       4.506   1.575  -2.483  0.00  0.00     0.028 A 
ATOM     22  C   LIG d   1       4.733   0.504  -1.641  0.00  0.00    -0.044 A 
ATOM     23  H   LIG d   1       4.966   2.529  -2.270  0.00  0.00     0.083 H 
ATOM     24  C   LIG d   1       4.137  -0.715  -1.922  0.00  0.00    -0.058 A 
ATOM     25  H   LIG d   1       5.367   0.615  -0.772  0.00  0.00     0.063 H 
ATOM     26  C   LIG d   1       3.326  -0.811  -3.042  0.00  0.00    -0.035 A 
ATOM     27  H   LIG d   1       4.296  -1.570  -1.282  0.00  0.00     0.062 H 
ATOM     28  H   LIG d   1       2.842  -1.744  -3.290  0.00  0.00     0.064 H 
ENDBRANCH  16  19
ENDBRANCH  13  16
ENDBRANCH  10  13
ENDBRANCH   3  10
BRANCH   1  29
ATOM     29  N   LIG d   1       6.364   0.290  -7.280  0.00  0.00    -0.292 N 
ATOM     30  C   LIG d   1       6.542  -0.467  -6.034  0.00  0.00     0.012 C 
ATOM     31  C   LIG d   1       7.104   0.460  -4.953  0.00  0.00     0.011 C 
ATOM     32  H   LIG d   1       7.243  -1.297  -6.205  0.00  0.00     0.044 H 
ATOM     33  H   LIG d   1       5.572  -0.868  -5.705  0.00  0.00     0.044 H 
ATOM     34  N   LIG d   1       8.381   1.024  -5.410  0.00  0.00    -0.303 N 
ATOM     35  H   LIG d   1       7.265  -0.111  -4.027  0.00  0.00     0.044 H 
ATOM     36  H   LIG d   1       6.391   1.275  -4.761  0.00  0.00     0.044 H 
ATOM     37  C   LIG d   1       8.203   1.782  -6.657  0.00  0.00     0.011 C 
ATOM     38  C   LIG d   1       7.641   0.855  -7.738  0.00  0.00     0.012 C 
ATOM     39  H   LIG d   1       7.501   2.612  -6.484  0.00  0.00     0.044 H 
ATOM     40  H   LIG d   1       9.173   2.183  -6.984  0.00  0.00     0.044 H 
ATOM     41  H   LIG d   1       8.355   0.040  -7.930  0.00  0.00     0.044 H 
ATOM     42  H   LIG d   1       7.479   1.426  -8.664  0.00  0.00     0.044 H 
BRANCH  34  43
ATOM     43  C   LIG d   1       8.989   1.862  -4.368  0.00  0.00    -0.013 C 
ATOM     44  H   LIG d   1       9.284   2.830  -4.802  0.00  0.00     0.039 H 
ATOM     45  H   LIG d   1       9.879   1.356  -3.963  0.00  0.00     0.039 H 
ATOM     46  H   LIG d   1       8.262   2.029  -3.560  0.00  0.00     0.039 H 
ENDBRANCH  34  43
ENDBRANCH   1  29
BRANCH   8  47
ATOM     47  O   LIG d   1       6.298   1.508  -9.532  0.00  0.00    -0.388 OA
ATOM     48  H   LIG d   1       5.678   2.347  -9.182  0.00  0.00     0.210 HD
ENDBRANCH   8  47
BRANCH   6  49
ATOM     49  C   LIG d   1       3.912   1.654 -10.671  0.00  0.00     0.073 C 
ATOM     50  H   LIG d   1       4.758   1.952 -11.308  0.00  0.00     0.058 H 
ATOM     51  H   LIG d   1       3.004   1.561 -11.286  0.00  0.00     0.058 H 
BRANCH  49  52
ATOM     52  O   LIG d   1       3.704   2.644  -9.662  0.00  0.00    -0.392 OA
ATOM     53  H   LIG d   1       3.289   2.355  -8.684  0.00  0.00     0.209 HD
ENDBRANCH  49  52
ENDBRANCH   6  49
TORSDOF 9
ENDMDL
MODEL 4
REMARK VINA RESULT:      -6.1      2.469      3.263
REMARK  9 active torsions:
REMARK  status: ('A' for Active; 'I' for Inactive)
REMARK    1  A    between atoms: C_1  and  N_2 
REMARK    2  A    between atoms: N_5  and  C_8 
REMARK    3  A    between atoms: C_10  and  C_20 
REMARK    4  A    between atoms: C_13  and  C_18 
REMARK    5  A    between atoms: C_15  and  O_17 
REMARK    6  A    between atoms: C_18  and  O_19 
REMARK    7  A    between atoms: C_20  and  N_21 
REMARK    8  A    between atoms: N_21  and  C_22 
REMARK    9  A    between atoms: C_22  and  C_23 
ROOT
ATOM      1  C   LIG d   1       4.382  -0.829  -9.062  0.00  0.00     0.070 C 
ATOM      2  H   LIG d   1       3.916  -1.227  -9.976  0.00  0.00     0.052 H 
ATOM      3  C   LIG d   1       3.765   0.499  -8.569  0.00  0.00     0.117 C 
ATOM      4  H   LIG d   1       3.351   1.126  -9.372  0.00  0.00     0.067 H 
ATOM      5  O   LIG d   1       4.858   1.201  -7.938  0.00  0.00    -0.362 OA
ATOM      6  C   LIG d   1       6.002   0.969  -8.789  0.00  0.00     0.110 C 
ATOM      7  H   LIG d   1       5.973   1.678  -9.630  0.00  0.00     0.065 H 
ATOM      8  C   LIG d   1       5.888  -0.513  -9.210  0.00  0.00     0.102 C 
ATOM      9  H   LIG d   1       6.311  -0.742 -10.199  0.00  0.00     0.064 H 
ENDROOT
BRANCH   3  10
ATOM     10  C   LIG d   1       2.652   0.225  -7.557  0.00  0.00    -0.005 C 
ATOM     11  H   LIG d   1       1.702   0.630  -7.937  0.00  0.00     0.084 H 
ATOM     12  H   LIG d   1       2.553  -0.861  -7.405  0.00  0.00     0.084 H 
BRANCH  10  13
ATOM     13  N   LIG d   1       2.983   0.869  -6.279  0.00  0.00     0.233 N 
ATOM     14  H   LIG d   1       4.057   0.749  -6.076  0.00  0.00     0.202 HD
ATOM     15  H   LIG d   1       2.737   1.939  -6.333  0.00  0.00     0.202 HD
BRANCH  13  16
ATOM     16  C   LIG d   1       2.225   0.268  -5.174  0.00  0.00     0.010 C 
ATOM     17  H   LIG d   1       1.312   0.854  -4.994  0.00  0.00     0.088 H 
ATOM     18  H   LIG d   1       1.952  -0.765  -5.436  0.00  0.00     0.088 H 
BRANCH  16  19
ATOM     19  C   LIG d   1       3.073   0.262  -3.928  0.00  0.00     0.086 A 
ATOM     20  N   LIG d   1       3.630   1.382  -3.514  0.00  0.00    -0.255 NA
ATOM     21  C   LIG d   1       4.380   1.425  -2.430  0.00  0.00     0.028 A 
ATOM     22  C   LIG d   1       4.610   0.284  -1.685  0.00  0.00    -0.044 A 
ATOM     23  H   LIG d   1       4.820   2.362  -2.122  0.00  0.00     0.083 H 
ATOM     24  C   LIG d   1       4.040  -0.913  -2.089  0.00  0.00    -0.058 A 
ATOM     25  H   LIG d   1       5.224   0.326  -0.797  0.00  0.00     0.063 H 
ATOM     26  C   LIG d   1       3.254  -0.918  -3.230  0.00  0.00    -0.035 A 
ATOM     27  H   LIG d   1       4.202  -1.821  -1.526  0.00  0.00     0.062 H 
ATOM     28  H   LIG d   1       2.791  -1.832  -3.573  0.00  0.00     0.064 H 
ENDBRANCH  16  19
ENDBRANCH  13  16
ENDBRANCH  10  13
ENDBRANCH   3  10
BRANCH   1  29
ATOM     29  N   LIG d   1       4.175  -1.893  -8.070  0.00  0.00    -0.292 N 
ATOM     30  C   LIG d   1       4.165  -3.216  -8.710  0.00  0.00     0.012 C 
ATOM     31  C   LIG d   1       3.869  -4.286  -7.657  0.00  0.00     0.011 C 
ATOM     32  H   LIG d   1       5.146  -3.411  -9.165  0.00  0.00     0.044 H 
ATOM     33  H   LIG d   1       3.388  -3.242  -9.488  0.00  0.00     0.044 H 
ATOM     34  N   LIG d   1       4.887  -4.224  -6.600  0.00  0.00    -0.303 N 
ATOM     35  H   LIG d   1       3.888  -5.280  -8.128  0.00  0.00     0.044 H 
ATOM     36  H   LIG d   1       2.875  -4.108  -7.221  0.00  0.00     0.044 H 
ATOM     37  C   LIG d   1       4.897  -2.901  -5.959  0.00  0.00     0.011 C 
ATOM     38  C   LIG d   1       5.193  -1.830  -7.012  0.00  0.00     0.012 C 
ATOM     39  H   LIG d   1       3.914  -2.707  -5.504  0.00  0.00     0.044 H 
ATOM     40  H   LIG d   1       5.674  -2.876  -5.180  0.00  0.00     0.044 H 
ATOM     41  H   LIG d   1       6.187  -2.009  -7.448  0.00  0.00     0.044 H 
ATOM     42  H   LIG d   1       5.172  -0.836  -6.541  0.00  0.00     0.044 H 
BRANCH  34  43
ATOM     43  C   LIG d   1       4.680  -5.287  -5.607  0.00  0.00    -0.013 C 
ATOM     44  H   LIG d   1       5.655  -5.650  -5.250  0.00  0.00     0.039 H 
ATOM     45  H   LIG d   1       4.126  -6.118  -6.069  0.00  0.00     0.039 H 
ATOM     46  H   LIG d   1       4.104  -4.890  -4.758  0.00  0.00     0.039 H 
ENDBRANCH  34  43
ENDBRANCH   1  29
BRANCH   8  47
ATOM     47  O   LIG d   1       6.661  -1.344  -8.343  0.00  0.00    -0.388 OA
ATOM     48  H   LIG d   1       7.720  -1.108  -8.156  0.00  0.00     0.210 HD
ENDBRANCH   8  47
BRANCH   6  49
ATOM     49  C   LIG d   1       7.301   1.204  -8.015  0.00  0.00     0.073 C 
ATOM     50  H   LIG d   1       8.036   0.433  -8.289  0.00  0.00     0.058 H 
ATOM     51  H   LIG d   1       7.701   2.198  -8.265  0.00  0.00     0.058 H 
BRANCH  49  52
ATOM     52  O   LIG d   1       7.038   1.136  -6.613  0.00  0.00    -0.392 OA
ATOM     53  H   LIG d   1       6.839   0.164  -6.137  0.00  0.00     0.209 HD
ENDBRANCH  49  52
ENDBRANCH   6  49
TORSDOF 9
ENDMDL
MODEL 5
REMARK VINA RESULT:      -5.9      2.638      3.599
REMARK  9 active torsions:
REMARK  status: ('A' for Active; 'I' for Inactive)
REMARK    1  A    between atoms: C_1  and  N_2 
REMARK    2  A    between atoms: N_5  and  C_8 
REMARK    3  A    between atoms: C_10  and  C_20 
REMARK    4  A    between atoms: C_13  and  C_18 
REMARK    5  A    between atoms: C_15  and  O_17 
REMARK    6  A    between atoms: C_18  and  O_19 
REMARK    7  A    between atoms: C_20  and  N_21 
REMARK    8  A    between atoms: N_21  and  C_22 
REMARK    9  A    between atoms: C_22  and  C_23 
ROOT
ATOM      1  C   LIG d   1       3.492  -1.650  -8.431  0.00  0.00     0.070 C 
ATOM      2  H   LIG d   1       2.874  -2.530  -8.201  0.00  0.00     0.052 H 
ATOM      3  C   LIG d   1       2.975  -0.337  -7.803  0.00  0.00     0.117 C 
ATOM      4  H   LIG d   1       1.884  -0.304  -7.667  0.00  0.00     0.067 H 
ATOM      5  O   LIG d   1       3.367   0.697  -8.733  0.00  0.00    -0.362 OA
ATOM      6  C   LIG d   1       3.128   0.139 -10.044  0.00  0.00     0.110 C 
ATOM      7  H   LIG d   1       2.064   0.254 -10.295  0.00  0.00     0.065 H 
ATOM      8  C   LIG d   1       3.596  -1.330  -9.940  0.00  0.00     0.102 C 
ATOM      9  H   LIG d   1       3.059  -2.030 -10.596  0.00  0.00     0.064 H 
ENDROOT
BRANCH   3  10
ATOM     10  C   LIG d   1       3.630  -0.104  -6.440  0.00  0.00    -0.005 C 
ATOM     11  H   LIG d   1       3.664  -1.051  -5.883  0.00  0.00     0.084 H 
ATOM     12  H   LIG d   1       4.654   0.273  -6.585  0.00  0.00     0.084 H 
BRANCH  10  13
ATOM     13  N   LIG d   1       2.848   0.883  -5.683  0.00  0.00     0.233 N 
ATOM     14  H   LIG d   1       3.530   1.606  -5.211  0.00  0.00     0.202 HD
ATOM     15  H   LIG d   1       2.167   1.412  -6.365  0.00  0.00     0.202 HD
BRANCH  13  16
ATOM     16  C   LIG d   1       2.052   0.231  -4.634  0.00  0.00     0.010 C 
ATOM     17  H   LIG d   1       1.341   0.955  -4.212  0.00  0.00     0.088 H 
ATOM     18  H   LIG d   1       1.500  -0.616  -5.067  0.00  0.00     0.088 H 
BRANCH  16  19
ATOM     19  C   LIG d   1       2.968  -0.267  -3.547  0.00  0.00     0.086 A 
ATOM     20  N   LIG d   1       3.106  -1.564  -3.354  0.00  0.00    -0.255 NA
ATOM     21  C   LIG d   1       3.896  -2.046  -2.414  0.00  0.00     0.028 A 
ATOM     22  C   LIG d   1       4.611  -1.199  -1.590  0.00  0.00    -0.044 A 
ATOM     23  H   LIG d   1       3.984  -3.115  -2.287  0.00  0.00     0.083 H 
ATOM     24  C   LIG d   1       4.492   0.171  -1.762  0.00  0.00    -0.058 A 
ATOM     25  H   LIG d   1       5.258  -1.599  -0.822  0.00  0.00     0.063 H 
ATOM     26  C   LIG d   1       3.656   0.641  -2.763  0.00  0.00    -0.035 A 
ATOM     27  H   LIG d   1       5.039   0.858  -1.133  0.00  0.00     0.062 H 
ATOM     28  H   LIG d   1       3.542   1.702  -2.929  0.00  0.00     0.064 H 
ENDBRANCH  16  19
ENDBRANCH  13  16
ENDBRANCH  10  13
ENDBRANCH   3  10
BRANCH   1  29
ATOM     29  N   LIG d   1       4.812  -1.996  -7.887  0.00  0.00    -0.292 N 
ATOM     30  C   LIG d   1       4.715  -2.386  -6.473  0.00  0.00     0.012 C 
ATOM     31  C   LIG d   1       6.117  -2.661  -5.925  0.00  0.00     0.011 C 
ATOM     32  H   LIG d   1       4.102  -3.294  -6.384  0.00  0.00     0.044 H 
ATOM     33  H   LIG d   1       4.249  -1.571  -5.898  0.00  0.00     0.044 H 
ATOM     34  N   LIG d   1       6.751  -3.722  -6.718  0.00  0.00    -0.303 N 
ATOM     35  H   LIG d   1       6.045  -2.980  -4.875  0.00  0.00     0.044 H 
ATOM     36  H   LIG d   1       6.722  -1.745  -5.987  0.00  0.00     0.044 H 
ATOM     37  C   LIG d   1       6.849  -3.333  -8.132  0.00  0.00     0.011 C 
ATOM     38  C   LIG d   1       5.447  -3.058  -8.681  0.00  0.00     0.012 C 
ATOM     39  H   LIG d   1       7.463  -2.424  -8.219  0.00  0.00     0.044 H 
ATOM     40  H   LIG d   1       7.315  -4.147  -8.705  0.00  0.00     0.044 H 
ATOM     41  H   LIG d   1       4.841  -3.974  -8.617  0.00  0.00     0.044 H 
ATOM     42  H   LIG d   1       5.519  -2.737  -9.730  0.00  0.00     0.044 H 
BRANCH  34  43
ATOM     43  C   LIG d   1       8.071  -4.068  -6.175  0.00  0.00    -0.013 C 
ATOM     44  H   LIG d   1       8.396  -5.034  -6.589  0.00  0.00     0.039 H 
ATOM     45  H   LIG d   1       8.009  -4.141  -5.079  0.00  0.00     0.039 H 
ATOM     46  H   LIG d   1       8.797  -3.289  -6.450  0.00  0.00     0.039 H 
ENDBRANCH  34  43
ENDBRANCH   1  29
BRANCH   8  47
ATOM     47  O   LIG d   1       4.946  -1.462 -10.388  0.00  0.00    -0.388 OA
ATOM     48  H   LIG d   1       5.388  -2.462 -10.512  0.00  0.00     0.210 HD
ENDBRANCH   8  47
BRANCH   6  49
ATOM     49  C   LIG d   1       3.947   0.884 -11.099  0.00  0.00     0.073 C 
ATOM     50  H   LIG d   1       4.218   0.193 -11.911  0.00  0.00     0.058 H 
ATOM     51  H   LIG d   1       3.350   1.714 -11.508  0.00  0.00     0.058 H 
BRANCH  49  52
ATOM     52  O   LIG d   1       5.136   1.403 -10.500  0.00  0.00    -0.392 OA
ATOM     53  H   LIG d   1       5.786   0.743  -9.906  0.00  0.00     0.209 HD
ENDBRANCH  49  52
ENDBRANCH   6  49
TORSDOF 9
ENDMDL
MODEL 6
REMARK VINA RESULT:      -5.9      3.343      6.197
REMARK  9 active torsions:
REMARK  status: ('A' for Active; 'I' for Inactive)
REMARK    1  A    between atoms: C_1  and  N_2 
REMARK    2  A    between atoms: N_5  and  C_8 
REMARK    3  A    between atoms: C_10  and  C_20 
REMARK    4  A    between atoms: C_13  and  C_18 
REMARK    5  A    between atoms: C_15  and  O_17 
REMARK    6  A    between atoms: C_18  and  O_19 
REMARK    7  A    between atoms: C_20  and  N_21 
REMARK    8  A    between atoms: N_21  and  C_22 
REMARK    9  A    between atoms: C_22  and  C_23 
ROOT
ATOM      1  C   LIG d   1       5.902  -1.884  -3.986  0.00  0.00     0.070 C 
ATOM      2  H   LIG d   1       6.543  -2.608  -3.463  0.00  0.00     0.052 H 
ATOM      3  C   LIG d   1       6.569  -0.512  -4.226  0.00  0.00     0.117 C 
ATOM      4  H   LIG d   1       7.315  -0.237  -3.465  0.00  0.00     0.067 H 
ATOM      5  O   LIG d   1       5.482   0.439  -4.187  0.00  0.00    -0.362 OA
ATOM      6  C   LIG d   1       4.630  -0.002  -3.107  0.00  0.00     0.110 C 
ATOM      7  H   LIG d   1       5.041   0.361  -2.154  0.00  0.00     0.065 H 
ATOM      8  C   LIG d   1       4.596  -1.541  -3.233  0.00  0.00     0.102 C 
ATOM      9  H   LIG d   1       4.459  -2.077  -2.282  0.00  0.00     0.064 H 
ENDROOT
BRANCH   3  10
ATOM     10  C   LIG d   1       7.253  -0.484  -5.594  0.00  0.00    -0.005 C 
ATOM     11  H   LIG d   1       8.343  -0.430  -5.458  0.00  0.00     0.084 H 
ATOM     12  H   LIG d   1       6.997  -1.398  -6.151  0.00  0.00     0.084 H 
BRANCH  10  13
ATOM     13  N   LIG d   1       6.794   0.692  -6.346  0.00  0.00     0.233 N 
ATOM     14  H   LIG d   1       5.879   1.090  -5.882  0.00  0.00     0.202 HD
ATOM     15  H   LIG d   1       7.577   1.463  -6.336  0.00  0.00     0.202 HD
BRANCH  13  16
ATOM     16  C   LIG d   1       6.498   0.341  -7.742  0.00  0.00     0.010 C 
ATOM     17  H   LIG d   1       7.297   0.724  -8.393  0.00  0.00     0.088 H 
ATOM     18  H   LIG d   1       6.437  -0.753  -7.840  0.00  0.00     0.088 H 
BRANCH  16  19
ATOM     19  C   LIG d   1       5.183   0.955  -8.146  0.00  0.00     0.086 A 
ATOM     20  N   LIG d   1       4.063   0.508  -7.614  0.00  0.00    -0.255 NA
ATOM     21  C   LIG d   1       2.889   1.014  -7.938  0.00  0.00     0.028 A 
ATOM     22  C   LIG d   1       2.793   2.042  -8.856  0.00  0.00    -0.044 A 
ATOM     23  H   LIG d   1       1.993   0.621  -7.480  0.00  0.00     0.083 H 
ATOM     24  C   LIG d   1       3.949   2.540  -9.437  0.00  0.00    -0.058 A 
ATOM     25  H   LIG d   1       1.829   2.455  -9.116  0.00  0.00     0.063 H 
ATOM     26  C   LIG d   1       5.165   1.986  -9.068  0.00  0.00    -0.035 A 
ATOM     27  H   LIG d   1       3.904   3.343 -10.157  0.00  0.00     0.062 H 
ATOM     28  H   LIG d   1       6.086   2.351  -9.497  0.00  0.00     0.064 H 
ENDBRANCH  16  19
ENDBRANCH  13  16
ENDBRANCH  10  13
ENDBRANCH   3  10
BRANCH   1  29
ATOM     29  N   LIG d   1       5.601  -2.540  -5.266  0.00  0.00    -0.292 N 
ATOM     30  C   LIG d   1       6.831  -2.990  -5.931  0.00  0.00     0.012 C 
ATOM     31  C   LIG d   1       6.481  -3.595  -7.292  0.00  0.00     0.011 C 
ATOM     32  H   LIG d   1       7.329  -3.749  -5.309  0.00  0.00     0.044 H 
ATOM     33  H   LIG d   1       7.507  -2.134  -6.073  0.00  0.00     0.044 H 
ATOM     34  N   LIG d   1       5.550  -4.715  -7.101  0.00  0.00    -0.303 N 
ATOM     35  H   LIG d   1       7.397  -3.959  -7.780  0.00  0.00     0.044 H 
ATOM     36  H   LIG d   1       6.009  -2.829  -7.924  0.00  0.00     0.044 H 
ATOM     37  C   LIG d   1       4.318  -4.266  -6.437  0.00  0.00     0.011 C 
ATOM     38  C   LIG d   1       4.668  -3.661  -5.076  0.00  0.00     0.012 C 
ATOM     39  H   LIG d   1       3.822  -3.507  -7.060  0.00  0.00     0.044 H 
ATOM     40  H   LIG d   1       3.643  -5.124  -6.296  0.00  0.00     0.044 H 
ATOM     41  H   LIG d   1       5.141  -4.427  -4.443  0.00  0.00     0.044 H 
ATOM     42  H   LIG d   1       3.752  -3.297  -4.588  0.00  0.00     0.044 H 
BRANCH  34  43
ATOM     43  C   LIG d   1       5.247  -5.372  -8.381  0.00  0.00    -0.013 C 
ATOM     44  H   LIG d   1       5.397  -6.457  -8.280  0.00  0.00     0.039 H 
ATOM     45  H   LIG d   1       5.916  -4.979  -9.161  0.00  0.00     0.039 H 
ATOM     46  H   LIG d   1       4.202  -5.171  -8.658  0.00  0.00     0.039 H 
ENDBRANCH  34  43
ENDBRANCH   1  29
BRANCH   8  47
ATOM     47  O   LIG d   1       3.458  -1.960  -3.989  0.00  0.00    -0.388 OA
ATOM     48  H   LIG d   1       3.011  -2.949  -3.806  0.00  0.00     0.210 HD
ENDBRANCH   8  47
BRANCH   6  49
ATOM     49  C   LIG d   1       3.222   0.576  -3.267  0.00  0.00     0.073 C 
ATOM     50  H   LIG d   1       2.478  -0.204  -3.049  0.00  0.00     0.058 H 
ATOM     51  H   LIG d   1       3.090   1.416  -2.568  0.00  0.00     0.058 H 
BRANCH  49  52
ATOM     52  O   LIG d   1       3.047   1.039  -4.607  0.00  0.00    -0.392 OA
ATOM     53  H   LIG d   1       2.090   0.877  -5.125  0.00  0.00     0.209 HD
ENDBRANCH  49  52
ENDBRANCH   6  49
TORSDOF 9
ENDMDL
MODEL 7
REMARK VINA RESULT:      -5.9      1.757      2.297
REMARK  9 active torsions:
REMARK  status: ('A' for Active; 'I' for Inactive)
REMARK    1  A    between atoms: C_1  and  N_2 
REMARK    2  A    between atoms: N_5  and  C_8 
REMARK    3  A    between atoms: C_10  and  C_20 
REMARK    4  A    between atoms: C_13  and  C_18 
REMARK    5  A    between atoms: C_15  and  O_17 
REMARK    6  A    between atoms: C_18  and  O_19 
REMARK    7  A    between atoms: C_20  and  N_21 
REMARK    8  A    between atoms: N_21  and  C_22 
REMARK    9  A    between atoms: C_22  and  C_23 
ROOT
ATOM      1  C   LIG d   1       2.650  -0.720  -8.412  0.00  0.00     0.070 C 
ATOM      2  H   LIG d   1       1.709  -1.189  -8.087  0.00  0.00     0.052 H 
ATOM      3  C   LIG d   1       3.591  -0.330  -7.251  0.00  0.00     0.117 C 
ATOM      4  H   LIG d   1       3.069  -0.081  -6.315  0.00  0.00     0.067 H 
ATOM      5  O   LIG d   1       4.297   0.838  -7.724  0.00  0.00    -0.362 OA
ATOM      6  C   LIG d   1       3.305   1.626  -8.419  0.00  0.00     0.110 C 
ATOM      7  H   LIG d   1       2.734   2.213  -7.685  0.00  0.00     0.065 H 
ATOM      8  C   LIG d   1       2.457   0.597  -9.198  0.00  0.00     0.102 C 
ATOM      9  H   LIG d   1       1.409   0.890  -9.354  0.00  0.00     0.064 H 
ENDROOT
BRANCH   3  10
ATOM     10  C   LIG d   1       4.574  -1.465  -6.959  0.00  0.00    -0.005 C 
ATOM     11  H   LIG d   1       4.571  -2.178  -7.796  0.00  0.00     0.084 H 
ATOM     12  H   LIG d   1       5.586  -1.051  -6.834  0.00  0.00     0.084 H 
BRANCH  10  13
ATOM     13  N   LIG d   1       4.173  -2.155  -5.726  0.00  0.00     0.233 N 
ATOM     14  H   LIG d   1       3.344  -1.608  -5.252  0.00  0.00     0.202 HD
ATOM     15  H   LIG d   1       3.847  -3.177  -5.967  0.00  0.00     0.202 HD
BRANCH  13  16
ATOM     16  C   LIG d   1       5.291  -2.229  -4.775  0.00  0.00     0.010 C 
ATOM     17  H   LIG d   1       5.292  -3.214  -4.286  0.00  0.00     0.088 H 
ATOM     18  H   LIG d   1       6.239  -2.086  -5.314  0.00  0.00     0.088 H 
BRANCH  16  19
ATOM     19  C   LIG d   1       5.137  -1.151  -3.734  0.00  0.00     0.086 A 
ATOM     20  N   LIG d   1       5.707   0.023  -3.921  0.00  0.00    -0.255 NA
ATOM     21  C   LIG d   1       5.600   0.995  -3.038  0.00  0.00     0.028 A 
ATOM     22  C   LIG d   1       4.879   0.815  -1.873  0.00  0.00    -0.044 A 
ATOM     23  H   LIG d   1       6.081   1.944  -3.226  0.00  0.00     0.083 H 
ATOM     24  C   LIG d   1       4.265  -0.406  -1.640  0.00  0.00    -0.058 A 
ATOM     25  H   LIG d   1       4.793   1.616  -1.153  0.00  0.00     0.063 H 
ATOM     26  C   LIG d   1       4.395  -1.403  -2.594  0.00  0.00    -0.035 A 
ATOM     27  H   LIG d   1       3.694  -0.576  -0.739  0.00  0.00     0.062 H 
ATOM     28  H   LIG d   1       3.927  -2.365  -2.449  0.00  0.00     0.064 H 
ENDBRANCH  16  19
ENDBRANCH  13  16
ENDBRANCH  10  13
ENDBRANCH   3  10
BRANCH   1  29
ATOM     29  N   LIG d   1       3.276  -1.740  -9.263  0.00  0.00    -0.292 N 
ATOM     30  C   LIG d   1       2.263  -2.514  -9.992  0.00  0.00     0.012 C 
ATOM     31  C   LIG d   1       2.950  -3.615 -10.803  0.00  0.00     0.011 C 
ATOM     32  H   LIG d   1       1.710  -1.849 -10.671  0.00  0.00     0.044 H 
ATOM     33  H   LIG d   1       1.562  -2.970  -9.276  0.00  0.00     0.044 H 
ATOM     34  N   LIG d   1       3.912  -3.006 -11.732  0.00  0.00    -0.303 N 
ATOM     35  H   LIG d   1       2.196  -4.178 -11.372  0.00  0.00     0.044 H 
ATOM     36  H   LIG d   1       3.479  -4.298 -10.122  0.00  0.00     0.044 H 
ATOM     37  C   LIG d   1       4.927  -2.232 -11.003  0.00  0.00     0.011 C 
ATOM     38  C   LIG d   1       4.240  -1.132 -10.192  0.00  0.00     0.012 C 
ATOM     39  H   LIG d   1       5.478  -2.900 -10.324  0.00  0.00     0.044 H 
ATOM     40  H   LIG d   1       5.627  -1.778 -11.720  0.00  0.00     0.044 H 
ATOM     41  H   LIG d   1       3.710  -0.449 -10.873  0.00  0.00     0.044 H 
ATOM     42  H   LIG d   1       4.993  -0.570  -9.621  0.00  0.00     0.044 H 
BRANCH  34  43
ATOM     43  C   LIG d   1       4.540  -4.027 -12.582  0.00  0.00    -0.013 C 
ATOM     44  H   LIG d   1       4.263  -3.849 -13.633  0.00  0.00     0.039 H 
ATOM     45  H   LIG d   1       4.192  -5.024 -12.276  0.00  0.00     0.039 H 
ATOM     46  H   LIG d   1       5.633  -3.970 -12.477  0.00  0.00     0.039 H 
ENDBRANCH  34  43
ENDBRANCH   1  29
BRANCH   8  47
ATOM     47  O   LIG d   1       2.939   0.456 -10.536  0.00  0.00    -0.388 OA
ATOM     48  H   LIG d   1       2.319   0.788 -11.381  0.00  0.00     0.210 HD
ENDBRANCH   8  47
BRANCH   6  49
ATOM     49  C   LIG d   1       3.979   2.602  -9.386  0.00  0.00     0.073 C 
ATOM     50  H   LIG d   1       3.437   2.603 -10.343  0.00  0.00     0.058 H 
ATOM     51  H   LIG d   1       3.963   3.614  -8.954  0.00  0.00     0.058 H 
BRANCH  49  52
ATOM     52  O   LIG d   1       5.331   2.198  -9.604  0.00  0.00    -0.392 OA
ATOM     53  H   LIG d   1       5.872   1.640  -8.825  0.00  0.00     0.209 HD
ENDBRANCH  49  52
ENDBRANCH   6  49
TORSDOF 9
ENDMDL
MODEL 8
REMARK VINA RESULT:      -5.9      3.559      4.599
REMARK  9 active torsions:
REMARK  status: ('A' for Active; 'I' for Inactive)
REMARK    1  A    between atoms: C_1  and  N_2 
REMARK    2  A    between atoms: N_5  and  C_8 
REMARK    3  A    between atoms: C_10  and  C_20 
REMARK    4  A    between atoms: C_13  and  C_18 
REMARK    5  A    between atoms: C_15  and  O_17 
REMARK    6  A    between atoms: C_18  and  O_19 
REMARK    7  A    between atoms: C_20  and  N_21 
REMARK    8  A    between atoms: N_21  and  C_22 
REMARK    9  A    between atoms: C_22  and  C_23 
ROOT
ATOM      1  C   LIG d   1       6.218  -1.350  -7.513  0.00  0.00     0.070 C 
ATOM      2  H   LIG d   1       6.256  -1.467  -8.606  0.00  0.00     0.052 H 
ATOM      3  C   LIG d   1       5.418  -0.116  -7.040  0.00  0.00     0.117 C 
ATOM      4  H   LIG d   1       5.431   0.725  -7.748  0.00  0.00     0.067 H 
ATOM      5  O   LIG d   1       6.061   0.291  -5.812  0.00  0.00    -0.362 OA
ATOM      6  C   LIG d   1       7.478   0.141  -6.056  0.00  0.00     0.110 C 
ATOM      7  H   LIG d   1       7.845   1.027  -6.595  0.00  0.00     0.065 H 
ATOM      8  C   LIG d   1       7.604  -1.177  -6.851  0.00  0.00     0.102 C 
ATOM      9  H   LIG d   1       8.454  -1.213  -7.547  0.00  0.00     0.064 H 
ENDROOT
BRANCH   3  10
ATOM     10  C   LIG d   1       3.960  -0.495  -6.778  0.00  0.00    -0.005 C 
ATOM     11  H   LIG d   1       3.500  -0.850  -7.711  0.00  0.00     0.084 H 
ATOM     12  H   LIG d   1       3.919  -1.294  -6.022  0.00  0.00     0.084 H 
BRANCH  10  13
ATOM     13  N   LIG d   1       3.229   0.681  -6.287  0.00  0.00     0.233 N 
ATOM     14  H   LIG d   1       3.947   1.444  -5.950  0.00  0.00     0.202 HD
ATOM     15  H   LIG d   1       2.609   1.091  -7.096  0.00  0.00     0.202 HD
BRANCH  13  16
ATOM     16  C   LIG d   1       2.356   0.325  -5.159  0.00  0.00     0.010 C 
ATOM     17  H   LIG d   1       1.560   1.077  -5.062  0.00  0.00     0.088 H 
ATOM     18  H   LIG d   1       1.908  -0.663  -5.341  0.00  0.00     0.088 H 
BRANCH  16  19
ATOM     19  C   LIG d   1       3.167   0.285  -3.890  0.00  0.00     0.086 A 
ATOM     20  N   LIG d   1       3.735   1.387  -3.443  0.00  0.00    -0.255 NA
ATOM     21  C   LIG d   1       4.453   1.399  -2.338  0.00  0.00     0.028 A 
ATOM     22  C   LIG d   1       4.638   0.243  -1.603  0.00  0.00    -0.044 A 
ATOM     23  H   LIG d   1       4.903   2.322  -2.002  0.00  0.00     0.083 H 
ATOM     24  C   LIG d   1       4.057  -0.937  -2.042  0.00  0.00    -0.058 A 
ATOM     25  H   LIG d   1       5.227   0.259  -0.697  0.00  0.00     0.063 H 
ATOM     26  C   LIG d   1       3.304  -0.909  -3.205  0.00  0.00    -0.035 A 
ATOM     27  H   LIG d   1       4.184  -1.855  -1.488  0.00  0.00     0.062 H 
ATOM     28  H   LIG d   1       2.833  -1.808  -3.575  0.00  0.00     0.064 H 
ENDBRANCH  16  19
ENDBRANCH  13  16
ENDBRANCH  10  13
ENDBRANCH   3  10
BRANCH   1  29
ATOM     29  N   LIG d   1       5.577  -2.588  -7.049  0.00  0.00    -0.292 N 
ATOM     30  C   LIG d   1       6.009  -3.739  -7.854  0.00  0.00     0.012 C 
ATOM     31  C   LIG d   1       5.261  -4.991  -7.392  0.00  0.00     0.011 C 
ATOM     32  H   LIG d   1       7.090  -3.891  -7.729  0.00  0.00     0.044 H 
ATOM     33  H   LIG d   1       5.786  -3.550  -8.915  0.00  0.00     0.044 H 
ATOM     34  N   LIG d   1       5.530  -5.220  -5.966  0.00  0.00    -0.303 N 
ATOM     35  H   LIG d   1       5.602  -5.860  -7.974  0.00  0.00     0.044 H 
ATOM     36  H   LIG d   1       4.181  -4.851  -7.543  0.00  0.00     0.044 H 
ATOM     37  C   LIG d   1       5.098  -4.069  -5.159  0.00  0.00     0.011 C 
ATOM     38  C   LIG d   1       5.846  -2.817  -5.622  0.00  0.00     0.012 C 
ATOM     39  H   LIG d   1       4.016  -3.919  -5.286  0.00  0.00     0.044 H 
ATOM     40  H   LIG d   1       5.321  -4.260  -4.099  0.00  0.00     0.044 H 
ATOM     41  H   LIG d   1       6.927  -2.957  -5.471  0.00  0.00     0.044 H 
ATOM     42  H   LIG d   1       5.504  -1.948  -5.041  0.00  0.00     0.044 H 
BRANCH  34  43
ATOM     43  C   LIG d   1       4.889  -6.457  -5.501  0.00  0.00    -0.013 C 
ATOM     44  H   LIG d   1       5.512  -7.320  -5.781  0.00  0.00     0.039 H 
ATOM     45  H   LIG d   1       3.897  -6.554  -5.967  0.00  0.00     0.039 H 
ATOM     46  H   LIG d   1       4.778  -6.425  -4.407  0.00  0.00     0.039 H 
ENDBRANCH  34  43
ENDBRANCH   1  29
BRANCH   8  47
ATOM     47  O   LIG d   1       7.879  -2.270  -5.973  0.00  0.00    -0.388 OA
ATOM     48  H   LIG d   1       7.050  -2.812  -5.494  0.00  0.00     0.210 HD
ENDBRANCH   8  47
BRANCH   6  49
ATOM     49  C   LIG d   1       8.240   0.041  -4.733  0.00  0.00     0.073 C 
ATOM     50  H   LIG d   1       9.078  -0.662  -4.845  0.00  0.00     0.058 H 
ATOM     51  H   LIG d   1       8.628   1.034  -4.458  0.00  0.00     0.058 H 
BRANCH  49  52
ATOM     52  O   LIG d   1       7.359  -0.426  -3.710  0.00  0.00    -0.392 OA
ATOM     53  H   LIG d   1       7.055   0.248  -2.896  0.00  0.00     0.209 HD
ENDBRANCH  49  52
ENDBRANCH   6  49
TORSDOF 9
ENDMDL
MODEL 9
REMARK VINA RESULT:      -5.8      5.011      7.282
REMARK  9 active torsions:
REMARK  status: ('A' for Active; 'I' for Inactive)
REMARK    1  A    between atoms: C_1  and  N_2 
REMARK    2  A    between atoms: N_5  and  C_8 
REMARK    3  A    between atoms: C_10  and  C_20 
REMARK    4  A    between atoms: C_13  and  C_18 
REMARK    5  A    between atoms: C_15  and  O_17 
REMARK    6  A    between atoms: C_18  and  O_19 
REMARK    7  A    between atoms: C_20  and  N_21 
REMARK    8  A    between atoms: N_21  and  C_22 
REMARK    9  A    between atoms: C_22  and  C_23 
ROOT
ATOM      1  C   LIG d   1       5.228  -1.183  -3.007  0.00  0.00     0.070 C 
ATOM      2  H   LIG d   1       5.459  -1.671  -2.049  0.00  0.00     0.052 H 
ATOM      3  C   LIG d   1       5.694   0.287  -3.093  0.00  0.00     0.117 C 
ATOM      4  H   LIG d   1       5.710   0.809  -2.125  0.00  0.00     0.067 H 
ATOM      5  O   LIG d   1       4.733   0.929  -3.960  0.00  0.00    -0.362 OA
ATOM      6  C   LIG d   1       3.451   0.383  -3.577  0.00  0.00     0.110 C 
ATOM      7  H   LIG d   1       3.081   0.921  -2.693  0.00  0.00     0.065 H 
ATOM      8  C   LIG d   1       3.718  -1.119  -3.334  0.00  0.00     0.102 C 
ATOM      9  H   LIG d   1       3.065  -1.585  -2.582  0.00  0.00     0.064 H 
ENDROOT
BRANCH   3  10
ATOM     10  C   LIG d   1       7.096   0.367  -3.699  0.00  0.00    -0.005 C 
ATOM     11  H   LIG d   1       7.819  -0.101  -3.015  0.00  0.00     0.084 H 
ATOM     12  H   LIG d   1       7.109  -0.162  -4.664  0.00  0.00     0.084 H 
BRANCH  10  13
ATOM     13  N   LIG d   1       7.459   1.775  -3.909  0.00  0.00     0.233 N 
ATOM     14  H   LIG d   1       6.991   2.140  -4.835  0.00  0.00     0.202 HD
ATOM     15  H   LIG d   1       7.107   2.375  -3.058  0.00  0.00     0.202 HD
BRANCH  13  16
ATOM     16  C   LIG d   1       8.916   1.931  -4.024  0.00  0.00     0.010 C 
ATOM     17  H   LIG d   1       9.411   1.342  -3.238  0.00  0.00     0.088 H 
ATOM     18  H   LIG d   1       9.245   1.576  -5.012  0.00  0.00     0.088 H 
BRANCH  16  19
ATOM     19  C   LIG d   1       9.278   3.385  -3.866  0.00  0.00     0.086 A 
ATOM     20  N   LIG d   1       9.728   3.823  -2.707  0.00  0.00    -0.255 NA
ATOM     21  C   LIG d   1      10.057   5.087  -2.523  0.00  0.00     0.028 A 
ATOM     22  C   LIG d   1       9.939   6.004  -3.549  0.00  0.00    -0.044 A 
ATOM     23  H   LIG d   1      10.423   5.408  -1.559  0.00  0.00     0.083 H 
ATOM     24  C   LIG d   1       9.469   5.582  -4.783  0.00  0.00    -0.058 A 
ATOM     25  H   LIG d   1      10.211   7.038  -3.393  0.00  0.00     0.063 H 
ATOM     26  C   LIG d   1       9.138   4.245  -4.941  0.00  0.00    -0.035 A 
ATOM     27  H   LIG d   1       9.366   6.276  -5.604  0.00  0.00     0.062 H 
ATOM     28  H   LIG d   1       8.772   3.879  -5.889  0.00  0.00     0.064 H 
ENDBRANCH  16  19
ENDBRANCH  13  16
ENDBRANCH  10  13
ENDBRANCH   3  10
BRANCH   1  29
ATOM     29  N   LIG d   1       5.934  -2.006  -3.999  0.00  0.00    -0.292 N 
ATOM     30  C   LIG d   1       7.292  -2.333  -3.543  0.00  0.00     0.012 C 
ATOM     31  C   LIG d   1       8.019  -3.121  -4.635  0.00  0.00     0.011 C 
ATOM     32  H   LIG d   1       7.236  -2.940  -2.628  0.00  0.00     0.044 H 
ATOM     33  H   LIG d   1       7.843  -1.404  -3.332  0.00  0.00     0.044 H 
ATOM     34  N   LIG d   1       7.261  -4.342  -4.940  0.00  0.00    -0.303 N 
ATOM     35  H   LIG d   1       9.026  -3.391  -4.285  0.00  0.00     0.044 H 
ATOM     36  H   LIG d   1       8.100  -2.503  -5.541  0.00  0.00     0.044 H 
ATOM     37  C   LIG d   1       5.903  -4.016  -5.398  0.00  0.00     0.011 C 
ATOM     38  C   LIG d   1       5.176  -3.228  -4.305  0.00  0.00     0.012 C 
ATOM     39  H   LIG d   1       5.961  -3.407  -6.313  0.00  0.00     0.044 H 
ATOM     40  H   LIG d   1       5.353  -4.945  -5.608  0.00  0.00     0.044 H 
ATOM     41  H   LIG d   1       5.095  -3.845  -3.398  0.00  0.00     0.044 H 
ATOM     42  H   LIG d   1       4.169  -2.956  -4.656  0.00  0.00     0.044 H 
BRANCH  34  43
ATOM     43  C   LIG d   1       7.966  -5.164  -5.933  0.00  0.00    -0.013 C 
ATOM     44  H   LIG d   1       7.357  -6.048  -6.175  0.00  0.00     0.039 H 
ATOM     45  H   LIG d   1       8.934  -5.487  -5.521  0.00  0.00     0.039 H 
ATOM     46  H   LIG d   1       8.135  -4.574  -6.845  0.00  0.00     0.039 H 
ENDBRANCH  34  43
ENDBRANCH   1  29
BRANCH   8  47
ATOM     47  O   LIG d   1       3.427  -1.880  -4.508  0.00  0.00    -0.388 OA
ATOM     48  H   LIG d   1       3.486  -2.978  -4.479  0.00  0.00     0.210 HD
ENDBRANCH   8  47
BRANCH   6  49
ATOM     49  C   LIG d   1       2.434   0.566  -4.705  0.00  0.00     0.073 C 
ATOM     50  H   LIG d   1       1.742  -0.289  -4.719  0.00  0.00     0.058 H 
ATOM     51  H   LIG d   1       1.867   1.495  -4.539  0.00  0.00     0.058 H 
BRANCH  49  52
ATOM     52  O   LIG d   1       3.119   0.644  -5.957  0.00  0.00    -0.392 OA
ATOM     53  H   LIG d   1       2.597   1.021  -6.848  0.00  0.00     0.209 HD
ENDBRANCH  49  52
ENDBRANCH   6  49
TORSDOF 9
ENDMDL
