MODEL 1
REMARK VINA RESULT:      -7.4      0.000      0.000
REMARK  8 active torsions:
REMARK  status: ('A' for Active; 'I' for Inactive)
REMARK    1  A    between atoms: C_3  and  O_30 
REMARK    2  A    between atoms: C_6  and  C_7 
REMARK    3  A    between atoms: C_9  and  C_12 
REMARK    4  A    between atoms: N_21  and  C_22 
REMARK    5  A    between atoms: C_22  and  C_23 
REMARK    6  A    between atoms: C_26  and  C_28 
REMARK    7  A    between atoms: C_28  and  O_29 
REMARK    8  A    between atoms: O_30  and  C_31 
ROOT
ATOM      1  C   LIG d   1       5.716  -7.139  -7.988  0.00  0.00     0.096 C 
ATOM      2  H   LIG d   1       6.689  -6.757  -8.334  0.00  0.00     0.057 H 
ATOM      3  C   LIG d   1       4.795  -7.460  -9.174  0.00  0.00     0.014 C 
ATOM      4  C   LIG d   1       5.354  -8.671  -9.878  0.00  0.00     0.042 A 
ATOM      5  C   LIG d   1       6.278  -9.491  -9.330  0.00  0.00     0.076 A 
ATOM      6  N   LIG d   1       6.552 -10.450 -10.216  0.00  0.00    -0.239 NA
ATOM      7  C   LIG d   1       5.833 -10.259 -11.292  0.00  0.00     0.094 A 
ATOM      8  N   LIG d   1       5.071  -9.153 -11.115  0.00  0.00    -0.348 N 
ATOM      9  C   LIG d   1       6.848  -9.292  -7.948  0.00  0.00     0.044 C 
ATOM     10  N   LIG d   1       5.971  -8.364  -7.216  0.00  0.00    -0.278 N 
ATOM     11  H   LIG d   1       3.781  -7.670  -8.804  0.00  0.00     0.035 H 
ATOM     12  H   LIG d   1       4.765  -6.600  -9.859  0.00  0.00     0.035 H 
ATOM     13  H   LIG d   1       5.912 -10.888 -12.065  0.00  0.00     0.103 H 
ATOM     14  H   LIG d   1       6.894 -10.259  -7.426  0.00  0.00     0.049 H 
ATOM     15  H   LIG d   1       7.862  -8.870  -8.026  0.00  0.00     0.049 H 
ATOM     16  H   LIG d   1       4.336  -8.639 -11.752  0.00  0.00     0.167 HD
ENDROOT
BRANCH   1  17
ATOM     17  C   LIG d   1       5.055  -6.115  -7.102  0.00  0.00     0.245 A 
ATOM     18  N   LIG d   1       5.534  -4.939  -6.781  0.00  0.00    -0.190 NA
ATOM     19  C   LIG d   1       4.604  -4.376  -5.977  0.00  0.00     0.202 A 
ATOM     20  N   LIG d   1       3.624  -5.236  -5.857  0.00  0.00    -0.056 NA
ATOM     21  O   LIG d   1       3.867  -6.235  -6.501  0.00  0.00    -0.336 OA
BRANCH  19  22
ATOM     22  C   LIG d   1       4.680  -3.035  -5.347  0.00  0.00     0.023 A 
ATOM     23  C   LIG d   1       4.835  -2.919  -3.966  0.00  0.00    -0.048 A 
ATOM     24  C   LIG d   1       4.911  -1.672  -3.385  0.00  0.00    -0.019 A 
ATOM     25  H   LIG d   1       4.900  -3.807  -3.354  0.00  0.00     0.063 H 
ATOM     26  C   LIG d   1       4.821  -0.531  -4.171  0.00  0.00     0.130 A 
ATOM     27  H   LIG d   1       5.036  -1.583  -2.316  0.00  0.00     0.065 H 
ATOM     28  C   LIG d   1       4.662  -0.642  -5.546  0.00  0.00    -0.019 A 
ATOM     29  C   LIG d   1       4.591  -1.888  -6.134  0.00  0.00    -0.048 A 
ATOM     30  H   LIG d   1       4.592   0.247  -6.155  0.00  0.00     0.065 H 
ATOM     31  H   LIG d   1       4.466  -1.974  -7.204  0.00  0.00     0.063 H 
BRANCH  26  32
ATOM     32  O   LIG d   1       4.890   0.697  -3.594  0.00  0.00    -0.406 OA
BRANCH  32  33
ATOM     33  C   LIG d   1       3.801   1.081  -2.752  0.00  0.00     0.575 C 
ATOM     34  F   LIG d   1       2.724   0.212  -2.959  0.00  0.00    -0.133 F 
ATOM     35  F   LIG d   1       4.201   1.017  -1.413  0.00  0.00    -0.133 F 
ATOM     36  F   LIG d   1       3.410   2.388  -3.061  0.00  0.00    -0.133 F 
ENDBRANCH  32  33
ENDBRANCH  26  32
ENDBRANCH  19  22
ENDBRANCH   1  17
BRANCH  10  37
ATOM     37  C   LIG d   1       6.526  -8.046  -5.893  0.00  0.00     0.058 C 
ATOM     38  H   LIG d   1       7.613  -8.218  -5.902  0.00  0.00     0.051 H 
ATOM     39  H   LIG d   1       6.323  -6.993  -5.654  0.00  0.00     0.051 H 
BRANCH  37  40
ATOM     40  C   LIG d   1       5.886  -8.931  -4.856  0.00  0.00     0.119 A 
ATOM     41  O   LIG d   1       4.606  -9.340  -4.853  0.00  0.00    -0.461 OA
ATOM     42  C   LIG d   1       4.386 -10.118  -3.781  0.00  0.00     0.131 A 
ATOM     43  C   LIG d   1       5.530 -10.205  -3.077  0.00  0.00    -0.018 A 
ATOM     44  C   LIG d   1       6.496  -9.440  -3.770  0.00  0.00    -0.019 A 
ATOM     45  H   LIG d   1       5.681 -10.754  -2.159  0.00  0.00     0.065 H 
ATOM     46  H   LIG d   1       7.527  -9.292  -3.484  0.00  0.00     0.065 H 
BRANCH  42  47
ATOM     47  C   LIG d   1       3.078 -10.775  -3.421  0.00  0.00     0.102 C 
ATOM     48  H   LIG d   1       2.654 -11.258  -4.313  0.00  0.00     0.064 H 
ATOM     49  H   LIG d   1       3.251 -11.531  -2.641  0.00  0.00     0.064 H 
BRANCH  47  50
ATOM     50  O   LIG d   1       2.167  -9.787  -2.935  0.00  0.00    -0.387 OA
ATOM     51  H   LIG d   1       1.083  -9.932  -3.056  0.00  0.00     0.210 HD
ENDBRANCH  47  50
ENDBRANCH  42  47
ENDBRANCH  37  40
ENDBRANCH  10  37
TORSDOF 8
ENDMDL
MODEL 2
REMARK VINA RESULT:      -7.1      3.088      4.308
REMARK  8 active torsions:
REMARK  status: ('A' for Active; 'I' for Inactive)
REMARK    1  A    between atoms: C_3  and  O_30 
REMARK    2  A    between atoms: C_6  and  C_7 
REMARK    3  A    between atoms: C_9  and  C_12 
REMARK    4  A    between atoms: N_21  and  C_22 
REMARK    5  A    between atoms: C_22  and  C_23 
REMARK    6  A    between atoms: C_26  and  C_28 
REMARK    7  A    between atoms: C_28  and  O_29 
REMARK    8  A    between atoms: O_30  and  C_31 
ROOT
ATOM      1  C   LIG d   1       6.426  -7.531  -5.871  0.00  0.00     0.096 C 
ATOM      2  H   LIG d   1       6.681  -7.985  -6.840  0.00  0.00     0.057 H 
ATOM      3  C   LIG d   1       5.039  -7.986  -5.396  0.00  0.00     0.014 C 
ATOM      4  C   LIG d   1       5.135  -9.443  -5.021  0.00  0.00     0.042 A 
ATOM      5  C   LIG d   1       6.307 -10.086  -4.819  0.00  0.00     0.076 A 
ATOM      6  N   LIG d   1       6.031 -11.353  -4.509  0.00  0.00    -0.239 NA
ATOM      7  C   LIG d   1       4.734 -11.524  -4.509  0.00  0.00     0.094 A 
ATOM      8  N   LIG d   1       4.141 -10.348  -4.826  0.00  0.00    -0.348 N 
ATOM      9  C   LIG d   1       7.652  -9.413  -4.938  0.00  0.00     0.044 C 
ATOM     10  N   LIG d   1       7.444  -7.956  -4.900  0.00  0.00    -0.278 N 
ATOM     11  H   LIG d   1       4.736  -7.388  -4.524  0.00  0.00     0.035 H 
ATOM     12  H   LIG d   1       4.309  -7.847  -6.207  0.00  0.00     0.035 H 
ATOM     13  H   LIG d   1       4.347 -12.421  -4.296  0.00  0.00     0.103 H 
ATOM     14  H   LIG d   1       8.293  -9.724  -4.100  0.00  0.00     0.049 H 
ATOM     15  H   LIG d   1       8.123  -9.702  -5.889  0.00  0.00     0.049 H 
ATOM     16  H   LIG d   1       3.090 -10.044  -4.937  0.00  0.00     0.167 HD
ENDROOT
BRANCH   1  17
ATOM     17  C   LIG d   1       6.446  -6.029  -5.995  0.00  0.00     0.245 A 
ATOM     18  N   LIG d   1       5.985  -5.170  -5.119  0.00  0.00    -0.190 NA
ATOM     19  C   LIG d   1       6.218  -3.949  -5.652  0.00  0.00     0.202 A 
ATOM     20  N   LIG d   1       6.800  -4.136  -6.809  0.00  0.00    -0.056 NA
ATOM     21  O   LIG d   1       6.941  -5.323  -7.016  0.00  0.00    -0.336 OA
BRANCH  19  22
ATOM     22  C   LIG d   1       5.877  -2.642  -5.039  0.00  0.00     0.023 A 
ATOM     23  C   LIG d   1       4.959  -1.797  -5.661  0.00  0.00    -0.048 A 
ATOM     24  C   LIG d   1       4.639  -0.586  -5.087  0.00  0.00    -0.019 A 
ATOM     25  H   LIG d   1       4.495  -2.095  -6.590  0.00  0.00     0.063 H 
ATOM     26  C   LIG d   1       5.241  -0.200  -3.896  0.00  0.00     0.130 A 
ATOM     27  H   LIG d   1       3.925   0.066  -5.566  0.00  0.00     0.065 H 
ATOM     28  C   LIG d   1       6.159  -1.037  -3.276  0.00  0.00    -0.019 A 
ATOM     29  C   LIG d   1       6.478  -2.252  -3.843  0.00  0.00    -0.048 A 
ATOM     30  H   LIG d   1       6.625  -0.734  -2.349  0.00  0.00     0.065 H 
ATOM     31  H   LIG d   1       7.194  -2.903  -3.361  0.00  0.00     0.063 H 
BRANCH  26  32
ATOM     32  O   LIG d   1       4.929   0.997  -3.335  0.00  0.00    -0.406 OA
BRANCH  32  33
ATOM     33  C   LIG d   1       4.026   0.979  -2.227  0.00  0.00     0.575 C 
ATOM     34  F   LIG d   1       3.319  -0.229  -2.222  0.00  0.00    -0.133 F 
ATOM     35  F   LIG d   1       4.748   1.101  -1.035  0.00  0.00    -0.133 F 
ATOM     36  F   LIG d   1       3.127   2.045  -2.339  0.00  0.00    -0.133 F 
ENDBRANCH  32  33
ENDBRANCH  26  32
ENDBRANCH  19  22
ENDBRANCH   1  17
BRANCH  10  37
ATOM     37  C   LIG d   1       8.708  -7.238  -5.114  0.00  0.00     0.058 C 
ATOM     38  H   LIG d   1       9.399  -7.876  -5.686  0.00  0.00     0.051 H 
ATOM     39  H   LIG d   1       8.514  -6.313  -5.675  0.00  0.00     0.051 H 
BRANCH  37  40
ATOM     40  C   LIG d   1       9.323  -6.899  -3.781  0.00  0.00     0.119 A 
ATOM     41  O   LIG d   1      10.007  -7.745  -2.994  0.00  0.00    -0.461 OA
ATOM     42  C   LIG d   1      10.411  -7.100  -1.887  0.00  0.00     0.131 A 
ATOM     43  C   LIG d   1       9.976  -5.829  -1.954  0.00  0.00    -0.018 A 
ATOM     44  C   LIG d   1       9.275  -5.699  -3.175  0.00  0.00    -0.019 A 
ATOM     45  H   LIG d   1      10.132  -5.055  -1.217  0.00  0.00     0.065 H 
ATOM     46  H   LIG d   1       8.793  -4.808  -3.550  0.00  0.00     0.065 H 
BRANCH  42  47
ATOM     47  C   LIG d   1      11.208  -7.700  -0.758  0.00  0.00     0.102 C 
ATOM     48  H   LIG d   1      11.074  -8.792  -0.755  0.00  0.00     0.064 H 
ATOM     49  H   LIG d   1      12.274  -7.462  -0.895  0.00  0.00     0.064 H 
BRANCH  47  50
ATOM     50  O   LIG d   1      10.755  -7.161   0.485  0.00  0.00    -0.387 OA
ATOM     51  H   LIG d   1      11.471  -6.983   1.301  0.00  0.00     0.210 HD
ENDBRANCH  47  50
ENDBRANCH  42  47
ENDBRANCH  37  40
ENDBRANCH  10  37
TORSDOF 8
ENDMDL
MODEL 3
REMARK VINA RESULT:      -7.0      8.088     13.234
REMARK  8 active torsions:
REMARK  status: ('A' for Active; 'I' for Inactive)
REMARK    1  A    between atoms: C_3  and  O_30 
REMARK    2  A    between atoms: C_6  and  C_7 
REMARK    3  A    between atoms: C_9  and  C_12 
REMARK    4  A    between atoms: N_21  and  C_22 
REMARK    5  A    between atoms: C_22  and  C_23 
REMARK    6  A    between atoms: C_26  and  C_28 
REMARK    7  A    between atoms: C_28  and  O_29 
REMARK    8  A    between atoms: O_30  and  C_31 
ROOT
ATOM      1  C   LIG d   1      10.003   5.261  -5.025  0.00  0.00     0.096 C 
ATOM      2  H   LIG d   1       9.122   5.743  -5.475  0.00  0.00     0.057 H 
ATOM      3  C   LIG d   1      11.127   5.091  -6.057  0.00  0.00     0.014 C 
ATOM      4  C   LIG d   1      11.672   6.461  -6.375  0.00  0.00     0.042 A 
ATOM      5  C   LIG d   1      11.433   7.553  -5.615  0.00  0.00     0.076 A 
ATOM      6  N   LIG d   1      12.055   8.589  -6.180  0.00  0.00    -0.239 NA
ATOM      7  C   LIG d   1      12.672   8.183  -7.260  0.00  0.00     0.094 A 
ATOM      8  N   LIG d   1      12.454   6.856  -7.413  0.00  0.00    -0.348 N 
ATOM      9  C   LIG d   1      10.601   7.522  -4.357  0.00  0.00     0.044 C 
ATOM     10  N   LIG d   1      10.468   6.121  -3.927  0.00  0.00    -0.278 N 
ATOM     11  H   LIG d   1      11.919   4.456  -5.635  0.00  0.00     0.035 H 
ATOM     12  H   LIG d   1      10.724   4.620  -6.965  0.00  0.00     0.035 H 
ATOM     13  H   LIG d   1      13.194   8.834  -7.813  0.00  0.00     0.103 H 
ATOM     14  H   LIG d   1      11.099   8.111  -3.573  0.00  0.00     0.049 H 
ATOM     15  H   LIG d   1       9.609   7.949  -4.564  0.00  0.00     0.049 H 
ATOM     16  H   LIG d   1      12.777   6.124  -8.168  0.00  0.00     0.167 HD
ENDROOT
BRANCH   1  17
ATOM     17  C   LIG d   1       9.618   3.911  -4.477  0.00  0.00     0.245 A 
ATOM     18  N   LIG d   1       8.465   3.309  -4.632  0.00  0.00    -0.190 NA
ATOM     19  C   LIG d   1       8.578   2.133  -3.973  0.00  0.00     0.202 A 
ATOM     20  N   LIG d   1       9.781   2.091  -3.461  0.00  0.00    -0.056 NA
ATOM     21  O   LIG d   1      10.390   3.101  -3.746  0.00  0.00    -0.336 OA
BRANCH  19  22
ATOM     22  C   LIG d   1       7.533   1.087  -3.853  0.00  0.00     0.023 A 
ATOM     23  C   LIG d   1       6.262   1.419  -3.386  0.00  0.00    -0.048 A 
ATOM     24  C   LIG d   1       5.292   0.446  -3.280  0.00  0.00    -0.019 A 
ATOM     25  H   LIG d   1       6.038   2.439  -3.111  0.00  0.00     0.063 H 
ATOM     26  C   LIG d   1       5.583  -0.867  -3.627  0.00  0.00     0.130 A 
ATOM     27  H   LIG d   1       4.307   0.704  -2.923  0.00  0.00     0.065 H 
ATOM     28  C   LIG d   1       6.849  -1.203  -4.088  0.00  0.00    -0.019 A 
ATOM     29  C   LIG d   1       7.822  -0.232  -4.201  0.00  0.00    -0.048 A 
ATOM     30  H   LIG d   1       7.072  -2.224  -4.358  0.00  0.00     0.065 H 
ATOM     31  H   LIG d   1       8.807  -0.493  -4.559  0.00  0.00     0.063 H 
BRANCH  26  32
ATOM     32  O   LIG d   1       4.626  -1.825  -3.517  0.00  0.00    -0.406 OA
BRANCH  32  33
ATOM     33  C   LIG d   1       3.818  -1.802  -2.338  0.00  0.00     0.575 C 
ATOM     34  F   LIG d   1       4.541  -1.225  -1.289  0.00  0.00    -0.133 F 
ATOM     35  F   LIG d   1       2.664  -1.049  -2.579  0.00  0.00    -0.133 F 
ATOM     36  F   LIG d   1       3.459  -3.110  -1.993  0.00  0.00    -0.133 F 
ENDBRANCH  32  33
ENDBRANCH  26  32
ENDBRANCH  19  22
ENDBRANCH   1  17
BRANCH  10  37
ATOM     37  C   LIG d   1       9.581   6.010  -2.761  0.00  0.00     0.058 C 
ATOM     38  H   LIG d   1       8.888   6.865  -2.745  0.00  0.00     0.051 H 
ATOM     39  H   LIG d   1       9.007   5.074  -2.824  0.00  0.00     0.051 H 
BRANCH  37  40
ATOM     40  C   LIG d   1      10.407   6.011  -1.501  0.00  0.00     0.119 A 
ATOM     41  O   LIG d   1      10.151   6.727  -0.394  0.00  0.00    -0.461 OA
ATOM     42  C   LIG d   1      11.094   6.477   0.529  0.00  0.00     0.131 A 
ATOM     43  C   LIG d   1      11.973   5.600   0.012  0.00  0.00    -0.018 A 
ATOM     44  C   LIG d   1      11.531   5.299  -1.296  0.00  0.00    -0.019 A 
ATOM     45  H   LIG d   1      12.849   5.202   0.502  0.00  0.00     0.065 H 
ATOM     46  H   LIG d   1      12.003   4.628  -1.998  0.00  0.00     0.065 H 
BRANCH  42  47
ATOM     47  C   LIG d   1      11.160   7.083   1.908  0.00  0.00     0.102 C 
ATOM     48  H   LIG d   1      12.128   7.587   2.040  0.00  0.00     0.064 H 
ATOM     49  H   LIG d   1      10.346   7.814   2.026  0.00  0.00     0.064 H 
BRANCH  47  50
ATOM     50  O   LIG d   1      11.022   6.052   2.888  0.00  0.00    -0.387 OA
ATOM     51  H   LIG d   1      10.115   6.002   3.509  0.00  0.00     0.210 HD
ENDBRANCH  47  50
ENDBRANCH  42  47
ENDBRANCH  37  40
ENDBRANCH  10  37
TORSDOF 8
ENDMDL
MODEL 4
REMARK VINA RESULT:      -7.0      7.484     10.273
REMARK  8 active torsions:
REMARK  status: ('A' for Active; 'I' for Inactive)
REMARK    1  A    between atoms: C_3  and  O_30 
REMARK    2  A    between atoms: C_6  and  C_7 
REMARK    3  A    between atoms: C_9  and  C_12 
REMARK    4  A    between atoms: N_21  and  C_22 
REMARK    5  A    between atoms: C_22  and  C_23 
REMARK    6  A    between atoms: C_26  and  C_28 
REMARK    7  A    between atoms: C_28  and  O_29 
REMARK    8  A    between atoms: O_30  and  C_31 
ROOT
ATOM      1  C   LIG d   1       8.893   1.543  -5.590  0.00  0.00     0.096 C 
ATOM      2  H   LIG d   1       9.522   0.652  -5.736  0.00  0.00     0.057 H 
ATOM      3  C   LIG d   1       8.779   2.359  -6.885  0.00  0.00     0.014 C 
ATOM      4  C   LIG d   1       7.944   1.565  -7.858  0.00  0.00     0.042 A 
ATOM      5  C   LIG d   1       7.172   0.516  -7.495  0.00  0.00     0.076 A 
ATOM      6  N   LIG d   1       6.577   0.046  -8.593  0.00  0.00    -0.239 NA
ATOM      7  C   LIG d   1       6.948   0.763  -9.623  0.00  0.00     0.094 A 
ATOM      8  N   LIG d   1       7.804   1.723  -9.199  0.00  0.00    -0.348 N 
ATOM      9  C   LIG d   1       7.053   0.027  -6.073  0.00  0.00     0.044 C 
ATOM     10  N   LIG d   1       7.560   1.081  -5.179  0.00  0.00    -0.278 N 
ATOM     11  H   LIG d   1       8.298   3.323  -6.670  0.00  0.00     0.035 H 
ATOM     12  H   LIG d   1       9.784   2.533  -7.299  0.00  0.00     0.035 H 
ATOM     13  H   LIG d   1       6.596   0.549 -10.534  0.00  0.00     0.103 H 
ATOM     14  H   LIG d   1       5.999  -0.187  -5.845  0.00  0.00     0.049 H 
ATOM     15  H   LIG d   1       7.649  -0.890  -5.950  0.00  0.00     0.049 H 
ATOM     16  H   LIG d   1       8.346   2.526  -9.719  0.00  0.00     0.167 HD
ENDROOT
BRANCH   1  17
ATOM     17  C   LIG d   1       9.482   2.406  -4.504  0.00  0.00     0.245 A 
ATOM     18  N   LIG d   1       9.267   3.685  -4.325  0.00  0.00    -0.190 NA
ATOM     19  C   LIG d   1       9.997   4.028  -3.240  0.00  0.00     0.202 A 
ATOM     20  N   LIG d   1      10.609   2.947  -2.828  0.00  0.00    -0.056 NA
ATOM     21  O   LIG d   1      10.319   2.009  -3.540  0.00  0.00    -0.336 OA
BRANCH  19  22
ATOM     22  C   LIG d   1      10.089   5.377  -2.630  0.00  0.00     0.023 A 
ATOM     23  C   LIG d   1       9.869   6.513  -3.408  0.00  0.00    -0.048 A 
ATOM     24  C   LIG d   1       9.950   7.765  -2.838  0.00  0.00    -0.019 A 
ATOM     25  H   LIG d   1       9.632   6.410  -4.457  0.00  0.00     0.063 H 
ATOM     26  C   LIG d   1      10.262   7.897  -1.491  0.00  0.00     0.130 A 
ATOM     27  H   LIG d   1       9.775   8.644  -3.440  0.00  0.00     0.065 H 
ATOM     28  C   LIG d   1      10.486   6.769  -0.713  0.00  0.00    -0.019 A 
ATOM     29  C   LIG d   1      10.401   5.513  -1.278  0.00  0.00    -0.048 A 
ATOM     30  H   LIG d   1      10.728   6.875   0.334  0.00  0.00     0.065 H 
ATOM     31  H   LIG d   1      10.577   4.636  -0.673  0.00  0.00     0.063 H 
BRANCH  26  32
ATOM     32  O   LIG d   1      10.346   9.132  -0.933  0.00  0.00    -0.406 OA
BRANCH  32  33
ATOM     33  C   LIG d   1       9.117   9.819  -0.688  0.00  0.00     0.575 C 
ATOM     34  F   LIG d   1       8.841  10.676  -1.760  0.00  0.00    -0.133 F 
ATOM     35  F   LIG d   1       8.081   8.889  -0.557  0.00  0.00    -0.133 F 
ATOM     36  F   LIG d   1       9.225  10.567   0.489  0.00  0.00    -0.133 F 
ENDBRANCH  32  33
ENDBRANCH  26  32
ENDBRANCH  19  22
ENDBRANCH   1  17
BRANCH  10  37
ATOM     37  C   LIG d   1       7.567   0.627  -3.782  0.00  0.00     0.058 C 
ATOM     38  H   LIG d   1       8.085  -0.341  -3.714  0.00  0.00     0.051 H 
ATOM     39  H   LIG d   1       8.090   1.367  -3.158  0.00  0.00     0.051 H 
BRANCH  37  40
ATOM     40  C   LIG d   1       6.149   0.474  -3.297  0.00  0.00     0.119 A 
ATOM     41  O   LIG d   1       5.398  -0.635  -3.403  0.00  0.00    -0.461 OA
ATOM     42  C   LIG d   1       4.189  -0.411  -2.862  0.00  0.00     0.131 A 
ATOM     43  C   LIG d   1       4.153   0.856  -2.412  0.00  0.00    -0.018 A 
ATOM     44  C   LIG d   1       5.416   1.426  -2.692  0.00  0.00    -0.019 A 
ATOM     45  H   LIG d   1       3.320   1.344  -1.928  0.00  0.00     0.065 H 
ATOM     46  H   LIG d   1       5.733   2.433  -2.464  0.00  0.00     0.065 H 
BRANCH  42  47
ATOM     47  C   LIG d   1       3.062  -1.408  -2.781  0.00  0.00     0.102 C 
ATOM     48  H   LIG d   1       2.336  -1.080  -2.023  0.00  0.00     0.064 H 
ATOM     49  H   LIG d   1       2.564  -1.478  -3.759  0.00  0.00     0.064 H 
BRANCH  47  50
ATOM     50  O   LIG d   1       3.583  -2.689  -2.418  0.00  0.00    -0.387 OA
ATOM     51  H   LIG d   1       3.156  -3.601  -2.860  0.00  0.00     0.210 HD
ENDBRANCH  47  50
ENDBRANCH  42  47
ENDBRANCH  37  40
ENDBRANCH  10  37
TORSDOF 8
ENDMDL
MODEL 5
REMARK VINA RESULT:      -6.9      7.822     13.284
REMARK  8 active torsions:
REMARK  status: ('A' for Active; 'I' for Inactive)
REMARK    1  A    between atoms: C_3  and  O_30 
REMARK    2  A    between atoms: C_6  and  C_7 
REMARK    3  A    between atoms: C_9  and  C_12 
REMARK    4  A    between atoms: N_21  and  C_22 
REMARK    5  A    between atoms: C_22  and  C_23 
REMARK    6  A    between atoms: C_26  and  C_28 
REMARK    7  A    between atoms: C_28  and  O_29 
REMARK    8  A    between atoms: O_30  and  C_31 
ROOT
ATOM      1  C   LIG d   1      10.521   5.114  -3.573  0.00  0.00     0.096 C 
ATOM      2  H   LIG d   1      11.544   5.122  -3.167  0.00  0.00     0.057 H 
ATOM      3  C   LIG d   1       9.561   5.901  -2.670  0.00  0.00     0.014 C 
ATOM      4  C   LIG d   1       9.913   7.363  -2.785  0.00  0.00     0.042 A 
ATOM      5  C   LIG d   1      10.688   7.868  -3.771  0.00  0.00     0.076 A 
ATOM      6  N   LIG d   1      10.800   9.182  -3.572  0.00  0.00    -0.239 NA
ATOM      7  C   LIG d   1      10.123   9.514  -2.503  0.00  0.00     0.094 A 
ATOM      8  N   LIG d   1       9.555   8.399  -1.984  0.00  0.00    -0.348 N 
ATOM      9  C   LIG d   1      11.281   7.025  -4.873  0.00  0.00     0.044 C 
ATOM     10  N   LIG d   1      10.568   5.737  -4.904  0.00  0.00    -0.278 N 
ATOM     11  H   LIG d   1       8.526   5.732  -3.000  0.00  0.00     0.035 H 
ATOM     12  H   LIG d   1       9.675   5.562  -1.630  0.00  0.00     0.035 H 
ATOM     13  H   LIG d   1      10.097  10.468  -2.203  0.00  0.00     0.103 H 
ATOM     14  H   LIG d   1      11.165   7.544  -5.835  0.00  0.00     0.049 H 
ATOM     15  H   LIG d   1      12.350   6.859  -4.671  0.00  0.00     0.049 H 
ATOM     16  H   LIG d   1       8.916   8.222  -1.107  0.00  0.00     0.167 HD
ENDROOT
BRANCH   1  17
ATOM     17  C   LIG d   1      10.037   3.693  -3.702  0.00  0.00     0.245 A 
ATOM     18  N   LIG d   1       8.800   3.279  -3.588  0.00  0.00    -0.190 NA
ATOM     19  C   LIG d   1       8.845   1.941  -3.778  0.00  0.00     0.202 A 
ATOM     20  N   LIG d   1      10.097   1.623  -3.993  0.00  0.00    -0.056 NA
ATOM     21  O   LIG d   1      10.790   2.618  -3.957  0.00  0.00    -0.336 OA
BRANCH  19  22
ATOM     22  C   LIG d   1       7.693   1.007  -3.748  0.00  0.00     0.023 A 
ATOM     23  C   LIG d   1       7.870  -0.332  -4.092  0.00  0.00    -0.048 A 
ATOM     24  C   LIG d   1       6.799  -1.199  -4.058  0.00  0.00    -0.019 A 
ATOM     25  H   LIG d   1       8.847  -0.691  -4.381  0.00  0.00     0.063 H 
ATOM     26  C   LIG d   1       5.541  -0.736  -3.693  0.00  0.00     0.130 A 
ATOM     27  H   LIG d   1       6.937  -2.237  -4.319  0.00  0.00     0.065 H 
ATOM     28  C   LIG d   1       5.360   0.598  -3.354  0.00  0.00    -0.019 A 
ATOM     29  C   LIG d   1       6.429   1.468  -3.381  0.00  0.00    -0.048 A 
ATOM     30  H   LIG d   1       4.381   0.955  -3.070  0.00  0.00     0.065 H 
ATOM     31  H   LIG d   1       6.288   2.507  -3.119  0.00  0.00     0.063 H 
BRANCH  26  32
ATOM     32  O   LIG d   1       4.486  -1.591  -3.665  0.00  0.00    -0.406 OA
BRANCH  32  33
ATOM     33  C   LIG d   1       3.771  -1.700  -2.432  0.00  0.00     0.575 C 
ATOM     34  F   LIG d   1       2.547  -1.031  -2.542  0.00  0.00    -0.133 F 
ATOM     35  F   LIG d   1       3.540  -3.050  -2.144  0.00  0.00    -0.133 F 
ATOM     36  F   LIG d   1       4.525  -1.126  -1.403  0.00  0.00    -0.133 F 
ENDBRANCH  32  33
ENDBRANCH  26  32
ENDBRANCH  19  22
ENDBRANCH   1  17
BRANCH  10  37
ATOM     37  C   LIG d   1      11.167   4.828  -5.890  0.00  0.00     0.058 C 
ATOM     38  H   LIG d   1      12.218   5.109  -6.058  0.00  0.00     0.051 H 
ATOM     39  H   LIG d   1      11.119   3.796  -5.514  0.00  0.00     0.051 H 
BRANCH  37  40
ATOM     40  C   LIG d   1      10.408   4.926  -7.188  0.00  0.00     0.119 A 
ATOM     41  O   LIG d   1      10.486   5.936  -8.069  0.00  0.00    -0.461 OA
ATOM     42  C   LIG d   1       9.674   5.686  -9.110  0.00  0.00     0.131 A 
ATOM     43  C   LIG d   1       9.058   4.510  -8.896  0.00  0.00    -0.018 A 
ATOM     44  C   LIG d   1       9.531   4.019  -7.657  0.00  0.00    -0.019 A 
ATOM     45  H   LIG d   1       8.341   4.031  -9.545  0.00  0.00     0.065 H 
ATOM     46  H   LIG d   1       9.244   3.095  -7.178  0.00  0.00     0.065 H 
BRANCH  42  47
ATOM     47  C   LIG d   1       9.480   6.577 -10.310  0.00  0.00     0.102 C 
ATOM     48  H   LIG d   1       9.297   7.609  -9.975  0.00  0.00     0.064 H 
ATOM     49  H   LIG d   1      10.385   6.550 -10.936  0.00  0.00     0.064 H 
BRANCH  47  50
ATOM     50  O   LIG d   1       8.361   6.117 -11.069  0.00  0.00    -0.387 OA
ATOM     51  H   LIG d   1       7.697   6.841 -11.564  0.00  0.00     0.210 HD
ENDBRANCH  47  50
ENDBRANCH  42  47
ENDBRANCH  37  40
ENDBRANCH  10  37
TORSDOF 8
ENDMDL
MODEL 6
REMARK VINA RESULT:      -6.9      6.457      8.373
REMARK  8 active torsions:
REMARK  status: ('A' for Active; 'I' for Inactive)
REMARK    1  A    between atoms: C_3  and  O_30 
REMARK    2  A    between atoms: C_6  and  C_7 
REMARK    3  A    between atoms: C_9  and  C_12 
REMARK    4  A    between atoms: N_21  and  C_22 
REMARK    5  A    between atoms: C_22  and  C_23 
REMARK    6  A    between atoms: C_26  and  C_28 
REMARK    7  A    between atoms: C_28  and  O_29 
REMARK    8  A    between atoms: O_30  and  C_31 
ROOT
ATOM      1  C   LIG d   1       5.989  -0.525  -7.752  0.00  0.00     0.096 C 
ATOM      2  H   LIG d   1       6.312  -1.335  -8.424  0.00  0.00     0.057 H 
ATOM      3  C   LIG d   1       5.283   0.592  -8.533  0.00  0.00     0.014 C 
ATOM      4  C   LIG d   1       3.956   0.056  -9.008  0.00  0.00     0.042 A 
ATOM      5  C   LIG d   1       3.387  -1.067  -8.516  0.00  0.00     0.076 A 
ATOM      6  N   LIG d   1       2.230  -1.253  -9.154  0.00  0.00    -0.239 NA
ATOM      7  C   LIG d   1       2.058  -0.289 -10.022  0.00  0.00     0.094 A 
ATOM      8  N   LIG d   1       3.120   0.549  -9.957  0.00  0.00    -0.348 N 
ATOM      9  C   LIG d   1       4.012  -1.906  -7.430  0.00  0.00     0.044 C 
ATOM     10  N   LIG d   1       5.059  -1.106  -6.774  0.00  0.00    -0.278 N 
ATOM     11  H   LIG d   1       5.130   1.459  -7.874  0.00  0.00     0.035 H 
ATOM     12  H   LIG d   1       5.904   0.889  -9.392  0.00  0.00     0.035 H 
ATOM     13  H   LIG d   1       1.237  -0.270 -10.593  0.00  0.00     0.103 H 
ATOM     14  H   LIG d   1       3.243  -2.194  -6.699  0.00  0.00     0.049 H 
ATOM     15  H   LIG d   1       4.453  -2.811  -7.875  0.00  0.00     0.049 H 
ATOM     16  H   LIG d   1       3.381   1.470 -10.498  0.00  0.00     0.167 HD
ENDROOT
BRANCH   1  17
ATOM     17  C   LIG d   1       7.184   0.044  -7.033  0.00  0.00     0.245 A 
ATOM     18  N   LIG d   1       7.278   1.238  -6.504  0.00  0.00    -0.190 NA
ATOM     19  C   LIG d   1       8.519   1.303  -5.972  0.00  0.00     0.202 A 
ATOM     20  N   LIG d   1       9.102   0.156  -6.207  0.00  0.00    -0.056 NA
ATOM     21  O   LIG d   1       8.347  -0.578  -6.810  0.00  0.00    -0.336 OA
BRANCH  19  22
ATOM     22  C   LIG d   1       9.111   2.460  -5.256  0.00  0.00     0.023 A 
ATOM     23  C   LIG d   1       9.679   3.511  -5.974  0.00  0.00    -0.048 A 
ATOM     24  C   LIG d   1      10.223   4.587  -5.307  0.00  0.00    -0.019 A 
ATOM     25  H   LIG d   1       9.689   3.483  -7.054  0.00  0.00     0.063 H 
ATOM     26  C   LIG d   1      10.217   4.619  -3.918  0.00  0.00     0.130 A 
ATOM     27  H   LIG d   1      10.659   5.403  -5.863  0.00  0.00     0.065 H 
ATOM     28  C   LIG d   1       9.656   3.572  -3.199  0.00  0.00    -0.019 A 
ATOM     29  C   LIG d   1       9.105   2.496  -3.862  0.00  0.00    -0.048 A 
ATOM     30  H   LIG d   1       9.652   3.601  -2.119  0.00  0.00     0.065 H 
ATOM     31  H   LIG d   1       8.670   1.681  -3.302  0.00  0.00     0.063 H 
BRANCH  26  32
ATOM     32  O   LIG d   1      10.759   5.678  -3.262  0.00  0.00    -0.406 OA
BRANCH  32  33
ATOM     33  C   LIG d   1       9.863   6.714  -2.850  0.00  0.00     0.575 C 
ATOM     34  F   LIG d   1      10.516   7.949  -2.917  0.00  0.00    -0.133 F 
ATOM     35  F   LIG d   1       8.748   6.729  -3.694  0.00  0.00    -0.133 F 
ATOM     36  F   LIG d   1       9.449   6.476  -1.534  0.00  0.00    -0.133 F 
ENDBRANCH  32  33
ENDBRANCH  26  32
ENDBRANCH  19  22
ENDBRANCH   1  17
BRANCH  10  37
ATOM     37  C   LIG d   1       5.779  -1.902  -5.770  0.00  0.00     0.058 C 
ATOM     38  H   LIG d   1       5.616  -2.973  -5.967  0.00  0.00     0.051 H 
ATOM     39  H   LIG d   1       6.854  -1.678  -5.828  0.00  0.00     0.051 H 
BRANCH  37  40
ATOM     40  C   LIG d   1       5.266  -1.560  -4.396  0.00  0.00     0.119 A 
ATOM     41  O   LIG d   1       5.266  -0.337  -3.839  0.00  0.00    -0.461 OA
ATOM     42  C   LIG d   1       4.732  -0.405  -2.609  0.00  0.00     0.131 A 
ATOM     43  C   LIG d   1       4.392  -1.683  -2.363  0.00  0.00    -0.018 A 
ATOM     44  C   LIG d   1       4.736  -2.428  -3.515  0.00  0.00    -0.019 A 
ATOM     45  H   LIG d   1       3.942  -2.068  -1.460  0.00  0.00     0.065 H 
ATOM     46  H   LIG d   1       4.600  -3.489  -3.660  0.00  0.00     0.065 H 
BRANCH  42  47
ATOM     47  C   LIG d   1       4.551   0.753  -1.662  0.00  0.00     0.102 C 
ATOM     48  H   LIG d   1       4.422   0.372  -0.638  0.00  0.00     0.064 H 
ATOM     49  H   LIG d   1       5.439   1.402  -1.703  0.00  0.00     0.064 H 
BRANCH  47  50
ATOM     50  O   LIG d   1       3.395   1.503  -2.040  0.00  0.00    -0.387 OA
ATOM     51  H   LIG d   1       3.203   1.719  -3.101  0.00  0.00     0.210 HD
ENDBRANCH  47  50
ENDBRANCH  42  47
ENDBRANCH  37  40
ENDBRANCH  10  37
TORSDOF 8
ENDMDL
MODEL 7
REMARK VINA RESULT:      -6.6      5.048      9.692
REMARK  8 active torsions:
REMARK  status: ('A' for Active; 'I' for Inactive)
REMARK    1  A    between atoms: C_3  and  O_30 
REMARK    2  A    between atoms: C_6  and  C_7 
REMARK    3  A    between atoms: C_9  and  C_12 
REMARK    4  A    between atoms: N_21  and  C_22 
REMARK    5  A    between atoms: C_22  and  C_23 
REMARK    6  A    between atoms: C_26  and  C_28 
REMARK    7  A    between atoms: C_28  and  O_29 
REMARK    8  A    between atoms: O_30  and  C_31 
ROOT
ATOM      1  C   LIG d   1       5.102  -2.650  -4.725  0.00  0.00     0.096 C 
ATOM      2  H   LIG d   1       6.196  -2.596  -4.617  0.00  0.00     0.057 H 
ATOM      3  C   LIG d   1       4.402  -2.440  -3.375  0.00  0.00     0.014 C 
ATOM      4  C   LIG d   1       4.589  -0.997  -2.979  0.00  0.00     0.042 A 
ATOM      5  C   LIG d   1       4.988  -0.033  -3.838  0.00  0.00     0.076 A 
ATOM      6  N   LIG d   1       5.053   1.116  -3.164  0.00  0.00    -0.239 NA
ATOM      7  C   LIG d   1       4.708   0.905  -1.920  0.00  0.00     0.094 A 
ATOM      8  N   LIG d   1       4.411  -0.408  -1.768  0.00  0.00    -0.348 N 
ATOM      9  C   LIG d   1       5.284  -0.292  -5.295  0.00  0.00     0.044 C 
ATOM     10  N   LIG d   1       4.697  -1.591  -5.661  0.00  0.00    -0.278 N 
ATOM     11  H   LIG d   1       3.332  -2.671  -3.478  0.00  0.00     0.035 H 
ATOM     12  H   LIG d   1       4.851  -3.104  -2.622  0.00  0.00     0.035 H 
ATOM     13  H   LIG d   1       4.700   1.662  -1.267  0.00  0.00     0.103 H 
ATOM     14  H   LIG d   1       4.843   0.508  -5.907  0.00  0.00     0.049 H 
ATOM     15  H   LIG d   1       6.374  -0.314  -5.449  0.00  0.00     0.049 H 
ATOM     16  H   LIG d   1       4.082  -1.008  -0.907  0.00  0.00     0.167 HD
ENDROOT
BRANCH   1  17
ATOM     17  C   LIG d   1       4.714  -3.993  -5.288  0.00  0.00     0.245 A 
ATOM     18  N   LIG d   1       5.429  -5.089  -5.247  0.00  0.00    -0.190 NA
ATOM     19  C   LIG d   1       4.684  -6.031  -5.869  0.00  0.00     0.202 A 
ATOM     20  N   LIG d   1       3.571  -5.457  -6.249  0.00  0.00    -0.056 NA
ATOM     21  O   LIG d   1       3.573  -4.290  -5.918  0.00  0.00    -0.336 OA
BRANCH  19  22
ATOM     22  C   LIG d   1       5.059  -7.451  -6.083  0.00  0.00     0.023 A 
ATOM     23  C   LIG d   1       5.946  -8.079  -5.210  0.00  0.00    -0.048 A 
ATOM     24  C   LIG d   1       6.288  -9.399  -5.408  0.00  0.00    -0.019 A 
ATOM     25  H   LIG d   1       6.362  -7.531  -4.377  0.00  0.00     0.063 H 
ATOM     26  C   LIG d   1       5.758 -10.101  -6.482  0.00  0.00     0.130 A 
ATOM     27  H   LIG d   1       6.971  -9.887  -4.729  0.00  0.00     0.065 H 
ATOM     28  C   LIG d   1       4.878  -9.478  -7.357  0.00  0.00    -0.019 A 
ATOM     29  C   LIG d   1       4.528  -8.159  -7.161  0.00  0.00    -0.048 A 
ATOM     30  H   LIG d   1       4.467 -10.027  -8.192  0.00  0.00     0.065 H 
ATOM     31  H   LIG d   1       3.844  -7.674  -7.842  0.00  0.00     0.063 H 
BRANCH  26  32
ATOM     32  O   LIG d   1       6.101 -11.401  -6.678  0.00  0.00    -0.406 OA
BRANCH  32  33
ATOM     33  C   LIG d   1       5.269 -12.391  -6.068  0.00  0.00     0.575 C 
ATOM     34  F   LIG d   1       5.715 -13.665  -6.435  0.00  0.00    -0.133 F 
ATOM     35  F   LIG d   1       5.329 -12.258  -4.677  0.00  0.00    -0.133 F 
ATOM     36  F   LIG d   1       3.948 -12.219  -6.497  0.00  0.00    -0.133 F 
ENDBRANCH  32  33
ENDBRANCH  26  32
ENDBRANCH  19  22
ENDBRANCH   1  17
BRANCH  10  37
ATOM     37  C   LIG d   1       5.038  -1.952  -7.044  0.00  0.00     0.058 C 
ATOM     38  H   LIG d   1       5.920  -1.377  -7.365  0.00  0.00     0.051 H 
ATOM     39  H   LIG d   1       5.261  -3.027  -7.098  0.00  0.00     0.051 H 
BRANCH  37  40
ATOM     40  C   LIG d   1       3.875  -1.633  -7.946  0.00  0.00     0.119 A 
ATOM     41  O   LIG d   1       3.380  -2.435  -8.904  0.00  0.00    -0.461 OA
ATOM     42  C   LIG d   1       2.344  -1.828  -9.505  0.00  0.00     0.131 A 
ATOM     43  C   LIG d   1       2.173  -0.619  -8.940  0.00  0.00    -0.018 A 
ATOM     44  C   LIG d   1       3.159  -0.493  -7.935  0.00  0.00    -0.019 A 
ATOM     45  H   LIG d   1       1.425   0.114  -9.203  0.00  0.00     0.065 H 
ATOM     46  H   LIG d   1       3.310   0.354  -7.283  0.00  0.00     0.065 H 
BRANCH  42  47
ATOM     47  C   LIG d   1       1.519  -2.400 -10.629  0.00  0.00     0.102 C 
ATOM     48  H   LIG d   1       1.022  -1.583 -11.172  0.00  0.00     0.064 H 
ATOM     49  H   LIG d   1       2.174  -2.954 -11.319  0.00  0.00     0.064 H 
BRANCH  47  50
ATOM     50  O   LIG d   1       0.534  -3.286 -10.094  0.00  0.00    -0.387 OA
ATOM     51  H   LIG d   1       0.695  -4.373 -10.126  0.00  0.00     0.210 HD
ENDBRANCH  47  50
ENDBRANCH  42  47
ENDBRANCH  37  40
ENDBRANCH  10  37
TORSDOF 8
ENDMDL
MODEL 8
REMARK VINA RESULT:      -6.5      6.759      8.790
REMARK  8 active torsions:
REMARK  status: ('A' for Active; 'I' for Inactive)
REMARK    1  A    between atoms: C_3  and  O_30 
REMARK    2  A    between atoms: C_6  and  C_7 
REMARK    3  A    between atoms: C_9  and  C_12 
REMARK    4  A    between atoms: N_21  and  C_22 
REMARK    5  A    between atoms: C_22  and  C_23 
REMARK    6  A    between atoms: C_26  and  C_28 
REMARK    7  A    between atoms: C_28  and  O_29 
REMARK    8  A    between atoms: O_30  and  C_31 
ROOT
ATOM      1  C   LIG d   1       7.181   0.424  -7.526  0.00  0.00     0.096 C 
ATOM      2  H   LIG d   1       7.680  -0.326  -8.158  0.00  0.00     0.057 H 
ATOM      3  C   LIG d   1       6.546   1.531  -8.379  0.00  0.00     0.014 C 
ATOM      4  C   LIG d   1       5.370   0.933  -9.110  0.00  0.00     0.042 A 
ATOM      5  C   LIG d   1       4.808  -0.250  -8.775  0.00  0.00     0.076 A 
ATOM      6  N   LIG d   1       3.802  -0.480  -9.621  0.00  0.00    -0.239 NA
ATOM      7  C   LIG d   1       3.717   0.514 -10.467  0.00  0.00     0.094 A 
ATOM      8  N   LIG d   1       4.683   1.417 -10.176  0.00  0.00    -0.348 N 
ATOM      9  C   LIG d   1       5.289  -1.101  -7.626  0.00  0.00     0.044 C 
ATOM     10  N   LIG d   1       6.137  -0.268  -6.758  0.00  0.00    -0.278 N 
ATOM     11  H   LIG d   1       6.211   2.350  -7.726  0.00  0.00     0.035 H 
ATOM     12  H   LIG d   1       7.287   1.913  -9.097  0.00  0.00     0.035 H 
ATOM     13  H   LIG d   1       3.013   0.507 -11.178  0.00  0.00     0.103 H 
ATOM     14  H   LIG d   1       4.425  -1.478  -7.061  0.00  0.00     0.049 H 
ATOM     15  H   LIG d   1       5.870  -1.950  -8.017  0.00  0.00     0.049 H 
ATOM     16  H   LIG d   1       4.968   2.381 -10.623  0.00  0.00     0.167 HD
ENDROOT
BRANCH   1  17
ATOM     17  C   LIG d   1       8.181   1.034  -6.578  0.00  0.00     0.245 A 
ATOM     18  N   LIG d   1       8.139   2.243  -6.075  0.00  0.00    -0.190 NA
ATOM     19  C   LIG d   1       9.232   2.345  -5.285  0.00  0.00     0.202 A 
ATOM     20  N   LIG d   1       9.869   1.204  -5.356  0.00  0.00    -0.056 NA
ATOM     21  O   LIG d   1       9.275   0.442  -6.089  0.00  0.00    -0.336 OA
BRANCH  19  22
ATOM     22  C   LIG d   1       9.636   3.530  -4.489  0.00  0.00     0.023 A 
ATOM     23  C   LIG d   1      10.105   3.370  -3.186  0.00  0.00    -0.048 A 
ATOM     24  C   LIG d   1      10.484   4.472  -2.450  0.00  0.00    -0.019 A 
ATOM     25  H   LIG d   1      10.173   2.382  -2.755  0.00  0.00     0.063 H 
ATOM     26  C   LIG d   1      10.389   5.743  -3.002  0.00  0.00     0.130 A 
ATOM     27  H   LIG d   1      10.851   4.347  -1.443  0.00  0.00     0.065 H 
ATOM     28  C   LIG d   1       9.919   5.907  -4.298  0.00  0.00    -0.019 A 
ATOM     29  C   LIG d   1       9.543   4.807  -5.041  0.00  0.00    -0.048 A 
ATOM     30  H   LIG d   1       9.846   6.897  -4.725  0.00  0.00     0.065 H 
ATOM     31  H   LIG d   1       9.176   4.935  -6.049  0.00  0.00     0.063 H 
BRANCH  26  32
ATOM     32  O   LIG d   1      10.758   6.828  -2.273  0.00  0.00    -0.406 OA
BRANCH  32  33
ATOM     33  C   LIG d   1       9.906   7.201  -1.188  0.00  0.00     0.575 C 
ATOM     34  F   LIG d   1      10.138   8.539  -0.852  0.00  0.00    -0.133 F 
ATOM     35  F   LIG d   1       8.570   7.040  -1.567  0.00  0.00    -0.133 F 
ATOM     36  F   LIG d   1      10.178   6.389  -0.081  0.00  0.00    -0.133 F 
ENDBRANCH  32  33
ENDBRANCH  26  32
ENDBRANCH  19  22
ENDBRANCH   1  17
BRANCH  10  37
ATOM     37  C   LIG d   1       6.722  -1.065  -5.672  0.00  0.00     0.058 C 
ATOM     38  H   LIG d   1       7.028  -2.047  -6.062  0.00  0.00     0.051 H 
ATOM     39  H   LIG d   1       7.600  -0.542  -5.266  0.00  0.00     0.051 H 
BRANCH  37  40
ATOM     40  C   LIG d   1       5.700  -1.254  -4.581  0.00  0.00     0.119 A 
ATOM     41  O   LIG d   1       4.459  -0.742  -4.571  0.00  0.00    -0.461 OA
ATOM     42  C   LIG d   1       3.828  -1.117  -3.446  0.00  0.00     0.131 A 
ATOM     43  C   LIG d   1       4.672  -1.870  -2.717  0.00  0.00    -0.018 A 
ATOM     44  C   LIG d   1       5.878  -1.959  -3.449  0.00  0.00    -0.019 A 
ATOM     45  H   LIG d   1       4.467  -2.322  -1.758  0.00  0.00     0.065 H 
ATOM     46  H   LIG d   1       6.772  -2.490  -3.156  0.00  0.00     0.065 H 
BRANCH  42  47
ATOM     47  C   LIG d   1       2.418  -0.750  -3.062  0.00  0.00     0.102 C 
ATOM     48  H   LIG d   1       1.954  -1.591  -2.526  0.00  0.00     0.064 H 
ATOM     49  H   LIG d   1       2.435   0.136  -2.409  0.00  0.00     0.064 H 
BRANCH  47  50
ATOM     50  O   LIG d   1       1.663  -0.460  -4.240  0.00  0.00    -0.387 OA
ATOM     51  H   LIG d   1       0.978   0.400  -4.256  0.00  0.00     0.210 HD
ENDBRANCH  47  50
ENDBRANCH  42  47
ENDBRANCH  37  40
ENDBRANCH  10  37
TORSDOF 8
ENDMDL
MODEL 9
REMARK VINA RESULT:      -6.3      5.217      8.698
REMARK  8 active torsions:
REMARK  status: ('A' for Active; 'I' for Inactive)
REMARK    1  A    between atoms: C_3  and  O_30 
REMARK    2  A    between atoms: C_6  and  C_7 
REMARK    3  A    between atoms: C_9  and  C_12 
REMARK    4  A    between atoms: N_21  and  C_22 
REMARK    5  A    between atoms: C_22  and  C_23 
REMARK    6  A    between atoms: C_26  and  C_28 
REMARK    7  A    between atoms: C_28  and  O_29 
REMARK    8  A    between atoms: O_30  and  C_31 
ROOT
ATOM      1  C   LIG d   1       6.264  -1.851  -4.199  0.00  0.00     0.096 C 
ATOM      2  H   LIG d   1       5.761  -2.229  -3.296  0.00  0.00     0.057 H 
ATOM      3  C   LIG d   1       7.482  -2.717  -4.555  0.00  0.00     0.014 C 
ATOM      4  C   LIG d   1       6.973  -4.052  -5.037  0.00  0.00     0.042 A 
ATOM      5  C   LIG d   1       5.691  -4.272  -5.407  0.00  0.00     0.076 A 
ATOM      6  N   LIG d   1       5.585  -5.550  -5.773  0.00  0.00    -0.239 NA
ATOM      7  C   LIG d   1       6.749  -6.132  -5.647  0.00  0.00     0.094 A 
ATOM      8  N   LIG d   1       7.642  -5.224  -5.188  0.00  0.00    -0.348 N 
ATOM      9  C   LIG d   1       4.627  -3.203  -5.385  0.00  0.00     0.044 C 
ATOM     10  N   LIG d   1       5.291  -1.893  -5.299  0.00  0.00    -0.278 N 
ATOM     11  H   LIG d   1       8.063  -2.223  -5.346  0.00  0.00     0.035 H 
ATOM     12  H   LIG d   1       8.112  -2.848  -3.663  0.00  0.00     0.035 H 
ATOM     13  H   LIG d   1       6.853  -7.100  -5.879  0.00  0.00     0.103 H 
ATOM     14  H   LIG d   1       4.028  -3.263  -6.306  0.00  0.00     0.049 H 
ATOM     15  H   LIG d   1       3.975  -3.353  -4.512  0.00  0.00     0.049 H 
ATOM     16  H   LIG d   1       8.713  -5.281  -4.945  0.00  0.00     0.167 HD
ENDROOT
BRANCH   1  17
ATOM     17  C   LIG d   1       6.709  -0.429  -3.974  0.00  0.00     0.245 A 
ATOM     18  N   LIG d   1       7.636   0.211  -4.643  0.00  0.00    -0.190 NA
ATOM     19  C   LIG d   1       7.689   1.447  -4.097  0.00  0.00     0.202 A 
ATOM     20  N   LIG d   1       6.801   1.484  -3.136  0.00  0.00    -0.056 NA
ATOM     21  O   LIG d   1       6.229   0.418  -3.058  0.00  0.00    -0.336 OA
BRANCH  19  22
ATOM     22  C   LIG d   1       8.587   2.554  -4.508  0.00  0.00     0.023 A 
ATOM     23  C   LIG d   1       9.175   3.371  -3.544  0.00  0.00    -0.048 A 
ATOM     24  C   LIG d   1      10.014   4.395  -3.929  0.00  0.00    -0.019 A 
ATOM     25  H   LIG d   1       8.977   3.200  -2.497  0.00  0.00     0.063 H 
ATOM     26  C   LIG d   1      10.264   4.620  -5.277  0.00  0.00     0.130 A 
ATOM     27  H   LIG d   1      10.473   5.026  -3.183  0.00  0.00     0.065 H 
ATOM     28  C   LIG d   1       9.677   3.811  -6.240  0.00  0.00    -0.019 A 
ATOM     29  C   LIG d   1       8.841   2.781  -5.860  0.00  0.00    -0.048 A 
ATOM     30  H   LIG d   1       9.874   3.988  -7.287  0.00  0.00     0.065 H 
ATOM     31  H   LIG d   1       8.384   2.152  -6.610  0.00  0.00     0.063 H 
BRANCH  26  32
ATOM     32  O   LIG d   1      11.087   5.634  -5.654  0.00  0.00    -0.406 OA
BRANCH  32  33
ATOM     33  C   LIG d   1      10.466   6.823  -6.149  0.00  0.00     0.575 C 
ATOM     34  F   LIG d   1      11.245   7.933  -5.807  0.00  0.00    -0.133 F 
ATOM     35  F   LIG d   1      10.353   6.744  -7.542  0.00  0.00    -0.133 F 
ATOM     36  F   LIG d   1       9.193   6.955  -5.585  0.00  0.00    -0.133 F 
ENDBRANCH  32  33
ENDBRANCH  26  32
ENDBRANCH  19  22
ENDBRANCH   1  17
BRANCH  10  37
ATOM     37  C   LIG d   1       4.306  -0.810  -5.172  0.00  0.00     0.058 C 
ATOM     38  H   LIG d   1       3.363  -1.218  -4.776  0.00  0.00     0.051 H 
ATOM     39  H   LIG d   1       4.691  -0.043  -4.484  0.00  0.00     0.051 H 
BRANCH  37  40
ATOM     40  C   LIG d   1       4.059  -0.195  -6.525  0.00  0.00     0.119 A 
ATOM     41  O   LIG d   1       5.002   0.277  -7.357  0.00  0.00    -0.461 OA
ATOM     42  C   LIG d   1       4.419   0.748  -8.472  0.00  0.00     0.131 A 
ATOM     43  C   LIG d   1       3.089   0.590  -8.356  0.00  0.00    -0.018 A 
ATOM     44  C   LIG d   1       2.856  -0.018  -7.101  0.00  0.00    -0.019 A 
ATOM     45  H   LIG d   1       2.341   0.872  -9.083  0.00  0.00     0.065 H 
ATOM     46  H   LIG d   1       1.897  -0.290  -6.685  0.00  0.00     0.065 H 
BRANCH  42  47
ATOM     47  C   LIG d   1       5.135   1.359  -9.649  0.00  0.00     0.102 C 
ATOM     48  H   LIG d   1       5.867   0.640 -10.046  0.00  0.00     0.064 H 
ATOM     49  H   LIG d   1       4.404   1.608 -10.433  0.00  0.00     0.064 H 
BRANCH  47  50
ATOM     50  O   LIG d   1       5.812   2.546  -9.232  0.00  0.00    -0.387 OA
ATOM     51  H   LIG d   1       6.013   3.348  -9.958  0.00  0.00     0.210 HD
ENDBRANCH  47  50
ENDBRANCH  42  47
ENDBRANCH  37  40
ENDBRANCH  10  37
TORSDOF 8
ENDMDL
MODEL 10
REMARK VINA RESULT:      -6.3      7.812     12.529
REMARK  8 active torsions:
REMARK  status: ('A' for Active; 'I' for Inactive)
REMARK    1  A    between atoms: C_3  and  O_30 
REMARK    2  A    between atoms: C_6  and  C_7 
REMARK    3  A    between atoms: C_9  and  C_12 
REMARK    4  A    between atoms: N_21  and  C_22 
REMARK    5  A    between atoms: C_22  and  C_23 
REMARK    6  A    between atoms: C_26  and  C_28 
REMARK    7  A    between atoms: C_28  and  O_29 
REMARK    8  A    between atoms: O_30  and  C_31 
ROOT
ATOM      1  C   LIG d   1       9.829   4.383  -6.643  0.00  0.00     0.096 C 
ATOM      2  H   LIG d   1       8.974   4.546  -7.317  0.00  0.00     0.057 H 
ATOM      3  C   LIG d   1      11.081   3.966  -7.427  0.00  0.00     0.014 C 
ATOM      4  C   LIG d   1      11.551   5.163  -8.215  0.00  0.00     0.042 A 
ATOM      5  C   LIG d   1      11.137   6.426  -7.971  0.00  0.00     0.076 A 
ATOM      6  N   LIG d   1      11.740   7.232  -8.846  0.00  0.00    -0.239 NA
ATOM      7  C   LIG d   1      12.515   6.519  -9.623  0.00  0.00     0.094 A 
ATOM      8  N   LIG d   1      12.421   5.219  -9.256  0.00  0.00    -0.348 N 
ATOM      9  C   LIG d   1      10.161   6.781  -6.876  0.00  0.00     0.044 C 
ATOM     10  N   LIG d   1      10.086   5.648  -5.940  0.00  0.00    -0.278 N 
ATOM     11  H   LIG d   1      11.862   3.642  -6.725  0.00  0.00     0.035 H 
ATOM     12  H   LIG d   1      10.830   3.137  -8.106  0.00  0.00     0.035 H 
ATOM     13  H   LIG d   1      13.048   6.964 -10.343  0.00  0.00     0.103 H 
ATOM     14  H   LIG d   1      10.511   7.682  -6.351  0.00  0.00     0.049 H 
ATOM     15  H   LIG d   1       9.171   6.974  -7.316  0.00  0.00     0.049 H 
ATOM     16  H   LIG d   1      12.891   4.298  -9.631  0.00  0.00     0.167 HD
ENDROOT
BRANCH   1  17
ATOM     17  C   LIG d   1       9.485   3.312  -5.640  0.00  0.00     0.245 A 
ATOM     18  N   LIG d   1       8.285   2.878  -5.346  0.00  0.00    -0.190 NA
ATOM     19  C   LIG d   1       8.465   1.925  -4.403  0.00  0.00     0.202 A 
ATOM     20  N   LIG d   1       9.752   1.838  -4.181  0.00  0.00    -0.056 NA
ATOM     21  O   LIG d   1      10.349   2.624  -4.886  0.00  0.00    -0.336 OA
BRANCH  19  22
ATOM     22  C   LIG d   1       7.403   1.127  -3.743  0.00  0.00     0.023 A 
ATOM     23  C   LIG d   1       6.278   1.761  -3.217  0.00  0.00    -0.048 A 
ATOM     24  C   LIG d   1       5.290   1.016  -2.609  0.00  0.00    -0.019 A 
ATOM     25  H   LIG d   1       6.180   2.834  -3.289  0.00  0.00     0.063 H 
ATOM     26  C   LIG d   1       5.419  -0.363  -2.511  0.00  0.00     0.130 A 
ATOM     27  H   LIG d   1       4.417   1.507  -2.206  0.00  0.00     0.065 H 
ATOM     28  C   LIG d   1       6.540  -0.997  -3.030  0.00  0.00    -0.019 A 
ATOM     29  C   LIG d   1       7.529  -0.258  -3.644  0.00  0.00    -0.048 A 
ATOM     30  H   LIG d   1       6.638  -2.070  -2.952  0.00  0.00     0.065 H 
ATOM     31  H   LIG d   1       8.402  -0.752  -4.047  0.00  0.00     0.063 H 
BRANCH  26  32
ATOM     32  O   LIG d   1       4.446  -1.094  -1.906  0.00  0.00    -0.406 OA
BRANCH  32  33
ATOM     33  C   LIG d   1       3.553  -1.814  -2.758  0.00  0.00     0.575 C 
ATOM     34  F   LIG d   1       2.266  -1.277  -2.645  0.00  0.00    -0.133 F 
ATOM     35  F   LIG d   1       3.986  -1.710  -4.084  0.00  0.00    -0.133 F 
ATOM     36  F   LIG d   1       3.530  -3.161  -2.378  0.00  0.00    -0.133 F 
ENDBRANCH  32  33
ENDBRANCH  26  32
ENDBRANCH  19  22
ENDBRANCH   1  17
BRANCH  10  37
ATOM     37  C   LIG d   1       9.074   5.889  -4.902  0.00  0.00     0.058 C 
ATOM     38  H   LIG d   1       8.373   6.664  -5.247  0.00  0.00     0.051 H 
ATOM     39  H   LIG d   1       8.523   4.958  -4.704  0.00  0.00     0.051 H 
BRANCH  37  40
ATOM     40  C   LIG d   1       9.752   6.352  -3.639  0.00  0.00     0.119 A 
ATOM     41  O   LIG d   1       9.982   5.599  -2.550  0.00  0.00    -0.461 OA
ATOM     42  C   LIG d   1      10.607   6.338  -1.619  0.00  0.00     0.131 A 
ATOM     43  C   LIG d   1      10.774   7.582  -2.104  0.00  0.00    -0.018 A 
ATOM     44  C   LIG d   1      10.223   7.591  -3.406  0.00  0.00    -0.019 A 
ATOM     45  H   LIG d   1      11.240   8.414  -1.598  0.00  0.00     0.065 H 
ATOM     46  H   LIG d   1      10.186   8.430  -4.085  0.00  0.00     0.065 H 
BRANCH  42  47
ATOM     47  C   LIG d   1      11.041   5.858  -0.258  0.00  0.00     0.102 C 
ATOM     48  H   LIG d   1      11.884   6.470   0.095  0.00  0.00     0.064 H 
ATOM     49  H   LIG d   1      10.201   5.948   0.447  0.00  0.00     0.064 H 
BRANCH  47  50
ATOM     50  O   LIG d   1      11.448   4.490  -0.342  0.00  0.00    -0.387 OA
ATOM     51  H   LIG d   1      12.222   4.190  -1.063  0.00  0.00     0.210 HD
ENDBRANCH  47  50
ENDBRANCH  42  47
ENDBRANCH  37  40
ENDBRANCH  10  37
TORSDOF 8
ENDMDL
