MODEL 1
REMARK VINA RESULT:      -4.9      0.000      0.000
REMARK  6 active torsions:
REMARK  status: ('A' for Active; 'I' for Inactive)
REMARK    1  A    between atoms: C_1  and  C_2 
REMARK    2  A    between atoms: C_2  and  C_4 
REMARK    3  A    between atoms: C_5  and  O_15 
REMARK    4  A    between atoms: C_8  and  C_11 
REMARK    5  A    between atoms: C_9  and  O_10 
REMARK    6  A    between atoms: C_11  and  C_13 
ROOT
ATOM      1  C   LIG d   1       3.441  -0.064  -5.430  0.00  0.00     0.100 A 
ATOM      2  C   LIG d   1       2.449  -0.328  -4.464  0.00  0.00     0.130 A 
ATOM      3  C   LIG d   1       2.808  -0.736  -3.191  0.00  0.00    -0.026 A 
ATOM      4  C   LIG d   1       4.141  -0.889  -2.853  0.00  0.00    -0.091 A 
ATOM      5  C   LIG d   1       5.149  -0.630  -3.803  0.00  0.00     0.052 A 
ATOM      6  C   LIG d   1       4.796  -0.221  -5.099  0.00  0.00     0.141 A 
ATOM      7  O   LIG d   1       4.479  -1.289  -1.603  0.00  0.00    -0.873 OA
ATOM      8  H   LIG d   1       2.042  -0.936  -2.456  0.00  0.00     0.065 H 
ENDROOT
BRANCH   1   9
ATOM      9  C   LIG d   1       3.060   0.365  -6.774  0.00  0.00     0.167 C 
ATOM     10  O   LIG d   1       2.835   1.536  -6.996  0.00  0.00    -0.292 OA
BRANCH   9  11
ATOM     11  C   LIG d   1       2.948  -0.648  -7.885  0.00  0.00    -0.001 C 
ATOM     12  H   LIG d   1       3.912  -1.132  -8.034  0.00  0.00     0.031 H 
ATOM     13  H   LIG d   1       2.202  -1.396  -7.620  0.00  0.00     0.031 H 
ATOM     14  H   LIG d   1       2.648  -0.146  -8.805  0.00  0.00     0.031 H 
ENDBRANCH   9  11
ENDBRANCH   1   9
BRANCH   6  15
ATOM     15  O   LIG d   1       5.755   0.025  -6.020  0.00  0.00    -0.505 OA
ATOM     16  H   LIG d   1       5.600  -0.402  -6.874  0.00  0.00     0.292 HD
ENDBRANCH   6  15
BRANCH   2  17
ATOM     17  O   LIG d   1       1.141  -0.182  -4.783  0.00  0.00    -0.506 OA
ATOM     18  H   LIG d   1       0.982   0.425  -5.519  0.00  0.00     0.292 HD
ENDBRANCH   2  17
BRANCH   5  19
ATOM     19  C   LIG d   1       6.556  -0.791  -3.443  0.00  0.00     0.163 C 
ATOM     20  O   LIG d   1       7.236   0.184  -3.198  0.00  0.00    -0.292 OA
BRANCH  19  21
ATOM     21  C   LIG d   1       7.164  -2.169  -3.376  0.00  0.00    -0.001 C 
ATOM     22  H   LIG d   1       7.097  -2.546  -2.355  0.00  0.00     0.031 H 
ATOM     23  H   LIG d   1       6.625  -2.837  -4.048  0.00  0.00     0.031 H 
ATOM     24  H   LIG d   1       8.211  -2.118  -3.676  0.00  0.00     0.031 H 
ENDBRANCH  19  21
ENDBRANCH   5  19
TORSDOF 6
ENDMDL
MODEL 2
REMARK VINA RESULT:      -4.8      2.913      4.886
REMARK  6 active torsions:
REMARK  status: ('A' for Active; 'I' for Inactive)
REMARK    1  A    between atoms: C_1  and  C_2 
REMARK    2  A    between atoms: C_2  and  C_4 
REMARK    3  A    between atoms: C_5  and  O_15 
REMARK    4  A    between atoms: C_8  and  C_11 
REMARK    5  A    between atoms: C_9  and  O_10 
REMARK    6  A    between atoms: C_11  and  C_13 
ROOT
ATOM      1  C   LIG d   1       5.588  -1.430  -3.825  0.00  0.00     0.100 A 
ATOM      2  C   LIG d   1       6.989  -1.572  -3.887  0.00  0.00     0.130 A 
ATOM      3  C   LIG d   1       7.550  -2.689  -4.482  0.00  0.00    -0.026 A 
ATOM      4  C   LIG d   1       6.743  -3.676  -5.022  0.00  0.00    -0.091 A 
ATOM      5  C   LIG d   1       5.340  -3.552  -4.971  0.00  0.00     0.052 A 
ATOM      6  C   LIG d   1       4.761  -2.427  -4.364  0.00  0.00     0.141 A 
ATOM      7  O   LIG d   1       7.304  -4.764  -5.602  0.00  0.00    -0.873 OA
ATOM      8  H   LIG d   1       8.625  -2.791  -4.527  0.00  0.00     0.065 H 
ENDROOT
BRANCH   1   9
ATOM      9  C   LIG d   1       4.999  -0.250  -3.194  0.00  0.00     0.167 C 
ATOM     10  O   LIG d   1       4.952   0.801  -3.797  0.00  0.00    -0.292 OA
BRANCH   9  11
ATOM     11  C   LIG d   1       4.448  -0.341  -1.794  0.00  0.00    -0.001 C 
ATOM     12  H   LIG d   1       3.423   0.028  -1.781  0.00  0.00     0.031 H 
ATOM     13  H   LIG d   1       4.465  -1.379  -1.463  0.00  0.00     0.031 H 
ATOM     14  H   LIG d   1       5.060   0.263  -1.123  0.00  0.00     0.031 H 
ENDBRANCH   9  11
ENDBRANCH   1   9
BRANCH   6  15
ATOM     15  O   LIG d   1       3.415  -2.302  -4.305  0.00  0.00    -0.505 OA
ATOM     16  H   LIG d   1       2.982  -2.303  -5.169  0.00  0.00     0.292 HD
ENDBRANCH   6  15
BRANCH   2  17
ATOM     17  O   LIG d   1       7.789  -0.614  -3.363  0.00  0.00    -0.506 OA
ATOM     18  H   LIG d   1       8.164  -0.012  -4.020  0.00  0.00     0.292 HD
ENDBRANCH   2  17
BRANCH   5  19
ATOM     19  C   LIG d   1       4.491  -4.596  -5.542  0.00  0.00     0.163 C 
ATOM     20  O   LIG d   1       4.042  -5.470  -4.831  0.00  0.00    -0.292 OA
BRANCH  19  21
ATOM     21  C   LIG d   1       4.175  -4.588  -7.016  0.00  0.00    -0.001 C 
ATOM     22  H   LIG d   1       4.607  -5.472  -7.485  0.00  0.00     0.031 H 
ATOM     23  H   LIG d   1       3.094  -4.592  -7.156  0.00  0.00     0.031 H 
ATOM     24  H   LIG d   1       4.596  -3.692  -7.472  0.00  0.00     0.031 H 
ENDBRANCH  19  21
ENDBRANCH   5  19
TORSDOF 6
ENDMDL
MODEL 3
REMARK VINA RESULT:      -4.8      1.434      4.960
REMARK  6 active torsions:
REMARK  status: ('A' for Active; 'I' for Inactive)
REMARK    1  A    between atoms: C_1  and  C_2 
REMARK    2  A    between atoms: C_2  and  C_4 
REMARK    3  A    between atoms: C_5  and  O_15 
REMARK    4  A    between atoms: C_8  and  C_11 
REMARK    5  A    between atoms: C_9  and  O_10 
REMARK    6  A    between atoms: C_11  and  C_13 
ROOT
ATOM      1  C   LIG d   1       4.570  -1.169  -4.239  0.00  0.00     0.100 A 
ATOM      2  C   LIG d   1       5.861  -1.531  -4.672  0.00  0.00     0.130 A 
ATOM      3  C   LIG d   1       6.255  -1.275  -5.975  0.00  0.00    -0.026 A 
ATOM      4  C   LIG d   1       5.389  -0.663  -6.863  0.00  0.00    -0.091 A 
ATOM      5  C   LIG d   1       4.093  -0.293  -6.449  0.00  0.00     0.052 A 
ATOM      6  C   LIG d   1       3.681  -0.553  -5.132  0.00  0.00     0.141 A 
ATOM      7  O   LIG d   1       5.786  -0.418  -8.134  0.00  0.00    -0.873 OA
ATOM      8  H   LIG d   1       7.247  -1.555  -6.300  0.00  0.00     0.065 H 
ENDROOT
BRANCH   1   9
ATOM      9  C   LIG d   1       4.155  -1.441  -2.863  0.00  0.00     0.167 C 
ATOM     10  O   LIG d   1       3.629  -2.498  -2.586  0.00  0.00    -0.292 OA
BRANCH   9  11
ATOM     11  C   LIG d   1       4.382  -0.407  -1.790  0.00  0.00    -0.001 C 
ATOM     12  H   LIG d   1       4.325   0.589  -2.228  0.00  0.00     0.031 H 
ATOM     13  H   LIG d   1       3.619  -0.510  -1.019  0.00  0.00     0.031 H 
ATOM     14  H   LIG d   1       5.368  -0.553  -1.348  0.00  0.00     0.031 H 
ENDBRANCH   9  11
ENDBRANCH   1   9
BRANCH   6  15
ATOM     15  O   LIG d   1       2.438  -0.206  -4.727  0.00  0.00    -0.505 OA
ATOM     16  H   LIG d   1       2.278   0.748  -4.721  0.00  0.00     0.292 HD
ENDBRANCH   6  15
BRANCH   2  17
ATOM     17  O   LIG d   1       6.718  -2.131  -3.813  0.00  0.00    -0.506 OA
ATOM     18  H   LIG d   1       7.240  -2.842  -4.210  0.00  0.00     0.292 HD
ENDBRANCH   2  17
BRANCH   5  19
ATOM     19  C   LIG d   1       3.180   0.355  -7.389  0.00  0.00     0.163 C 
ATOM     20  O   LIG d   1       3.041   1.560  -7.368  0.00  0.00    -0.292 OA
BRANCH  19  21
ATOM     21  C   LIG d   1       2.410  -0.475  -8.384  0.00  0.00    -0.001 C 
ATOM     22  H   LIG d   1       3.024  -1.315  -8.709  0.00  0.00     0.031 H 
ATOM     23  H   LIG d   1       1.498  -0.847  -7.919  0.00  0.00     0.031 H 
ATOM     24  H   LIG d   1       2.153   0.141  -9.247  0.00  0.00     0.031 H 
ENDBRANCH  19  21
ENDBRANCH   5  19
TORSDOF 6
ENDMDL
MODEL 4
REMARK VINA RESULT:      -4.8      2.482      3.680
REMARK  6 active torsions:
REMARK  status: ('A' for Active; 'I' for Inactive)
REMARK    1  A    between atoms: C_1  and  C_2 
REMARK    2  A    between atoms: C_2  and  C_4 
REMARK    3  A    between atoms: C_5  and  O_15 
REMARK    4  A    between atoms: C_8  and  C_11 
REMARK    5  A    between atoms: C_9  and  O_10 
REMARK    6  A    between atoms: C_11  and  C_13 
ROOT
ATOM      1  C   LIG d   1       5.278  -1.024  -3.607  0.00  0.00     0.100 A 
ATOM      2  C   LIG d   1       4.334  -1.960  -4.076  0.00  0.00     0.130 A 
ATOM      3  C   LIG d   1       4.756  -3.170  -4.600  0.00  0.00    -0.026 A 
ATOM      4  C   LIG d   1       6.105  -3.473  -4.670  0.00  0.00    -0.091 A 
ATOM      5  C   LIG d   1       7.064  -2.551  -4.206  0.00  0.00     0.052 A 
ATOM      6  C   LIG d   1       6.648  -1.319  -3.678  0.00  0.00     0.141 A 
ATOM      7  O   LIG d   1       6.504  -4.661  -5.186  0.00  0.00    -0.873 OA
ATOM      8  H   LIG d   1       4.027  -3.883  -4.957  0.00  0.00     0.065 H 
ENDROOT
BRANCH   1   9
ATOM      9  C   LIG d   1       4.831   0.254  -3.055  0.00  0.00     0.167 C 
ATOM     10  O   LIG d   1       4.702   1.217  -3.780  0.00  0.00    -0.292 OA
BRANCH   9  11
ATOM     11  C   LIG d   1       4.530   0.373  -1.583  0.00  0.00    -0.001 C 
ATOM     12  H   LIG d   1       3.692   1.053  -1.437  0.00  0.00     0.031 H 
ATOM     13  H   LIG d   1       4.277  -0.608  -1.182  0.00  0.00     0.031 H 
ATOM     14  H   LIG d   1       5.407   0.762  -1.063  0.00  0.00     0.031 H 
ENDBRANCH   9  11
ENDBRANCH   1   9
BRANCH   6  15
ATOM     15  O   LIG d   1       7.562  -0.425  -3.235  0.00  0.00    -0.505 OA
ATOM     16  H   LIG d   1       7.685  -0.431  -2.277  0.00  0.00     0.292 HD
ENDBRANCH   6  15
BRANCH   2  17
ATOM     17  O   LIG d   1       3.013  -1.675  -4.013  0.00  0.00    -0.506 OA
ATOM     18  H   LIG d   1       2.649  -1.312  -4.832  0.00  0.00     0.292 HD
ENDBRANCH   2  17
BRANCH   5  19
ATOM     19  C   LIG d   1       8.488  -2.875  -4.281  0.00  0.00     0.163 C 
ATOM     20  O   LIG d   1       9.180  -2.370  -5.140  0.00  0.00    -0.292 OA
BRANCH  19  21
ATOM     21  C   LIG d   1       9.095  -3.836  -3.292  0.00  0.00    -0.001 C 
ATOM     22  H   LIG d   1       9.157  -4.828  -3.741  0.00  0.00     0.031 H 
ATOM     23  H   LIG d   1      10.094  -3.496  -3.020  0.00  0.00     0.031 H 
ATOM     24  H   LIG d   1       8.471  -3.881  -2.399  0.00  0.00     0.031 H 
ENDBRANCH  19  21
ENDBRANCH   5  19
TORSDOF 6
ENDMDL
MODEL 5
REMARK VINA RESULT:      -4.8      1.537      3.263
REMARK  6 active torsions:
REMARK  status: ('A' for Active; 'I' for Inactive)
REMARK    1  A    between atoms: C_1  and  C_2 
REMARK    2  A    between atoms: C_2  and  C_4 
REMARK    3  A    between atoms: C_5  and  O_15 
REMARK    4  A    between atoms: C_8  and  C_11 
REMARK    5  A    between atoms: C_9  and  O_10 
REMARK    6  A    between atoms: C_11  and  C_13 
ROOT
ATOM      1  C   LIG d   1       3.849  -0.041  -6.758  0.00  0.00     0.100 A 
ATOM      2  C   LIG d   1       5.212  -0.278  -7.029  0.00  0.00     0.130 A 
ATOM      3  C   LIG d   1       6.081  -0.597  -5.999  0.00  0.00    -0.026 A 
ATOM      4  C   LIG d   1       5.622  -0.685  -4.696  0.00  0.00    -0.091 A 
ATOM      5  C   LIG d   1       4.263  -0.452  -4.405  0.00  0.00     0.052 A 
ATOM      6  C   LIG d   1       3.375  -0.123  -5.440  0.00  0.00     0.141 A 
ATOM      7  O   LIG d   1       6.482  -0.997  -3.697  0.00  0.00    -0.873 OA
ATOM      8  H   LIG d   1       7.124  -0.778  -6.214  0.00  0.00     0.065 H 
ENDROOT
BRANCH   1   9
ATOM      9  C   LIG d   1       2.933   0.296  -7.847  0.00  0.00     0.167 C 
ATOM     10  O   LIG d   1       2.215  -0.558  -8.323  0.00  0.00    -0.292 OA
BRANCH   9  11
ATOM     11  C   LIG d   1       2.881   1.706  -8.377  0.00  0.00    -0.001 C 
ATOM     12  H   LIG d   1       3.639   1.832  -9.149  0.00  0.00     0.031 H 
ATOM     13  H   LIG d   1       1.896   1.900  -8.800  0.00  0.00     0.031 H 
ATOM     14  H   LIG d   1       3.072   2.407  -7.564  0.00  0.00     0.031 H 
ENDBRANCH   9  11
ENDBRANCH   1   9
BRANCH   6  15
ATOM     15  O   LIG d   1       2.069   0.108  -5.169  0.00  0.00    -0.505 OA
ATOM     16  H   LIG d   1       1.654   0.753  -5.758  0.00  0.00     0.292 HD
ENDBRANCH   6  15
BRANCH   2  17
ATOM     17  O   LIG d   1       5.672  -0.195  -8.299  0.00  0.00    -0.506 OA
ATOM     18  H   LIG d   1       6.104   0.645  -8.506  0.00  0.00     0.292 HD
ENDBRANCH   2  17
BRANCH   5  19
ATOM     19  C   LIG d   1       3.782  -0.547  -3.027  0.00  0.00     0.163 C 
ATOM     20  O   LIG d   1       3.197  -1.544  -2.656  0.00  0.00    -0.292 OA
BRANCH  19  21
ATOM     21  C   LIG d   1       4.011   0.593  -2.069  0.00  0.00    -0.001 C 
ATOM     22  H   LIG d   1       3.137   0.709  -1.428  0.00  0.00     0.031 H 
ATOM     23  H   LIG d   1       4.887   0.382  -1.455  0.00  0.00     0.031 H 
ATOM     24  H   LIG d   1       4.173   1.513  -2.631  0.00  0.00     0.031 H 
ENDBRANCH  19  21
ENDBRANCH   5  19
TORSDOF 6
ENDMDL
MODEL 6
REMARK VINA RESULT:      -4.6      1.983      4.355
REMARK  6 active torsions:
REMARK  status: ('A' for Active; 'I' for Inactive)
REMARK    1  A    between atoms: C_1  and  C_2 
REMARK    2  A    between atoms: C_2  and  C_4 
REMARK    3  A    between atoms: C_5  and  O_15 
REMARK    4  A    between atoms: C_8  and  C_11 
REMARK    5  A    between atoms: C_9  and  O_10 
REMARK    6  A    between atoms: C_11  and  C_13 
ROOT
ATOM      1  C   LIG d   1       4.437  -2.204  -4.842  0.00  0.00     0.100 A 
ATOM      2  C   LIG d   1       3.807  -1.621  -3.723  0.00  0.00     0.130 A 
ATOM      3  C   LIG d   1       3.148  -0.410  -3.849  0.00  0.00    -0.026 A 
ATOM      4  C   LIG d   1       3.099   0.240  -5.070  0.00  0.00    -0.091 A 
ATOM      5  C   LIG d   1       3.722  -0.327  -6.200  0.00  0.00     0.052 A 
ATOM      6  C   LIG d   1       4.398  -1.551  -6.083  0.00  0.00     0.141 A 
ATOM      7  O   LIG d   1       2.451   1.424  -5.179  0.00  0.00    -0.873 OA
ATOM      8  H   LIG d   1       2.666   0.030  -2.987  0.00  0.00     0.065 H 
ENDROOT
BRANCH   1   9
ATOM      9  C   LIG d   1       5.133  -3.482  -4.707  0.00  0.00     0.167 C 
ATOM     10  O   LIG d   1       4.502  -4.517  -4.669  0.00  0.00    -0.292 OA
BRANCH   9  11
ATOM     11  C   LIG d   1       6.638  -3.513  -4.617  0.00  0.00    -0.001 C 
ATOM     12  H   LIG d   1       7.046  -2.597  -5.041  0.00  0.00     0.031 H 
ATOM     13  H   LIG d   1       6.938  -3.597  -3.573  0.00  0.00     0.031 H 
ATOM     14  H   LIG d   1       7.017  -4.371  -5.174  0.00  0.00     0.031 H 
ENDBRANCH   9  11
ENDBRANCH   1   9
BRANCH   6  15
ATOM     15  O   LIG d   1       5.004  -2.100  -7.161  0.00  0.00    -0.505 OA
ATOM     16  H   LIG d   1       5.546  -1.478  -7.666  0.00  0.00     0.292 HD
ENDBRANCH   6  15
BRANCH   2  17
ATOM     17  O   LIG d   1       3.847  -2.247  -2.524  0.00  0.00    -0.506 OA
ATOM     18  H   LIG d   1       4.738  -2.341  -2.159  0.00  0.00     0.292 HD
ENDBRANCH   2  17
BRANCH   5  19
ATOM     19  C   LIG d   1       3.669   0.362  -7.488  0.00  0.00     0.163 C 
ATOM     20  O   LIG d   1       4.563   1.117  -7.810  0.00  0.00    -0.292 OA
BRANCH  19  21
ATOM     21  C   LIG d   1       2.502   0.138  -8.415  0.00  0.00    -0.001 C 
ATOM     22  H   LIG d   1       2.850  -0.356  -9.323  0.00  0.00     0.031 H 
ATOM     23  H   LIG d   1       1.759  -0.488  -7.921  0.00  0.00     0.031 H 
ATOM     24  H   LIG d   1       2.054   1.098  -8.674  0.00  0.00     0.031 H 
ENDBRANCH  19  21
ENDBRANCH   5  19
TORSDOF 6
ENDMDL
MODEL 7
REMARK VINA RESULT:      -4.6      2.010      2.253
REMARK  6 active torsions:
REMARK  status: ('A' for Active; 'I' for Inactive)
REMARK    1  A    between atoms: C_1  and  C_2 
REMARK    2  A    between atoms: C_2  and  C_4 
REMARK    3  A    between atoms: C_5  and  O_15 
REMARK    4  A    between atoms: C_8  and  C_11 
REMARK    5  A    between atoms: C_9  and  O_10 
REMARK    6  A    between atoms: C_11  and  C_13 
ROOT
ATOM      1  C   LIG d   1       3.637  -0.352  -6.201  0.00  0.00     0.100 A 
ATOM      2  C   LIG d   1       3.122   0.225  -5.023  0.00  0.00     0.130 A 
ATOM      3  C   LIG d   1       3.282  -0.417  -3.806  0.00  0.00    -0.026 A 
ATOM      4  C   LIG d   1       3.946  -1.629  -3.734  0.00  0.00    -0.091 A 
ATOM      5  C   LIG d   1       4.469  -2.222  -4.900  0.00  0.00     0.052 A 
ATOM      6  C   LIG d   1       4.308  -1.583  -6.140  0.00  0.00     0.141 A 
ATOM      7  O   LIG d   1       4.095  -2.247  -2.537  0.00  0.00    -0.873 OA
ATOM      8  H   LIG d   1       2.885   0.032  -2.907  0.00  0.00     0.065 H 
ENDROOT
BRANCH   1   9
ATOM      9  C   LIG d   1       3.467   0.326  -7.485  0.00  0.00     0.167 C 
ATOM     10  O   LIG d   1       4.190   1.254  -7.782  0.00  0.00    -0.292 OA
BRANCH   9  11
ATOM     11  C   LIG d   1       2.392  -0.128  -8.439  0.00  0.00    -0.001 C 
ATOM     12  H   LIG d   1       1.640   0.654  -8.538  0.00  0.00     0.031 H 
ATOM     13  H   LIG d   1       2.835  -0.332  -9.414  0.00  0.00     0.031 H 
ATOM     14  H   LIG d   1       1.925  -1.035  -8.056  0.00  0.00     0.031 H 
ENDBRANCH   9  11
ENDBRANCH   1   9
BRANCH   6  15
ATOM     15  O   LIG d   1       4.801  -2.148  -7.266  0.00  0.00    -0.505 OA
ATOM     16  H   LIG d   1       5.766  -2.137  -7.321  0.00  0.00     0.292 HD
ENDBRANCH   6  15
BRANCH   2  17
ATOM     17  O   LIG d   1       2.471   1.410  -5.081  0.00  0.00    -0.506 OA
ATOM     18  H   LIG d   1       1.875   1.495  -5.838  0.00  0.00     0.292 HD
ENDBRANCH   2  17
BRANCH   5  19
ATOM     19  C   LIG d   1       5.171  -3.502  -4.820  0.00  0.00     0.163 C 
ATOM     20  O   LIG d   1       4.553  -4.541  -4.933  0.00  0.00    -0.292 OA
BRANCH  19  21
ATOM     21  C   LIG d   1       6.660  -3.532  -4.595  0.00  0.00    -0.001 C 
ATOM     22  H   LIG d   1       7.011  -2.530  -4.349  0.00  0.00     0.031 H 
ATOM     23  H   LIG d   1       6.891  -4.211  -3.774  0.00  0.00     0.031 H 
ATOM     24  H   LIG d   1       7.157  -3.878  -5.502  0.00  0.00     0.031 H 
ENDBRANCH  19  21
ENDBRANCH   5  19
TORSDOF 6
ENDMDL
MODEL 8
REMARK VINA RESULT:      -4.5      2.641      4.348
REMARK  6 active torsions:
REMARK  status: ('A' for Active; 'I' for Inactive)
REMARK    1  A    between atoms: C_1  and  C_2 
REMARK    2  A    between atoms: C_2  and  C_4 
REMARK    3  A    between atoms: C_5  and  O_15 
REMARK    4  A    between atoms: C_8  and  C_11 
REMARK    5  A    between atoms: C_9  and  O_10 
REMARK    6  A    between atoms: C_11  and  C_13 
ROOT
ATOM      1  C   LIG d   1       6.548  -1.984  -3.960  0.00  0.00     0.100 A 
ATOM      2  C   LIG d   1       5.523  -2.909  -4.242  0.00  0.00     0.130 A 
ATOM      3  C   LIG d   1       4.214  -2.626  -3.889  0.00  0.00    -0.026 A 
ATOM      4  C   LIG d   1       3.899  -1.436  -3.258  0.00  0.00    -0.091 A 
ATOM      5  C   LIG d   1       4.910  -0.498  -2.967  0.00  0.00     0.052 A 
ATOM      6  C   LIG d   1       6.241  -0.777  -3.315  0.00  0.00     0.141 A 
ATOM      7  O   LIG d   1       2.615  -1.171  -2.918  0.00  0.00    -0.873 OA
ATOM      8  H   LIG d   1       3.433  -3.340  -4.109  0.00  0.00     0.065 H 
ENDROOT
BRANCH   1   9
ATOM      9  C   LIG d   1       7.930  -2.286  -4.332  0.00  0.00     0.167 C 
ATOM     10  O   LIG d   1       8.464  -1.671  -5.231  0.00  0.00    -0.292 OA
BRANCH   9  11
ATOM     11  C   LIG d   1       8.690  -3.360  -3.597  0.00  0.00    -0.001 C 
ATOM     12  H   LIG d   1       8.630  -3.179  -2.525  0.00  0.00     0.031 H 
ATOM     13  H   LIG d   1       8.257  -4.333  -3.827  0.00  0.00     0.031 H 
ATOM     14  H   LIG d   1       9.734  -3.344  -3.910  0.00  0.00     0.031 H 
ENDBRANCH   9  11
ENDBRANCH   1   9
BRANCH   6  15
ATOM     15  O   LIG d   1       7.219   0.115  -3.035  0.00  0.00    -0.505 OA
ATOM     16  H   LIG d   1       6.899   0.941  -2.648  0.00  0.00     0.292 HD
ENDBRANCH   6  15
BRANCH   2  17
ATOM     17  O   LIG d   1       5.818  -4.077  -4.859  0.00  0.00    -0.506 OA
ATOM     18  H   LIG d   1       6.728  -4.376  -4.721  0.00  0.00     0.292 HD
ENDBRANCH   2  17
BRANCH   5  19
ATOM     19  C   LIG d   1       4.574   0.759  -2.300  0.00  0.00     0.163 C 
ATOM     20  O   LIG d   1       4.936   0.956  -1.159  0.00  0.00    -0.292 OA
BRANCH  19  21
ATOM     21  C   LIG d   1       3.775   1.809  -3.029  0.00  0.00    -0.001 C 
ATOM     22  H   LIG d   1       4.120   1.876  -4.061  0.00  0.00     0.031 H 
ATOM     23  H   LIG d   1       2.719   1.538  -3.014  0.00  0.00     0.031 H 
ATOM     24  H   LIG d   1       3.910   2.773  -2.538  0.00  0.00     0.031 H 
ENDBRANCH  19  21
ENDBRANCH   5  19
TORSDOF 6
ENDMDL
MODEL 9
REMARK VINA RESULT:      -4.5      7.820      9.482
REMARK  6 active torsions:
REMARK  status: ('A' for Active; 'I' for Inactive)
REMARK    1  A    between atoms: C_1  and  C_2 
REMARK    2  A    between atoms: C_2  and  C_4 
REMARK    3  A    between atoms: C_5  and  O_15 
REMARK    4  A    between atoms: C_8  and  C_11 
REMARK    5  A    between atoms: C_9  and  O_10 
REMARK    6  A    between atoms: C_11  and  C_13 
ROOT
ATOM      1  C   LIG d   1       9.945   5.219  -2.812  0.00  0.00     0.100 A 
ATOM      2  C   LIG d   1       9.391   6.469  -3.152  0.00  0.00     0.130 A 
ATOM      3  C   LIG d   1       9.588   7.565  -2.329  0.00  0.00    -0.026 A 
ATOM      4  C   LIG d   1      10.331   7.446  -1.168  0.00  0.00    -0.091 A 
ATOM      5  C   LIG d   1      10.894   6.205  -0.810  0.00  0.00     0.052 A 
ATOM      6  C   LIG d   1      10.695   5.086  -1.633  0.00  0.00     0.141 A 
ATOM      7  O   LIG d   1      10.517   8.526  -0.371  0.00  0.00    -0.873 OA
ATOM      8  H   LIG d   1       9.161   8.521  -2.597  0.00  0.00     0.065 H 
ENDROOT
BRANCH   1   9
ATOM      9  C   LIG d   1       9.734   4.062  -3.681  0.00  0.00     0.167 C 
ATOM     10  O   LIG d   1       8.996   3.166  -3.330  0.00  0.00    -0.292 OA
BRANCH   9  11
ATOM     11  C   LIG d   1      10.434   3.985  -5.013  0.00  0.00    -0.001 C 
ATOM     12  H   LIG d   1      11.267   4.686  -5.028  0.00  0.00     0.031 H 
ATOM     13  H   LIG d   1      10.808   2.973  -5.169  0.00  0.00     0.031 H 
ATOM     14  H   LIG d   1       9.732   4.239  -5.808  0.00  0.00     0.031 H 
ENDBRANCH   9  11
ENDBRANCH   1   9
BRANCH   6  15
ATOM     15  O   LIG d   1      11.227   3.889  -1.295  0.00  0.00    -0.505 OA
ATOM     16  H   LIG d   1      11.286   3.740  -0.342  0.00  0.00     0.292 HD
ENDBRANCH   6  15
BRANCH   2  17
ATOM     17  O   LIG d   1       8.663   6.598  -4.286  0.00  0.00    -0.506 OA
ATOM     18  H   LIG d   1       7.706   6.561  -4.146  0.00  0.00     0.292 HD
ENDBRANCH   2  17
BRANCH   5  19
ATOM     19  C   LIG d   1      11.678   6.083   0.418  0.00  0.00     0.163 C 
ATOM     20  O   LIG d   1      12.884   6.213   0.383  0.00  0.00    -0.292 OA
BRANCH  19  21
ATOM     21  C   LIG d   1      10.990   5.792   1.726  0.00  0.00    -0.001 C 
ATOM     22  H   LIG d   1      10.139   6.464   1.846  0.00  0.00     0.031 H 
ATOM     23  H   LIG d   1      10.642   4.759   1.734  0.00  0.00     0.031 H 
ATOM     24  H   LIG d   1      11.691   5.946   2.547  0.00  0.00     0.031 H 
ENDBRANCH  19  21
ENDBRANCH   5  19
TORSDOF 6
ENDMDL
MODEL 10
REMARK VINA RESULT:      -4.4      7.784      9.537
REMARK  6 active torsions:
REMARK  status: ('A' for Active; 'I' for Inactive)
REMARK    1  A    between atoms: C_1  and  C_2 
REMARK    2  A    between atoms: C_2  and  C_4 
REMARK    3  A    between atoms: C_5  and  O_15 
REMARK    4  A    between atoms: C_8  and  C_11 
REMARK    5  A    between atoms: C_9  and  O_10 
REMARK    6  A    between atoms: C_11  and  C_13 
ROOT
ATOM      1  C   LIG d   1      10.248   5.118  -3.076  0.00  0.00     0.100 A 
ATOM      2  C   LIG d   1      10.965   4.394  -2.103  0.00  0.00     0.130 A 
ATOM      3  C   LIG d   1      11.120   4.908  -0.827  0.00  0.00    -0.026 A 
ATOM      4  C   LIG d   1      10.574   6.136  -0.494  0.00  0.00    -0.091 A 
ATOM      5  C   LIG d   1       9.853   6.875  -1.453  0.00  0.00     0.052 A 
ATOM      6  C   LIG d   1       9.696   6.366  -2.751  0.00  0.00     0.141 A 
ATOM      7  O   LIG d   1      10.733   6.628   0.758  0.00  0.00    -0.873 OA
ATOM      8  H   LIG d   1      11.670   4.347  -0.085  0.00  0.00     0.065 H 
ENDROOT
BRANCH   1   9
ATOM      9  C   LIG d   1      10.087   4.574  -4.424  0.00  0.00     0.167 C 
ATOM     10  O   LIG d   1      10.801   4.960  -5.324  0.00  0.00    -0.292 OA
BRANCH   9  11
ATOM     11  C   LIG d   1       9.032   3.531  -4.693  0.00  0.00    -0.001 C 
ATOM     12  H   LIG d   1       8.044   3.972  -4.566  0.00  0.00     0.031 H 
ATOM     13  H   LIG d   1       9.137   3.162  -5.713  0.00  0.00     0.031 H 
ATOM     14  H   LIG d   1       9.152   2.704  -3.993  0.00  0.00     0.031 H 
ENDBRANCH   9  11
ENDBRANCH   1   9
BRANCH   6  15
ATOM     15  O   LIG d   1       9.010   7.071  -3.680  0.00  0.00    -0.505 OA
ATOM     16  H   LIG d   1       8.433   6.531  -4.237  0.00  0.00     0.292 HD
ENDBRANCH   6  15
BRANCH   2  17
ATOM     17  O   LIG d   1      11.503   3.192  -2.416  0.00  0.00    -0.506 OA
ATOM     18  H   LIG d   1      10.896   2.598  -2.879  0.00  0.00     0.292 HD
ENDBRANCH   2  17
BRANCH   5  19
ATOM     19  C   LIG d   1       9.278   8.171  -1.098  0.00  0.00     0.163 C 
ATOM     20  O   LIG d   1       8.114   8.247  -0.763  0.00  0.00    -0.292 OA
BRANCH  19  21
ATOM     21  C   LIG d   1      10.129   9.414  -1.149  0.00  0.00    -0.001 C 
ATOM     22  H   LIG d   1      10.868   9.315  -1.944  0.00  0.00     0.031 H 
ATOM     23  H   LIG d   1       9.497  10.280  -1.343  0.00  0.00     0.031 H 
ATOM     24  H   LIG d   1      10.639   9.543  -0.194  0.00  0.00     0.031 H 
ENDBRANCH  19  21
ENDBRANCH   5  19
TORSDOF 6
ENDMDL
