MODEL 1
REMARK VINA RESULT:      -6.2      0.000      0.000
REMARK  11 active torsions:
REMARK  status: ('A' for Active; 'I' for Inactive)
REMARK    1  A    between atoms: C_1  and  C_2 
REMARK    2  A    between atoms: C_2  and  C_4 
REMARK    3  A    between atoms: C_8  and  C_44 
REMARK    4  A    between atoms: C_17  and  C_43 
REMARK    5  A    between atoms: C_18  and  C_21 
REMARK    6  A    between atoms: C_26  and  C_42 
REMARK    7  A    between atoms: C_29  and  C_30 
REMARK    8  A    between atoms: C_39  and  C_40 
REMARK    9  A    between atoms: C_39  and  C_41 
REMARK   10  A    between atoms: C_44  and  O_46 
REMARK   11  A    between atoms: O_46  and  C_47 
ROOT
ATOM      1  C   LIG d   1       9.844  12.932  -2.470  0.00  0.00    -0.016 C 
ATOM      2  H   LIG d   1       8.816  13.331  -2.336  0.00  0.00     0.035 H 
ATOM      3  C   LIG d   1      10.764  14.154  -2.724  0.00  0.00    -0.045 C 
ATOM      4  C   LIG d   1      11.268  14.551  -1.321  0.00  0.00    -0.036 C 
ATOM      5  C   LIG d   1      11.427  13.189  -0.588  0.00  0.00     0.071 C 
ATOM      6  C   LIG d   1      10.293  12.318  -1.167  0.00  0.00    -0.015 C 
ATOM      7  H   LIG d   1       9.430  12.533  -0.459  0.00  0.00     0.032 H 
ATOM      8  C   LIG d   1      10.509  10.851  -0.989  0.00  0.00    -0.031 C 
ATOM      9  H   LIG d   1      10.347  10.725   0.125  0.00  0.00     0.031 H 
ATOM     10  C   LIG d   1       9.425   9.959  -1.583  0.00  0.00    -0.049 C 
ATOM     11  C   LIG d   1       9.542   8.553  -0.961  0.00  0.00    -0.049 C 
ATOM     12  C   LIG d   1      10.927   8.007  -1.319  0.00  0.00    -0.029 C 
ATOM     13  H   LIG d   1      11.013   8.121  -2.427  0.00  0.00     0.031 H 
ATOM     14  C   LIG d   1      12.011   8.863  -0.690  0.00  0.00    -0.023 C 
ATOM     15  C   LIG d   1      11.905  10.304  -1.235  0.00  0.00    -0.023 C 
ATOM     16  C   LIG d   1      12.942  11.184  -0.530  0.00  0.00    -0.046 C 
ATOM     17  C   LIG d   1      12.795  12.633  -0.982  0.00  0.00    -0.036 C 
ATOM     18  C   LIG d   1      13.396   8.296  -0.994  0.00  0.00    -0.046 C 
ATOM     19  C   LIG d   1      13.485   6.812  -0.665  0.00  0.00    -0.048 C 
ATOM     20  C   LIG d   1      12.422   5.978  -1.370  0.00  0.00    -0.023 C 
ATOM     21  H   LIG d   1      12.460   4.961  -0.883  0.00  0.00     0.032 H 
ATOM     22  C   LIG d   1      11.028   6.518  -1.065  0.00  0.00    -0.021 C 
ATOM     23  C   LIG d   1       9.981   5.779  -1.922  0.00  0.00    -0.018 C 
ATOM     24  C   LIG d   1      10.269   6.082  -3.366  0.00  0.00    -0.003 C 
ATOM     25  C   LIG d   1       9.270   6.231  -4.251  0.00  0.00    -0.048 C 
ATOM     26  C   LIG d   1      11.610   6.201  -3.756  0.00  0.00     0.165 C 
ATOM     27  O   LIG d   1      11.884   6.648  -4.843  0.00  0.00    -0.292 OA
ATOM     28  C   LIG d   1      12.708   5.741  -2.838  0.00  0.00     0.031 C 
ATOM     29  H   LIG d   1      11.595  13.864  -3.361  0.00  0.00     0.027 H 
ATOM     30  H   LIG d   1      10.193  14.963  -3.169  0.00  0.00     0.027 H 
ATOM     31  H   LIG d   1      12.227  15.063  -1.388  0.00  0.00     0.028 H 
ATOM     32  H   LIG d   1      10.536  15.179  -0.813  0.00  0.00     0.028 H 
ATOM     33  H   LIG d   1       8.443  10.364  -1.354  0.00  0.00     0.027 H 
ATOM     34  H   LIG d   1       9.538   9.841  -2.656  0.00  0.00     0.027 H 
ATOM     35  H   LIG d   1       9.393   8.616   0.106  0.00  0.00     0.027 H 
ATOM     36  H   LIG d   1       8.772   7.920  -1.410  0.00  0.00     0.027 H 
ATOM     37  H   LIG d   1      12.843  11.145   0.551  0.00  0.00     0.027 H 
ATOM     38  H   LIG d   1      13.946  10.833  -0.800  0.00  0.00     0.027 H 
ATOM     39  H   LIG d   1      12.937  12.719  -2.053  0.00  0.00     0.028 H 
ATOM     40  H   LIG d   1      13.569  13.231  -0.484  0.00  0.00     0.028 H 
ATOM     41  H   LIG d   1      13.698   8.483  -2.013  0.00  0.00     0.027 H 
ATOM     42  H   LIG d   1      14.119   8.827  -0.346  0.00  0.00     0.027 H 
ATOM     43  H   LIG d   1      14.490   6.439  -0.871  0.00  0.00     0.027 H 
ATOM     44  H   LIG d   1      13.366   6.690   0.426  0.00  0.00     0.027 H 
ATOM     45  H   LIG d   1      10.078   4.712  -1.742  0.00  0.00     0.032 H 
ATOM     46  H   LIG d   1       8.992   6.124  -1.653  0.00  0.00     0.032 H 
ATOM     47  H   LIG d   1       8.248   6.294  -3.907  0.00  0.00     0.063 H 
ENDROOT
BRANCH  25  48
ATOM     48  C   LIG d   1       9.569   6.307  -5.688  0.00  0.00    -0.025 A 
ATOM     49  C   LIG d   1       9.543   7.543  -6.347  0.00  0.00    -0.053 A 
ATOM     50  C   LIG d   1       9.827   7.607  -7.693  0.00  0.00    -0.043 A 
ATOM     51  H   LIG d   1       9.303   8.443  -5.800  0.00  0.00     0.062 H 
ATOM     52  C   LIG d   1      10.128   6.452  -8.397  0.00  0.00     0.041 A 
ATOM     53  H   LIG d   1       9.813   8.559  -8.202  0.00  0.00     0.063 H 
ATOM     54  C   LIG d   1      10.151   5.225  -7.754  0.00  0.00    -0.043 A 
ATOM     55 CL   LIG d   1      10.481   6.543 -10.095  0.00  0.00    -0.084 Cl
ATOM     56  C   LIG d   1       9.874   5.145  -6.406  0.00  0.00    -0.053 A 
ATOM     57  H   LIG d   1      10.386   4.329  -8.308  0.00  0.00     0.063 H 
ATOM     58  H   LIG d   1       9.892   4.189  -5.906  0.00  0.00     0.062 H 
ENDBRANCH  25  48
BRANCH  22  59
ATOM     59  C   LIG d   1      10.668   6.159   0.383  0.00  0.00    -0.059 C 
ATOM     60  H   LIG d   1      11.385   6.622   1.062  0.00  0.00     0.024 H 
ATOM     61  H   LIG d   1       9.666   6.523   0.611  0.00  0.00     0.024 H 
ATOM     62  H   LIG d   1      10.698   5.076   0.508  0.00  0.00     0.024 H 
ENDBRANCH  22  59
BRANCH  28  63
ATOM     63  C   LIG d   1      14.020   6.368  -3.309  0.00  0.00    -0.052 C 
ATOM     64  H   LIG d   1      14.389   5.829  -4.180  0.00  0.00     0.024 H 
ATOM     65  H   LIG d   1      13.849   7.412  -3.573  0.00  0.00     0.024 H 
ATOM     66  H   LIG d   1      14.757   6.313  -2.508  0.00  0.00     0.024 H 
ENDBRANCH  28  63
BRANCH  28  67
ATOM     67  C   LIG d   1      12.846   4.213  -3.048  0.00  0.00    -0.052 C 
ATOM     68  H   LIG d   1      13.833   3.889  -2.716  0.00  0.00     0.024 H 
ATOM     69  H   LIG d   1      12.081   3.695  -2.470  0.00  0.00     0.024 H 
ATOM     70  H   LIG d   1      12.723   3.978  -4.106  0.00  0.00     0.024 H 
ENDBRANCH  28  67
BRANCH  14  71
ATOM     71  C   LIG d   1      11.867   8.920   0.838  0.00  0.00    -0.059 C 
ATOM     72  H   LIG d   1      12.326   9.835   1.212  0.00  0.00     0.024 H 
ATOM     73  H   LIG d   1      10.810   8.906   1.105  0.00  0.00     0.024 H 
ATOM     74  H   LIG d   1      12.365   8.057   1.283  0.00  0.00     0.024 H 
ENDBRANCH  14  71
BRANCH  15  75
ATOM     75  C   LIG d   1      12.233  10.295  -2.734  0.00  0.00    -0.059 C 
ATOM     76  H   LIG d   1      13.299  10.113  -2.871  0.00  0.00     0.024 H 
ATOM     77  H   LIG d   1      11.664   9.506  -3.226  0.00  0.00     0.024 H 
ATOM     78  H   LIG d   1      11.969  11.259  -3.170  0.00  0.00     0.024 H 
ENDBRANCH  15  75
BRANCH   1  79
ATOM     79  C   LIG d   1       9.836  12.062  -3.685  0.00  0.00    -0.076 C 
ATOM     80  C   LIG d   1       8.793  11.313  -3.949  0.00  0.00    -0.099 C 
ATOM     81  H   LIG d   1       7.921  11.360  -3.313  0.00  0.00     0.053 H 
ATOM     82  H   LIG d   1       8.807  10.649  -4.801  0.00  0.00     0.053 H 
BRANCH  79  83
ATOM     83  C   LIG d   1      11.026  12.047  -4.609  0.00  0.00    -0.044 C 
ATOM     84  H   LIG d   1      11.283  13.069  -4.888  0.00  0.00     0.027 H 
ATOM     85  H   LIG d   1      11.873  11.583  -4.104  0.00  0.00     0.027 H 
ATOM     86  H   LIG d   1      10.782  11.477  -5.506  0.00  0.00     0.027 H 
ENDBRANCH  79  83
ENDBRANCH   1  79
BRANCH   5  87
ATOM     87  C   LIG d   1      11.295  13.353   0.910  0.00  0.00     0.313 C 
ATOM     88  O   LIG d   1      10.216  13.226   1.438  0.00  0.00    -0.250 OA
BRANCH  87  89
ATOM     89  O   LIG d   1      12.376  13.639   1.652  0.00  0.00    -0.468 OA
BRANCH  89  90
ATOM     90  C   LIG d   1      12.402  14.915   2.295  0.00  0.00     0.082 C 
ATOM     91  H   LIG d   1      11.454  15.426   2.127  0.00  0.00     0.066 H 
ATOM     92  H   LIG d   1      12.557  14.780   3.366  0.00  0.00     0.066 H 
ATOM     93  H   LIG d   1      13.215  15.513   1.883  0.00  0.00     0.066 H 
ENDBRANCH  89  90
ENDBRANCH  87  89
ENDBRANCH   5  87
TORSDOF 11
ENDMDL
MODEL 2
REMARK VINA RESULT:      -6.1     11.101     14.933
REMARK  11 active torsions:
REMARK  status: ('A' for Active; 'I' for Inactive)
REMARK    1  A    between atoms: C_1  and  C_2 
REMARK    2  A    between atoms: C_2  and  C_4 
REMARK    3  A    between atoms: C_8  and  C_44 
REMARK    4  A    between atoms: C_17  and  C_43 
REMARK    5  A    between atoms: C_18  and  C_21 
REMARK    6  A    between atoms: C_26  and  C_42 
REMARK    7  A    between atoms: C_29  and  C_30 
REMARK    8  A    between atoms: C_39  and  C_40 
REMARK    9  A    between atoms: C_39  and  C_41 
REMARK   10  A    between atoms: C_44  and  O_46 
REMARK   11  A    between atoms: O_46  and  C_47 
ROOT
ATOM      1  C   LIG d   1       7.474  -2.278  -5.632  0.00  0.00    -0.016 C 
ATOM      2  H   LIG d   1       8.541  -1.984  -5.537  0.00  0.00     0.035 H 
ATOM      3  C   LIG d   1       7.081  -2.962  -4.297  0.00  0.00    -0.045 C 
ATOM      4  C   LIG d   1       6.527  -1.814  -3.427  0.00  0.00    -0.036 C 
ATOM      5  C   LIG d   1       5.796  -0.900  -4.449  0.00  0.00     0.071 C 
ATOM      6  C   LIG d   1       6.639  -1.025  -5.735  0.00  0.00    -0.015 C 
ATOM      7  H   LIG d   1       7.399  -0.187  -5.615  0.00  0.00     0.032 H 
ATOM      8  C   LIG d   1       5.908  -0.633  -6.977  0.00  0.00    -0.031 C 
ATOM      9  H   LIG d   1       5.837   0.491  -6.860  0.00  0.00     0.031 H 
ATOM     10  C   LIG d   1       6.700  -0.781  -8.270  0.00  0.00    -0.049 C 
ATOM     11  C   LIG d   1       6.011   0.046  -9.373  0.00  0.00    -0.049 C 
ATOM     12  C   LIG d   1       4.599  -0.517  -9.555  0.00  0.00    -0.029 C 
ATOM     13  H   LIG d   1       4.736  -1.616  -9.703  0.00  0.00     0.031 H 
ATOM     14  C   LIG d   1       3.788  -0.328  -8.285  0.00  0.00    -0.023 C 
ATOM     15  C   LIG d   1       4.468  -1.092  -7.127  0.00  0.00    -0.023 C 
ATOM     16  C   LIG d   1       3.696  -0.825  -5.831  0.00  0.00    -0.046 C 
ATOM     17  C   LIG d   1       4.402  -1.491  -4.654  0.00  0.00    -0.036 C 
ATOM     18  C   LIG d   1       2.360  -0.838  -8.471  0.00  0.00    -0.046 C 
ATOM     19  C   LIG d   1       1.717  -0.268  -9.728  0.00  0.00    -0.048 C 
ATOM     20  C   LIG d   1       2.527  -0.538 -10.990  0.00  0.00    -0.023 C 
ATOM     21  H   LIG d   1       2.066   0.107 -11.792  0.00  0.00     0.032 H 
ATOM     22  C   LIG d   1       3.955  -0.021 -10.832  0.00  0.00    -0.021 C 
ATOM     23  C   LIG d   1       4.807  -0.457 -12.039  0.00  0.00    -0.018 C 
ATOM     24  C   LIG d   1       4.875  -1.959 -12.038  0.00  0.00    -0.003 C 
ATOM     25  C   LIG d   1       5.991  -2.599 -12.422  0.00  0.00    -0.048 C 
ATOM     26  C   LIG d   1       3.737  -2.667 -11.628  0.00  0.00     0.165 C 
ATOM     27  O   LIG d   1       3.809  -3.852 -11.409  0.00  0.00    -0.292 OA
ATOM     28  C   LIG d   1       2.416  -1.962 -11.494  0.00  0.00     0.031 C 
ATOM     29  H   LIG d   1       6.315  -3.711  -4.477  0.00  0.00     0.027 H 
ATOM     30  H   LIG d   1       7.959  -3.404  -3.834  0.00  0.00     0.027 H 
ATOM     31  H   LIG d   1       5.826  -2.198  -2.687  0.00  0.00     0.028 H 
ATOM     32  H   LIG d   1       7.339  -1.276  -2.939  0.00  0.00     0.028 H 
ATOM     33  H   LIG d   1       7.712  -0.409  -8.132  0.00  0.00     0.027 H 
ATOM     34  H   LIG d   1       6.727  -1.810  -8.615  0.00  0.00     0.027 H 
ATOM     35  H   LIG d   1       6.001   1.088  -9.091  0.00  0.00     0.027 H 
ATOM     36  H   LIG d   1       6.579  -0.085 -10.298  0.00  0.00     0.027 H 
ATOM     37  H   LIG d   1       3.603   0.237  -5.623  0.00  0.00     0.027 H 
ATOM     38  H   LIG d   1       2.690  -1.251  -5.923  0.00  0.00     0.027 H 
ATOM     39  H   LIG d   1       4.471  -2.562  -4.802  0.00  0.00     0.028 H 
ATOM     40  H   LIG d   1       3.811  -1.308  -3.748  0.00  0.00     0.028 H 
ATOM     41  H   LIG d   1       2.307  -1.915  -8.466  0.00  0.00     0.027 H 
ATOM     42  H   LIG d   1       1.770  -0.486  -7.604  0.00  0.00     0.027 H 
ATOM     43  H   LIG d   1       0.691  -0.630  -9.825  0.00  0.00     0.027 H 
ATOM     44  H   LIG d   1       1.611   0.824  -9.601  0.00  0.00     0.027 H 
ATOM     45  H   LIG d   1       4.323  -0.111 -12.947  0.00  0.00     0.032 H 
ATOM     46  H   LIG d   1       5.798  -0.034 -11.948  0.00  0.00     0.032 H 
ATOM     47  H   LIG d   1       6.904  -2.043 -12.580  0.00  0.00     0.063 H 
ENDROOT
BRANCH  25  48
ATOM     48  C   LIG d   1       5.971  -4.055 -12.625  0.00  0.00    -0.025 A 
ATOM     49  C   LIG d   1       6.483  -4.909 -11.641  0.00  0.00    -0.053 A 
ATOM     50  C   LIG d   1       6.457  -6.273 -11.836  0.00  0.00    -0.043 A 
ATOM     51  H   LIG d   1       6.894  -4.500 -10.729  0.00  0.00     0.062 H 
ATOM     52  C   LIG d   1       5.935  -6.798 -13.008  0.00  0.00     0.041 A 
ATOM     53  H   LIG d   1       6.846  -6.933 -11.076  0.00  0.00     0.063 H 
ATOM     54  C   LIG d   1       5.432  -5.958 -13.989  0.00  0.00    -0.043 A 
ATOM     55 CL   LIG d   1       5.912  -8.518 -13.247  0.00  0.00    -0.084 Cl
ATOM     56  C   LIG d   1       5.446  -4.592 -13.805  0.00  0.00    -0.053 A 
ATOM     57  H   LIG d   1       5.027  -6.375 -14.899  0.00  0.00     0.063 H 
ATOM     58  H   LIG d   1       5.054  -3.940 -14.570  0.00  0.00     0.062 H 
ENDBRANCH  25  48
BRANCH  22  59
ATOM     59  C   LIG d   1       3.933   1.512 -10.904  0.00  0.00    -0.059 C 
ATOM     60  H   LIG d   1       4.955   1.887 -10.965  0.00  0.00     0.024 H 
ATOM     61  H   LIG d   1       3.378   1.826 -11.788  0.00  0.00     0.024 H 
ATOM     62  H   LIG d   1       3.453   1.912 -10.011  0.00  0.00     0.024 H 
ENDBRANCH  22  59
BRANCH  28  63
ATOM     63  C   LIG d   1       1.492  -2.834 -10.644  0.00  0.00    -0.052 C 
ATOM     64  H   LIG d   1       1.497  -3.852 -11.030  0.00  0.00     0.024 H 
ATOM     65  H   LIG d   1       1.841  -2.834  -9.612  0.00  0.00     0.024 H 
ATOM     66  H   LIG d   1       0.478  -2.435 -10.684  0.00  0.00     0.024 H 
ENDBRANCH  28  63
BRANCH  28  67
ATOM     67  C   LIG d   1       1.797  -1.911 -12.912  0.00  0.00    -0.052 C 
ATOM     68  H   LIG d   1       1.444  -2.904 -13.190  0.00  0.00     0.024 H 
ATOM     69  H   LIG d   1       0.961  -1.212 -12.920  0.00  0.00     0.024 H 
ATOM     70  H   LIG d   1       2.552  -1.580 -13.627  0.00  0.00     0.024 H 
ENDBRANCH  28  67
BRANCH  14  71
ATOM     71  C   LIG d   1       3.697   1.153  -7.890  0.00  0.00    -0.059 C 
ATOM     72  H   LIG d   1       3.095   1.688  -8.624  0.00  0.00     0.024 H 
ATOM     73  H   LIG d   1       3.234   1.239  -6.907  0.00  0.00     0.024 H 
ATOM     74  H   LIG d   1       4.698   1.583  -7.859  0.00  0.00     0.024 H 
ENDBRANCH  14  71
BRANCH  15  75
ATOM     75  C   LIG d   1       4.400  -2.597  -7.415  0.00  0.00    -0.059 C 
ATOM     76  H   LIG d   1       3.474  -3.004  -7.010  0.00  0.00     0.024 H 
ATOM     77  H   LIG d   1       4.428  -2.763  -8.492  0.00  0.00     0.024 H 
ATOM     78  H   LIG d   1       5.251  -3.096  -6.950  0.00  0.00     0.024 H 
ENDBRANCH  15  75
BRANCH   1  79
ATOM     79  C   LIG d   1       7.377  -3.275  -6.741  0.00  0.00    -0.076 C 
ATOM     80  C   LIG d   1       6.510  -4.255  -6.667  0.00  0.00    -0.099 C 
ATOM     81  H   LIG d   1       5.834  -4.315  -5.827  0.00  0.00     0.053 H 
ATOM     82  H   LIG d   1       6.472  -5.002  -7.446  0.00  0.00     0.053 H 
BRANCH  79  83
ATOM     83  C   LIG d   1       8.273  -3.152  -7.946  0.00  0.00    -0.044 C 
ATOM     84  H   LIG d   1       8.624  -2.124  -8.035  0.00  0.00     0.027 H 
ATOM     85  H   LIG d   1       9.128  -3.820  -7.833  0.00  0.00     0.027 H 
ATOM     86  H   LIG d   1       7.716  -3.425  -8.842  0.00  0.00     0.027 H 
ENDBRANCH  79  83
ENDBRANCH   1  79
BRANCH   5  87
ATOM     87  C   LIG d   1       5.735   0.531  -3.960  0.00  0.00     0.313 C 
ATOM     88  O   LIG d   1       6.673   1.270  -4.140  0.00  0.00    -0.250 OA
BRANCH  87  89
ATOM     89  O   LIG d   1       4.640   0.978  -3.327  0.00  0.00    -0.468 OA
BRANCH  89  90
ATOM     90  C   LIG d   1       4.660   0.953  -1.899  0.00  0.00     0.082 C 
ATOM     91  H   LIG d   1       5.523   1.515  -1.538  0.00  0.00     0.066 H 
ATOM     92  H   LIG d   1       3.746   1.405  -1.514  0.00  0.00     0.066 H 
ATOM     93  H   LIG d   1       4.729  -0.079  -1.554  0.00  0.00     0.066 H 
ENDBRANCH  89  90
ENDBRANCH  87  89
ENDBRANCH   5  87
TORSDOF 11
ENDMDL
MODEL 3
REMARK VINA RESULT:      -5.7      2.639      7.733
REMARK  11 active torsions:
REMARK  status: ('A' for Active; 'I' for Inactive)
REMARK    1  A    between atoms: C_1  and  C_2 
REMARK    2  A    between atoms: C_2  and  C_4 
REMARK    3  A    between atoms: C_8  and  C_44 
REMARK    4  A    between atoms: C_17  and  C_43 
REMARK    5  A    between atoms: C_18  and  C_21 
REMARK    6  A    between atoms: C_26  and  C_42 
REMARK    7  A    between atoms: C_29  and  C_30 
REMARK    8  A    between atoms: C_39  and  C_40 
REMARK    9  A    between atoms: C_39  and  C_41 
REMARK   10  A    between atoms: C_44  and  O_46 
REMARK   11  A    between atoms: O_46  and  C_47 
ROOT
ATOM      1  C   LIG d   1      10.950   5.272  -7.394  0.00  0.00    -0.016 C 
ATOM      2  H   LIG d   1      11.780   5.122  -8.117  0.00  0.00     0.035 H 
ATOM      3  C   LIG d   1       9.694   4.608  -8.017  0.00  0.00    -0.045 C 
ATOM      4  C   LIG d   1       9.709   3.168  -7.463  0.00  0.00    -0.036 C 
ATOM      5  C   LIG d   1      10.262   3.336  -6.019  0.00  0.00     0.071 C 
ATOM      6  C   LIG d   1      11.265   4.503  -6.135  0.00  0.00    -0.015 C 
ATOM      7  H   LIG d   1      12.237   3.969  -6.384  0.00  0.00     0.032 H 
ATOM      8  C   LIG d   1      11.574   5.163  -4.832  0.00  0.00    -0.031 C 
ATOM      9  H   LIG d   1      12.201   4.375  -4.315  0.00  0.00     0.031 H 
ATOM     10  C   LIG d   1      12.533   6.344  -4.916  0.00  0.00    -0.049 C 
ATOM     11  C   LIG d   1      13.090   6.634  -3.508  0.00  0.00    -0.049 C 
ATOM     12  C   LIG d   1      11.903   6.983  -2.607  0.00  0.00    -0.029 C 
ATOM     13  H   LIG d   1      11.347   7.787  -3.149  0.00  0.00     0.031 H 
ATOM     14  C   LIG d   1      10.969   5.794  -2.480  0.00  0.00    -0.023 C 
ATOM     15  C   LIG d   1      10.422   5.422  -3.876  0.00  0.00    -0.023 C 
ATOM     16  C   LIG d   1       9.552   4.167  -3.755  0.00  0.00    -0.046 C 
ATOM     17  C   LIG d   1       9.077   3.722  -5.135  0.00  0.00    -0.036 C 
ATOM     18  C   LIG d   1       9.807   6.112  -1.540  0.00  0.00    -0.046 C 
ATOM     19  C   LIG d   1      10.294   6.685  -0.215  0.00  0.00    -0.048 C 
ATOM     20  C   LIG d   1      11.173   7.918  -0.382  0.00  0.00    -0.023 C 
ATOM     21  H   LIG d   1      11.632   8.105   0.631  0.00  0.00     0.032 H 
ATOM     22  C   LIG d   1      12.350   7.616  -1.306  0.00  0.00    -0.021 C 
ATOM     23  C   LIG d   1      13.126   8.913  -1.607  0.00  0.00    -0.018 C 
ATOM     24  C   LIG d   1      12.205   9.841  -2.350  0.00  0.00    -0.003 C 
ATOM     25  C   LIG d   1      12.670  10.643  -3.320  0.00  0.00    -0.048 C 
ATOM     26  C   LIG d   1      10.849   9.842  -1.993  0.00  0.00     0.165 C 
ATOM     27  O   LIG d   1      10.042  10.405  -2.692  0.00  0.00    -0.292 OA
ATOM     28  C   LIG d   1      10.401   9.176  -0.722  0.00  0.00     0.031 C 
ATOM     29  H   LIG d   1       8.800   5.134  -7.694  0.00  0.00     0.027 H 
ATOM     30  H   LIG d   1       9.775   4.603  -9.100  0.00  0.00     0.027 H 
ATOM     31  H   LIG d   1       8.702   2.755  -7.441  0.00  0.00     0.028 H 
ATOM     32  H   LIG d   1      10.367   2.535  -8.056  0.00  0.00     0.028 H 
ATOM     33  H   LIG d   1      13.361   6.107  -5.579  0.00  0.00     0.027 H 
ATOM     34  H   LIG d   1      12.035   7.249  -5.251  0.00  0.00     0.027 H 
ATOM     35  H   LIG d   1      13.633   5.772  -3.149  0.00  0.00     0.027 H 
ATOM     36  H   LIG d   1      13.761   7.494  -3.580  0.00  0.00     0.027 H 
ATOM     37  H   LIG d   1      10.087   3.343  -3.290  0.00  0.00     0.027 H 
ATOM     38  H   LIG d   1       8.674   4.402  -3.141  0.00  0.00     0.027 H 
ATOM     39  H   LIG d   1       8.496   4.503  -5.612  0.00  0.00     0.028 H 
ATOM     40  H   LIG d   1       8.433   2.842  -5.012  0.00  0.00     0.028 H 
ATOM     41  H   LIG d   1       9.080   6.765  -1.996  0.00  0.00     0.027 H 
ATOM     42  H   LIG d   1       9.288   5.159  -1.322  0.00  0.00     0.027 H 
ATOM     43  H   LIG d   1       9.447   6.882   0.445  0.00  0.00     0.027 H 
ATOM     44  H   LIG d   1      10.873   5.904   0.310  0.00  0.00     0.027 H 
ATOM     45  H   LIG d   1      13.423   9.364  -0.665  0.00  0.00     0.032 H 
ATOM     46  H   LIG d   1      13.992   8.679  -2.210  0.00  0.00     0.032 H 
ATOM     47  H   LIG d   1      13.677  10.516  -3.689  0.00  0.00     0.063 H 
ENDROOT
BRANCH  25  48
ATOM     48  C   LIG d   1      11.808  11.694  -3.881  0.00  0.00    -0.025 A 
ATOM     49  C   LIG d   1      11.170  11.498  -5.112  0.00  0.00    -0.053 A 
ATOM     50  C   LIG d   1      10.361  12.485  -5.629  0.00  0.00    -0.043 A 
ATOM     51  H   LIG d   1      11.310  10.573  -5.652  0.00  0.00     0.062 H 
ATOM     52  C   LIG d   1      10.186  13.674  -4.939  0.00  0.00     0.041 A 
ATOM     53  H   LIG d   1       9.864  12.333  -6.575  0.00  0.00     0.063 H 
ATOM     54  C   LIG d   1      10.818  13.878  -3.723  0.00  0.00    -0.043 A 
ATOM     55 CL   LIG d   1       9.168  14.915  -5.602  0.00  0.00    -0.084 Cl
ATOM     56  C   LIG d   1      11.627  12.897  -3.190  0.00  0.00    -0.053 A 
ATOM     57  H   LIG d   1      10.677  14.807  -3.191  0.00  0.00     0.063 H 
ATOM     58  H   LIG d   1      12.118  13.057  -2.243  0.00  0.00     0.062 H 
ENDBRANCH  25  48
BRANCH  22  59
ATOM     59  C   LIG d   1      13.351   6.730  -0.553  0.00  0.00    -0.059 C 
ATOM     60  H   LIG d   1      12.809   6.019   0.072  0.00  0.00     0.024 H 
ATOM     61  H   LIG d   1      13.968   6.187  -1.269  0.00  0.00     0.024 H 
ATOM     62  H   LIG d   1      13.987   7.353   0.076  0.00  0.00     0.024 H 
ENDBRANCH  22  59
BRANCH  28  63
ATOM     63  C   LIG d   1       8.890   8.955  -0.805  0.00  0.00    -0.052 C 
ATOM     64  H   LIG d   1       8.524   9.301  -1.770  0.00  0.00     0.024 H 
ATOM     65  H   LIG d   1       8.672   7.893  -0.693  0.00  0.00     0.024 H 
ATOM     66  H   LIG d   1       8.398   9.512  -0.008  0.00  0.00     0.024 H 
ENDBRANCH  28  63
BRANCH  28  67
ATOM     67  C   LIG d   1      10.638  10.195   0.419  0.00  0.00    -0.052 C 
ATOM     68  H   LIG d   1      10.242   9.794   1.352  0.00  0.00     0.024 H 
ATOM     69  H   LIG d   1      11.707  10.377   0.527  0.00  0.00     0.024 H 
ATOM     70  H   LIG d   1      10.133  11.131   0.181  0.00  0.00     0.024 H 
ENDBRANCH  28  67
BRANCH  14  71
ATOM     71  C   LIG d   1      11.694   4.566  -1.909  0.00  0.00    -0.059 C 
ATOM     72  H   LIG d   1      10.960   3.830  -1.581  0.00  0.00     0.024 H 
ATOM     73  H   LIG d   1      12.329   4.128  -2.680  0.00  0.00     0.024 H 
ATOM     74  H   LIG d   1      12.308   4.868  -1.061  0.00  0.00     0.024 H 
ENDBRANCH  14  71
BRANCH  15  75
ATOM     75  C   LIG d   1       9.535   6.565  -4.385  0.00  0.00    -0.059 C 
ATOM     76  H   LIG d   1       8.618   6.153  -4.806  0.00  0.00     0.024 H 
ATOM     77  H   LIG d   1       9.287   7.228  -3.556  0.00  0.00     0.024 H 
ATOM     78  H   LIG d   1      10.068   7.127  -5.152  0.00  0.00     0.024 H 
ENDBRANCH  15  75
BRANCH   1  79
ATOM     79  C   LIG d   1      10.717   6.744  -7.273  0.00  0.00    -0.076 C 
ATOM     80  C   LIG d   1       9.507   7.200  -7.057  0.00  0.00    -0.099 C 
ATOM     81  H   LIG d   1       8.687   6.511  -6.919  0.00  0.00     0.053 H 
ATOM     82  H   LIG d   1       9.332   8.265  -7.016  0.00  0.00     0.053 H 
BRANCH  79  83
ATOM     83  C   LIG d   1      11.872   7.703  -7.397  0.00  0.00    -0.044 C 
ATOM     84  H   LIG d   1      12.460   7.452  -8.281  0.00  0.00     0.027 H 
ATOM     85  H   LIG d   1      11.492   8.720  -7.489  0.00  0.00     0.027 H 
ATOM     86  H   LIG d   1      12.502   7.629  -6.510  0.00  0.00     0.027 H 
ENDBRANCH  79  83
ENDBRANCH   1  79
BRANCH   5  87
ATOM     87  C   LIG d   1      10.934   2.069  -5.539  0.00  0.00     0.313 C 
ATOM     88  O   LIG d   1      10.324   1.026  -5.534  0.00  0.00    -0.250 OA
BRANCH  87  89
ATOM     89  O   LIG d   1      12.208   2.103  -5.118  0.00  0.00    -0.468 OA
BRANCH  89  90
ATOM     90  C   LIG d   1      12.489   1.504  -3.851  0.00  0.00     0.082 C 
ATOM     91  H   LIG d   1      12.240   0.443  -3.888  0.00  0.00     0.066 H 
ATOM     92  H   LIG d   1      13.548   1.620  -3.621  0.00  0.00     0.066 H 
ATOM     93  H   LIG d   1      11.893   1.991  -3.079  0.00  0.00     0.066 H 
ENDBRANCH  89  90
ENDBRANCH  87  89
ENDBRANCH   5  87
TORSDOF 11
ENDMDL
MODEL 4
REMARK VINA RESULT:      -5.6      2.513      4.583
REMARK  11 active torsions:
REMARK  status: ('A' for Active; 'I' for Inactive)
REMARK    1  A    between atoms: C_1  and  C_2 
REMARK    2  A    between atoms: C_2  and  C_4 
REMARK    3  A    between atoms: C_8  and  C_44 
REMARK    4  A    between atoms: C_17  and  C_43 
REMARK    5  A    between atoms: C_18  and  C_21 
REMARK    6  A    between atoms: C_26  and  C_42 
REMARK    7  A    between atoms: C_29  and  C_30 
REMARK    8  A    between atoms: C_39  and  C_40 
REMARK    9  A    between atoms: C_39  and  C_41 
REMARK   10  A    between atoms: C_44  and  O_46 
REMARK   11  A    between atoms: O_46  and  C_47 
ROOT
ATOM      1  C   LIG d   1      10.795   9.845  -0.831  0.00  0.00    -0.016 C 
ATOM      2  H   LIG d   1       9.845  10.308  -0.491  0.00  0.00     0.035 H 
ATOM      3  C   LIG d   1      11.919  10.424   0.068  0.00  0.00    -0.045 C 
ATOM      4  C   LIG d   1      12.028   9.421   1.236  0.00  0.00    -0.036 C 
ATOM      5  C   LIG d   1      11.757   8.045   0.565  0.00  0.00     0.071 C 
ATOM      6  C   LIG d   1      10.736   8.364  -0.546  0.00  0.00    -0.015 C 
ATOM      7  H   LIG d   1       9.741   8.235  -0.011  0.00  0.00     0.032 H 
ATOM      8  C   LIG d   1      10.671   7.329  -1.620  0.00  0.00    -0.031 C 
ATOM      9  H   LIG d   1      10.163   6.470  -1.085  0.00  0.00     0.031 H 
ATOM     10  C   LIG d   1       9.698   7.632  -2.753  0.00  0.00    -0.049 C 
ATOM     11  C   LIG d   1       9.414   6.328  -3.527  0.00  0.00    -0.049 C 
ATOM     12  C   LIG d   1      10.746   5.833  -4.096  0.00  0.00    -0.029 C 
ATOM     13  H   LIG d   1      11.178   6.707  -4.641  0.00  0.00     0.031 H 
ATOM     14  C   LIG d   1      11.703   5.483  -2.971  0.00  0.00    -0.023 C 
ATOM     15  C   LIG d   1      11.979   6.746  -2.124  0.00  0.00    -0.023 C 
ATOM     16  C   LIG d   1      12.873   6.367  -0.939  0.00  0.00    -0.046 C 
ATOM     17  C   LIG d   1      13.083   7.577  -0.033  0.00  0.00    -0.036 C 
ATOM     18  C   LIG d   1      13.017   4.936  -3.525  0.00  0.00    -0.046 C 
ATOM     19  C   LIG d   1      12.783   3.819  -4.533  0.00  0.00    -0.048 C 
ATOM     20  C   LIG d   1      11.872   4.230  -5.683  0.00  0.00    -0.023 C 
ATOM     21  H   LIG d   1      11.612   3.275  -6.222  0.00  0.00     0.032 H 
ATOM     22  C   LIG d   1      10.546   4.765  -5.150  0.00  0.00    -0.021 C 
ATOM     23  C   LIG d   1       9.709   5.341  -6.310  0.00  0.00    -0.018 C 
ATOM     24  C   LIG d   1      10.461   6.509  -6.886  0.00  0.00    -0.003 C 
ATOM     25  C   LIG d   1       9.809   7.591  -7.339  0.00  0.00    -0.048 C 
ATOM     26  C   LIG d   1      11.859   6.428  -6.936  0.00  0.00     0.165 C 
ATOM     27  O   LIG d   1      12.511   7.413  -7.189  0.00  0.00    -0.292 OA
ATOM     28  C   LIG d   1      12.549   5.112  -6.712  0.00  0.00     0.031 C 
ATOM     29  H   LIG d   1      12.851  10.468  -0.488  0.00  0.00     0.027 H 
ATOM     30  H   LIG d   1      11.634  11.407   0.432  0.00  0.00     0.027 H 
ATOM     31  H   LIG d   1      13.027   9.445   1.669  0.00  0.00     0.028 H 
ATOM     32  H   LIG d   1      11.278   9.634   1.997  0.00  0.00     0.028 H 
ATOM     33  H   LIG d   1       8.762   8.012  -2.351  0.00  0.00     0.027 H 
ATOM     34  H   LIG d   1      10.110   8.339  -3.466  0.00  0.00     0.027 H 
ATOM     35  H   LIG d   1       8.960   5.606  -2.865  0.00  0.00     0.027 H 
ATOM     36  H   LIG d   1       8.731   6.564  -4.347  0.00  0.00     0.027 H 
ATOM     37  H   LIG d   1      12.448   5.561  -0.347  0.00  0.00     0.027 H 
ATOM     38  H   LIG d   1      13.849   6.041  -1.320  0.00  0.00     0.027 H 
ATOM     39  H   LIG d   1      13.553   8.388  -0.577  0.00  0.00     0.028 H 
ATOM     40  H   LIG d   1      13.750   7.283   0.787  0.00  0.00     0.028 H 
ATOM     41  H   LIG d   1      13.636   5.712  -3.947  0.00  0.00     0.027 H 
ATOM     42  H   LIG d   1      13.581   4.507  -2.674  0.00  0.00     0.027 H 
ATOM     43  H   LIG d   1      13.738   3.432  -4.896  0.00  0.00     0.027 H 
ATOM     44  H   LIG d   1      12.324   2.964  -4.005  0.00  0.00     0.027 H 
ATOM     45  H   LIG d   1       9.591   4.570  -7.066  0.00  0.00     0.032 H 
ATOM     46  H   LIG d   1       8.747   5.659  -5.933  0.00  0.00     0.032 H 
ATOM     47  H   LIG d   1       8.752   7.705  -7.148  0.00  0.00     0.063 H 
ENDROOT
BRANCH  25  48
ATOM     48  C   LIG d   1      10.535   8.623  -8.094  0.00  0.00    -0.025 A 
ATOM     49  C   LIG d   1      10.867   8.409  -9.438  0.00  0.00    -0.053 A 
ATOM     50  C   LIG d   1      11.543   9.383 -10.140  0.00  0.00    -0.043 A 
ATOM     51  H   LIG d   1      10.591   7.484  -9.922  0.00  0.00     0.062 H 
ATOM     52  C   LIG d   1      11.904  10.567  -9.516  0.00  0.00     0.041 A 
ATOM     53  H   LIG d   1      11.796   9.222 -11.177  0.00  0.00     0.063 H 
ATOM     54  C   LIG d   1      11.583  10.784  -8.186  0.00  0.00    -0.043 A 
ATOM     55 CL   LIG d   1      12.760  11.785 -10.409  0.00  0.00    -0.084 Cl
ATOM     56  C   LIG d   1      10.902   9.822  -7.472  0.00  0.00    -0.053 A 
ATOM     57  H   LIG d   1      11.867  11.709  -7.707  0.00  0.00     0.063 H 
ATOM     58  H   LIG d   1      10.652   9.992  -6.436  0.00  0.00     0.062 H 
ENDBRANCH  25  48
BRANCH  22  59
ATOM     59  C   LIG d   1       9.718   3.586  -4.622  0.00  0.00    -0.059 C 
ATOM     60  H   LIG d   1       8.657   3.790  -4.774  0.00  0.00     0.024 H 
ATOM     61  H   LIG d   1       9.994   2.678  -5.159  0.00  0.00     0.024 H 
ATOM     62  H   LIG d   1       9.912   3.453  -3.558  0.00  0.00     0.024 H 
ENDBRANCH  22  59
BRANCH  28  63
ATOM     63  C   LIG d   1      14.019   5.390  -6.397  0.00  0.00    -0.052 C 
ATOM     64  H   LIG d   1      14.586   4.462  -6.462  0.00  0.00     0.024 H 
ATOM     65  H   LIG d   1      14.414   6.108  -7.116  0.00  0.00     0.024 H 
ATOM     66  H   LIG d   1      14.105   5.799  -5.390  0.00  0.00     0.024 H 
ENDBRANCH  28  63
BRANCH  28  67
ATOM     67  C   LIG d   1      12.519   4.361  -8.065  0.00  0.00    -0.052 C 
ATOM     68  H   LIG d   1      13.276   3.577  -8.062  0.00  0.00     0.024 H 
ATOM     69  H   LIG d   1      11.536   3.916  -8.212  0.00  0.00     0.024 H 
ATOM     70  H   LIG d   1      12.725   5.062  -8.875  0.00  0.00     0.024 H 
ENDBRANCH  28  67
BRANCH  14  71
ATOM     71  C   LIG d   1      11.116   4.408  -2.045  0.00  0.00    -0.059 C 
ATOM     72  H   LIG d   1      10.470   3.745  -2.621  0.00  0.00     0.024 H 
ATOM     73  H   LIG d   1      11.925   3.830  -1.598  0.00  0.00     0.024 H 
ATOM     74  H   LIG d   1      10.533   4.886  -1.257  0.00  0.00     0.024 H 
ENDBRANCH  14  71
BRANCH  15  75
ATOM     75  C   LIG d   1      12.739   7.765  -2.982  0.00  0.00    -0.059 C 
ATOM     76  H   LIG d   1      12.239   8.731  -2.926  0.00  0.00     0.024 H 
ATOM     77  H   LIG d   1      13.760   7.861  -2.613  0.00  0.00     0.024 H 
ATOM     78  H   LIG d   1      12.759   7.425  -4.018  0.00  0.00     0.024 H 
ENDBRANCH  15  75
BRANCH   1  79
ATOM     79  C   LIG d   1      11.027  10.274  -2.244  0.00  0.00    -0.076 C 
ATOM     80  C   LIG d   1      10.009  10.445  -3.052  0.00  0.00    -0.099 C 
ATOM     81  H   LIG d   1       9.002  10.322  -2.684  0.00  0.00     0.053 H 
ATOM     82  H   LIG d   1      10.180  10.710  -4.086  0.00  0.00     0.053 H 
BRANCH  79  83
ATOM     83  C   LIG d   1      12.430  10.512  -2.739  0.00  0.00    -0.044 C 
ATOM     84  H   LIG d   1      12.656   9.811  -3.543  0.00  0.00     0.027 H 
ATOM     85  H   LIG d   1      12.516  11.534  -3.111  0.00  0.00     0.027 H 
ATOM     86  H   LIG d   1      13.134  10.364  -1.920  0.00  0.00     0.027 H 
ENDBRANCH  79  83
ENDBRANCH   1  79
BRANCH   5  87
ATOM     87  C   LIG d   1      11.205   7.049   1.561  0.00  0.00     0.313 C 
ATOM     88  O   LIG d   1      10.639   6.056   1.170  0.00  0.00    -0.250 OA
BRANCH  87  89
ATOM     89  O   LIG d   1      11.344   7.268   2.878  0.00  0.00    -0.468 OA
BRANCH  89  90
ATOM     90  C   LIG d   1      10.943   6.215   3.757  0.00  0.00     0.082 C 
ATOM     91  H   LIG d   1      11.264   5.258   3.346  0.00  0.00     0.066 H 
ATOM     92  H   LIG d   1      11.402   6.363   4.734  0.00  0.00     0.066 H 
ATOM     93  H   LIG d   1       9.858   6.221   3.859  0.00  0.00     0.066 H 
ENDBRANCH  89  90
ENDBRANCH  87  89
ENDBRANCH   5  87
TORSDOF 11
ENDMDL
MODEL 5
REMARK VINA RESULT:      -5.5      2.991      5.471
REMARK  11 active torsions:
REMARK  status: ('A' for Active; 'I' for Inactive)
REMARK    1  A    between atoms: C_1  and  C_2 
REMARK    2  A    between atoms: C_2  and  C_4 
REMARK    3  A    between atoms: C_8  and  C_44 
REMARK    4  A    between atoms: C_17  and  C_43 
REMARK    5  A    between atoms: C_18  and  C_21 
REMARK    6  A    between atoms: C_26  and  C_42 
REMARK    7  A    between atoms: C_29  and  C_30 
REMARK    8  A    between atoms: C_39  and  C_40 
REMARK    9  A    between atoms: C_39  and  C_41 
REMARK   10  A    between atoms: C_44  and  O_46 
REMARK   11  A    between atoms: O_46  and  C_47 
ROOT
ATOM      1  C   LIG d   1      10.276   8.967  -3.746  0.00  0.00    -0.016 C 
ATOM      2  H   LIG d   1       9.331   9.528  -3.589  0.00  0.00     0.035 H 
ATOM      3  C   LIG d   1      11.413   9.835  -3.148  0.00  0.00    -0.045 C 
ATOM      4  C   LIG d   1      11.543   9.343  -1.691  0.00  0.00    -0.036 C 
ATOM      5  C   LIG d   1      11.264   7.818  -1.792  0.00  0.00     0.071 C 
ATOM      6  C   LIG d   1      10.223   7.701  -2.925  0.00  0.00    -0.015 C 
ATOM      7  H   LIG d   1       9.237   7.787  -2.365  0.00  0.00     0.032 H 
ATOM      8  C   LIG d   1      10.142   6.339  -3.532  0.00  0.00    -0.031 C 
ATOM      9  H   LIG d   1       9.645   5.746  -2.705  0.00  0.00     0.031 H 
ATOM     10  C   LIG d   1       9.150   6.199  -4.680  0.00  0.00    -0.049 C 
ATOM     11  C   LIG d   1       8.855   4.703  -4.904  0.00  0.00    -0.049 C 
ATOM     12  C   LIG d   1      10.178   4.023  -5.266  0.00  0.00    -0.029 C 
ATOM     13  H   LIG d   1      10.600   4.627  -6.106  0.00  0.00     0.031 H 
ATOM     14  C   LIG d   1      11.155   4.117  -4.107  0.00  0.00    -0.023 C 
ATOM     15  C   LIG d   1      11.443   5.603  -3.801  0.00  0.00    -0.023 C 
ATOM     16  C   LIG d   1      12.357   5.693  -2.575  0.00  0.00    -0.046 C 
ATOM     17  C   LIG d   1      12.580   7.153  -2.192  0.00  0.00    -0.036 C 
ATOM     18  C   LIG d   1      12.460   3.396  -4.437  0.00  0.00    -0.046 C 
ATOM     19  C   LIG d   1      12.211   1.983  -4.949  0.00  0.00    -0.048 C 
ATOM     20  C   LIG d   1      11.281   1.938  -6.154  0.00  0.00    -0.023 C 
ATOM     21  H   LIG d   1      11.013   0.851  -6.292  0.00  0.00     0.032 H 
ATOM     22  C   LIG d   1       9.963   2.640  -5.840  0.00  0.00    -0.021 C 
ATOM     23  C   LIG d   1       9.106   2.742  -7.118  0.00  0.00    -0.018 C 
ATOM     24  C   LIG d   1       9.846   3.606  -8.101  0.00  0.00    -0.003 C 
ATOM     25  C   LIG d   1       9.185   4.442  -8.917  0.00  0.00    -0.048 C 
ATOM     26  C   LIG d   1      11.244   3.505  -8.140  0.00  0.00     0.165 C 
ATOM     27  O   LIG d   1      11.890   4.320  -8.754  0.00  0.00    -0.292 OA
ATOM     28  C   LIG d   1      11.940   2.366  -7.449  0.00  0.00     0.031 C 
ATOM     29  H   LIG d   1      12.335   9.663  -3.694  0.00  0.00     0.027 H 
ATOM     30  H   LIG d   1      11.132  10.884  -3.174  0.00  0.00     0.027 H 
ATOM     31  H   LIG d   1      12.549   9.524  -1.314  0.00  0.00     0.028 H 
ATOM     32  H   LIG d   1      10.805   9.829  -1.054  0.00  0.00     0.028 H 
ATOM     33  H   LIG d   1       8.220   6.707  -4.434  0.00  0.00     0.027 H 
ATOM     34  H   LIG d   1       9.549   6.586  -5.612  0.00  0.00     0.027 H 
ATOM     35  H   LIG d   1       8.414   4.284  -4.012  0.00  0.00     0.027 H 
ATOM     36  H   LIG d   1       8.158   4.617  -5.741  0.00  0.00     0.027 H 
ATOM     37  H   LIG d   1      11.942   5.169  -1.717  0.00  0.00     0.027 H 
ATOM     38  H   LIG d   1      13.326   5.243  -2.821  0.00  0.00     0.027 H 
ATOM     39  H   LIG d   1      13.039   7.699  -3.008  0.00  0.00     0.028 H 
ATOM     40  H   LIG d   1      13.261   7.185  -1.332  0.00  0.00     0.028 H 
ATOM     41  H   LIG d   1      13.071   3.953  -5.130  0.00  0.00     0.027 H 
ATOM     42  H   LIG d   1      13.038   3.314  -3.497  0.00  0.00     0.027 H 
ATOM     43  H   LIG d   1      13.160   1.483  -5.155  0.00  0.00     0.027 H 
ATOM     44  H   LIG d   1      11.763   1.390  -4.131  0.00  0.00     0.027 H 
ATOM     45  H   LIG d   1       8.976   1.745  -7.527  0.00  0.00     0.032 H 
ATOM     46  H   LIG d   1       8.150   3.183  -6.872  0.00  0.00     0.032 H 
ATOM     47  H   LIG d   1       8.131   4.623  -8.766  0.00  0.00     0.063 H 
ENDROOT
BRANCH  25  48
ATOM     48  C   LIG d   1       9.897   5.112 -10.016  0.00  0.00    -0.025 A 
ATOM     49  C   LIG d   1      10.329   6.435  -9.870  0.00  0.00    -0.053 A 
ATOM     50  C   LIG d   1      10.998   7.055 -10.903  0.00  0.00    -0.043 A 
ATOM     51  H   LIG d   1      10.139   6.968  -8.950  0.00  0.00     0.062 H 
ATOM     52  C   LIG d   1      11.235   6.374 -12.086  0.00  0.00     0.041 A 
ATOM     53  H   LIG d   1      11.337   8.074 -10.790  0.00  0.00     0.063 H 
ATOM     54  C   LIG d   1      10.806   5.065 -12.240  0.00  0.00    -0.043 A 
ATOM     55 CL   LIG d   1      12.076   7.166 -13.383  0.00  0.00    -0.084 Cl
ATOM     56  C   LIG d   1      10.140   4.431 -11.214  0.00  0.00    -0.053 A 
ATOM     57  H   LIG d   1      10.995   4.541 -13.165  0.00  0.00     0.063 H 
ATOM     58  H   LIG d   1       9.807   3.411 -11.335  0.00  0.00     0.062 H 
ENDBRANCH  25  48
BRANCH  22  59
ATOM     59  C   LIG d   1       9.145   1.749  -4.895  0.00  0.00    -0.059 C 
ATOM     60  H   LIG d   1       9.207   0.712  -5.228  0.00  0.00     0.024 H 
ATOM     61  H   LIG d   1       9.544   1.830  -3.883  0.00  0.00     0.024 H 
ATOM     62  H   LIG d   1       8.103   2.070  -4.902  0.00  0.00     0.024 H 
ENDBRANCH  22  59
BRANCH  28  63
ATOM     63  C   LIG d   1      13.414   2.734  -7.286  0.00  0.00    -0.052 C 
ATOM     64  H   LIG d   1      14.032   1.861  -7.492  0.00  0.00     0.024 H 
ATOM     65  H   LIG d   1      13.668   3.532  -7.983  0.00  0.00     0.024 H 
ATOM     66  H   LIG d   1      13.593   3.073  -6.265  0.00  0.00     0.024 H 
ENDBRANCH  28  63
BRANCH  28  67
ATOM     67  C   LIG d   1      11.888   1.162  -8.422  0.00  0.00    -0.052 C 
ATOM     68  H   LIG d   1      11.212   0.405  -8.026  0.00  0.00     0.024 H 
ATOM     69  H   LIG d   1      11.529   1.496  -9.395  0.00  0.00     0.024 H 
ATOM     70  H   LIG d   1      12.887   0.738  -8.529  0.00  0.00     0.024 H 
ENDBRANCH  28  67
BRANCH  14  71
ATOM     71  C   LIG d   1      10.584   3.470  -2.837  0.00  0.00    -0.059 C 
ATOM     72  H   LIG d   1       9.994   4.204  -2.289  0.00  0.00     0.024 H 
ATOM     73  H   LIG d   1       9.952   2.625  -3.111  0.00  0.00     0.024 H 
ATOM     74  H   LIG d   1      11.404   3.121  -2.207  0.00  0.00     0.024 H 
ENDBRANCH  14  71
BRANCH  15  75
ATOM     75  C   LIG d   1      12.187   6.222  -4.991  0.00  0.00    -0.059 C 
ATOM     76  H   LIG d   1      13.196   6.497  -4.685  0.00  0.00     0.024 H 
ATOM     77  H   LIG d   1      12.238   5.498  -5.804  0.00  0.00     0.024 H 
ATOM     78  H   LIG d   1      11.654   7.111  -5.330  0.00  0.00     0.024 H 
ENDBRANCH  15  75
BRANCH   1  79
ATOM     79  C   LIG d   1      10.484   8.834  -5.220  0.00  0.00    -0.076 C 
ATOM     80  C   LIG d   1      11.695   8.888  -5.718  0.00  0.00    -0.099 C 
ATOM     81  H   LIG d   1      12.546   8.980  -5.060  0.00  0.00     0.053 H 
ATOM     82  H   LIG d   1      11.841   8.839  -6.788  0.00  0.00     0.053 H 
BRANCH  79  83
ATOM     83  C   LIG d   1       9.302   8.637  -6.133  0.00  0.00    -0.044 C 
ATOM     84  H   LIG d   1       9.059   9.580  -6.623  0.00  0.00     0.027 H 
ATOM     85  H   LIG d   1       9.546   7.887  -6.887  0.00  0.00     0.027 H 
ATOM     86  H   LIG d   1       8.445   8.299  -5.551  0.00  0.00     0.027 H 
ENDBRANCH  79  83
ENDBRANCH   1  79
BRANCH   5  87
ATOM     87  C   LIG d   1      10.730   7.270  -0.487  0.00  0.00     0.313 C 
ATOM     88  O   LIG d   1       9.538   7.201  -0.304  0.00  0.00    -0.250 OA
BRANCH  87  89
ATOM     89  O   LIG d   1      11.580   6.861   0.468  0.00  0.00    -0.468 OA
BRANCH  89  90
ATOM     90  C   LIG d   1      11.121   5.834   1.349  0.00  0.00     0.082 C 
ATOM     91  H   LIG d   1      11.932   5.129   1.537  0.00  0.00     0.066 H 
ATOM     92  H   LIG d   1      10.800   6.278   2.291  0.00  0.00     0.066 H 
ATOM     93  H   LIG d   1      10.283   5.309   0.890  0.00  0.00     0.066 H 
ENDBRANCH  89  90
ENDBRANCH  87  89
ENDBRANCH   5  87
TORSDOF 11
ENDMDL
MODEL 6
REMARK VINA RESULT:      -5.4      3.395      6.644
REMARK  11 active torsions:
REMARK  status: ('A' for Active; 'I' for Inactive)
REMARK    1  A    between atoms: C_1  and  C_2 
REMARK    2  A    between atoms: C_2  and  C_4 
REMARK    3  A    between atoms: C_8  and  C_44 
REMARK    4  A    between atoms: C_17  and  C_43 
REMARK    5  A    between atoms: C_18  and  C_21 
REMARK    6  A    between atoms: C_26  and  C_42 
REMARK    7  A    between atoms: C_29  and  C_30 
REMARK    8  A    between atoms: C_39  and  C_40 
REMARK    9  A    between atoms: C_39  and  C_41 
REMARK   10  A    between atoms: C_44  and  O_46 
REMARK   11  A    between atoms: O_46  and  C_47 
ROOT
ATOM      1  C   LIG d   1      12.703   8.213  -0.705  0.00  0.00    -0.016 C 
ATOM      2  H   LIG d   1      13.469   9.017  -0.715  0.00  0.00     0.035 H 
ATOM      3  C   LIG d   1      11.883   8.399   0.599  0.00  0.00    -0.045 C 
ATOM      4  C   LIG d   1      10.705   9.304   0.183  0.00  0.00    -0.036 C 
ATOM      5  C   LIG d   1      10.377   8.839  -1.264  0.00  0.00     0.071 C 
ATOM      6  C   LIG d   1      11.748   8.445  -1.851  0.00  0.00    -0.015 C 
ATOM      7  H   LIG d   1      12.111   9.421  -2.307  0.00  0.00     0.032 H 
ATOM      8  C   LIG d   1      11.660   7.539  -3.034  0.00  0.00    -0.031 C 
ATOM      9  H   LIG d   1      11.263   8.237  -3.832  0.00  0.00     0.031 H 
ATOM     10  C   LIG d   1      12.998   7.100  -3.615  0.00  0.00    -0.049 C 
ATOM     11  C   LIG d   1      12.768   6.557  -5.040  0.00  0.00    -0.049 C 
ATOM     12  C   LIG d   1      11.824   5.356  -4.927  0.00  0.00    -0.029 C 
ATOM     13  H   LIG d   1      12.285   4.690  -4.158  0.00  0.00     0.031 H 
ATOM     14  C   LIG d   1      10.473   5.796  -4.394  0.00  0.00    -0.023 C 
ATOM     15  C   LIG d   1      10.652   6.404  -2.985  0.00  0.00    -0.023 C 
ATOM     16  C   LIG d   1       9.300   6.926  -2.490  0.00  0.00    -0.046 C 
ATOM     17  C   LIG d   1       9.467   7.618  -1.140  0.00  0.00    -0.036 C 
ATOM     18  C   LIG d   1       9.505   4.616  -4.327  0.00  0.00    -0.046 C 
ATOM     19  C   LIG d   1       9.454   3.853  -5.643  0.00  0.00    -0.048 C 
ATOM     20  C   LIG d   1      10.821   3.370  -6.110  0.00  0.00    -0.023 C 
ATOM     21  H   LIG d   1      10.676   3.022  -7.173  0.00  0.00     0.032 H 
ATOM     22  C   LIG d   1      11.800   4.537  -6.199  0.00  0.00    -0.021 C 
ATOM     23  C   LIG d   1      13.218   4.011  -6.498  0.00  0.00    -0.018 C 
ATOM     24  C   LIG d   1      13.648   3.158  -5.337  0.00  0.00    -0.003 C 
ATOM     25  C   LIG d   1      14.925   3.148  -4.925  0.00  0.00    -0.048 C 
ATOM     26  C   LIG d   1      12.673   2.375  -4.703  0.00  0.00     0.165 C 
ATOM     27  O   LIG d   1      12.920   1.843  -3.647  0.00  0.00    -0.292 OA
ATOM     28  C   LIG d   1      11.334   2.163  -5.350  0.00  0.00     0.031 C 
ATOM     29  H   LIG d   1      11.522   7.436   0.948  0.00  0.00     0.027 H 
ATOM     30  H   LIG d   1      12.492   8.886   1.355  0.00  0.00     0.027 H 
ATOM     31  H   LIG d   1       9.849   9.145   0.839  0.00  0.00     0.028 H 
ATOM     32  H   LIG d   1      11.002  10.352   0.194  0.00  0.00     0.028 H 
ATOM     33  H   LIG d   1      13.678   7.946  -3.668  0.00  0.00     0.027 H 
ATOM     34  H   LIG d   1      13.448   6.297  -3.040  0.00  0.00     0.027 H 
ATOM     35  H   LIG d   1      12.359   7.338  -5.663  0.00  0.00     0.027 H 
ATOM     36  H   LIG d   1      13.732   6.228  -5.436  0.00  0.00     0.027 H 
ATOM     37  H   LIG d   1       8.854   7.631  -3.187  0.00  0.00     0.027 H 
ATOM     38  H   LIG d   1       8.615   6.078  -2.367  0.00  0.00     0.027 H 
ATOM     39  H   LIG d   1       9.865   6.931  -0.402  0.00  0.00     0.028 H 
ATOM     40  H   LIG d   1       8.479   7.953  -0.799  0.00  0.00     0.028 H 
ATOM     41  H   LIG d   1       9.727   3.952  -3.506  0.00  0.00     0.027 H 
ATOM     42  H   LIG d   1       8.495   5.028  -4.139  0.00  0.00     0.027 H 
ATOM     43  H   LIG d   1       8.739   3.029  -5.575  0.00  0.00     0.027 H 
ATOM     44  H   LIG d   1       9.030   4.519  -6.416  0.00  0.00     0.027 H 
ATOM     45  H   LIG d   1      13.180   3.411  -7.402  0.00  0.00     0.032 H 
ATOM     46  H   LIG d   1      13.891   4.848  -6.622  0.00  0.00     0.032 H 
ATOM     47  H   LIG d   1      15.625   3.872  -5.318  0.00  0.00     0.063 H 
ENDROOT
BRANCH  25  48
ATOM     48  C   LIG d   1      15.372   2.153  -3.940  0.00  0.00    -0.025 A 
ATOM     49  C   LIG d   1      15.637   2.539  -2.621  0.00  0.00    -0.053 A 
ATOM     50  C   LIG d   1      16.052   1.600  -1.702  0.00  0.00    -0.043 A 
ATOM     51  H   LIG d   1      15.515   3.570  -2.324  0.00  0.00     0.062 H 
ATOM     52  C   LIG d   1      16.216   0.278  -2.083  0.00  0.00     0.041 A 
ATOM     53  H   LIG d   1      16.252   1.895  -0.683  0.00  0.00     0.063 H 
ATOM     54  C   LIG d   1      15.960  -0.112  -3.389  0.00  0.00    -0.043 A 
ATOM     55 CL   LIG d   1      16.743  -0.897  -0.919  0.00  0.00    -0.084 Cl
ATOM     56  C   LIG d   1      15.539   0.816  -4.318  0.00  0.00    -0.053 A 
ATOM     57  H   LIG d   1      16.089  -1.143  -3.678  0.00  0.00     0.063 H 
ATOM     58  H   LIG d   1      15.340   0.511  -5.334  0.00  0.00     0.062 H 
ENDBRANCH  25  48
BRANCH  22  59
ATOM     59  C   LIG d   1      11.437   5.390  -7.422  0.00  0.00    -0.059 C 
ATOM     60  H   LIG d   1      12.121   5.163  -8.240  0.00  0.00     0.024 H 
ATOM     61  H   LIG d   1      10.415   5.166  -7.731  0.00  0.00     0.024 H 
ATOM     62  H   LIG d   1      11.516   6.447  -7.166  0.00  0.00     0.024 H 
ENDBRANCH  22  59
BRANCH  28  63
ATOM     63  C   LIG d   1      10.360   1.661  -4.284  0.00  0.00    -0.052 C 
ATOM     64  H   LIG d   1      10.829   1.727  -3.304  0.00  0.00     0.024 H 
ATOM     65  H   LIG d   1       9.459   2.274  -4.298  0.00  0.00     0.024 H 
ATOM     66  H   LIG d   1      10.097   0.624  -4.492  0.00  0.00     0.024 H 
ENDBRANCH  28  63
BRANCH  28  67
ATOM     67  C   LIG d   1      11.512   1.010  -6.367  0.00  0.00    -0.052 C 
ATOM     68  H   LIG d   1      12.505   0.576  -6.254  0.00  0.00     0.024 H 
ATOM     69  H   LIG d   1      10.758   0.244  -6.184  0.00  0.00     0.024 H 
ATOM     70  H   LIG d   1      11.397   1.397  -7.380  0.00  0.00     0.024 H 
ENDBRANCH  28  67
BRANCH  14  71
ATOM     71  C   LIG d   1       9.831   6.861  -5.294  0.00  0.00    -0.059 C 
ATOM     72  H   LIG d   1       9.923   6.559  -6.337  0.00  0.00     0.024 H 
ATOM     73  H   LIG d   1       8.777   6.968  -5.037  0.00  0.00     0.024 H 
ATOM     74  H   LIG d   1      10.340   7.815  -5.148  0.00  0.00     0.024 H 
ENDBRANCH  14  71
BRANCH  15  75
ATOM     75  C   LIG d   1      11.114   5.302  -2.022  0.00  0.00    -0.059 C 
ATOM     76  H   LIG d   1      12.130   5.001  -2.275  0.00  0.00     0.024 H 
ATOM     77  H   LIG d   1      11.090   5.680  -1.000  0.00  0.00     0.024 H 
ATOM     78  H   LIG d   1      10.448   4.443  -2.106  0.00  0.00     0.024 H 
ENDBRANCH  15  75
BRANCH   1  79
ATOM     79  C   LIG d   1      13.421   6.904  -0.650  0.00  0.00    -0.076 C 
ATOM     80  C   LIG d   1      12.851   5.866  -0.086  0.00  0.00    -0.099 C 
ATOM     81  H   LIG d   1      11.845   5.946   0.296  0.00  0.00     0.053 H 
ATOM     82  H   LIG d   1      13.390   4.933  -0.004  0.00  0.00     0.053 H 
BRANCH  79  83
ATOM     83  C   LIG d   1      14.800   6.775  -1.243  0.00  0.00    -0.044 C 
ATOM     84  H   LIG d   1      14.868   5.844  -1.807  0.00  0.00     0.027 H 
ATOM     85  H   LIG d   1      14.991   7.618  -1.908  0.00  0.00     0.027 H 
ATOM     86  H   LIG d   1      15.541   6.769  -0.443  0.00  0.00     0.027 H 
ENDBRANCH  79  83
ENDBRANCH   1  79
BRANCH   5  87
ATOM     87  C   LIG d   1       9.727   9.948  -2.062  0.00  0.00     0.313 C 
ATOM     88  O   LIG d   1       8.645  10.373  -1.734  0.00  0.00    -0.250 OA
BRANCH  87  89
ATOM     89  O   LIG d   1      10.352  10.459  -3.134  0.00  0.00    -0.468 OA
BRANCH  89  90
ATOM     90  C   LIG d   1       9.620  10.484  -4.361  0.00  0.00     0.082 C 
ATOM     91  H   LIG d   1      10.083  11.197  -5.044  0.00  0.00     0.066 H 
ATOM     92  H   LIG d   1       9.629   9.492  -4.811  0.00  0.00     0.066 H 
ATOM     93  H   LIG d   1       8.591  10.785  -4.164  0.00  0.00     0.066 H 
ENDBRANCH  89  90
ENDBRANCH  87  89
ENDBRANCH   5  87
TORSDOF 11
ENDMDL
MODEL 7
REMARK VINA RESULT:      -5.3     12.082     16.766
REMARK  11 active torsions:
REMARK  status: ('A' for Active; 'I' for Inactive)
REMARK    1  A    between atoms: C_1  and  C_2 
REMARK    2  A    between atoms: C_2  and  C_4 
REMARK    3  A    between atoms: C_8  and  C_44 
REMARK    4  A    between atoms: C_17  and  C_43 
REMARK    5  A    between atoms: C_18  and  C_21 
REMARK    6  A    between atoms: C_26  and  C_42 
REMARK    7  A    between atoms: C_29  and  C_30 
REMARK    8  A    between atoms: C_39  and  C_40 
REMARK    9  A    between atoms: C_39  and  C_41 
REMARK   10  A    between atoms: C_44  and  O_46 
REMARK   11  A    between atoms: O_46  and  C_47 
ROOT
ATOM      1  C   LIG d   1       2.582  -0.815 -11.432  0.00  0.00    -0.016 C 
ATOM      2  H   LIG d   1       2.908   0.059 -12.036  0.00  0.00     0.035 H 
ATOM      3  C   LIG d   1       1.056  -0.967 -11.658  0.00  0.00    -0.045 C 
ATOM      4  C   LIG d   1       0.941  -1.943 -12.847  0.00  0.00    -0.036 C 
ATOM      5  C   LIG d   1       2.123  -2.929 -12.629  0.00  0.00     0.071 C 
ATOM      6  C   LIG d   1       3.228  -2.056 -11.998  0.00  0.00    -0.015 C 
ATOM      7  H   LIG d   1       3.790  -1.673 -12.909  0.00  0.00     0.032 H 
ATOM      8  C   LIG d   1       4.271  -2.837 -11.268  0.00  0.00    -0.031 C 
ATOM      9  H   LIG d   1       4.830  -3.331 -12.121  0.00  0.00     0.031 H 
ATOM     10  C   LIG d   1       5.357  -2.003 -10.601  0.00  0.00    -0.049 C 
ATOM     11  C   LIG d   1       6.559  -2.914 -10.282  0.00  0.00    -0.049 C 
ATOM     12  C   LIG d   1       6.068  -4.002  -9.324  0.00  0.00    -0.029 C 
ATOM     13  H   LIG d   1       5.562  -3.456  -8.491  0.00  0.00     0.031 H 
ATOM     14  C   LIG d   1       5.021  -4.868 -10.000  0.00  0.00    -0.023 C 
ATOM     15  C   LIG d   1       3.811  -3.991 -10.395  0.00  0.00    -0.023 C 
ATOM     16  C   LIG d   1       2.798  -4.852 -11.156  0.00  0.00    -0.046 C 
ATOM     17  C   LIG d   1       1.637  -3.989 -11.642  0.00  0.00    -0.036 C 
ATOM     18  C   LIG d   1       4.562  -5.991  -9.072  0.00  0.00    -0.046 C 
ATOM     19  C   LIG d   1       5.741  -6.757  -8.487  0.00  0.00    -0.048 C 
ATOM     20  C   LIG d   1       6.735  -5.862  -7.758  0.00  0.00    -0.023 C 
ATOM     21  H   LIG d   1       7.643  -6.504  -7.570  0.00  0.00     0.032 H 
ATOM     22  C   LIG d   1       7.219  -4.741  -8.674  0.00  0.00    -0.021 C 
ATOM     23  C   LIG d   1       8.081  -3.745  -7.873  0.00  0.00    -0.018 C 
ATOM     24  C   LIG d   1       7.206  -3.116  -6.825  0.00  0.00    -0.003 C 
ATOM     25  C   LIG d   1       7.362  -1.828  -6.479  0.00  0.00    -0.048 C 
ATOM     26  C   LIG d   1       6.227  -3.917  -6.220  0.00  0.00     0.165 C 
ATOM     27  O   LIG d   1       5.371  -3.411  -5.536  0.00  0.00    -0.292 OA
ATOM     28  C   LIG d   1       6.261  -5.410  -6.392  0.00  0.00     0.031 C 
ATOM     29  H   LIG d   1       0.591  -1.388 -10.771  0.00  0.00     0.027 H 
ATOM     30  H   LIG d   1       0.619  -0.005 -11.909  0.00  0.00     0.027 H 
ATOM     31  H   LIG d   1      -0.010  -2.474 -12.818  0.00  0.00     0.028 H 
ATOM     32  H   LIG d   1       1.052  -1.412 -13.793  0.00  0.00     0.028 H 
ATOM     33  H   LIG d   1       5.684  -1.211 -11.271  0.00  0.00     0.027 H 
ATOM     34  H   LIG d   1       5.023  -1.578  -9.659  0.00  0.00     0.027 H 
ATOM     35  H   LIG d   1       6.953  -3.326 -11.198  0.00  0.00     0.027 H 
ATOM     36  H   LIG d   1       7.321  -2.307  -9.787  0.00  0.00     0.027 H 
ATOM     37  H   LIG d   1       3.245  -5.346 -12.015  0.00  0.00     0.027 H 
ATOM     38  H   LIG d   1       2.404  -5.620 -10.478  0.00  0.00     0.027 H 
ATOM     39  H   LIG d   1       1.133  -3.516 -10.807  0.00  0.00     0.028 H 
ATOM     40  H   LIG d   1       0.915  -4.637 -12.154  0.00  0.00     0.028 H 
ATOM     41  H   LIG d   1       3.910  -5.634  -8.290  0.00  0.00     0.027 H 
ATOM     42  H   LIG d   1       3.970  -6.701  -9.680  0.00  0.00     0.027 H 
ATOM     43  H   LIG d   1       5.385  -7.567  -7.846  0.00  0.00     0.027 H 
ATOM     44  H   LIG d   1       6.266  -7.272  -9.312  0.00  0.00     0.027 H 
ATOM     45  H   LIG d   1       8.890  -4.292  -7.398  0.00  0.00     0.032 H 
ATOM     46  H   LIG d   1       8.470  -2.991  -8.543  0.00  0.00     0.032 H 
ATOM     47  H   LIG d   1       8.007  -1.187  -7.062  0.00  0.00     0.063 H 
ENDROOT
BRANCH  25  48
ATOM     48  C   LIG d   1       6.655  -1.291  -5.308  0.00  0.00    -0.025 A 
ATOM     49  C   LIG d   1       7.149  -1.523  -4.019  0.00  0.00    -0.053 A 
ATOM     50  C   LIG d   1       6.483  -1.013  -2.927  0.00  0.00    -0.043 A 
ATOM     51  H   LIG d   1       8.053  -2.099  -3.882  0.00  0.00     0.062 H 
ATOM     52  C   LIG d   1       5.320  -0.280  -3.101  0.00  0.00     0.041 A 
ATOM     53  H   LIG d   1       6.866  -1.187  -1.932  0.00  0.00     0.063 H 
ATOM     54  C   LIG d   1       4.821  -0.050  -4.373  0.00  0.00    -0.043 A 
ATOM     55 CL   LIG d   1       4.484   0.355  -1.717  0.00  0.00    -0.084 Cl
ATOM     56  C   LIG d   1       5.480  -0.549  -5.476  0.00  0.00    -0.053 A 
ATOM     57  H   LIG d   1       3.915   0.523  -4.502  0.00  0.00     0.063 H 
ATOM     58  H   LIG d   1       5.090  -0.369  -6.466  0.00  0.00     0.062 H 
ENDBRANCH  25  48
BRANCH  22  59
ATOM     59  C   LIG d   1       8.178  -5.336  -9.714  0.00  0.00    -0.059 C 
ATOM     60  H   LIG d   1       8.423  -6.362  -9.437  0.00  0.00     0.024 H 
ATOM     61  H   LIG d   1       7.700  -5.329 -10.694  0.00  0.00     0.024 H 
ATOM     62  H   LIG d   1       9.091  -4.741  -9.750  0.00  0.00     0.024 H 
ENDBRANCH  22  59
BRANCH  28  63
ATOM     63  C   LIG d   1       4.889  -5.967  -6.013  0.00  0.00    -0.052 C 
ATOM     64  H   LIG d   1       4.488  -6.543  -6.845  0.00  0.00     0.024 H 
ATOM     65  H   LIG d   1       4.987  -6.610  -5.139  0.00  0.00     0.024 H 
ATOM     66  H   LIG d   1       4.214  -5.142  -5.783  0.00  0.00     0.024 H 
ENDBRANCH  28  63
BRANCH  28  67
ATOM     67  C   LIG d   1       7.264  -5.952  -5.345  0.00  0.00    -0.052 C 
ATOM     68  H   LIG d   1       7.157  -7.035  -5.266  0.00  0.00     0.024 H 
ATOM     69  H   LIG d   1       8.280  -5.709  -5.654  0.00  0.00     0.024 H 
ATOM     70  H   LIG d   1       7.061  -5.496  -4.376  0.00  0.00     0.024 H 
ENDBRANCH  28  67
BRANCH  14  71
ATOM     71  C   LIG d   1       5.570  -5.525 -11.274  0.00  0.00    -0.059 C 
ATOM     72  H   LIG d   1       4.741  -5.828 -11.914  0.00  0.00     0.024 H 
ATOM     73  H   LIG d   1       6.200  -4.813 -11.808  0.00  0.00     0.024 H 
ATOM     74  H   LIG d   1       6.160  -6.402 -11.006  0.00  0.00     0.024 H 
ENDBRANCH  14  71
BRANCH  15  75
ATOM     75  C   LIG d   1       3.131  -3.477  -9.120  0.00  0.00    -0.059 C 
ATOM     76  H   LIG d   1       2.512  -2.614  -9.362  0.00  0.00     0.024 H 
ATOM     77  H   LIG d   1       2.507  -4.265  -8.698  0.00  0.00     0.024 H 
ATOM     78  H   LIG d   1       3.891  -3.188  -8.394  0.00  0.00     0.024 H 
ENDBRANCH  15  75
BRANCH   1  79
ATOM     79  C   LIG d   1       2.835  -0.490  -9.995  0.00  0.00    -0.076 C 
ATOM     80  C   LIG d   1       2.009  -0.917  -9.072  0.00  0.00    -0.099 C 
ATOM     81  H   LIG d   1       1.171  -1.542  -9.344  0.00  0.00     0.053 H 
ATOM     82  H   LIG d   1       2.165  -0.642  -8.039  0.00  0.00     0.053 H 
BRANCH  79  83
ATOM     83  C   LIG d   1       4.041   0.325  -9.607  0.00  0.00    -0.044 C 
ATOM     84  H   LIG d   1       3.717   1.238  -9.107  0.00  0.00     0.027 H 
ATOM     85  H   LIG d   1       4.672  -0.255  -8.933  0.00  0.00     0.027 H 
ATOM     86  H   LIG d   1       4.608   0.584 -10.502  0.00  0.00     0.027 H 
ENDBRANCH  79  83
ENDBRANCH   1  79
BRANCH   5  87
ATOM     87  C   LIG d   1       2.576  -3.542 -13.936  0.00  0.00     0.313 C 
ATOM     88  O   LIG d   1       1.979  -4.485 -14.399  0.00  0.00    -0.250 OA
BRANCH  87  89
ATOM     89  O   LIG d   1       3.639  -3.038 -14.581  0.00  0.00    -0.468 OA
BRANCH  89  90
ATOM     90  C   LIG d   1       3.380  -2.250 -15.745  0.00  0.00     0.082 C 
ATOM     91  H   LIG d   1       2.430  -1.729 -15.625  0.00  0.00     0.066 H 
ATOM     92  H   LIG d   1       4.179  -1.522 -15.877  0.00  0.00     0.066 H 
ATOM     93  H   LIG d   1       3.330  -2.900 -16.619  0.00  0.00     0.066 H 
ENDBRANCH  89  90
ENDBRANCH  87  89
ENDBRANCH   5  87
TORSDOF 11
ENDMDL
MODEL 8
REMARK VINA RESULT:      -5.2     11.869     15.851
REMARK  11 active torsions:
REMARK  status: ('A' for Active; 'I' for Inactive)
REMARK    1  A    between atoms: C_1  and  C_2 
REMARK    2  A    between atoms: C_2  and  C_4 
REMARK    3  A    between atoms: C_8  and  C_44 
REMARK    4  A    between atoms: C_17  and  C_43 
REMARK    5  A    between atoms: C_18  and  C_21 
REMARK    6  A    between atoms: C_26  and  C_42 
REMARK    7  A    between atoms: C_29  and  C_30 
REMARK    8  A    between atoms: C_39  and  C_40 
REMARK    9  A    between atoms: C_39  and  C_41 
REMARK   10  A    between atoms: C_44  and  O_46 
REMARK   11  A    between atoms: O_46  and  C_47 
ROOT
ATOM      1  C   LIG d   1       1.972  -0.834 -11.626  0.00  0.00    -0.016 C 
ATOM      2  H   LIG d   1       1.486   0.145 -11.820  0.00  0.00     0.035 H 
ATOM      3  C   LIG d   1       1.007  -1.923 -12.160  0.00  0.00    -0.045 C 
ATOM      4  C   LIG d   1       1.465  -2.159 -13.615  0.00  0.00    -0.036 C 
ATOM      5  C   LIG d   1       3.009  -1.999 -13.544  0.00  0.00     0.071 C 
ATOM      6  C   LIG d   1       3.225  -0.921 -12.463  0.00  0.00    -0.015 C 
ATOM      7  H   LIG d   1       3.210   0.042 -13.067  0.00  0.00     0.032 H 
ATOM      8  C   LIG d   1       4.598  -0.922 -11.875  0.00  0.00    -0.031 C 
ATOM      9  H   LIG d   1       5.217  -0.513 -12.731  0.00  0.00     0.031 H 
ATOM     10  C   LIG d   1       4.834   0.107 -10.777  0.00  0.00    -0.049 C 
ATOM     11  C   LIG d   1       6.353   0.290 -10.584  0.00  0.00    -0.049 C 
ATOM     12  C   LIG d   1       6.930  -1.066 -10.168  0.00  0.00    -0.029 C 
ATOM     13  H   LIG d   1       6.307  -1.399  -9.302  0.00  0.00     0.031 H 
ATOM     14  C   LIG d   1       6.741  -2.083 -11.278  0.00  0.00    -0.023 C 
ATOM     15  C   LIG d   1       5.232  -2.264 -11.555  0.00  0.00    -0.023 C 
ATOM     16  C   LIG d   1       5.051  -3.223 -12.736  0.00  0.00    -0.046 C 
ATOM     17  C   LIG d   1       3.573  -3.345 -13.091  0.00  0.00    -0.036 C 
ATOM     18  C   LIG d   1       7.360  -3.427 -10.897  0.00  0.00    -0.046 C 
ATOM     19  C   LIG d   1       8.796  -3.269 -10.413  0.00  0.00    -0.048 C 
ATOM     20  C   LIG d   1       8.934  -2.292  -9.253  0.00  0.00    -0.023 C 
ATOM     21  H   LIG d   1      10.040  -2.106  -9.140  0.00  0.00     0.032 H 
ATOM     22  C   LIG d   1       8.335  -0.936  -9.620  0.00  0.00    -0.021 C 
ATOM     23  C   LIG d   1       8.320  -0.017  -8.383  0.00  0.00    -0.018 C 
ATOM     24  C   LIG d   1       7.415  -0.639  -7.356  0.00  0.00    -0.003 C 
ATOM     25  C   LIG d   1       6.647   0.123  -6.562  0.00  0.00    -0.048 C 
ATOM     26  C   LIG d   1       7.404  -2.038  -7.253  0.00  0.00     0.165 C 
ATOM     27  O   LIG d   1       6.550  -2.588  -6.601  0.00  0.00    -0.292 OA
ATOM     28  C   LIG d   1       8.474  -2.854  -7.924  0.00  0.00     0.031 C 
ATOM     29  H   LIG d   1       1.112  -2.831 -11.574  0.00  0.00     0.027 H 
ATOM     30  H   LIG d   1      -0.016  -1.558 -12.135  0.00  0.00     0.027 H 
ATOM     31  H   LIG d   1       1.199  -3.163 -13.943  0.00  0.00     0.028 H 
ATOM     32  H   LIG d   1       1.030  -1.414 -14.281  0.00  0.00     0.028 H 
ATOM     33  H   LIG d   1       4.399   1.062 -11.060  0.00  0.00     0.027 H 
ATOM     34  H   LIG d   1       4.431  -0.217  -9.822  0.00  0.00     0.027 H 
ATOM     35  H   LIG d   1       6.793   0.655 -11.500  0.00  0.00     0.027 H 
ATOM     36  H   LIG d   1       6.507   1.015  -9.781  0.00  0.00     0.027 H 
ATOM     37  H   LIG d   1       5.593  -2.892 -13.617  0.00  0.00     0.027 H 
ATOM     38  H   LIG d   1       5.426  -4.214 -12.449  0.00  0.00     0.027 H 
ATOM     39  H   LIG d   1       3.004  -3.721 -12.248  0.00  0.00     0.028 H 
ATOM     40  H   LIG d   1       3.473  -4.060 -13.917  0.00  0.00     0.028 H 
ATOM     41  H   LIG d   1       6.766  -3.958 -10.170  0.00  0.00     0.027 H 
ATOM     42  H   LIG d   1       7.381  -4.051 -11.810  0.00  0.00     0.027 H 
ATOM     43  H   LIG d   1       9.221  -4.245 -10.168  0.00  0.00     0.027 H 
ATOM     44  H   LIG d   1       9.410  -2.908 -11.257  0.00  0.00     0.027 H 
ATOM     45  H   LIG d   1       9.331   0.050  -7.991  0.00  0.00     0.032 H 
ATOM     46  H   LIG d   1       7.954   0.959  -8.667  0.00  0.00     0.032 H 
ATOM     47  H   LIG d   1       6.548   1.180  -6.761  0.00  0.00     0.063 H 
ENDROOT
BRANCH  25  48
ATOM     48  C   LIG d   1       5.939  -0.481  -5.424  0.00  0.00    -0.025 A 
ATOM     49  C   LIG d   1       6.627  -0.767  -4.239  0.00  0.00    -0.053 A 
ATOM     50  C   LIG d   1       5.955  -1.330  -3.176  0.00  0.00    -0.043 A 
ATOM     51  H   LIG d   1       7.681  -0.545  -4.158  0.00  0.00     0.062 H 
ATOM     52  C   LIG d   1       4.605  -1.622  -3.281  0.00  0.00     0.041 A 
ATOM     53  H   LIG d   1       6.483  -1.546  -2.259  0.00  0.00     0.063 H 
ATOM     54  C   LIG d   1       3.918  -1.346  -4.453  0.00  0.00    -0.043 A 
ATOM     55 CL   LIG d   1       3.769  -2.335  -1.937  0.00  0.00    -0.084 Cl
ATOM     56  C   LIG d   1       4.575  -0.779  -5.523  0.00  0.00    -0.053 A 
ATOM     57  H   LIG d   1       2.866  -1.576  -4.528  0.00  0.00     0.063 H 
ATOM     58  H   LIG d   1       4.039  -0.564  -6.435  0.00  0.00     0.062 H 
ENDBRANCH  25  48
BRANCH  22  59
ATOM     59  C   LIG d   1       9.274  -0.237 -10.612  0.00  0.00    -0.059 C 
ATOM     60  H   LIG d   1       9.823   0.552 -10.099  0.00  0.00     0.024 H 
ATOM     61  H   LIG d   1       9.978  -0.963 -11.019  0.00  0.00     0.024 H 
ATOM     62  H   LIG d   1       8.689   0.196 -11.423  0.00  0.00     0.024 H 
ENDBRANCH  22  59
BRANCH  28  63
ATOM     63  C   LIG d   1       7.986  -4.300  -8.014  0.00  0.00    -0.052 C 
ATOM     64  H   LIG d   1       8.308  -4.848  -7.130  0.00  0.00     0.024 H 
ATOM     65  H   LIG d   1       6.898  -4.313  -8.074  0.00  0.00     0.024 H 
ATOM     66  H   LIG d   1       8.404  -4.769  -8.905  0.00  0.00     0.024 H 
ENDBRANCH  28  63
BRANCH  28  67
ATOM     67  C   LIG d   1       9.692  -2.855  -6.968  0.00  0.00    -0.052 C 
ATOM     68  H   LIG d   1      10.458  -3.525  -7.358  0.00  0.00     0.024 H 
ATOM     69  H   LIG d   1      10.096  -1.846  -6.892  0.00  0.00     0.024 H 
ATOM     70  H   LIG d   1       9.379  -3.196  -5.981  0.00  0.00     0.024 H 
ENDBRANCH  28  67
BRANCH  14  71
ATOM     71  C   LIG d   1       7.413  -1.625 -12.582  0.00  0.00    -0.059 C 
ATOM     72  H   LIG d   1       8.364  -2.144 -12.702  0.00  0.00     0.024 H 
ATOM     73  H   LIG d   1       6.762  -1.856 -13.426  0.00  0.00     0.024 H 
ATOM     74  H   LIG d   1       7.589  -0.550 -12.541  0.00  0.00     0.024 H 
ENDBRANCH  14  71
BRANCH  15  75
ATOM     75  C   LIG d   1       4.573  -2.901 -10.324  0.00  0.00    -0.059 C 
ATOM     76  H   LIG d   1       4.678  -2.233  -9.470  0.00  0.00     0.024 H 
ATOM     77  H   LIG d   1       3.515  -3.070 -10.525  0.00  0.00     0.024 H 
ATOM     78  H   LIG d   1       5.057  -3.853 -10.104  0.00  0.00     0.024 H 
ENDBRANCH  15  75
BRANCH   1  79
ATOM     79  C   LIG d   1       2.110  -0.984 -10.145  0.00  0.00    -0.076 C 
ATOM     80  C   LIG d   1       2.284   0.075  -9.393  0.00  0.00    -0.099 C 
ATOM     81  H   LIG d   1       2.281   1.059  -9.837  0.00  0.00     0.053 H 
ATOM     82  H   LIG d   1       2.431  -0.038  -8.328  0.00  0.00     0.053 H 
BRANCH  79  83
ATOM     83  C   LIG d   1       2.047  -2.352  -9.517  0.00  0.00    -0.044 C 
ATOM     84  H   LIG d   1       2.858  -2.969  -9.906  0.00  0.00     0.027 H 
ATOM     85  H   LIG d   1       2.146  -2.260  -8.435  0.00  0.00     0.027 H 
ATOM     86  H   LIG d   1       1.091  -2.817  -9.755  0.00  0.00     0.027 H 
ENDBRANCH  79  83
ENDBRANCH   1  79
BRANCH   5  87
ATOM     87  C   LIG d   1       3.578  -1.571 -14.879  0.00  0.00     0.313 C 
ATOM     88  O   LIG d   1       3.556  -2.332 -15.817  0.00  0.00    -0.250 OA
BRANCH  87  89
ATOM     89  O   LIG d   1       4.108  -0.346 -15.022  0.00  0.00    -0.468 OA
BRANCH  89  90
ATOM     90  C   LIG d   1       4.289   0.131 -16.356  0.00  0.00     0.082 C 
ATOM     91  H   LIG d   1       4.470   1.206 -16.336  0.00  0.00     0.066 H 
ATOM     92  H   LIG d   1       5.143  -0.372 -16.810  0.00  0.00     0.066 H 
ATOM     93  H   LIG d   1       3.392  -0.075 -16.941  0.00  0.00     0.066 H 
ENDBRANCH  89  90
ENDBRANCH  87  89
ENDBRANCH   5  87
TORSDOF 11
ENDMDL
MODEL 9
REMARK VINA RESULT:      -5.2      8.984     14.187
REMARK  11 active torsions:
REMARK  status: ('A' for Active; 'I' for Inactive)
REMARK    1  A    between atoms: C_1  and  C_2 
REMARK    2  A    between atoms: C_2  and  C_4 
REMARK    3  A    between atoms: C_8  and  C_44 
REMARK    4  A    between atoms: C_17  and  C_43 
REMARK    5  A    between atoms: C_18  and  C_21 
REMARK    6  A    between atoms: C_26  and  C_42 
REMARK    7  A    between atoms: C_29  and  C_30 
REMARK    8  A    between atoms: C_39  and  C_40 
REMARK    9  A    between atoms: C_39  and  C_41 
REMARK   10  A    between atoms: C_44  and  O_46 
REMARK   11  A    between atoms: O_46  and  C_47 
ROOT
ATOM      1  C   LIG d   1       5.365   0.469 -10.615  0.00  0.00    -0.016 C 
ATOM      2  H   LIG d   1       5.754   0.511 -11.655  0.00  0.00     0.035 H 
ATOM      3  C   LIG d   1       4.138   1.416 -10.562  0.00  0.00    -0.045 C 
ATOM      4  C   LIG d   1       2.937   0.503 -10.883  0.00  0.00    -0.036 C 
ATOM      5  C   LIG d   1       3.312  -0.847 -10.212  0.00  0.00     0.071 C 
ATOM      6  C   LIG d   1       4.846  -0.923 -10.353  0.00  0.00    -0.015 C 
ATOM      7  H   LIG d   1       4.977  -1.449 -11.353  0.00  0.00     0.032 H 
ATOM      8  C   LIG d   1       5.494  -1.867  -9.395  0.00  0.00    -0.031 C 
ATOM      9  H   LIG d   1       5.178  -2.873  -9.809  0.00  0.00     0.031 H 
ATOM     10  C   LIG d   1       7.014  -1.938  -9.482  0.00  0.00    -0.049 C 
ATOM     11  C   LIG d   1       7.493  -3.224  -8.780  0.00  0.00    -0.049 C 
ATOM     12  C   LIG d   1       7.054  -3.138  -7.316  0.00  0.00    -0.029 C 
ATOM     13  H   LIG d   1       7.426  -2.149  -6.954  0.00  0.00     0.031 H 
ATOM     14  C   LIG d   1       5.540  -3.117  -7.219  0.00  0.00    -0.023 C 
ATOM     15  C   LIG d   1       4.998  -1.874  -7.960  0.00  0.00    -0.023 C 
ATOM     16  C   LIG d   1       3.467  -1.905  -7.936  0.00  0.00    -0.046 C 
ATOM     17  C   LIG d   1       2.906  -0.738  -8.743  0.00  0.00    -0.036 C 
ATOM     18  C   LIG d   1       5.088  -3.086  -5.760  0.00  0.00    -0.046 C 
ATOM     19  C   LIG d   1       5.764  -4.174  -4.937  0.00  0.00    -0.048 C 
ATOM     20  C   LIG d   1       7.285  -4.120  -5.005  0.00  0.00    -0.023 C 
ATOM     21  H   LIG d   1       7.646  -5.084  -4.545  0.00  0.00     0.032 H 
ATOM     22  C   LIG d   1       7.758  -4.166  -6.456  0.00  0.00    -0.021 C 
ATOM     23  C   LIG d   1       9.280  -3.932  -6.518  0.00  0.00    -0.018 C 
ATOM     24  C   LIG d   1       9.555  -2.545  -6.005  0.00  0.00    -0.003 C 
ATOM     25  C   LIG d   1      10.530  -1.794  -6.540  0.00  0.00    -0.048 C 
ATOM     26  C   LIG d   1       8.764  -2.068  -4.951  0.00  0.00     0.165 C 
ATOM     27  O   LIG d   1       8.803  -0.899  -4.649  0.00  0.00    -0.292 OA
ATOM     28  C   LIG d   1       7.894  -3.012  -4.170  0.00  0.00     0.031 C 
ATOM     29  H   LIG d   1       4.042   1.841  -9.567  0.00  0.00     0.027 H 
ATOM     30  H   LIG d   1       4.238   2.196 -11.311  0.00  0.00     0.027 H 
ATOM     31  H   LIG d   1       2.023   0.906 -10.449  0.00  0.00     0.028 H 
ATOM     32  H   LIG d   1       2.824   0.381 -11.960  0.00  0.00     0.028 H 
ATOM     33  H   LIG d   1       7.327  -1.969 -10.523  0.00  0.00     0.027 H 
ATOM     34  H   LIG d   1       7.490  -1.105  -8.976  0.00  0.00     0.027 H 
ATOM     35  H   LIG d   1       7.077  -4.086  -9.280  0.00  0.00     0.027 H 
ATOM     36  H   LIG d   1       8.585  -3.252  -8.834  0.00  0.00     0.027 H 
ATOM     37  H   LIG d   1       3.071  -2.831  -8.345  0.00  0.00     0.027 H 
ATOM     38  H   LIG d   1       3.126  -1.809  -6.898  0.00  0.00     0.027 H 
ATOM     39  H   LIG d   1       3.240   0.208  -8.334  0.00  0.00     0.028 H 
ATOM     40  H   LIG d   1       1.811  -0.770  -8.681  0.00  0.00     0.028 H 
ATOM     41  H   LIG d   1       5.233  -2.117  -5.309  0.00  0.00     0.027 H 
ATOM     42  H   LIG d   1       4.000  -3.283  -5.748  0.00  0.00     0.027 H 
ATOM     43  H   LIG d   1       5.407  -4.143  -3.905  0.00  0.00     0.027 H 
ATOM     44  H   LIG d   1       5.426  -5.156  -5.314  0.00  0.00     0.027 H 
ATOM     45  H   LIG d   1       9.769  -4.664  -5.882  0.00  0.00     0.032 H 
ATOM     46  H   LIG d   1       9.615  -4.029  -7.541  0.00  0.00     0.032 H 
ATOM     47  H   LIG d   1      11.020  -2.111  -7.449  0.00  0.00     0.063 H 
ENDROOT
BRANCH  25  48
ATOM     48  C   LIG d   1      10.930  -0.537  -5.889  0.00  0.00    -0.025 A 
ATOM     49  C   LIG d   1      10.447   0.687  -6.366  0.00  0.00    -0.053 A 
ATOM     50  C   LIG d   1      10.823   1.859  -5.749  0.00  0.00    -0.043 A 
ATOM     51  H   LIG d   1       9.779   0.711  -7.215  0.00  0.00     0.062 H 
ATOM     52  C   LIG d   1      11.685   1.830  -4.665  0.00  0.00     0.041 A 
ATOM     53  H   LIG d   1      10.447   2.804  -6.112  0.00  0.00     0.063 H 
ATOM     54  C   LIG d   1      12.172   0.622  -4.190  0.00  0.00    -0.043 A 
ATOM     55 CL   LIG d   1      12.157   3.314  -3.896  0.00  0.00    -0.084 Cl
ATOM     56  C   LIG d   1      11.801  -0.560  -4.794  0.00  0.00    -0.053 A 
ATOM     57  H   LIG d   1      12.844   0.607  -3.344  0.00  0.00     0.063 H 
ATOM     58  H   LIG d   1      12.180  -1.499  -4.423  0.00  0.00     0.062 H 
ENDBRANCH  25  48
BRANCH  22  59
ATOM     59  C   LIG d   1       7.562  -5.591  -6.990  0.00  0.00    -0.059 C 
ATOM     60  H   LIG d   1       8.481  -5.929  -7.471  0.00  0.00     0.024 H 
ATOM     61  H   LIG d   1       7.319  -6.260  -6.164  0.00  0.00     0.024 H 
ATOM     62  H   LIG d   1       6.749  -5.599  -7.716  0.00  0.00     0.024 H 
ENDBRANCH  22  59
BRANCH  28  63
ATOM     63  C   LIG d   1       6.856  -2.188  -3.408  0.00  0.00    -0.052 C 
ATOM     64  H   LIG d   1       6.901  -1.152  -3.739  0.00  0.00     0.024 H 
ATOM     65  H   LIG d   1       5.861  -2.589  -3.602  0.00  0.00     0.024 H 
ATOM     66  H   LIG d   1       7.066  -2.239  -2.340  0.00  0.00     0.024 H 
ENDBRANCH  28  63
BRANCH  28  67
ATOM     67  C   LIG d   1       8.804  -3.673  -3.106  0.00  0.00    -0.052 C 
ATOM     68  H   LIG d   1       8.817  -3.057  -2.207  0.00  0.00     0.024 H 
ATOM     69  H   LIG d   1       8.418  -4.663  -2.862  0.00  0.00     0.024 H 
ATOM     70  H   LIG d   1       9.816  -3.765  -3.500  0.00  0.00     0.024 H 
ENDBRANCH  28  67
BRANCH  14  71
ATOM     71  C   LIG d   1       4.916  -4.364  -7.863  0.00  0.00    -0.059 C 
ATOM     72  H   LIG d   1       5.702  -5.079  -8.107  0.00  0.00     0.024 H 
ATOM     73  H   LIG d   1       4.212  -4.820  -7.166  0.00  0.00     0.024 H 
ATOM     74  H   LIG d   1       4.391  -4.078  -8.775  0.00  0.00     0.024 H 
ENDBRANCH  14  71
BRANCH  15  75
ATOM     75  C   LIG d   1       5.456  -0.612  -7.216  0.00  0.00    -0.059 C 
ATOM     76  H   LIG d   1       6.043   0.013  -7.889  0.00  0.00     0.024 H 
ATOM     77  H   LIG d   1       4.584  -0.057  -6.872  0.00  0.00     0.024 H 
ATOM     78  H   LIG d   1       6.066  -0.897  -6.358  0.00  0.00     0.024 H 
ENDBRANCH  15  75
BRANCH   1  79
ATOM     79  C   LIG d   1       6.432   0.998  -9.712  0.00  0.00    -0.076 C 
ATOM     80  C   LIG d   1       6.110   1.750  -8.687  0.00  0.00    -0.099 C 
ATOM     81  H   LIG d   1       5.072   1.948  -8.469  0.00  0.00     0.053 H 
ATOM     82  H   LIG d   1       6.885   2.171  -8.062  0.00  0.00     0.053 H 
BRANCH  79  83
ATOM     83  C   LIG d   1       7.878   0.665  -9.976  0.00  0.00    -0.044 C 
ATOM     84  H   LIG d   1       8.023   0.499 -11.044  0.00  0.00     0.027 H 
ATOM     85  H   LIG d   1       8.507   1.492  -9.647  0.00  0.00     0.027 H 
ATOM     86  H   LIG d   1       8.148  -0.238  -9.429  0.00  0.00     0.027 H 
ENDBRANCH  79  83
ENDBRANCH   1  79
BRANCH   5  87
ATOM     87  C   LIG d   1       2.631  -2.010 -10.900  0.00  0.00     0.313 C 
ATOM     88  O   LIG d   1       3.262  -2.728 -11.638  0.00  0.00    -0.250 OA
BRANCH  87  89
ATOM     89  O   LIG d   1       1.326  -2.244 -10.690  0.00  0.00    -0.468 OA
BRANCH  89  90
ATOM     90  C   LIG d   1       0.923  -3.609 -10.566  0.00  0.00     0.082 C 
ATOM     91  H   LIG d   1       0.174  -3.696  -9.778  0.00  0.00     0.066 H 
ATOM     92  H   LIG d   1       0.498  -3.950 -11.510  0.00  0.00     0.066 H 
ATOM     93  H   LIG d   1       1.789  -4.222 -10.314  0.00  0.00     0.066 H 
ENDBRANCH  89  90
ENDBRANCH  87  89
ENDBRANCH   5  87
TORSDOF 11
ENDMDL
