MODEL 1
REMARK VINA RESULT:      -6.9      0.000      0.000
REMARK  2 active torsions:
REMARK  status: ('A' for Active; 'I' for Inactive)
REMARK    1  A    between atoms: C_4  and  N_7 
REMARK       I    between atoms: N_7  and  C_8 
REMARK    2  A    between atoms: C_8  and  C_10 
ROOT
ATOM      1  N   LIG d   1       3.164  -0.622  -5.280  0.00  0.00    -0.281 N 
ATOM      2  C   LIG d   1       3.977  -0.404  -6.333  0.00  0.00     0.254 C 
ATOM      3  O   LIG d   1       5.133  -0.070  -6.151  0.00  0.00    -0.270 OA
ATOM      4  H   LIG d   1       2.286  -1.009  -5.418  0.00  0.00     0.155 HD
ENDROOT
BRANCH   1   5
ATOM      5  C   LIG d   1       3.588  -0.289  -3.989  0.00  0.00     0.034 A 
ATOM      6  C   LIG d   1       4.126  -1.266  -3.161  0.00  0.00    -0.041 A 
ATOM      7  C   LIG d   1       4.545  -0.934  -1.887  0.00  0.00    -0.060 A 
ATOM      8  H   LIG d   1       4.217  -2.282  -3.512  0.00  0.00     0.064 H 
ATOM      9  C   LIG d   1       4.429   0.368  -1.437  0.00  0.00    -0.062 A 
ATOM     10  H   LIG d   1       4.963  -1.693  -1.242  0.00  0.00     0.062 H 
ATOM     11  C   LIG d   1       3.894   1.343  -2.259  0.00  0.00    -0.060 A 
ATOM     12  H   LIG d   1       4.753   0.624  -0.440  0.00  0.00     0.062 H 
ATOM     13  C   LIG d   1       3.474   1.018  -3.534  0.00  0.00    -0.041 A 
ATOM     14  H   LIG d   1       3.806   2.358  -1.905  0.00  0.00     0.062 H 
ATOM     15  H   LIG d   1       3.056   1.779  -4.176  0.00  0.00     0.064 H 
ENDBRANCH   1   5
BRANCH   2  16
ATOM     16  C   LIG d   1       3.469  -0.570  -7.698  0.00  0.00     0.110 A 
ATOM     17  C   LIG d   1       3.501  -1.828  -8.330  0.00  0.00     0.264 A 
ATOM     18  N   LIG d   1       3.017  -1.948  -9.593  0.00  0.00    -0.302 N 
ATOM     19  O   LIG d   1       3.956  -2.804  -7.746  0.00  0.00    -0.267 OA
ATOM     20  C   LIG d   1       2.521  -0.881 -10.242  0.00  0.00     0.158 A 
ATOM     21  H   LIG d   1       3.032  -2.812 -10.033  0.00  0.00     0.171 HD
ATOM     22  N   LIG d   1       2.481   0.336  -9.673  0.00  0.00    -0.348 N 
ATOM     23  S   LIG d   1       1.928  -1.075 -11.837  0.00  0.00    -0.013 SA
ATOM     24  C   LIG d   1       2.942   0.526  -8.410  0.00  0.00    -0.019 A 
ATOM     25  H   LIG d   1       2.116   1.086 -10.167  0.00  0.00     0.167 HD
ATOM     26  O   LIG d   1       2.902   1.637  -7.895  0.00  0.00    -0.861 OA
ENDBRANCH   2  16
TORSDOF 2
ENDMDL
MODEL 2
REMARK VINA RESULT:      -6.9      0.012      1.893
REMARK  2 active torsions:
REMARK  status: ('A' for Active; 'I' for Inactive)
REMARK    1  A    between atoms: C_4  and  N_7 
REMARK       I    between atoms: N_7  and  C_8 
REMARK    2  A    between atoms: C_8  and  C_10 
ROOT
ATOM      1  N   LIG d   1       3.166  -0.625  -5.290  0.00  0.00    -0.281 N 
ATOM      2  C   LIG d   1       3.979  -0.404  -6.342  0.00  0.00     0.254 C 
ATOM      3  O   LIG d   1       5.134  -0.066  -6.159  0.00  0.00    -0.270 OA
ATOM      4  H   LIG d   1       2.290  -1.015  -5.428  0.00  0.00     0.155 HD
ENDROOT
BRANCH   1   5
ATOM      5  C   LIG d   1       3.588  -0.291  -3.998  0.00  0.00     0.034 A 
ATOM      6  C   LIG d   1       4.138  -1.264  -3.174  0.00  0.00    -0.041 A 
ATOM      7  C   LIG d   1       4.554  -0.931  -1.899  0.00  0.00    -0.060 A 
ATOM      8  H   LIG d   1       4.240  -2.278  -3.528  0.00  0.00     0.064 H 
ATOM      9  C   LIG d   1       4.424   0.369  -1.445  0.00  0.00    -0.062 A 
ATOM     10  H   LIG d   1       4.982  -1.686  -1.257  0.00  0.00     0.062 H 
ATOM     11  C   LIG d   1       3.876   1.340  -2.264  0.00  0.00    -0.060 A 
ATOM     12  H   LIG d   1       4.746   0.626  -0.448  0.00  0.00     0.062 H 
ATOM     13  C   LIG d   1       3.459   1.013  -3.540  0.00  0.00    -0.041 A 
ATOM     14  H   LIG d   1       3.777   2.353  -1.907  0.00  0.00     0.062 H 
ATOM     15  H   LIG d   1       3.032   1.772  -4.179  0.00  0.00     0.064 H 
ENDBRANCH   1   5
BRANCH   2  16
ATOM     16  C   LIG d   1       3.473  -0.572  -7.708  0.00  0.00     0.110 A 
ATOM     17  C   LIG d   1       2.943   0.523  -8.418  0.00  0.00     0.264 A 
ATOM     18  N   LIG d   1       2.488   0.334  -9.683  0.00  0.00    -0.302 N 
ATOM     19  O   LIG d   1       2.897   1.634  -7.902  0.00  0.00    -0.267 OA
ATOM     20  C   LIG d   1       2.530  -0.882 -10.253  0.00  0.00     0.158 A 
ATOM     21  H   LIG d   1       2.125   1.085 -10.179  0.00  0.00     0.171 HD
ATOM     22  N   LIG d   1       3.023  -1.949  -9.603  0.00  0.00    -0.348 N 
ATOM     23  S   LIG d   1       1.939  -1.077 -11.849  0.00  0.00    -0.013 SA
ATOM     24  C   LIG d   1       3.501  -1.831  -8.338  0.00  0.00    -0.019 A 
ATOM     25  H   LIG d   1       3.041  -2.814 -10.042  0.00  0.00     0.167 HD
ATOM     26  O   LIG d   1       3.950  -2.808  -7.750  0.00  0.00    -0.861 OA
ENDBRANCH   2  16
TORSDOF 2
ENDMDL
MODEL 3
REMARK VINA RESULT:      -5.9      4.293      5.152
REMARK  2 active torsions:
REMARK  status: ('A' for Active; 'I' for Inactive)
REMARK    1  A    between atoms: C_4  and  N_7 
REMARK       I    between atoms: N_7  and  C_8 
REMARK    2  A    between atoms: C_8  and  C_10 
ROOT
ATOM      1  N   LIG d   1       5.170  -1.825  -4.688  0.00  0.00    -0.281 N 
ATOM      2  C   LIG d   1       4.890  -3.105  -4.372  0.00  0.00     0.254 C 
ATOM      3  O   LIG d   1       4.075  -3.354  -3.503  0.00  0.00    -0.270 OA
ATOM      4  H   LIG d   1       5.719  -1.625  -5.461  0.00  0.00     0.155 HD
ENDROOT
BRANCH   1   5
ATOM      5  C   LIG d   1       4.666  -0.784  -3.899  0.00  0.00     0.034 A 
ATOM      6  C   LIG d   1       5.219  -0.528  -2.652  0.00  0.00    -0.041 A 
ATOM      7  C   LIG d   1       4.721   0.501  -1.876  0.00  0.00    -0.060 A 
ATOM      8  H   LIG d   1       6.039  -1.130  -2.290  0.00  0.00     0.064 H 
ATOM      9  C   LIG d   1       3.671   1.273  -2.340  0.00  0.00    -0.062 A 
ATOM     10  H   LIG d   1       5.150   0.702  -0.906  0.00  0.00     0.062 H 
ATOM     11  C   LIG d   1       3.118   1.019  -3.582  0.00  0.00    -0.060 A 
ATOM     12  H   LIG d   1       3.281   2.073  -1.730  0.00  0.00     0.062 H 
ATOM     13  C   LIG d   1       3.613  -0.007  -4.363  0.00  0.00    -0.041 A 
ATOM     14  H   LIG d   1       2.300   1.624  -3.941  0.00  0.00     0.062 H 
ATOM     15  H   LIG d   1       3.180  -0.204  -5.333  0.00  0.00     0.064 H 
ENDBRANCH   1   5
BRANCH   2  16
ATOM     16  C   LIG d   1       5.568  -4.198  -5.075  0.00  0.00     0.110 A 
ATOM     17  C   LIG d   1       4.827  -5.179  -5.764  0.00  0.00     0.264 A 
ATOM     18  N   LIG d   1       5.486  -6.175  -6.409  0.00  0.00    -0.302 N 
ATOM     19  O   LIG d   1       3.603  -5.132  -5.783  0.00  0.00    -0.267 OA
ATOM     20  C   LIG d   1       6.828  -6.236  -6.388  0.00  0.00     0.158 A 
ATOM     21  H   LIG d   1       4.983  -6.851  -6.889  0.00  0.00     0.171 HD
ATOM     22  N   LIG d   1       7.566  -5.321  -5.736  0.00  0.00    -0.348 N 
ATOM     23  S   LIG d   1       7.619  -7.514  -7.210  0.00  0.00    -0.013 SA
ATOM     24  C   LIG d   1       6.973  -4.295  -5.075  0.00  0.00    -0.019 A 
ATOM     25  H   LIG d   1       8.533  -5.393  -5.740  0.00  0.00     0.167 HD
ATOM     26  O   LIG d   1       7.651  -3.463  -4.483  0.00  0.00    -0.861 OA
ENDBRANCH   2  16
TORSDOF 2
ENDMDL
MODEL 4
REMARK VINA RESULT:      -5.7      5.606      6.629
REMARK  2 active torsions:
REMARK  status: ('A' for Active; 'I' for Inactive)
REMARK    1  A    between atoms: C_4  and  N_7 
REMARK       I    between atoms: N_7  and  C_8 
REMARK    2  A    between atoms: C_8  and  C_10 
ROOT
ATOM      1  N   LIG d   1       7.073   0.074  -3.127  0.00  0.00    -0.281 N 
ATOM      2  C   LIG d   1       7.478   0.556  -4.319  0.00  0.00     0.254 C 
ATOM      3  O   LIG d   1       6.666   0.759  -5.202  0.00  0.00    -0.270 OA
ATOM      4  H   LIG d   1       7.694   0.031  -2.384  0.00  0.00     0.155 HD
ENDROOT
BRANCH   1   5
ATOM      5  C   LIG d   1       5.754  -0.365  -2.963  0.00  0.00     0.034 A 
ATOM      6  C   LIG d   1       5.445  -1.709  -3.124  0.00  0.00    -0.041 A 
ATOM      7  C   LIG d   1       4.142  -2.140  -2.960  0.00  0.00    -0.060 A 
ATOM      8  H   LIG d   1       6.220  -2.417  -3.374  0.00  0.00     0.064 H 
ATOM      9  C   LIG d   1       3.148  -1.234  -2.638  0.00  0.00    -0.062 A 
ATOM     10  H   LIG d   1       3.900  -3.185  -3.084  0.00  0.00     0.062 H 
ATOM     11  C   LIG d   1       3.453   0.105  -2.478  0.00  0.00    -0.060 A 
ATOM     12  H   LIG d   1       2.130  -1.573  -2.515  0.00  0.00     0.062 H 
ATOM     13  C   LIG d   1       4.754   0.542  -2.640  0.00  0.00    -0.041 A 
ATOM     14  H   LIG d   1       2.675   0.809  -2.226  0.00  0.00     0.062 H 
ATOM     15  H   LIG d   1       4.992   1.588  -2.514  0.00  0.00     0.064 H 
ENDBRANCH   1   5
BRANCH   2  16
ATOM     16  C   LIG d   1       8.899   0.836  -4.551  0.00  0.00     0.110 A 
ATOM     17  C   LIG d   1       9.680  -0.022  -5.350  0.00  0.00     0.264 A 
ATOM     18  N   LIG d   1      10.991   0.269  -5.549  0.00  0.00    -0.302 N 
ATOM     19  O   LIG d   1       9.182  -1.017  -5.862  0.00  0.00    -0.267 OA
ATOM     20  C   LIG d   1      11.545   1.357  -4.986  0.00  0.00     0.158 A 
ATOM     21  H   LIG d   1      11.534  -0.314  -6.102  0.00  0.00     0.171 HD
ATOM     22  N   LIG d   1      10.832   2.193  -4.213  0.00  0.00    -0.348 N 
ATOM     23  S   LIG d   1      13.205   1.683  -5.258  0.00  0.00    -0.013 SA
ATOM     24  C   LIG d   1       9.515   1.965  -3.977  0.00  0.00    -0.019 A 
ATOM     25  H   LIG d   1      11.261   2.969  -3.821  0.00  0.00     0.167 HD
ATOM     26  O   LIG d   1       8.868   2.731  -3.272  0.00  0.00    -0.861 OA
ENDBRANCH   2  16
TORSDOF 2
ENDMDL
MODEL 5
REMARK VINA RESULT:      -5.7      5.607      6.933
REMARK  2 active torsions:
REMARK  status: ('A' for Active; 'I' for Inactive)
REMARK    1  A    between atoms: C_4  and  N_7 
REMARK       I    between atoms: N_7  and  C_8 
REMARK    2  A    between atoms: C_8  and  C_10 
ROOT
ATOM      1  N   LIG d   1       7.069   0.051  -3.118  0.00  0.00    -0.281 N 
ATOM      2  C   LIG d   1       7.477   0.546  -4.303  0.00  0.00     0.254 C 
ATOM      3  O   LIG d   1       6.665   0.765  -5.184  0.00  0.00    -0.270 OA
ATOM      4  H   LIG d   1       7.691  -0.005  -2.376  0.00  0.00     0.155 HD
ENDROOT
BRANCH   1   5
ATOM      5  C   LIG d   1       5.749  -0.384  -2.959  0.00  0.00     0.034 A 
ATOM      6  C   LIG d   1       4.751   0.528  -2.641  0.00  0.00    -0.041 A 
ATOM      7  C   LIG d   1       3.448   0.096  -2.485  0.00  0.00    -0.060 A 
ATOM      8  H   LIG d   1       4.992   1.572  -2.516  0.00  0.00     0.064 H 
ATOM      9  C   LIG d   1       3.138  -1.242  -2.646  0.00  0.00    -0.062 A 
ATOM     10  H   LIG d   1       2.671   0.804  -2.239  0.00  0.00     0.062 H 
ATOM     11  C   LIG d   1       4.130  -2.153  -2.962  0.00  0.00    -0.060 A 
ATOM     12  H   LIG d   1       2.120  -1.578  -2.520  0.00  0.00     0.062 H 
ATOM     13  C   LIG d   1       5.435  -1.727  -3.119  0.00  0.00    -0.041 A 
ATOM     14  H   LIG d   1       3.884  -3.196  -3.087  0.00  0.00     0.062 H 
ATOM     15  H   LIG d   1       6.208  -2.438  -3.366  0.00  0.00     0.064 H 
ENDBRANCH   1   5
BRANCH   2  16
ATOM     16  C   LIG d   1       8.898   0.822  -4.533  0.00  0.00     0.110 A 
ATOM     17  C   LIG d   1       9.512   1.957  -3.967  0.00  0.00     0.264 A 
ATOM     18  N   LIG d   1      10.831   2.180  -4.195  0.00  0.00    -0.302 N 
ATOM     19  O   LIG d   1       8.863   2.731  -3.273  0.00  0.00    -0.267 OA
ATOM     20  C   LIG d   1      11.547   1.338  -4.960  0.00  0.00     0.158 A 
ATOM     21  H   LIG d   1      11.261   2.957  -3.805  0.00  0.00     0.171 HD
ATOM     22  N   LIG d   1      10.993   0.250  -5.521  0.00  0.00    -0.348 N 
ATOM     23  S   LIG d   1      13.208   1.661  -5.227  0.00  0.00    -0.013 SA
ATOM     24  C   LIG d   1       9.680  -0.038  -5.329  0.00  0.00    -0.019 A 
ATOM     25  H   LIG d   1      11.537  -0.339  -6.067  0.00  0.00     0.167 HD
ATOM     26  O   LIG d   1       9.181  -1.032  -5.842  0.00  0.00    -0.861 OA
ENDBRANCH   2  16
TORSDOF 2
ENDMDL
MODEL 6
REMARK VINA RESULT:      -5.7      4.995      6.062
REMARK  2 active torsions:
REMARK  status: ('A' for Active; 'I' for Inactive)
REMARK    1  A    between atoms: C_4  and  N_7 
REMARK       I    between atoms: N_7  and  C_8 
REMARK    2  A    between atoms: C_8  and  C_10 
ROOT
ATOM      1  N   LIG d   1       6.068   0.673  -4.624  0.00  0.00    -0.281 N 
ATOM      2  C   LIG d   1       7.413   0.612  -4.674  0.00  0.00     0.254 C 
ATOM      3  O   LIG d   1       8.000  -0.334  -4.179  0.00  0.00    -0.270 OA
ATOM      4  H   LIG d   1       5.594   1.354  -5.124  0.00  0.00     0.155 HD
ENDROOT
BRANCH   1   5
ATOM      5  C   LIG d   1       5.355  -0.249  -3.849  0.00  0.00     0.034 A 
ATOM      6  C   LIG d   1       5.064   0.038  -2.521  0.00  0.00    -0.041 A 
ATOM      7  C   LIG d   1       4.360  -0.873  -1.758  0.00  0.00    -0.060 A 
ATOM      8  H   LIG d   1       5.388   0.971  -2.087  0.00  0.00     0.064 H 
ATOM      9  C   LIG d   1       3.945  -2.069  -2.315  0.00  0.00    -0.062 A 
ATOM     10  H   LIG d   1       4.133  -0.652  -0.726  0.00  0.00     0.062 H 
ATOM     11  C   LIG d   1       4.234  -2.358  -3.637  0.00  0.00    -0.060 A 
ATOM     12  H   LIG d   1       3.398  -2.781  -1.716  0.00  0.00     0.062 H 
ATOM     13  C   LIG d   1       4.937  -1.450  -4.405  0.00  0.00    -0.041 A 
ATOM     14  H   LIG d   1       3.908  -3.292  -4.068  0.00  0.00     0.062 H 
ATOM     15  H   LIG d   1       5.162  -1.676  -5.437  0.00  0.00     0.064 H 
ENDBRANCH   1   5
BRANCH   2  16
ATOM     16  C   LIG d   1       8.172   1.684  -5.325  0.00  0.00     0.110 A 
ATOM     17  C   LIG d   1       8.815   2.678  -4.561  0.00  0.00     0.264 A 
ATOM     18  N   LIG d   1       9.513   3.653  -5.196  0.00  0.00    -0.302 N 
ATOM     19  O   LIG d   1       8.748   2.659  -3.338  0.00  0.00    -0.267 OA
ATOM     20  C   LIG d   1       9.587   3.683  -6.537  0.00  0.00     0.158 A 
ATOM     21  H   LIG d   1       9.962   4.338  -4.675  0.00  0.00     0.171 HD
ATOM     22  N   LIG d   1       8.981   2.755  -7.298  0.00  0.00    -0.348 N 
ATOM     23  S   LIG d   1      10.473   4.936  -7.297  0.00  0.00    -0.013 SA
ATOM     24  C   LIG d   1       8.270   1.748  -6.729  0.00  0.00    -0.019 A 
ATOM     25  H   LIG d   1       9.053   2.804  -8.264  0.00  0.00     0.167 HD
ATOM     26  O   LIG d   1       7.720   0.905  -7.427  0.00  0.00    -0.861 OA
ENDBRANCH   2  16
TORSDOF 2
ENDMDL
MODEL 7
REMARK VINA RESULT:      -5.7      4.993      5.926
REMARK  2 active torsions:
REMARK  status: ('A' for Active; 'I' for Inactive)
REMARK    1  A    between atoms: C_4  and  N_7 
REMARK       I    between atoms: N_7  and  C_8 
REMARK    2  A    between atoms: C_8  and  C_10 
ROOT
ATOM      1  N   LIG d   1       6.059   0.687  -4.615  0.00  0.00    -0.281 N 
ATOM      2  C   LIG d   1       7.403   0.613  -4.681  0.00  0.00     0.254 C 
ATOM      3  O   LIG d   1       7.986  -0.344  -4.204  0.00  0.00    -0.270 OA
ATOM      4  H   LIG d   1       5.587   1.379  -5.102  0.00  0.00     0.155 HD
ENDROOT
BRANCH   1   5
ATOM      5  C   LIG d   1       5.346  -0.236  -3.843  0.00  0.00     0.034 A 
ATOM      6  C   LIG d   1       4.917  -1.430  -4.407  0.00  0.00    -0.041 A 
ATOM      7  C   LIG d   1       4.214  -2.340  -3.642  0.00  0.00    -0.060 A 
ATOM      8  H   LIG d   1       5.134  -1.648  -5.442  0.00  0.00     0.064 H 
ATOM      9  C   LIG d   1       3.936  -2.063  -2.316  0.00  0.00    -0.062 A 
ATOM     10  H   LIG d   1       3.880  -3.269  -4.080  0.00  0.00     0.062 H 
ATOM     11  C   LIG d   1       4.362  -0.874  -1.751  0.00  0.00    -0.060 A 
ATOM     12  H   LIG d   1       3.383  -2.774  -1.722  0.00  0.00     0.062 H 
ATOM     13  C   LIG d   1       5.066   0.040  -2.511  0.00  0.00    -0.041 A 
ATOM     14  H   LIG d   1       4.144  -0.661  -0.716  0.00  0.00     0.062 H 
ATOM     15  H   LIG d   1       5.398   0.968  -2.069  0.00  0.00     0.064 H 
ENDBRANCH   1   5
BRANCH   2  16
ATOM     16  C   LIG d   1       8.166   1.685  -5.328  0.00  0.00     0.110 A 
ATOM     17  C   LIG d   1       8.266   1.751  -6.732  0.00  0.00     0.264 A 
ATOM     18  N   LIG d   1       8.975   2.761  -7.298  0.00  0.00    -0.302 N 
ATOM     19  O   LIG d   1       7.716   0.911  -7.433  0.00  0.00    -0.267 OA
ATOM     20  C   LIG d   1       9.586   3.684  -6.535  0.00  0.00     0.158 A 
ATOM     21  H   LIG d   1       9.045   2.815  -8.264  0.00  0.00     0.171 HD
ATOM     22  N   LIG d   1       9.517   3.648  -5.194  0.00  0.00    -0.348 N 
ATOM     23  S   LIG d   1      10.476   4.936  -7.292  0.00  0.00    -0.013 SA
ATOM     24  C   LIG d   1       8.819   2.670  -4.561  0.00  0.00    -0.019 A 
ATOM     25  H   LIG d   1       9.968   4.328  -4.671  0.00  0.00     0.167 HD
ATOM     26  O   LIG d   1       8.759   2.642  -3.337  0.00  0.00    -0.861 OA
ENDBRANCH   2  16
TORSDOF 2
ENDMDL
MODEL 8
REMARK VINA RESULT:      -5.6      4.583      5.411
REMARK  2 active torsions:
REMARK  status: ('A' for Active; 'I' for Inactive)
REMARK    1  A    between atoms: C_4  and  N_7 
REMARK       I    between atoms: N_7  and  C_8 
REMARK    2  A    between atoms: C_8  and  C_10 
ROOT
ATOM      1  N   LIG d   1       5.536  -2.401  -3.496  0.00  0.00    -0.281 N 
ATOM      2  C   LIG d   1       5.538  -2.785  -4.788  0.00  0.00     0.254 C 
ATOM      3  O   LIG d   1       5.174  -2.011  -5.655  0.00  0.00    -0.270 OA
ATOM      4  H   LIG d   1       5.942  -2.967  -2.822  0.00  0.00     0.155 HD
ENDROOT
BRANCH   1   5
ATOM      5  C   LIG d   1       4.946  -1.187  -3.129  0.00  0.00     0.034 A 
ATOM      6  C   LIG d   1       3.568  -1.100  -2.983  0.00  0.00    -0.041 A 
ATOM      7  C   LIG d   1       2.988   0.100  -2.620  0.00  0.00    -0.060 A 
ATOM      8  H   LIG d   1       2.950  -1.969  -3.152  0.00  0.00     0.064 H 
ATOM      9  C   LIG d   1       3.779   1.214  -2.402  0.00  0.00    -0.062 A 
ATOM     10  H   LIG d   1       1.917   0.169  -2.505  0.00  0.00     0.062 H 
ATOM     11  C   LIG d   1       5.152   1.131  -2.548  0.00  0.00    -0.060 A 
ATOM     12  H   LIG d   1       3.323   2.152  -2.123  0.00  0.00     0.062 H 
ATOM     13  C   LIG d   1       5.737  -0.067  -2.910  0.00  0.00    -0.041 A 
ATOM     14  H   LIG d   1       5.766   2.001  -2.377  0.00  0.00     0.062 H 
ATOM     15  H   LIG d   1       6.810  -0.131  -3.024  0.00  0.00     0.064 H 
ENDBRANCH   1   5
BRANCH   2  16
ATOM     16  C   LIG d   1       5.980  -4.135  -5.152  0.00  0.00     0.110 A 
ATOM     17  C   LIG d   1       7.345  -4.481  -5.109  0.00  0.00     0.264 A 
ATOM     18  N   LIG d   1       7.719  -5.742  -5.446  0.00  0.00    -0.302 N 
ATOM     19  O   LIG d   1       8.184  -3.657  -4.767  0.00  0.00    -0.267 OA
ATOM     20  C   LIG d   1       6.805  -6.651  -5.827  0.00  0.00     0.158 A 
ATOM     21  H   LIG d   1       8.656  -5.989  -5.415  0.00  0.00     0.171 HD
ATOM     22  N   LIG d   1       5.496  -6.353  -5.886  0.00  0.00    -0.348 N 
ATOM     23  S   LIG d   1       7.322  -8.227  -6.251  0.00  0.00    -0.013 SA
ATOM     24  C   LIG d   1       5.051  -5.113  -5.556  0.00  0.00    -0.019 A 
ATOM     25  H   LIG d   1       4.861  -7.031  -6.165  0.00  0.00     0.167 HD
ATOM     26  O   LIG d   1       3.856  -4.848  -5.611  0.00  0.00    -0.861 OA
ENDBRANCH   2  16
TORSDOF 2
ENDMDL
MODEL 9
REMARK VINA RESULT:      -5.2     11.576     13.577
REMARK  2 active torsions:
REMARK  status: ('A' for Active; 'I' for Inactive)
REMARK    1  A    between atoms: C_4  and  N_7 
REMARK       I    between atoms: N_7  and  C_8 
REMARK    2  A    between atoms: C_8  and  C_10 
ROOT
ATOM      1  N   LIG d   1      10.586   7.719  -2.083  0.00  0.00    -0.281 N 
ATOM      2  C   LIG d   1       9.719   8.334  -1.254  0.00  0.00     0.254 C 
ATOM      3  O   LIG d   1       8.681   7.783  -0.938  0.00  0.00    -0.270 OA
ATOM      4  H   LIG d   1      11.465   8.098  -2.234  0.00  0.00     0.155 HD
ENDROOT
BRANCH   1   5
ATOM      5  C   LIG d   1      10.215   6.533  -2.726  0.00  0.00     0.034 A 
ATOM      6  C   LIG d   1       9.637   6.578  -3.988  0.00  0.00    -0.041 A 
ATOM      7  C   LIG d   1       9.273   5.405  -4.620  0.00  0.00    -0.060 A 
ATOM      8  H   LIG d   1       9.474   7.527  -4.474  0.00  0.00     0.064 H 
ATOM      9  C   LIG d   1       9.482   4.188  -3.998  0.00  0.00    -0.062 A 
ATOM     10  H   LIG d   1       8.824   5.438  -5.602  0.00  0.00     0.062 H 
ATOM     11  C   LIG d   1      10.057   4.140  -2.740  0.00  0.00    -0.060 A 
ATOM     12  H   LIG d   1       9.193   3.273  -4.492  0.00  0.00     0.062 H 
ATOM     13  C   LIG d   1      10.424   5.310  -2.103  0.00  0.00    -0.041 A 
ATOM     14  H   LIG d   1      10.219   3.189  -2.258  0.00  0.00     0.062 H 
ATOM     15  H   LIG d   1      10.873   5.271  -1.121  0.00  0.00     0.064 H 
ENDBRANCH   1   5
BRANCH   2  16
ATOM     16  C   LIG d   1      10.027   9.669  -0.731  0.00  0.00     0.110 A 
ATOM     17  C   LIG d   1       9.632  10.826  -1.432  0.00  0.00     0.264 A 
ATOM     18  N   LIG d   1       9.928  12.046  -0.916  0.00  0.00    -0.302 N 
ATOM     19  O   LIG d   1       9.023  10.731  -2.491  0.00  0.00    -0.267 OA
ATOM     20  C   LIG d   1      10.600  12.157   0.243  0.00  0.00     0.158 A 
ATOM     21  H   LIG d   1       9.655  12.846  -1.391  0.00  0.00     0.171 HD
ATOM     22  N   LIG d   1      10.998  11.076   0.934  0.00  0.00    -0.348 N 
ATOM     23  S   LIG d   1      10.959  13.717   0.853  0.00  0.00    -0.013 SA
ATOM     24  C   LIG d   1      10.730   9.825   0.480  0.00  0.00    -0.019 A 
ATOM     25  H   LIG d   1      11.481  11.190   1.767  0.00  0.00     0.167 HD
ATOM     26  O   LIG d   1      11.095   8.843   1.115  0.00  0.00    -0.861 OA
ENDBRANCH   2  16
TORSDOF 2
ENDMDL
