MODEL 1
REMARK VINA RESULT:      -6.4      0.000      0.000
REMARK  9 active torsions:
REMARK  status: ('A' for Active; 'I' for Inactive)
REMARK    1  A    between atoms: C_1  and  N_2 
REMARK    2  A    between atoms: N_2  and  C_3 
REMARK       I    between atoms: N_2  and  C_6 
REMARK    3  A    between atoms: C_3  and  C_4 
REMARK    4  A    between atoms: C_6  and  C_8 
REMARK    5  A    between atoms: C_8  and  C_9 
REMARK    6  A    between atoms: C_15  and  C_17 
REMARK    7  A    between atoms: C_17  and  C_18 
REMARK    8  A    between atoms: C_20  and  C_23 
REMARK    9  A    between atoms: C_23  and  N_24 
ROOT
ATOM      1  C   LIG d   1       3.299   1.597  -9.002  0.00  0.00    -0.086 C 
ATOM      2  C   LIG d   1       3.832   2.538  -9.458  0.00  0.00    -0.118 C 
ATOM      3  H   LIG d   1       4.331   3.420  -9.885  0.00  0.00     0.123 H 
ENDROOT
BRANCH   1   4
ATOM      4  C   LIG d   1       2.630   0.417  -8.430  0.00  0.00     0.076 C 
ATOM      5  H   LIG d   1       2.396  -0.297  -9.232  0.00  0.00     0.060 H 
ATOM      6  H   LIG d   1       1.699   0.727  -7.933  0.00  0.00     0.060 H 
BRANCH   4   7
ATOM      7  N   LIG d   1       3.516  -0.219  -7.451  0.00  0.00    -0.293 N 
ATOM      8  C   LIG d   1       3.503   0.185  -6.167  0.00  0.00     0.216 C 
ATOM      9  O   LIG d   1       2.759   1.078  -5.820  0.00  0.00    -0.276 OA
BRANCH   7  10
ATOM     10  C   LIG d   1       4.415  -1.297  -7.871  0.00  0.00     0.004 C 
ATOM     11  H   LIG d   1       3.828  -2.205  -8.077  0.00  0.00     0.043 H 
ATOM     12  H   LIG d   1       5.140  -1.504  -7.071  0.00  0.00     0.043 H 
ATOM     13  H   LIG d   1       4.951  -0.994  -8.783  0.00  0.00     0.043 H 
ENDBRANCH   7  10
BRANCH   8  14
ATOM     14  C   LIG d   1       4.418  -0.465  -5.162  0.00  0.00     0.028 C 
ATOM     15  H   LIG d   1       5.283  -0.903  -5.683  0.00  0.00     0.036 H 
ATOM     16  H   LIG d   1       4.769   0.290  -4.443  0.00  0.00     0.036 H 
BRANCH  14  17
ATOM     17  C   LIG d   1       3.660  -1.566  -4.417  0.00  0.00    -0.020 C 
ATOM     18  H   LIG d   1       3.022  -2.111  -5.128  0.00  0.00     0.031 H 
ATOM     19  C   LIG d   1       4.660  -2.532  -3.775  0.00  0.00     0.008 C 
ATOM     20  C   LIG d   1       5.507  -1.775  -2.749  0.00  0.00    -0.030 C 
ATOM     21  H   LIG d   1       4.117  -3.347  -3.276  0.00  0.00     0.036 H 
ATOM     22  N   LIG d   1       4.632  -1.194  -1.723  0.00  0.00     0.227 N 
ATOM     23  H   LIG d   1       6.063  -0.971  -3.256  0.00  0.00     0.082 H 
ATOM     24  H   LIG d   1       6.216  -2.469  -2.277  0.00  0.00     0.082 H 
ATOM     25  C   LIG d   1       3.694  -0.228  -2.310  0.00  0.00    -0.033 C 
ATOM     26  H   LIG d   1       5.258  -0.690  -0.973  0.00  0.00     0.201 HD
ATOM     27  H   LIG d   1       4.068  -2.007  -1.242  0.00  0.00     0.201 HD
ATOM     28  C   LIG d   1       2.793  -0.938  -3.321  0.00  0.00    -0.009 C 
ATOM     29  H   LIG d   1       4.259   0.568  -2.817  0.00  0.00     0.081 H 
ATOM     30  H   LIG d   1       3.076   0.212  -1.513  0.00  0.00     0.081 H 
ATOM     31  H   LIG d   1       2.101  -0.212  -3.773  0.00  0.00     0.032 H 
ATOM     32  H   LIG d   1       2.218  -1.726  -2.814  0.00  0.00     0.032 H 
BRANCH  19  33
ATOM     33  C   LIG d   1       5.570  -3.117  -4.857  0.00  0.00     0.001 C 
ATOM     34  H   LIG d   1       5.647  -2.408  -5.695  0.00  0.00     0.033 H 
ATOM     35  H   LIG d   1       6.570  -3.298  -4.436  0.00  0.00     0.033 H 
BRANCH  33  36
ATOM     36  C   LIG d   1       4.990  -4.418  -5.351  0.00  0.00     0.084 A 
ATOM     37  N   LIG d   1       3.822  -4.593  -5.895  0.00  0.00    -0.083 NA
ATOM     38  O   LIG d   1       3.639  -5.751  -6.193  0.00  0.00    -0.358 OA
ATOM     39  C   LIG d   1       4.690  -6.516  -5.866  0.00  0.00     0.151 A 
ATOM     40  C   LIG d   1       5.607  -5.690  -5.309  0.00  0.00     0.005 A 
ATOM     41  H   LIG d   1       6.583  -5.944  -4.923  0.00  0.00     0.067 H 
BRANCH  39  42
ATOM     42  C   LIG d   1       4.825  -8.002  -6.078  0.00  0.00     0.060 C 
ATOM     43  H   LIG d   1       3.843  -8.427  -6.330  0.00  0.00     0.051 H 
ATOM     44  H   LIG d   1       5.530  -8.193  -6.901  0.00  0.00     0.051 H 
BRANCH  42  45
ATOM     45  N   LIG d   1       5.328  -8.628  -4.847  0.00  0.00    -0.291 N 
ATOM     46  C   LIG d   1       4.391  -9.647  -4.354  0.00  0.00     0.023 C 
ATOM     47  C   LIG d   1       4.923 -10.230  -3.043  0.00  0.00     0.060 C 
ATOM     48  H   LIG d   1       3.407  -9.186  -4.180  0.00  0.00     0.045 H 
ATOM     49  H   LIG d   1       4.293 -10.448  -5.100  0.00  0.00     0.045 H 
ATOM     50  O   LIG d   1       6.234 -10.760  -3.260  0.00  0.00    -0.377 OA
ATOM     51  H   LIG d   1       4.256 -11.034  -2.698  0.00  0.00     0.057 H 
ATOM     52  H   LIG d   1       4.970  -9.439  -2.279  0.00  0.00     0.057 H 
ATOM     53  C   LIG d   1       7.173  -9.794  -3.740  0.00  0.00     0.060 C 
ATOM     54  C   LIG d   1       6.663  -9.207  -5.059  0.00  0.00     0.023 C 
ATOM     55  H   LIG d   1       8.147 -10.278  -3.908  0.00  0.00     0.057 H 
ATOM     56  H   LIG d   1       7.286  -8.990  -3.000  0.00  0.00     0.057 H 
ATOM     57  H   LIG d   1       6.602 -10.001  -5.817  0.00  0.00     0.045 H 
ATOM     58  H   LIG d   1       7.352  -8.422  -5.404  0.00  0.00     0.045 H 
ENDBRANCH  42  45
ENDBRANCH  39  42
ENDBRANCH  33  36
ENDBRANCH  19  33
ENDBRANCH  14  17
ENDBRANCH   8  14
ENDBRANCH   4   7
ENDBRANCH   1   4
TORSDOF 9
ENDMDL
MODEL 2
REMARK VINA RESULT:      -6.0      4.874      7.380
REMARK  9 active torsions:
REMARK  status: ('A' for Active; 'I' for Inactive)
REMARK    1  A    between atoms: C_1  and  N_2 
REMARK    2  A    between atoms: N_2  and  C_3 
REMARK       I    between atoms: N_2  and  C_6 
REMARK    3  A    between atoms: C_3  and  C_4 
REMARK    4  A    between atoms: C_6  and  C_8 
REMARK    5  A    between atoms: C_8  and  C_9 
REMARK    6  A    between atoms: C_15  and  C_17 
REMARK    7  A    between atoms: C_17  and  C_18 
REMARK    8  A    between atoms: C_20  and  C_23 
REMARK    9  A    between atoms: C_23  and  N_24 
ROOT
ATOM      1  C   LIG d   1       9.002   2.191  -6.446  0.00  0.00    -0.086 C 
ATOM      2  C   LIG d   1       8.801   2.455  -7.571  0.00  0.00    -0.118 C 
ATOM      3  H   LIG d   1       8.612   2.703  -8.626  0.00  0.00     0.123 H 
ENDROOT
BRANCH   1   4
ATOM      4  C   LIG d   1       9.255   1.859  -5.034  0.00  0.00     0.076 C 
ATOM      5  H   LIG d   1       9.020   2.730  -4.405  0.00  0.00     0.060 H 
ATOM      6  H   LIG d   1      10.313   1.589  -4.904  0.00  0.00     0.060 H 
BRANCH   4   7
ATOM      7  N   LIG d   1       8.410   0.729  -4.639  0.00  0.00    -0.293 N 
ATOM      8  C   LIG d   1       7.321   0.936  -3.874  0.00  0.00     0.216 C 
ATOM      9  O   LIG d   1       7.039   2.059  -3.512  0.00  0.00    -0.276 OA
BRANCH   7  10
ATOM     10  C   LIG d   1       8.751  -0.627  -5.076  0.00  0.00     0.004 C 
ATOM     11  H   LIG d   1       8.673  -0.689  -6.172  0.00  0.00     0.043 H 
ATOM     12  H   LIG d   1       8.057  -1.347  -4.617  0.00  0.00     0.043 H 
ATOM     13  H   LIG d   1       9.782  -0.864  -4.769  0.00  0.00     0.043 H 
ENDBRANCH   7  10
BRANCH   8  14
ATOM     14  C   LIG d   1       6.456  -0.227  -3.462  0.00  0.00     0.028 C 
ATOM     15  H   LIG d   1       6.652  -1.082  -4.126  0.00  0.00     0.036 H 
ATOM     16  H   LIG d   1       6.689  -0.508  -2.425  0.00  0.00     0.036 H 
BRANCH  14  17
ATOM     17  C   LIG d   1       4.982   0.172  -3.564  0.00  0.00    -0.020 C 
ATOM     18  H   LIG d   1       4.912   1.228  -3.865  0.00  0.00     0.031 H 
ATOM     19  C   LIG d   1       4.285  -0.709  -4.605  0.00  0.00     0.008 C 
ATOM     20  C   LIG d   1       4.342  -2.170  -4.152  0.00  0.00    -0.030 C 
ATOM     21  H   LIG d   1       3.236  -0.395  -4.710  0.00  0.00     0.036 H 
ATOM     22  N   LIG d   1       3.680  -2.304  -2.848  0.00  0.00     0.227 N 
ATOM     23  H   LIG d   1       5.393  -2.485  -4.065  0.00  0.00     0.082 H 
ATOM     24  H   LIG d   1       3.829  -2.802  -4.891  0.00  0.00     0.082 H 
ATOM     25  C   LIG d   1       4.361  -1.505  -1.821  0.00  0.00    -0.033 C 
ATOM     26  H   LIG d   1       3.693  -3.365  -2.557  0.00  0.00     0.201 HD
ATOM     27  H   LIG d   1       2.638  -1.965  -2.947  0.00  0.00     0.201 HD
ATOM     28  C   LIG d   1       4.304  -0.025  -2.205  0.00  0.00    -0.009 C 
ATOM     29  H   LIG d   1       5.410  -1.824  -1.745  0.00  0.00     0.081 H 
ATOM     30  H   LIG d   1       3.862  -1.652  -0.852  0.00  0.00     0.081 H 
ATOM     31  H   LIG d   1       4.828   0.573  -1.444  0.00  0.00     0.032 H 
ATOM     32  H   LIG d   1       3.256   0.300  -2.269  0.00  0.00     0.032 H 
BRANCH  19  33
ATOM     33  C   LIG d   1       4.994  -0.564  -5.953  0.00  0.00     0.001 C 
ATOM     34  H   LIG d   1       5.762   0.222  -5.881  0.00  0.00     0.033 H 
ATOM     35  H   LIG d   1       5.471  -1.518  -6.220  0.00  0.00     0.033 H 
BRANCH  33  36
ATOM     36  C   LIG d   1       3.989  -0.190  -7.012  0.00  0.00     0.084 A 
ATOM     37  N   LIG d   1       3.506   0.996  -7.243  0.00  0.00    -0.083 NA
ATOM     38  O   LIG d   1       2.720   0.984  -8.162  0.00  0.00    -0.358 OA
ATOM     39  C   LIG d   1       2.569  -0.249  -8.667  0.00  0.00     0.151 A 
ATOM     40  C   LIG d   1       3.381  -1.059  -7.947  0.00  0.00     0.005 A 
ATOM     41  H   LIG d   1       3.531  -2.123  -8.062  0.00  0.00     0.067 H 
BRANCH  39  42
ATOM     42  C   LIG d   1       1.674  -0.653  -9.810  0.00  0.00     0.060 C 
ATOM     43  H   LIG d   1       1.040  -1.497  -9.498  0.00  0.00     0.051 H 
ATOM     44  H   LIG d   1       1.038   0.197 -10.097  0.00  0.00     0.051 H 
BRANCH  42  45
ATOM     45  N   LIG d   1       2.498  -1.058 -10.957  0.00  0.00    -0.291 N 
ATOM     46  C   LIG d   1       1.658  -1.493 -12.081  0.00  0.00     0.023 C 
ATOM     47  C   LIG d   1       2.555  -1.961 -13.231  0.00  0.00     0.060 C 
ATOM     48  H   LIG d   1       1.013  -2.323 -11.757  0.00  0.00     0.045 H 
ATOM     49  H   LIG d   1       1.033  -0.654 -12.420  0.00  0.00     0.045 H 
ATOM     50  O   LIG d   1       3.443  -0.901 -13.597  0.00  0.00    -0.377 OA
ATOM     51  H   LIG d   1       1.933  -2.234 -14.097  0.00  0.00     0.057 H 
ATOM     52  H   LIG d   1       3.140  -2.835 -12.909  0.00  0.00     0.057 H 
ATOM     53  C   LIG d   1       4.277  -0.453 -12.526  0.00  0.00     0.060 C 
ATOM     54  C   LIG d   1       3.397   0.030 -11.369  0.00  0.00     0.023 C 
ATOM     55  H   LIG d   1       4.912   0.376 -12.874  0.00  0.00     0.057 H 
ATOM     56  H   LIG d   1       4.912  -1.282 -12.182  0.00  0.00     0.057 H 
ATOM     57  H   LIG d   1       2.801   0.895 -11.696  0.00  0.00     0.045 H 
ATOM     58  H   LIG d   1       4.032   0.322 -10.520  0.00  0.00     0.045 H 
ENDBRANCH  42  45
ENDBRANCH  39  42
ENDBRANCH  33  36
ENDBRANCH  19  33
ENDBRANCH  14  17
ENDBRANCH   8  14
ENDBRANCH   4   7
ENDBRANCH   1   4
TORSDOF 9
ENDMDL
MODEL 3
REMARK VINA RESULT:      -6.0      1.285      1.552
REMARK  9 active torsions:
REMARK  status: ('A' for Active; 'I' for Inactive)
REMARK    1  A    between atoms: C_1  and  N_2 
REMARK    2  A    between atoms: N_2  and  C_3 
REMARK       I    between atoms: N_2  and  C_6 
REMARK    3  A    between atoms: C_3  and  C_4 
REMARK    4  A    between atoms: C_6  and  C_8 
REMARK    5  A    between atoms: C_8  and  C_9 
REMARK    6  A    between atoms: C_15  and  C_17 
REMARK    7  A    between atoms: C_17  and  C_18 
REMARK    8  A    between atoms: C_20  and  C_23 
REMARK    9  A    between atoms: C_23  and  N_24 
ROOT
ATOM      1  C   LIG d   1       3.212   1.543  -9.185  0.00  0.00    -0.086 C 
ATOM      2  C   LIG d   1       3.534   2.510  -9.768  0.00  0.00    -0.118 C 
ATOM      3  H   LIG d   1       3.836   3.415 -10.315  0.00  0.00     0.123 H 
ENDROOT
BRANCH   1   4
ATOM      4  C   LIG d   1       2.808   0.331  -8.454  0.00  0.00     0.076 C 
ATOM      5  H   LIG d   1       2.381  -0.398  -9.159  0.00  0.00     0.060 H 
ATOM      6  H   LIG d   1       2.055   0.593  -7.697  0.00  0.00     0.060 H 
BRANCH   4   7
ATOM      7  N   LIG d   1       3.979  -0.255  -7.796  0.00  0.00    -0.293 N 
ATOM      8  C   LIG d   1       4.145  -0.115  -6.467  0.00  0.00     0.216 C 
ATOM      9  O   LIG d   1       3.326   0.498  -5.814  0.00  0.00    -0.276 OA
BRANCH   7  10
ATOM     10  C   LIG d   1       4.968  -0.994  -8.584  0.00  0.00     0.004 C 
ATOM     11  H   LIG d   1       4.963  -2.051  -8.281  0.00  0.00     0.043 H 
ATOM     12  H   LIG d   1       5.968  -0.568  -8.413  0.00  0.00     0.043 H 
ATOM     13  H   LIG d   1       4.716  -0.919  -9.653  0.00  0.00     0.043 H 
ENDBRANCH   7  10
BRANCH   8  14
ATOM     14  C   LIG d   1       5.352  -0.712  -5.790  0.00  0.00     0.028 C 
ATOM     15  H   LIG d   1       5.885  -1.362  -6.500  0.00  0.00     0.036 H 
ATOM     16  H   LIG d   1       6.023   0.095  -5.458  0.00  0.00     0.036 H 
BRANCH  14  17
ATOM     17  C   LIG d   1       4.905  -1.534  -4.580  0.00  0.00    -0.020 C 
ATOM     18  H   LIG d   1       3.815  -1.679  -4.623  0.00  0.00     0.031 H 
ATOM     19  C   LIG d   1       5.607  -2.896  -4.600  0.00  0.00     0.008 C 
ATOM     20  C   LIG d   1       7.119  -2.686  -4.487  0.00  0.00    -0.030 C 
ATOM     21  H   LIG d   1       5.254  -3.504  -3.755  0.00  0.00     0.036 H 
ATOM     22  N   LIG d   1       7.424  -1.976  -3.239  0.00  0.00     0.227 N 
ATOM     23  H   LIG d   1       7.471  -2.091  -5.343  0.00  0.00     0.082 H 
ATOM     24  H   LIG d   1       7.624  -3.663  -4.486  0.00  0.00     0.082 H 
ATOM     25  C   LIG d   1       6.799  -0.646  -3.218  0.00  0.00    -0.033 C 
ATOM     26  H   LIG d   1       8.515  -1.870  -3.153  0.00  0.00     0.201 HD
ATOM     27  H   LIG d   1       7.046  -2.572  -2.394  0.00  0.00     0.201 HD
ATOM     28  C   LIG d   1       5.278  -0.795  -3.292  0.00  0.00    -0.009 C 
ATOM     29  H   LIG d   1       7.153  -0.062  -4.079  0.00  0.00     0.081 H 
ATOM     30  H   LIG d   1       7.072  -0.128  -2.287  0.00  0.00     0.081 H 
ATOM     31  H   LIG d   1       4.810   0.201  -3.293  0.00  0.00     0.032 H 
ATOM     32  H   LIG d   1       4.920  -1.368  -2.425  0.00  0.00     0.032 H 
BRANCH  19  33
ATOM     33  C   LIG d   1       5.287  -3.616  -5.911  0.00  0.00     0.001 C 
ATOM     34  H   LIG d   1       4.338  -3.234  -6.317  0.00  0.00     0.033 H 
ATOM     35  H   LIG d   1       6.095  -3.435  -6.635  0.00  0.00     0.033 H 
BRANCH  33  36
ATOM     36  C   LIG d   1       5.165  -5.096  -5.654  0.00  0.00     0.084 A 
ATOM     37  N   LIG d   1       4.099  -5.735  -5.268  0.00  0.00    -0.083 NA
ATOM     38  O   LIG d   1       4.308  -6.919  -5.150  0.00  0.00    -0.358 OA
ATOM     39  C   LIG d   1       5.580  -7.227  -5.441  0.00  0.00     0.151 A 
ATOM     40  C   LIG d   1       6.188  -6.065  -5.779  0.00  0.00     0.005 A 
ATOM     41  H   LIG d   1       7.215  -5.913  -6.076  0.00  0.00     0.067 H 
BRANCH  39  42
ATOM     42  C   LIG d   1       6.210  -8.595  -5.402  0.00  0.00     0.060 C 
ATOM     43  H   LIG d   1       5.891  -9.171  -6.284  0.00  0.00     0.051 H 
ATOM     44  H   LIG d   1       7.305  -8.496  -5.406  0.00  0.00     0.051 H 
BRANCH  42  45
ATOM     45  N   LIG d   1       5.785  -9.295  -4.182  0.00  0.00    -0.291 N 
ATOM     46  C   LIG d   1       5.104 -10.555  -4.507  0.00  0.00     0.023 C 
ATOM     47  C   LIG d   1       4.627 -11.221  -3.214  0.00  0.00     0.060 C 
ATOM     48  H   LIG d   1       4.239 -10.347  -5.155  0.00  0.00     0.045 H 
ATOM     49  H   LIG d   1       5.800 -11.226  -5.031  0.00  0.00     0.045 H 
ATOM     50  O   LIG d   1       5.747 -11.420  -2.345  0.00  0.00    -0.377 OA
ATOM     51  H   LIG d   1       4.167 -12.192  -3.445  0.00  0.00     0.057 H 
ATOM     52  H   LIG d   1       3.888 -10.574  -2.717  0.00  0.00     0.057 H 
ATOM     53  C   LIG d   1       6.434 -10.212  -2.007  0.00  0.00     0.060 C 
ATOM     54  C   LIG d   1       6.929  -9.536  -3.289  0.00  0.00     0.023 C 
ATOM     55  H   LIG d   1       7.294 -10.446  -1.361  0.00  0.00     0.057 H 
ATOM     56  H   LIG d   1       5.750  -9.535  -1.476  0.00  0.00     0.057 H 
ATOM     57  H   LIG d   1       7.656 -10.190  -3.793  0.00  0.00     0.045 H 
ATOM     58  H   LIG d   1       7.408  -8.579  -3.040  0.00  0.00     0.045 H 
ENDBRANCH  42  45
ENDBRANCH  39  42
ENDBRANCH  33  36
ENDBRANCH  19  33
ENDBRANCH  14  17
ENDBRANCH   8  14
ENDBRANCH   4   7
ENDBRANCH   1   4
TORSDOF 9
ENDMDL
MODEL 4
REMARK VINA RESULT:      -6.0      6.564      8.981
REMARK  9 active torsions:
REMARK  status: ('A' for Active; 'I' for Inactive)
REMARK    1  A    between atoms: C_1  and  N_2 
REMARK    2  A    between atoms: N_2  and  C_3 
REMARK       I    between atoms: N_2  and  C_6 
REMARK    3  A    between atoms: C_3  and  C_4 
REMARK    4  A    between atoms: C_6  and  C_8 
REMARK    5  A    between atoms: C_8  and  C_9 
REMARK    6  A    between atoms: C_15  and  C_17 
REMARK    7  A    between atoms: C_17  and  C_18 
REMARK    8  A    between atoms: C_20  and  C_23 
REMARK    9  A    between atoms: C_23  and  N_24 
ROOT
ATOM      1  C   LIG d   1       9.089   6.679  -9.088  0.00  0.00    -0.086 C 
ATOM      2  C   LIG d   1       8.556   5.917  -9.804  0.00  0.00    -0.118 C 
ATOM      3  H   LIG d   1       8.056   5.202 -10.475  0.00  0.00     0.123 H 
ENDROOT
BRANCH   1   4
ATOM      4  C   LIG d   1       9.757   7.635  -8.190  0.00  0.00     0.076 C 
ATOM      5  H   LIG d   1       9.024   8.368  -7.823  0.00  0.00     0.060 H 
ATOM      6  H   LIG d   1      10.555   8.158  -8.738  0.00  0.00     0.060 H 
BRANCH   4   7
ATOM      7  N   LIG d   1      10.338   6.915  -7.054  0.00  0.00    -0.293 N 
ATOM      8  C   LIG d   1       9.923   7.184  -5.802  0.00  0.00     0.216 C 
ATOM      9  O   LIG d   1       9.068   8.024  -5.614  0.00  0.00    -0.276 OA
BRANCH   7  10
ATOM     10  C   LIG d   1      11.371   5.901  -7.282  0.00  0.00     0.004 C 
ATOM     11  H   LIG d   1      10.928   5.038  -7.802  0.00  0.00     0.043 H 
ATOM     12  H   LIG d   1      11.784   5.574  -6.316  0.00  0.00     0.043 H 
ATOM     13  H   LIG d   1      12.175   6.328  -7.900  0.00  0.00     0.043 H 
ENDBRANCH   7  10
BRANCH   8  14
ATOM     14  C   LIG d   1      10.524   6.448  -4.633  0.00  0.00     0.028 C 
ATOM     15  H   LIG d   1      11.120   5.599  -5.002  0.00  0.00     0.036 H 
ATOM     16  H   LIG d   1      11.173   7.130  -4.064  0.00  0.00     0.036 H 
BRANCH  14  17
ATOM     17  C   LIG d   1       9.407   5.931  -3.725  0.00  0.00    -0.020 C 
ATOM     18  H   LIG d   1       8.433   6.194  -4.163  0.00  0.00     0.031 H 
ATOM     19  C   LIG d   1       9.519   4.409  -3.591  0.00  0.00     0.008 C 
ATOM     20  C   LIG d   1      10.854   4.056  -2.932  0.00  0.00    -0.030 C 
ATOM     21  H   LIG d   1       8.691   4.031  -2.974  0.00  0.00     0.036 H 
ATOM     22  N   LIG d   1      10.931   4.689  -1.609  0.00  0.00     0.227 N 
ATOM     23  H   LIG d   1      11.681   4.421  -3.562  0.00  0.00     0.082 H 
ATOM     24  H   LIG d   1      10.931   2.965  -2.822  0.00  0.00     0.082 H 
ATOM     25  C   LIG d   1      10.873   6.153  -1.716  0.00  0.00    -0.033 C 
ATOM     26  H   LIG d   1      11.877   4.392  -1.133  0.00  0.00     0.201 HD
ATOM     27  H   LIG d   1      10.087   4.332  -1.000  0.00  0.00     0.201 HD
ATOM     28  C   LIG d   1       9.539   6.568  -2.338  0.00  0.00    -0.009 C 
ATOM     29  H   LIG d   1      11.699   6.506  -2.350  0.00  0.00     0.081 H 
ATOM     30  H   LIG d   1      10.965   6.596  -0.714  0.00  0.00     0.081 H 
ATOM     31  H   LIG d   1       9.501   7.663  -2.433  0.00  0.00     0.032 H 
ATOM     32  H   LIG d   1       8.711   6.227  -1.699  0.00  0.00     0.032 H 
BRANCH  19  33
ATOM     33  C   LIG d   1       9.449   3.769  -4.979  0.00  0.00     0.001 C 
ATOM     34  H   LIG d   1       9.025   4.490  -5.695  0.00  0.00     0.033 H 
ATOM     35  H   LIG d   1      10.460   3.483  -5.302  0.00  0.00     0.033 H 
BRANCH  33  36
ATOM     36  C   LIG d   1       8.574   2.543  -4.923  0.00  0.00     0.084 A 
ATOM     37  N   LIG d   1       7.917   2.008  -5.910  0.00  0.00    -0.083 NA
ATOM     38  O   LIG d   1       7.306   1.026  -5.558  0.00  0.00    -0.358 OA
ATOM     39  C   LIG d   1       7.476   0.782  -4.251  0.00  0.00     0.151 A 
ATOM     40  C   LIG d   1       8.301   1.749  -3.785  0.00  0.00     0.005 A 
ATOM     41  H   LIG d   1       8.667   1.882  -2.777  0.00  0.00     0.067 H 
BRANCH  39  42
ATOM     42  C   LIG d   1       6.869  -0.346  -3.458  0.00  0.00     0.060 C 
ATOM     43  H   LIG d   1       7.212  -1.308  -3.867  0.00  0.00     0.051 H 
ATOM     44  H   LIG d   1       7.181  -0.264  -2.406  0.00  0.00     0.051 H 
BRANCH  42  45
ATOM     45  N   LIG d   1       5.404  -0.273  -3.543  0.00  0.00    -0.291 N 
ATOM     46  C   LIG d   1       4.785  -1.512  -3.053  0.00  0.00     0.023 C 
ATOM     47  C   LIG d   1       3.266  -1.416  -3.213  0.00  0.00     0.060 C 
ATOM     48  H   LIG d   1       5.164  -2.366  -3.634  0.00  0.00     0.045 H 
ATOM     49  H   LIG d   1       5.035  -1.653  -1.991  0.00  0.00     0.045 H 
ATOM     50  O   LIG d   1       2.790  -0.261  -2.517  0.00  0.00    -0.377 OA
ATOM     51  H   LIG d   1       2.792  -2.317  -2.796  0.00  0.00     0.057 H 
ATOM     52  H   LIG d   1       3.013  -1.330  -4.281  0.00  0.00     0.057 H 
ATOM     53  C   LIG d   1       3.372   0.964  -2.969  0.00  0.00     0.060 C 
ATOM     54  C   LIG d   1       4.893   0.892  -2.805  0.00  0.00     0.023 C 
ATOM     55  H   LIG d   1       2.979   1.801  -2.373  0.00  0.00     0.057 H 
ATOM     56  H   LIG d   1       3.124   1.121  -4.029  0.00  0.00     0.057 H 
ATOM     57  H   LIG d   1       5.144   0.791  -1.739  0.00  0.00     0.045 H 
ATOM     58  H   LIG d   1       5.350   1.809  -3.205  0.00  0.00     0.045 H 
ENDBRANCH  42  45
ENDBRANCH  39  42
ENDBRANCH  33  36
ENDBRANCH  19  33
ENDBRANCH  14  17
ENDBRANCH   8  14
ENDBRANCH   4   7
ENDBRANCH   1   4
TORSDOF 9
ENDMDL
MODEL 5
REMARK VINA RESULT:      -5.9      7.632      9.988
REMARK  9 active torsions:
REMARK  status: ('A' for Active; 'I' for Inactive)
REMARK    1  A    between atoms: C_1  and  N_2 
REMARK    2  A    between atoms: N_2  and  C_3 
REMARK       I    between atoms: N_2  and  C_6 
REMARK    3  A    between atoms: C_3  and  C_4 
REMARK    4  A    between atoms: C_6  and  C_8 
REMARK    5  A    between atoms: C_8  and  C_9 
REMARK    6  A    between atoms: C_15  and  C_17 
REMARK    7  A    between atoms: C_17  and  C_18 
REMARK    8  A    between atoms: C_20  and  C_23 
REMARK    9  A    between atoms: C_23  and  N_24 
ROOT
ATOM      1  C   LIG d   1       9.945  10.678  -6.247  0.00  0.00    -0.086 C 
ATOM      2  C   LIG d   1      10.296  11.070  -7.296  0.00  0.00    -0.118 C 
ATOM      3  H   LIG d   1      10.625  11.437  -8.279  0.00  0.00     0.123 H 
ENDROOT
BRANCH   1   4
ATOM      4  C   LIG d   1       9.504  10.187  -4.931  0.00  0.00     0.076 C 
ATOM      5  H   LIG d   1       8.417  10.326  -4.833  0.00  0.00     0.060 H 
ATOM      6  H   LIG d   1      10.018  10.749  -4.138  0.00  0.00     0.060 H 
BRANCH   4   7
ATOM      7  N   LIG d   1       9.828   8.763  -4.808  0.00  0.00    -0.293 N 
ATOM      8  C   LIG d   1      10.521   8.320  -3.742  0.00  0.00     0.216 C 
ATOM      9  O   LIG d   1      10.879   9.099  -2.883  0.00  0.00    -0.276 OA
BRANCH   7  10
ATOM     10  C   LIG d   1       9.396   7.822  -5.845  0.00  0.00     0.004 C 
ATOM     11  H   LIG d   1       9.988   7.987  -6.758  0.00  0.00     0.043 H 
ATOM     12  H   LIG d   1       8.330   7.981  -6.064  0.00  0.00     0.043 H 
ATOM     13  H   LIG d   1       9.548   6.791  -5.491  0.00  0.00     0.043 H 
ENDBRANCH   7  10
BRANCH   8  14
ATOM     14  C   LIG d   1      10.860   6.856  -3.617  0.00  0.00     0.028 C 
ATOM     15  H   LIG d   1      10.928   6.410  -4.621  0.00  0.00     0.036 H 
ATOM     16  H   LIG d   1      11.826   6.746  -3.102  0.00  0.00     0.036 H 
BRANCH  14  17
ATOM     17  C   LIG d   1       9.769   6.146  -2.815  0.00  0.00    -0.020 C 
ATOM     18  H   LIG d   1       8.783   6.501  -3.149  0.00  0.00     0.031 H 
ATOM     19  C   LIG d   1       9.874   4.634  -3.036  0.00  0.00     0.008 C 
ATOM     20  C   LIG d   1      11.228   4.140  -2.519  0.00  0.00    -0.030 C 
ATOM     21  H   LIG d   1       9.064   4.125  -2.493  0.00  0.00     0.036 H 
ATOM     22  N   LIG d   1      11.351   4.454  -1.090  0.00  0.00     0.227 N 
ATOM     23  H   LIG d   1      12.036   4.639  -3.075  0.00  0.00     0.082 H 
ATOM     24  H   LIG d   1      11.300   3.053  -2.663  0.00  0.00     0.082 H 
ATOM     25  C   LIG d   1      11.300   5.904  -0.858  0.00  0.00    -0.033 C 
ATOM     26  H   LIG d   1      12.310   4.058  -0.725  0.00  0.00     0.201 HD
ATOM     27  H   LIG d   1      10.524   3.968  -0.551  0.00  0.00     0.201 HD
ATOM     28  C   LIG d   1       9.949   6.449  -1.325  0.00  0.00    -0.009 C 
ATOM     29  H   LIG d   1      12.108   6.393  -1.422  0.00  0.00     0.081 H 
ATOM     30  H   LIG d   1      11.428   6.108   0.215  0.00  0.00     0.081 H 
ATOM     31  H   LIG d   1       9.917   7.538  -1.166  0.00  0.00     0.032 H 
ATOM     32  H   LIG d   1       9.141   5.971  -0.753  0.00  0.00     0.032 H 
BRANCH  19  33
ATOM     33  C   LIG d   1       9.755   4.327  -4.530  0.00  0.00     0.001 C 
ATOM     34  H   LIG d   1       9.284   5.179  -5.043  0.00  0.00     0.033 H 
ATOM     35  H   LIG d   1      10.757   4.154  -4.949  0.00  0.00     0.033 H 
BRANCH  33  36
ATOM     36  C   LIG d   1       8.909   3.094  -4.723  0.00  0.00     0.084 A 
ATOM     37  N   LIG d   1       8.504   2.597  -5.855  0.00  0.00    -0.083 NA
ATOM     38  O   LIG d   1       7.843   1.598  -5.691  0.00  0.00    -0.358 OA
ATOM     39  C   LIG d   1       7.713   1.301  -4.390  0.00  0.00     0.151 A 
ATOM     40  C   LIG d   1       8.395   2.253  -3.710  0.00  0.00     0.005 A 
ATOM     41  H   LIG d   1       8.518   2.346  -2.641  0.00  0.00     0.067 H 
BRANCH  39  42
ATOM     42  C   LIG d   1       6.958   0.137  -3.801  0.00  0.00     0.060 C 
ATOM     43  H   LIG d   1       7.079  -0.744  -4.449  0.00  0.00     0.051 H 
ATOM     44  H   LIG d   1       7.353  -0.088  -2.800  0.00  0.00     0.051 H 
BRANCH  42  45
ATOM     45  N   LIG d   1       5.532   0.478  -3.701  0.00  0.00    -0.291 N 
ATOM     46  C   LIG d   1       4.696  -0.571  -4.300  0.00  0.00     0.023 C 
ATOM     47  C   LIG d   1       3.227  -0.149  -4.227  0.00  0.00     0.060 C 
ATOM     48  H   LIG d   1       4.987  -0.716  -5.351  0.00  0.00     0.045 H 
ATOM     49  H   LIG d   1       4.837  -1.512  -3.748  0.00  0.00     0.045 H 
ATOM     50  O   LIG d   1       2.877   0.110  -2.864  0.00  0.00    -0.377 OA
ATOM     51  H   LIG d   1       2.591  -0.956  -4.621  0.00  0.00     0.057 H 
ATOM     52  H   LIG d   1       3.075   0.762  -4.824  0.00  0.00     0.057 H 
ATOM     53  C   LIG d   1       3.672   1.128  -2.250  0.00  0.00     0.060 C 
ATOM     54  C   LIG d   1       5.147   0.719  -2.303  0.00  0.00     0.023 C 
ATOM     55  H   LIG d   1       3.364   1.254  -1.201  0.00  0.00     0.057 H 
ATOM     56  H   LIG d   1       3.535   2.077  -2.788  0.00  0.00     0.057 H 
ATOM     57  H   LIG d   1       5.294  -0.201  -1.718  0.00  0.00     0.045 H 
ATOM     58  H   LIG d   1       5.768   1.523  -1.884  0.00  0.00     0.045 H 
ENDBRANCH  42  45
ENDBRANCH  39  42
ENDBRANCH  33  36
ENDBRANCH  19  33
ENDBRANCH  14  17
ENDBRANCH   8  14
ENDBRANCH   4   7
ENDBRANCH   1   4
TORSDOF 9
ENDMDL
MODEL 6
REMARK VINA RESULT:      -5.9      2.834      4.504
REMARK  9 active torsions:
REMARK  status: ('A' for Active; 'I' for Inactive)
REMARK    1  A    between atoms: C_1  and  N_2 
REMARK    2  A    between atoms: N_2  and  C_3 
REMARK       I    between atoms: N_2  and  C_6 
REMARK    3  A    between atoms: C_3  and  C_4 
REMARK    4  A    between atoms: C_6  and  C_8 
REMARK    5  A    between atoms: C_8  and  C_9 
REMARK    6  A    between atoms: C_15  and  C_17 
REMARK    7  A    between atoms: C_17  and  C_18 
REMARK    8  A    between atoms: C_20  and  C_23 
REMARK    9  A    between atoms: C_23  and  N_24 
ROOT
ATOM      1  C   LIG d   1       2.153  -0.102  -9.204  0.00  0.00    -0.086 C 
ATOM      2  C   LIG d   1       1.511  -0.868  -9.819  0.00  0.00    -0.118 C 
ATOM      3  H   LIG d   1       0.910  -1.587 -10.395  0.00  0.00     0.123 H 
ENDROOT
BRANCH   1   4
ATOM      4  C   LIG d   1       2.958   0.860  -8.432  0.00  0.00     0.076 C 
ATOM      5  H   LIG d   1       2.291   1.538  -7.881  0.00  0.00     0.060 H 
ATOM      6  H   LIG d   1       3.589   1.444  -9.118  0.00  0.00     0.060 H 
BRANCH   4   7
ATOM      7  N   LIG d   1       3.809   0.135  -7.485  0.00  0.00    -0.293 N 
ATOM      8  C   LIG d   1       3.618   0.279  -6.160  0.00  0.00     0.216 C 
ATOM      9  O   LIG d   1       2.741   1.011  -5.750  0.00  0.00    -0.276 OA
BRANCH   7  10
ATOM     10  C   LIG d   1       4.869  -0.748  -7.981  0.00  0.00     0.004 C 
ATOM     11  H   LIG d   1       5.708  -0.141  -8.352  0.00  0.00     0.043 H 
ATOM     12  H   LIG d   1       4.476  -1.370  -8.799  0.00  0.00     0.043 H 
ATOM     13  H   LIG d   1       5.219  -1.396  -7.163  0.00  0.00     0.043 H 
ENDBRANCH   7  10
BRANCH   8  14
ATOM     14  C   LIG d   1       4.497  -0.461  -5.185  0.00  0.00     0.028 C 
ATOM     15  H   LIG d   1       5.317  -0.951  -5.731  0.00  0.00     0.036 H 
ATOM     16  H   LIG d   1       4.915   0.249  -4.456  0.00  0.00     0.036 H 
BRANCH  14  17
ATOM     17  C   LIG d   1       3.669  -1.518  -4.451  0.00  0.00    -0.020 C 
ATOM     18  H   LIG d   1       3.064  -2.076  -5.181  0.00  0.00     0.031 H 
ATOM     19  C   LIG d   1       4.606  -2.480  -3.715  0.00  0.00     0.008 C 
ATOM     20  C   LIG d   1       5.405  -1.704  -2.665  0.00  0.00    -0.030 C 
ATOM     21  H   LIG d   1       4.014  -3.265  -3.222  0.00  0.00     0.036 H 
ATOM     22  N   LIG d   1       4.482  -1.069  -1.717  0.00  0.00     0.227 N 
ATOM     23  H   LIG d   1       6.009  -0.930  -3.164  0.00  0.00     0.082 H 
ATOM     24  H   LIG d   1       6.068  -2.395  -2.125  0.00  0.00     0.082 H 
ATOM     25  C   LIG d   1       3.604  -0.105  -2.394  0.00  0.00    -0.033 C 
ATOM     26  H   LIG d   1       5.072  -0.550  -0.947  0.00  0.00     0.201 HD
ATOM     27  H   LIG d   1       3.870  -1.852  -1.244  0.00  0.00     0.201 HD
ATOM     28  C   LIG d   1       2.751  -0.833  -3.434  0.00  0.00    -0.009 C 
ATOM     29  H   LIG d   1       4.217   0.660  -2.892  0.00  0.00     0.081 H 
ATOM     30  H   LIG d   1       2.948   0.376  -1.653  0.00  0.00     0.081 H 
ATOM     31  H   LIG d   1       2.105  -0.109  -3.953  0.00  0.00     0.032 H 
ATOM     32  H   LIG d   1       2.128  -1.590  -2.937  0.00  0.00     0.032 H 
BRANCH  19  33
ATOM     33  C   LIG d   1       5.567  -3.123  -4.716  0.00  0.00     0.001 C 
ATOM     34  H   LIG d   1       5.990  -2.346  -5.370  0.00  0.00     0.033 H 
ATOM     35  H   LIG d   1       6.380  -3.627  -4.172  0.00  0.00     0.033 H 
BRANCH  33  36
ATOM     36  C   LIG d   1       4.821  -4.132  -5.551  0.00  0.00     0.084 A 
ATOM     37  N   LIG d   1       4.124  -5.141  -5.116  0.00  0.00    -0.083 NA
ATOM     38  O   LIG d   1       3.638  -5.771  -6.026  0.00  0.00    -0.358 OA
ATOM     39  C   LIG d   1       3.968  -5.253  -7.218  0.00  0.00     0.151 A 
ATOM     40  C   LIG d   1       4.746  -4.173  -6.963  0.00  0.00     0.005 A 
ATOM     41  H   LIG d   1       5.201  -3.499  -7.673  0.00  0.00     0.067 H 
BRANCH  39  42
ATOM     42  C   LIG d   1       3.556  -5.767  -8.572  0.00  0.00     0.060 C 
ATOM     43  H   LIG d   1       3.924  -6.796  -8.701  0.00  0.00     0.051 H 
ATOM     44  H   LIG d   1       2.459  -5.757  -8.651  0.00  0.00     0.051 H 
BRANCH  42  45
ATOM     45  N   LIG d   1       4.130  -4.909  -9.618  0.00  0.00    -0.291 N 
ATOM     46  C   LIG d   1       5.043  -5.670 -10.482  0.00  0.00     0.023 C 
ATOM     47  C   LIG d   1       5.662  -4.728 -11.517  0.00  0.00     0.060 C 
ATOM     48  H   LIG d   1       5.839  -6.118  -9.869  0.00  0.00     0.045 H 
ATOM     49  H   LIG d   1       4.485  -6.466 -10.996  0.00  0.00     0.045 H 
ATOM     50  O   LIG d   1       4.618  -4.092 -12.260  0.00  0.00    -0.377 OA
ATOM     51  H   LIG d   1       6.303  -5.302 -12.203  0.00  0.00     0.057 H 
ATOM     52  H   LIG d   1       6.266  -3.963 -11.005  0.00  0.00     0.057 H 
ATOM     53  C   LIG d   1       3.710  -3.341 -11.449  0.00  0.00     0.060 C 
ATOM     54  C   LIG d   1       3.071  -4.270 -10.413  0.00  0.00     0.023 C 
ATOM     55  H   LIG d   1       2.924  -2.904 -12.083  0.00  0.00     0.057 H 
ATOM     56  H   LIG d   1       4.255  -2.537 -10.934  0.00  0.00     0.057 H 
ATOM     57  H   LIG d   1       2.481  -5.043 -10.926  0.00  0.00     0.045 H 
ATOM     58  H   LIG d   1       2.416  -3.687  -9.750  0.00  0.00     0.045 H 
ENDBRANCH  42  45
ENDBRANCH  39  42
ENDBRANCH  33  36
ENDBRANCH  19  33
ENDBRANCH  14  17
ENDBRANCH   8  14
ENDBRANCH   4   7
ENDBRANCH   1   4
TORSDOF 9
ENDMDL
MODEL 7
REMARK VINA RESULT:      -5.7      2.604      9.862
REMARK  9 active torsions:
REMARK  status: ('A' for Active; 'I' for Inactive)
REMARK    1  A    between atoms: C_1  and  N_2 
REMARK    2  A    between atoms: N_2  and  C_3 
REMARK       I    between atoms: N_2  and  C_6 
REMARK    3  A    between atoms: C_3  and  C_4 
REMARK    4  A    between atoms: C_6  and  C_8 
REMARK    5  A    between atoms: C_8  and  C_9 
REMARK    6  A    between atoms: C_15  and  C_17 
REMARK    7  A    between atoms: C_17  and  C_18 
REMARK    8  A    between atoms: C_20  and  C_23 
REMARK    9  A    between atoms: C_23  and  N_24 
ROOT
ATOM      1  C   LIG d   1       8.634 -11.886  -0.309  0.00  0.00    -0.086 C 
ATOM      2  C   LIG d   1       9.718 -11.660   0.080  0.00  0.00    -0.118 C 
ATOM      3  H   LIG d   1      10.735 -11.449   0.443  0.00  0.00     0.123 H 
ENDROOT
BRANCH   1   4
ATOM      4  C   LIG d   1       7.274 -12.169  -0.796  0.00  0.00     0.076 C 
ATOM      5  H   LIG d   1       6.540 -11.674  -0.144  0.00  0.00     0.060 H 
ATOM      6  H   LIG d   1       7.099 -13.255  -0.785  0.00  0.00     0.060 H 
BRANCH   4   7
ATOM      7  N   LIG d   1       7.130 -11.665  -2.164  0.00  0.00    -0.293 N 
ATOM      8  C   LIG d   1       6.572 -10.459  -2.383  0.00  0.00     0.216 C 
ATOM      9  O   LIG d   1       6.188  -9.790  -1.447  0.00  0.00    -0.276 OA
BRANCH   7  10
ATOM     10  C   LIG d   1       7.595 -12.474  -3.294  0.00  0.00     0.004 C 
ATOM     11  H   LIG d   1       8.582 -12.899  -3.060  0.00  0.00     0.043 H 
ATOM     12  H   LIG d   1       7.671 -11.843  -4.192  0.00  0.00     0.043 H 
ATOM     13  H   LIG d   1       6.880 -13.291  -3.479  0.00  0.00     0.043 H 
ENDBRANCH   7  10
BRANCH   8  14
ATOM     14  C   LIG d   1       6.419  -9.943  -3.791  0.00  0.00     0.028 C 
ATOM     15  H   LIG d   1       7.136  -9.126  -3.961  0.00  0.00     0.036 H 
ATOM     16  H   LIG d   1       6.616 -10.758  -4.504  0.00  0.00     0.036 H 
BRANCH  14  17
ATOM     17  C   LIG d   1       4.994  -9.423  -3.991  0.00  0.00    -0.020 C 
ATOM     18  H   LIG d   1       4.738  -8.740  -3.168  0.00  0.00     0.031 H 
ATOM     19  C   LIG d   1       4.905  -8.678  -5.326  0.00  0.00     0.008 C 
ATOM     20  C   LIG d   1       5.211  -9.649  -6.469  0.00  0.00    -0.030 C 
ATOM     21  H   LIG d   1       3.893  -8.267  -5.452  0.00  0.00     0.036 H 
ATOM     22  N   LIG d   1       4.248 -10.758  -6.441  0.00  0.00     0.227 N 
ATOM     23  H   LIG d   1       6.230 -10.046  -6.349  0.00  0.00     0.082 H 
ATOM     24  H   LIG d   1       5.133  -9.120  -7.430  0.00  0.00     0.082 H 
ATOM     25  C   LIG d   1       4.348 -11.517  -5.188  0.00  0.00    -0.033 C 
ATOM     26  H   LIG d   1       4.456 -11.424  -7.292  0.00  0.00     0.201 HD
ATOM     27  H   LIG d   1       3.233 -10.344  -6.539  0.00  0.00     0.201 HD
ATOM     28  C   LIG d   1       4.017 -10.602  -4.008  0.00  0.00    -0.009 C 
ATOM     29  H   LIG d   1       5.371 -11.904  -5.076  0.00  0.00     0.081 H 
ATOM     30  H   LIG d   1       3.639 -12.357  -5.211  0.00  0.00     0.081 H 
ATOM     31  H   LIG d   1       4.107 -11.166  -3.067  0.00  0.00     0.032 H 
ATOM     32  H   LIG d   1       2.989 -10.224  -4.111  0.00  0.00     0.032 H 
BRANCH  19  33
ATOM     33  C   LIG d   1       5.922  -7.535  -5.342  0.00  0.00     0.001 C 
ATOM     34  H   LIG d   1       6.460  -7.510  -4.382  0.00  0.00     0.033 H 
ATOM     35  H   LIG d   1       6.639  -7.694  -6.160  0.00  0.00     0.033 H 
BRANCH  33  36
ATOM     36  C   LIG d   1       5.203  -6.226  -5.550  0.00  0.00     0.084 A 
ATOM     37  N   LIG d   1       3.948  -6.066  -5.851  0.00  0.00    -0.083 NA
ATOM     38  O   LIG d   1       3.660  -4.896  -5.949  0.00  0.00    -0.358 OA
ATOM     39  C   LIG d   1       4.720  -4.106  -5.729  0.00  0.00     0.151 A 
ATOM     40  C   LIG d   1       5.762  -4.930  -5.462  0.00  0.00     0.005 A 
ATOM     41  H   LIG d   1       6.782  -4.660  -5.234  0.00  0.00     0.067 H 
BRANCH  39  42
ATOM     42  C   LIG d   1       4.749  -2.601  -5.770  0.00  0.00     0.060 C 
ATOM     43  H   LIG d   1       5.477  -2.268  -6.525  0.00  0.00     0.051 H 
ATOM     44  H   LIG d   1       3.750  -2.221  -6.031  0.00  0.00     0.051 H 
BRANCH  42  45
ATOM     45  N   LIG d   1       5.141  -2.083  -4.451  0.00  0.00    -0.291 N 
ATOM     46  C   LIG d   1       5.852  -0.803  -4.578  0.00  0.00     0.023 C 
ATOM     47  C   LIG d   1       6.292  -0.330  -3.191  0.00  0.00     0.060 C 
ATOM     48  H   LIG d   1       6.736  -0.938  -5.219  0.00  0.00     0.045 H 
ATOM     49  H   LIG d   1       5.184  -0.054  -5.028  0.00  0.00     0.045 H 
ATOM     50  O   LIG d   1       5.146  -0.230  -2.341  0.00  0.00    -0.377 OA
ATOM     51  H   LIG d   1       6.775   0.655  -3.272  0.00  0.00     0.057 H 
ATOM     52  H   LIG d   1       7.003  -1.053  -2.763  0.00  0.00     0.057 H 
ATOM     53  C   LIG d   1       4.429  -1.459  -2.194  0.00  0.00     0.060 C 
ATOM     54  C   LIG d   1       3.969  -1.943  -3.573  0.00  0.00     0.023 C 
ATOM     55  H   LIG d   1       3.550  -1.299  -1.551  0.00  0.00     0.057 H 
ATOM     56  H   LIG d   1       5.083  -2.215  -1.739  0.00  0.00     0.057 H 
ATOM     57  H   LIG d   1       3.271  -1.212  -4.006  0.00  0.00     0.045 H 
ATOM     58  H   LIG d   1       3.468  -2.916  -3.473  0.00  0.00     0.045 H 
ENDBRANCH  42  45
ENDBRANCH  39  42
ENDBRANCH  33  36
ENDBRANCH  19  33
ENDBRANCH  14  17
ENDBRANCH   8  14
ENDBRANCH   4   7
ENDBRANCH   1   4
TORSDOF 9
ENDMDL
MODEL 8
REMARK VINA RESULT:      -5.6      7.423     11.918
REMARK  9 active torsions:
REMARK  status: ('A' for Active; 'I' for Inactive)
REMARK    1  A    between atoms: C_1  and  N_2 
REMARK    2  A    between atoms: N_2  and  C_3 
REMARK       I    between atoms: N_2  and  C_6 
REMARK    3  A    between atoms: C_3  and  C_4 
REMARK    4  A    between atoms: C_6  and  C_8 
REMARK    5  A    between atoms: C_8  and  C_9 
REMARK    6  A    between atoms: C_15  and  C_17 
REMARK    7  A    between atoms: C_17  and  C_18 
REMARK    8  A    between atoms: C_20  and  C_23 
REMARK    9  A    between atoms: C_23  and  N_24 
ROOT
ATOM      1  C   LIG d   1       3.014   0.161  -4.011  0.00  0.00    -0.086 C 
ATOM      2  C   LIG d   1       2.260   0.397  -4.880  0.00  0.00    -0.118 C 
ATOM      3  H   LIG d   1       1.555   0.617  -5.695  0.00  0.00     0.123 H 
ENDROOT
BRANCH   1   4
ATOM      4  C   LIG d   1       3.958  -0.134  -2.921  0.00  0.00     0.076 C 
ATOM      5  H   LIG d   1       3.628  -1.034  -2.383  0.00  0.00     0.060 H 
ATOM      6  H   LIG d   1       3.993   0.717  -2.225  0.00  0.00     0.060 H 
BRANCH   4   7
ATOM      7  N   LIG d   1       5.294  -0.361  -3.481  0.00  0.00    -0.293 N 
ATOM      8  C   LIG d   1       6.215   0.620  -3.445  0.00  0.00     0.216 C 
ATOM      9  O   LIG d   1       5.940   1.694  -2.951  0.00  0.00    -0.276 OA
BRANCH   7  10
ATOM     10  C   LIG d   1       5.625  -1.657  -4.078  0.00  0.00     0.004 C 
ATOM     11  H   LIG d   1       4.774  -2.344  -3.959  0.00  0.00     0.043 H 
ATOM     12  H   LIG d   1       6.509  -2.078  -3.575  0.00  0.00     0.043 H 
ATOM     13  H   LIG d   1       5.841  -1.523  -5.149  0.00  0.00     0.043 H 
ENDBRANCH   7  10
BRANCH   8  14
ATOM     14  C   LIG d   1       7.587   0.389  -4.026  0.00  0.00     0.028 C 
ATOM     15  H   LIG d   1       8.329   0.366  -3.214  0.00  0.00     0.036 H 
ATOM     16  H   LIG d   1       7.601  -0.571  -4.562  0.00  0.00     0.036 H 
BRANCH  14  17
ATOM     17  C   LIG d   1       7.927   1.521  -4.997  0.00  0.00    -0.020 C 
ATOM     18  H   LIG d   1       7.271   2.381  -4.797  0.00  0.00     0.031 H 
ATOM     19  C   LIG d   1       9.390   1.934  -4.809  0.00  0.00     0.008 C 
ATOM     20  C   LIG d   1      10.297   0.746  -5.141  0.00  0.00    -0.030 C 
ATOM     21  H   LIG d   1       9.625   2.776  -5.476  0.00  0.00     0.036 H 
ATOM     22  N   LIG d   1      10.064   0.324  -6.527  0.00  0.00     0.227 N 
ATOM     23  H   LIG d   1      10.072  -0.088  -4.460  0.00  0.00     0.082 H 
ATOM     24  H   LIG d   1      11.349   1.045  -5.020  0.00  0.00     0.082 H 
ATOM     25  C   LIG d   1       8.678  -0.122  -6.721  0.00  0.00    -0.033 C 
ATOM     26  H   LIG d   1      10.752  -0.502  -6.762  0.00  0.00     0.201 HD
ATOM     27  H   LIG d   1      10.272   1.174  -7.193  0.00  0.00     0.201 HD
ATOM     28  C   LIG d   1       7.723   1.039  -6.436  0.00  0.00    -0.009 C 
ATOM     29  H   LIG d   1       8.461  -0.952  -6.033  0.00  0.00     0.081 H 
ATOM     30  H   LIG d   1       8.544  -0.462  -7.758  0.00  0.00     0.081 H 
ATOM     31  H   LIG d   1       6.684   0.701  -6.565  0.00  0.00     0.032 H 
ATOM     32  H   LIG d   1       7.929   1.865  -7.132  0.00  0.00     0.032 H 
BRANCH  19  33
ATOM     33  C   LIG d   1       9.617   2.360  -3.357  0.00  0.00     0.001 C 
ATOM     34  H   LIG d   1       8.727   2.113  -2.759  0.00  0.00     0.033 H 
ATOM     35  H   LIG d   1      10.490   1.828  -2.951  0.00  0.00     0.033 H 
BRANCH  33  36
ATOM     36  C   LIG d   1       9.864   3.846  -3.302  0.00  0.00     0.084 A 
ATOM     37  N   LIG d   1       9.456   4.735  -4.160  0.00  0.00    -0.083 NA
ATOM     38  O   LIG d   1       9.807   5.849  -3.846  0.00  0.00    -0.358 OA
ATOM     39  C   LIG d   1      10.521   5.840  -2.712  0.00  0.00     0.151 A 
ATOM     40  C   LIG d   1      10.589   4.548  -2.312  0.00  0.00     0.005 A 
ATOM     41  H   LIG d   1      11.081   4.147  -1.438  0.00  0.00     0.067 H 
BRANCH  39  42
ATOM     42  C   LIG d   1      11.128   7.032  -2.018  0.00  0.00     0.060 C 
ATOM     43  H   LIG d   1      11.339   6.777  -0.968  0.00  0.00     0.051 H 
ATOM     44  H   LIG d   1      12.065   7.312  -2.521  0.00  0.00     0.051 H 
BRANCH  42  45
ATOM     45  N   LIG d   1      10.188   8.160  -2.068  0.00  0.00    -0.291 N 
ATOM     46  C   LIG d   1       9.784   8.570  -0.716  0.00  0.00     0.023 C 
ATOM     47  C   LIG d   1       8.762   9.705  -0.817  0.00  0.00     0.060 C 
ATOM     48  H   LIG d   1       9.333   7.713  -0.193  0.00  0.00     0.045 H 
ATOM     49  H   LIG d   1      10.666   8.917  -0.159  0.00  0.00     0.045 H 
ATOM     50  O   LIG d   1       9.328  10.785  -1.564  0.00  0.00    -0.377 OA
ATOM     51  H   LIG d   1       8.498  10.055   0.192  0.00  0.00     0.057 H 
ATOM     52  H   LIG d   1       7.857   9.342  -1.327  0.00  0.00     0.057 H 
ATOM     53  C   LIG d   1       9.733  10.421  -2.886  0.00  0.00     0.060 C 
ATOM     54  C   LIG d   1      10.765   9.293  -2.806  0.00  0.00     0.023 C 
ATOM     55  H   LIG d   1      10.180  11.292  -3.388  0.00  0.00     0.057 H 
ATOM     56  H   LIG d   1       8.858  10.078  -3.457  0.00  0.00     0.057 H 
ATOM     57  H   LIG d   1      11.663   9.652  -2.283  0.00  0.00     0.045 H 
ATOM     58  H   LIG d   1      11.037   8.969  -3.821  0.00  0.00     0.045 H 
ENDBRANCH  42  45
ENDBRANCH  39  42
ENDBRANCH  33  36
ENDBRANCH  19  33
ENDBRANCH  14  17
ENDBRANCH   8  14
ENDBRANCH   4   7
ENDBRANCH   1   4
TORSDOF 9
ENDMDL
MODEL 9
REMARK VINA RESULT:      -5.4      5.862      8.354
REMARK  9 active torsions:
REMARK  status: ('A' for Active; 'I' for Inactive)
REMARK    1  A    between atoms: C_1  and  N_2 
REMARK    2  A    between atoms: N_2  and  C_3 
REMARK       I    between atoms: N_2  and  C_6 
REMARK    3  A    between atoms: C_3  and  C_4 
REMARK    4  A    between atoms: C_6  and  C_8 
REMARK    5  A    between atoms: C_8  and  C_9 
REMARK    6  A    between atoms: C_15  and  C_17 
REMARK    7  A    between atoms: C_17  and  C_18 
REMARK    8  A    between atoms: C_20  and  C_23 
REMARK    9  A    between atoms: C_23  and  N_24 
ROOT
ATOM      1  C   LIG d   1      10.440   6.022  -9.546  0.00  0.00    -0.086 C 
ATOM      2  C   LIG d   1      11.310   6.290 -10.287  0.00  0.00    -0.118 C 
ATOM      3  H   LIG d   1      12.124   6.542 -10.982  0.00  0.00     0.123 H 
ENDROOT
BRANCH   1   4
ATOM      4  C   LIG d   1       9.350   5.685  -8.616  0.00  0.00     0.076 C 
ATOM      5  H   LIG d   1       8.578   5.111  -9.148  0.00  0.00     0.060 H 
ATOM      6  H   LIG d   1       8.909   6.610  -8.217  0.00  0.00     0.060 H 
BRANCH   4   7
ATOM      7  N   LIG d   1       9.881   4.883  -7.511  0.00  0.00    -0.293 N 
ATOM      8  C   LIG d   1       9.942   5.401  -6.270  0.00  0.00     0.216 C 
ATOM      9  O   LIG d   1       9.558   6.534  -6.066  0.00  0.00    -0.276 OA
BRANCH   7  10
ATOM     10  C   LIG d   1      10.345   3.515  -7.757  0.00  0.00     0.004 C 
ATOM     11  H   LIG d   1      10.874   3.475  -8.721  0.00  0.00     0.043 H 
ATOM     12  H   LIG d   1       9.482   2.833  -7.785  0.00  0.00     0.043 H 
ATOM     13  H   LIG d   1      11.029   3.208  -6.951  0.00  0.00     0.043 H 
ENDBRANCH   7  10
BRANCH   8  14
ATOM     14  C   LIG d   1      10.494   4.578  -5.134  0.00  0.00     0.028 C 
ATOM     15  H   LIG d   1      10.742   3.570  -5.499  0.00  0.00     0.036 H 
ATOM     16  H   LIG d   1      11.403   5.058  -4.741  0.00  0.00     0.036 H 
BRANCH  14  17
ATOM     17  C   LIG d   1       9.448   4.477  -4.022  0.00  0.00    -0.020 C 
ATOM     18  H   LIG d   1       8.464   4.760  -4.422  0.00  0.00     0.031 H 
ATOM     19  C   LIG d   1       9.397   3.038  -3.498  0.00  0.00     0.008 C 
ATOM     20  C   LIG d   1      10.756   2.671  -2.895  0.00  0.00    -0.030 C 
ATOM     21  H   LIG d   1       8.617   2.953  -2.729  0.00  0.00     0.036 H 
ATOM     22  N   LIG d   1      11.073   3.598  -1.802  0.00  0.00     0.227 N 
ATOM     23  H   LIG d   1      11.532   2.740  -3.672  0.00  0.00     0.082 H 
ATOM     24  H   LIG d   1      10.717   1.644  -2.505  0.00  0.00     0.082 H 
ATOM     25  C   LIG d   1      11.174   4.980  -2.290  0.00  0.00    -0.033 C 
ATOM     26  H   LIG d   1      12.031   3.296  -1.353  0.00  0.00     0.201 HD
ATOM     27  H   LIG d   1      10.278   3.534  -1.045  0.00  0.00     0.201 HD
ATOM     28  C   LIG d   1       9.829   5.416  -2.874  0.00  0.00    -0.009 C 
ATOM     29  H   LIG d   1      11.948   5.037  -3.068  0.00  0.00     0.081 H 
ATOM     30  H   LIG d   1      11.444   5.644  -1.455  0.00  0.00     0.081 H 
ATOM     31  H   LIG d   1       9.909   6.445  -3.254  0.00  0.00     0.032 H 
ATOM     32  H   LIG d   1       9.056   5.372  -2.093  0.00  0.00     0.032 H 
BRANCH  19  33
ATOM     33  C   LIG d   1       9.077   2.086  -4.652  0.00  0.00     0.001 C 
ATOM     34  H   LIG d   1       9.027   2.654  -5.594  0.00  0.00     0.033 H 
ATOM     35  H   LIG d   1       9.864   1.322  -4.726  0.00  0.00     0.033 H 
BRANCH  33  36
ATOM     36  C   LIG d   1       7.750   1.418  -4.398  0.00  0.00     0.084 A 
ATOM     37  N   LIG d   1       6.883   1.730  -3.479  0.00  0.00    -0.083 NA
ATOM     38  O   LIG d   1       5.909   1.016  -3.525  0.00  0.00    -0.358 OA
ATOM     39  C   LIG d   1       6.011   0.104  -4.503  0.00  0.00     0.151 A 
ATOM     40  C   LIG d   1       7.202   0.325  -5.108  0.00  0.00     0.005 A 
ATOM     41  H   LIG d   1       7.634  -0.211  -5.942  0.00  0.00     0.067 H 
BRANCH  39  42
ATOM     42  C   LIG d   1       5.000  -0.954  -4.859  0.00  0.00     0.060 C 
ATOM     43  H   LIG d   1       5.466  -1.948  -4.779  0.00  0.00     0.051 H 
ATOM     44  H   LIG d   1       4.146  -0.894  -4.168  0.00  0.00     0.051 H 
BRANCH  42  45
ATOM     45  N   LIG d   1       4.533  -0.742  -6.236  0.00  0.00    -0.291 N 
ATOM     46  C   LIG d   1       4.439  -2.016  -6.962  0.00  0.00     0.023 C 
ATOM     47  C   LIG d   1       4.007  -1.744  -8.405  0.00  0.00     0.060 C 
ATOM     48  H   LIG d   1       5.420  -2.513  -6.958  0.00  0.00     0.045 H 
ATOM     49  H   LIG d   1       3.698  -2.665  -6.472  0.00  0.00     0.045 H 
ATOM     50  O   LIG d   1       2.767  -1.031  -8.400  0.00  0.00    -0.377 OA
ATOM     51  H   LIG d   1       3.878  -2.698  -8.939  0.00  0.00     0.057 H 
ATOM     52  H   LIG d   1       4.775  -1.141  -8.912  0.00  0.00     0.057 H 
ATOM     53  C   LIG d   1       2.823   0.216  -7.701  0.00  0.00     0.060 C 
ATOM     54  C   LIG d   1       3.243  -0.037  -6.250  0.00  0.00     0.023 C 
ATOM     55  H   LIG d   1       1.832   0.693  -7.718  0.00  0.00     0.057 H 
ATOM     56  H   LIG d   1       3.556   0.877  -8.186  0.00  0.00     0.057 H 
ATOM     57  H   LIG d   1       2.482  -0.653  -5.749  0.00  0.00     0.045 H 
ATOM     58  H   LIG d   1       3.344   0.923  -5.724  0.00  0.00     0.045 H 
ENDBRANCH  42  45
ENDBRANCH  39  42
ENDBRANCH  33  36
ENDBRANCH  19  33
ENDBRANCH  14  17
ENDBRANCH   8  14
ENDBRANCH   4   7
ENDBRANCH   1   4
TORSDOF 9
ENDMDL
