MODEL 1
REMARK VINA RESULT:      -6.9      0.000      0.000
REMARK  12 active torsions:
REMARK  status: ('A' for Active; 'I' for Inactive)
REMARK    1  A    between atoms: C_1  and  C_2 
REMARK    2  A    between atoms: C_6  and  O_9 
REMARK    3  A    between atoms: C_7  and  C_8 
REMARK    4  A    between atoms: O_9  and  C_10 
REMARK    5  A    between atoms: C_10  and  C_12 
REMARK    6  A    between atoms: C_12  and  C_13 
REMARK    7  A    between atoms: C_13  and  C_14 
REMARK    8  A    between atoms: C_14  and  C_15 
REMARK    9  A    between atoms: C_15  and  C_16 
REMARK   10  A    between atoms: C_16  and  C_17 
REMARK   11  A    between atoms: C_17  and  C_18 
REMARK   12  A    between atoms: C_18  and  C_19 
ROOT
ATOM      1  C   LIG d   1       5.581  -6.001  -7.272  0.00  0.00     0.410 C 
ATOM      2  F   LIG d   1       6.950  -6.134  -7.532  0.00  0.00    -0.186 F 
ATOM      3  F   LIG d   1       5.001  -5.175  -8.241  0.00  0.00    -0.186 F 
ENDROOT
BRANCH   1   4
ATOM      4  C   LIG d   1       4.928  -7.359  -7.313  0.00  0.00     0.389 C 
ATOM      5  O   LIG d   1       3.797  -7.473  -7.723  0.00  0.00    -0.243 OA
BRANCH   4   6
ATOM      6  O   LIG d   1       5.603  -8.440  -6.893  0.00  0.00    -0.421 OA
BRANCH   6   7
ATOM      7  C   LIG d   1       4.979  -9.288  -6.033  0.00  0.00     0.135 A 
ATOM      8  C   LIG d   1       4.812  -8.929  -4.702  0.00  0.00    -0.019 A 
ATOM      9  C   LIG d   1       4.177  -9.792  -3.830  0.00  0.00    -0.058 A 
ATOM     10  H   LIG d   1       5.179  -7.976  -4.350  0.00  0.00     0.065 H 
ATOM     11  C   LIG d   1       3.708 -11.011  -4.282  0.00  0.00    -0.058 A 
ATOM     12  H   LIG d   1       4.048  -9.513  -2.794  0.00  0.00     0.062 H 
ATOM     13  C   LIG d   1       3.873 -11.371  -5.607  0.00  0.00    -0.044 A 
ATOM     14  H   LIG d   1       3.211 -11.684  -3.598  0.00  0.00     0.062 H 
ATOM     15  C   LIG d   1       4.511 -10.515  -6.482  0.00  0.00    -0.005 A 
BRANCH  13  16
ATOM     16  C   LIG d   1       3.359 -12.700  -6.095  0.00  0.00    -0.039 C 
ATOM     17  H   LIG d   1       2.287 -12.630  -6.282  0.00  0.00     0.028 H 
ATOM     18  H   LIG d   1       3.871 -12.970  -7.019  0.00  0.00     0.028 H 
ATOM     19  H   LIG d   1       3.547 -13.463  -5.340  0.00  0.00     0.028 H 
ENDBRANCH  13  16
BRANCH  15  20
ATOM     20  C   LIG d   1       4.697 -10.910  -7.924  0.00  0.00    -0.036 C 
ATOM     21  H   LIG d   1       5.661 -11.405  -8.043  0.00  0.00     0.028 H 
ATOM     22  H   LIG d   1       3.899 -11.591  -8.219  0.00  0.00     0.028 H 
ATOM     23  H   LIG d   1       4.666 -10.020  -8.552  0.00  0.00     0.028 H 
ENDBRANCH  15  20
ENDBRANCH   6   7
ENDBRANCH   4   6
ENDBRANCH   1   4
BRANCH   1  24
ATOM     24  C   LIG d   1       5.382  -5.380  -5.888  0.00  0.00     0.389 C 
ATOM     25  F   LIG d   1       4.164  -5.811  -5.354  0.00  0.00    -0.192 F 
ATOM     26  F   LIG d   1       6.427  -5.777  -5.045  0.00  0.00    -0.192 F 
BRANCH  24  27
ATOM     27  C   LIG d   1       5.376  -3.855  -6.009  0.00  0.00     0.384 C 
ATOM     28  F   LIG d   1       6.542  -3.433  -6.656  0.00  0.00    -0.192 F 
ATOM     29  F   LIG d   1       4.260  -3.451  -6.749  0.00  0.00    -0.192 F 
BRANCH  27  30
ATOM     30  C   LIG d   1       5.314  -3.233  -4.612  0.00  0.00     0.384 C 
ATOM     31  F   LIG d   1       4.429  -3.967  -3.814  0.00  0.00    -0.192 F 
ATOM     32  F   LIG d   1       6.588  -3.254  -4.035  0.00  0.00    -0.192 F 
BRANCH  30  33
ATOM     33  C   LIG d   1       4.825  -1.787  -4.720  0.00  0.00     0.384 C 
ATOM     34  F   LIG d   1       5.645  -1.083  -5.607  0.00  0.00    -0.192 F 
ATOM     35  F   LIG d   1       3.508  -1.773  -5.190  0.00  0.00    -0.192 F 
BRANCH  33  36
ATOM     36  C   LIG d   1       4.881  -1.127  -3.341  0.00  0.00     0.387 C 
ATOM     37  F   LIG d   1       4.667  -2.093  -2.352  0.00  0.00    -0.192 F 
ATOM     38  F   LIG d   1       6.136  -0.539  -3.155  0.00  0.00    -0.192 F 
BRANCH  36  39
ATOM     39  C   LIG d   1       3.795  -0.052  -3.245  0.00  0.00     0.409 C 
ATOM     40  F   LIG d   1       3.619   0.545  -4.499  0.00  0.00    -0.189 F 
ATOM     41  F   LIG d   1       2.594  -0.639  -2.835  0.00  0.00    -0.189 F 
BRANCH  39  42
ATOM     42  C   LIG d   1       4.218   1.011  -2.229  0.00  0.00     0.460 C 
ATOM     43  F   LIG d   1       4.638   0.386  -1.049  0.00  0.00    -0.165 F 
ATOM     44  F   LIG d   1       5.270   1.767  -2.757  0.00  0.00    -0.165 F 
ATOM     45  F   LIG d   1       3.134   1.850  -1.954  0.00  0.00    -0.165 F 
ENDBRANCH  39  42
ENDBRANCH  36  39
ENDBRANCH  33  36
ENDBRANCH  30  33
ENDBRANCH  27  30
ENDBRANCH  24  27
ENDBRANCH   1  24
TORSDOF 12
ENDMDL
MODEL 2
REMARK VINA RESULT:      -6.9      6.550      9.543
REMARK  12 active torsions:
REMARK  status: ('A' for Active; 'I' for Inactive)
REMARK    1  A    between atoms: C_1  and  C_2 
REMARK    2  A    between atoms: C_6  and  O_9 
REMARK    3  A    between atoms: C_7  and  C_8 
REMARK    4  A    between atoms: O_9  and  C_10 
REMARK    5  A    between atoms: C_10  and  C_12 
REMARK    6  A    between atoms: C_12  and  C_13 
REMARK    7  A    between atoms: C_13  and  C_14 
REMARK    8  A    between atoms: C_14  and  C_15 
REMARK    9  A    between atoms: C_15  and  C_16 
REMARK   10  A    between atoms: C_16  and  C_17 
REMARK   11  A    between atoms: C_17  and  C_18 
REMARK   12  A    between atoms: C_18  and  C_19 
ROOT
ATOM      1  C   LIG d   1       9.024   1.099  -5.690  0.00  0.00     0.410 C 
ATOM      2  F   LIG d   1      10.060   0.471  -4.990  0.00  0.00    -0.186 F 
ATOM      3  F   LIG d   1       9.118   0.780  -7.049  0.00  0.00    -0.186 F 
ENDROOT
BRANCH   1   4
ATOM      4  C   LIG d   1       7.697   0.627  -5.153  0.00  0.00     0.389 C 
ATOM      5  O   LIG d   1       6.720   0.636  -5.864  0.00  0.00    -0.243 OA
BRANCH   4   6
ATOM      6  O   LIG d   1       7.602   0.195  -3.886  0.00  0.00    -0.421 OA
BRANCH   6   7
ATOM      7  C   LIG d   1       6.371   0.174  -3.310  0.00  0.00     0.135 A 
ATOM      8  C   LIG d   1       5.771   1.359  -2.909  0.00  0.00    -0.019 A 
ATOM      9  C   LIG d   1       4.519   1.335  -2.324  0.00  0.00    -0.058 A 
ATOM     10  H   LIG d   1       6.282   2.299  -3.053  0.00  0.00     0.065 H 
ATOM     11  C   LIG d   1       3.865   0.131  -2.140  0.00  0.00    -0.058 A 
ATOM     12  H   LIG d   1       4.052   2.258  -2.011  0.00  0.00     0.062 H 
ATOM     13  C   LIG d   1       4.460  -1.051  -2.539  0.00  0.00    -0.044 A 
ATOM     14  H   LIG d   1       2.885   0.115  -1.683  0.00  0.00     0.062 H 
ATOM     15  C   LIG d   1       5.713  -1.033  -3.119  0.00  0.00    -0.005 A 
BRANCH  13  16
ATOM     16  C   LIG d   1       3.743  -2.360  -2.337  0.00  0.00    -0.039 C 
ATOM     17  H   LIG d   1       2.676  -2.221  -2.510  0.00  0.00     0.028 H 
ATOM     18  H   LIG d   1       4.131  -3.099  -3.039  0.00  0.00     0.028 H 
ATOM     19  H   LIG d   1       3.903  -2.709  -1.317  0.00  0.00     0.028 H 
ENDBRANCH  13  16
BRANCH  15  20
ATOM     20  C   LIG d   1       6.364  -2.323  -3.548  0.00  0.00    -0.036 C 
ATOM     21  H   LIG d   1       6.710  -2.230  -4.578  0.00  0.00     0.028 H 
ATOM     22  H   LIG d   1       7.213  -2.534  -2.898  0.00  0.00     0.028 H 
ATOM     23  H   LIG d   1       5.642  -3.135  -3.479  0.00  0.00     0.028 H 
ENDBRANCH  15  20
ENDBRANCH   6   7
ENDBRANCH   4   6
ENDBRANCH   1   4
BRANCH   1  24
ATOM     24  C   LIG d   1       9.135   2.615  -5.514  0.00  0.00     0.389 C 
ATOM     25  F   LIG d   1       9.051   3.237  -6.765  0.00  0.00    -0.192 F 
ATOM     26  F   LIG d   1       8.092   3.067  -4.698  0.00  0.00    -0.192 F 
BRANCH  24  27
ATOM     27  C   LIG d   1      10.477   2.957  -4.863  0.00  0.00     0.384 C 
ATOM     28  F   LIG d   1      10.561   2.334  -3.614  0.00  0.00    -0.192 F 
ATOM     29  F   LIG d   1      11.519   2.505  -5.681  0.00  0.00    -0.192 F 
BRANCH  27  30
ATOM     30  C   LIG d   1      10.587   4.472  -4.687  0.00  0.00     0.384 C 
ATOM     31  F   LIG d   1      11.801   4.918  -5.222  0.00  0.00    -0.192 F 
ATOM     32  F   LIG d   1       9.527   5.098  -5.352  0.00  0.00    -0.192 F 
BRANCH  30  33
ATOM     33  C   LIG d   1      10.529   4.817  -3.197  0.00  0.00     0.384 C 
ATOM     34  F   LIG d   1       9.493   4.097  -2.592  0.00  0.00    -0.192 F 
ATOM     35  F   LIG d   1      11.745   4.482  -2.593  0.00  0.00    -0.192 F 
BRANCH  33  36
ATOM     36  C   LIG d   1      10.273   6.316  -3.030  0.00  0.00     0.387 C 
ATOM     37  F   LIG d   1      11.121   7.031  -3.881  0.00  0.00    -0.192 F 
ATOM     38  F   LIG d   1       8.941   6.600  -3.352  0.00  0.00    -0.192 F 
BRANCH  36  39
ATOM     39  C   LIG d   1      10.545   6.722  -1.580  0.00  0.00     0.409 C 
ATOM     40  F   LIG d   1      10.131   5.695  -0.723  0.00  0.00    -0.189 F 
ATOM     41  F   LIG d   1      11.915   6.949  -1.409  0.00  0.00    -0.189 F 
BRANCH  39  42
ATOM     42  C   LIG d   1       9.770   8.000  -1.255  0.00  0.00     0.460 C 
ATOM     43  F   LIG d   1       9.930   8.920  -2.297  0.00  0.00    -0.165 F 
ATOM     44  F   LIG d   1       8.412   7.697  -1.104  0.00  0.00    -0.165 F 
ATOM     45  F   LIG d   1      10.258   8.552  -0.065  0.00  0.00    -0.165 F 
ENDBRANCH  39  42
ENDBRANCH  36  39
ENDBRANCH  33  36
ENDBRANCH  30  33
ENDBRANCH  27  30
ENDBRANCH  24  27
ENDBRANCH   1  24
TORSDOF 12
ENDMDL
MODEL 3
REMARK VINA RESULT:      -6.8      5.477      7.058
REMARK  12 active torsions:
REMARK  status: ('A' for Active; 'I' for Inactive)
REMARK    1  A    between atoms: C_1  and  C_2 
REMARK    2  A    between atoms: C_6  and  O_9 
REMARK    3  A    between atoms: C_7  and  C_8 
REMARK    4  A    between atoms: O_9  and  C_10 
REMARK    5  A    between atoms: C_10  and  C_12 
REMARK    6  A    between atoms: C_12  and  C_13 
REMARK    7  A    between atoms: C_13  and  C_14 
REMARK    8  A    between atoms: C_14  and  C_15 
REMARK    9  A    between atoms: C_15  and  C_16 
REMARK   10  A    between atoms: C_16  and  C_17 
REMARK   11  A    between atoms: C_17  and  C_18 
REMARK   12  A    between atoms: C_18  and  C_19 
ROOT
ATOM      1  C   LIG d   1       7.855  -0.151  -8.742  0.00  0.00     0.410 C 
ATOM      2  F   LIG d   1       7.304  -1.334  -9.248  0.00  0.00    -0.186 F 
ATOM      3  F   LIG d   1       9.248  -0.199  -8.859  0.00  0.00    -0.186 F 
ENDROOT
BRANCH   1   4
ATOM      4  C   LIG d   1       7.324   1.024  -9.522  0.00  0.00     0.389 C 
ATOM      5  O   LIG d   1       7.833   2.113  -9.395  0.00  0.00    -0.243 OA
BRANCH   4   6
ATOM      6  O   LIG d   1       6.287   0.861 -10.358  0.00  0.00    -0.421 OA
BRANCH   6   7
ATOM      7  C   LIG d   1       5.038   1.100  -9.879  0.00  0.00     0.135 A 
ATOM      8  C   LIG d   1       4.740   2.325  -9.297  0.00  0.00    -0.019 A 
ATOM      9  C   LIG d   1       3.469   2.566  -8.812  0.00  0.00    -0.058 A 
ATOM     10  H   LIG d   1       5.501   3.087  -9.225  0.00  0.00     0.065 H 
ATOM     11  C   LIG d   1       2.495   1.589  -8.905  0.00  0.00    -0.058 A 
ATOM     12  H   LIG d   1       3.237   3.519  -8.358  0.00  0.00     0.062 H 
ATOM     13  C   LIG d   1       2.790   0.369  -9.484  0.00  0.00    -0.044 A 
ATOM     14  H   LIG d   1       1.502   1.781  -8.525  0.00  0.00     0.062 H 
ATOM     15  C   LIG d   1       4.059   0.120  -9.967  0.00  0.00    -0.005 A 
BRANCH  13  16
ATOM     16  C   LIG d   1       1.725  -0.693  -9.585  0.00  0.00    -0.039 C 
ATOM     17  H   LIG d   1       1.245  -0.819  -8.615  0.00  0.00     0.028 H 
ATOM     18  H   LIG d   1       0.981  -0.392 -10.322  0.00  0.00     0.028 H 
ATOM     19  H   LIG d   1       2.179  -1.635  -9.892  0.00  0.00     0.028 H 
ENDBRANCH  13  16
BRANCH  15  20
ATOM     20  C   LIG d   1       4.381  -1.213 -10.592  0.00  0.00    -0.036 C 
ATOM     21  H   LIG d   1       4.289  -1.997  -9.841  0.00  0.00     0.028 H 
ATOM     22  H   LIG d   1       3.687  -1.408 -11.409  0.00  0.00     0.028 H 
ATOM     23  H   LIG d   1       5.400  -1.197 -10.977  0.00  0.00     0.028 H 
ENDBRANCH  15  20
ENDBRANCH   6   7
ENDBRANCH   4   6
ENDBRANCH   1   4
BRANCH   1  24
ATOM     24  C   LIG d   1       7.473   0.000  -7.268  0.00  0.00     0.389 C 
ATOM     25  F   LIG d   1       8.630   0.179  -6.502  0.00  0.00    -0.192 F 
ATOM     26  F   LIG d   1       6.637   1.112  -7.115  0.00  0.00    -0.192 F 
BRANCH  24  27
ATOM     27  C   LIG d   1       6.739  -1.258  -6.799  0.00  0.00     0.384 C 
ATOM     28  F   LIG d   1       5.516  -1.361  -7.468  0.00  0.00    -0.192 F 
ATOM     29  F   LIG d   1       7.521  -2.384  -7.079  0.00  0.00    -0.192 F 
BRANCH  27  30
ATOM     30  C   LIG d   1       6.491  -1.171  -5.292  0.00  0.00     0.384 C 
ATOM     31  F   LIG d   1       7.066  -2.279  -4.660  0.00  0.00    -0.192 F 
ATOM     32  F   LIG d   1       7.067   0.001  -4.791  0.00  0.00    -0.192 F 
BRANCH  30  33
ATOM     33  C   LIG d   1       4.985  -1.156  -5.024  0.00  0.00     0.384 C 
ATOM     34  F   LIG d   1       4.434   0.026  -5.531  0.00  0.00    -0.192 F 
ATOM     35  F   LIG d   1       4.388  -2.256  -5.649  0.00  0.00    -0.192 F 
BRANCH  33  36
ATOM     36  C   LIG d   1       4.735  -1.229  -3.516  0.00  0.00     0.387 C 
ATOM     37  F   LIG d   1       4.407  -2.540  -3.161  0.00  0.00    -0.192 F 
ATOM     38  F   LIG d   1       5.890  -0.835  -2.832  0.00  0.00    -0.192 F 
BRANCH  36  39
ATOM     39  C   LIG d   1       3.580  -0.295  -3.145  0.00  0.00     0.409 C 
ATOM     40  F   LIG d   1       2.957   0.163  -4.311  0.00  0.00    -0.189 F 
ATOM     41  F   LIG d   1       2.652  -0.992  -2.363  0.00  0.00    -0.189 F 
BRANCH  39  42
ATOM     42  C   LIG d   1       4.122   0.897  -2.354  0.00  0.00     0.460 C 
ATOM     43  F   LIG d   1       5.135   1.522  -3.088  0.00  0.00    -0.165 F 
ATOM     44  F   LIG d   1       3.087   1.808  -2.116  0.00  0.00    -0.165 F 
ATOM     45  F   LIG d   1       4.637   0.450  -1.132  0.00  0.00    -0.165 F 
ENDBRANCH  39  42
ENDBRANCH  36  39
ENDBRANCH  33  36
ENDBRANCH  30  33
ENDBRANCH  27  30
ENDBRANCH  24  27
ENDBRANCH   1  24
TORSDOF 12
ENDMDL
MODEL 4
REMARK VINA RESULT:      -6.7      3.596      5.681
REMARK  12 active torsions:
REMARK  status: ('A' for Active; 'I' for Inactive)
REMARK    1  A    between atoms: C_1  and  C_2 
REMARK    2  A    between atoms: C_6  and  O_9 
REMARK    3  A    between atoms: C_7  and  C_8 
REMARK    4  A    between atoms: O_9  and  C_10 
REMARK    5  A    between atoms: C_10  and  C_12 
REMARK    6  A    between atoms: C_12  and  C_13 
REMARK    7  A    between atoms: C_13  and  C_14 
REMARK    8  A    between atoms: C_14  and  C_15 
REMARK    9  A    between atoms: C_15  and  C_16 
REMARK   10  A    between atoms: C_16  and  C_17 
REMARK   11  A    between atoms: C_17  and  C_18 
REMARK   12  A    between atoms: C_18  and  C_19 
ROOT
ATOM      1  C   LIG d   1       5.798  -4.189  -7.851  0.00  0.00     0.410 C 
ATOM      2  F   LIG d   1       5.876  -5.418  -7.184  0.00  0.00    -0.186 F 
ATOM      3  F   LIG d   1       6.823  -4.108  -8.799  0.00  0.00    -0.186 F 
ENDROOT
BRANCH   1   4
ATOM      4  C   LIG d   1       4.464  -4.076  -8.541  0.00  0.00     0.389 C 
ATOM      5  O   LIG d   1       3.468  -4.500  -8.003  0.00  0.00    -0.243 OA
BRANCH   4   6
ATOM      6  O   LIG d   1       4.382  -3.505  -9.753  0.00  0.00    -0.421 OA
BRANCH   6   7
ATOM      7  C   LIG d   1       3.649  -2.366  -9.873  0.00  0.00     0.135 A 
ATOM      8  C   LIG d   1       2.267  -2.413  -9.755  0.00  0.00    -0.019 A 
ATOM      9  C   LIG d   1       1.526  -1.254  -9.876  0.00  0.00    -0.058 A 
ATOM     10  H   LIG d   1       1.773  -3.354  -9.568  0.00  0.00     0.065 H 
ATOM     11  C   LIG d   1       2.159  -0.048 -10.115  0.00  0.00    -0.058 A 
ATOM     12  H   LIG d   1       0.449  -1.290  -9.785  0.00  0.00     0.062 H 
ATOM     13  C   LIG d   1       3.536   0.001 -10.233  0.00  0.00    -0.044 A 
ATOM     14  H   LIG d   1       1.576   0.857 -10.210  0.00  0.00     0.062 H 
ATOM     15  C   LIG d   1       4.282  -1.155 -10.117  0.00  0.00    -0.005 A 
BRANCH  13  16
ATOM     16  C   LIG d   1       4.222   1.317 -10.493  0.00  0.00    -0.039 C 
ATOM     17  H   LIG d   1       5.096   1.153 -11.124  0.00  0.00     0.028 H 
ATOM     18  H   LIG d   1       3.532   1.994 -10.996  0.00  0.00     0.028 H 
ATOM     19  H   LIG d   1       4.535   1.756  -9.546  0.00  0.00     0.028 H 
ENDBRANCH  13  16
BRANCH  15  20
ATOM     20  C   LIG d   1       5.782  -1.102 -10.253  0.00  0.00    -0.036 C 
ATOM     21  H   LIG d   1       6.063  -1.352 -11.276  0.00  0.00     0.028 H 
ATOM     22  H   LIG d   1       6.132  -0.097 -10.015  0.00  0.00     0.028 H 
ATOM     23  H   LIG d   1       6.234  -1.816  -9.567  0.00  0.00     0.028 H 
ENDBRANCH  15  20
ENDBRANCH   6   7
ENDBRANCH   4   6
ENDBRANCH   1   4
BRANCH   1  24
ATOM     24  C   LIG d   1       5.948  -3.050  -6.839  0.00  0.00     0.389 C 
ATOM     25  F   LIG d   1       7.180  -2.415  -7.031  0.00  0.00    -0.192 F 
ATOM     26  F   LIG d   1       4.913  -2.126  -7.022  0.00  0.00    -0.192 F 
BRANCH  24  27
ATOM     27  C   LIG d   1       5.882  -3.617  -5.419  0.00  0.00     0.384 C 
ATOM     28  F   LIG d   1       4.664  -4.279  -5.238  0.00  0.00    -0.192 F 
ATOM     29  F   LIG d   1       6.935  -4.518  -5.228  0.00  0.00    -0.192 F 
BRANCH  27  30
ATOM     30  C   LIG d   1       5.998  -2.474  -4.409  0.00  0.00     0.384 C 
ATOM     31  F   LIG d   1       6.988  -2.780  -3.469  0.00  0.00    -0.192 F 
ATOM     32  F   LIG d   1       6.338  -1.293  -5.077  0.00  0.00    -0.192 F 
BRANCH  30  33
ATOM     33  C   LIG d   1       4.657  -2.288  -3.695  0.00  0.00     0.384 C 
ATOM     34  F   LIG d   1       3.670  -1.971  -4.633  0.00  0.00    -0.192 F 
ATOM     35  F   LIG d   1       4.312  -3.472  -3.035  0.00  0.00    -0.192 F 
BRANCH  33  36
ATOM     36  C   LIG d   1       4.776  -1.153  -2.676  0.00  0.00     0.387 C 
ATOM     37  F   LIG d   1       4.438  -1.629  -1.405  0.00  0.00    -0.192 F 
ATOM     38  F   LIG d   1       6.091  -0.675  -2.661  0.00  0.00    -0.192 F 
BRANCH  36  39
ATOM     39  C   LIG d   1       3.827  -0.017  -3.064  0.00  0.00     0.409 C 
ATOM     40  F   LIG d   1       3.852   0.158  -4.453  0.00  0.00    -0.189 F 
ATOM     41  F   LIG d   1       2.527  -0.338  -2.658  0.00  0.00    -0.189 F 
BRANCH  39  42
ATOM     42  C   LIG d   1       4.271   1.276  -2.379  0.00  0.00     0.460 C 
ATOM     43  F   LIG d   1       5.418   1.769  -3.011  0.00  0.00    -0.165 F 
ATOM     44  F   LIG d   1       3.247   2.226  -2.466  0.00  0.00    -0.165 F 
ATOM     45  F   LIG d   1       4.553   1.018  -1.033  0.00  0.00    -0.165 F 
ENDBRANCH  39  42
ENDBRANCH  36  39
ENDBRANCH  33  36
ENDBRANCH  30  33
ENDBRANCH  27  30
ENDBRANCH  24  27
ENDBRANCH   1  24
TORSDOF 12
ENDMDL
MODEL 5
REMARK VINA RESULT:      -6.7      6.647      9.856
REMARK  12 active torsions:
REMARK  status: ('A' for Active; 'I' for Inactive)
REMARK    1  A    between atoms: C_1  and  C_2 
REMARK    2  A    between atoms: C_6  and  O_9 
REMARK    3  A    between atoms: C_7  and  C_8 
REMARK    4  A    between atoms: O_9  and  C_10 
REMARK    5  A    between atoms: C_10  and  C_12 
REMARK    6  A    between atoms: C_12  and  C_13 
REMARK    7  A    between atoms: C_13  and  C_14 
REMARK    8  A    between atoms: C_14  and  C_15 
REMARK    9  A    between atoms: C_15  and  C_16 
REMARK   10  A    between atoms: C_16  and  C_17 
REMARK   11  A    between atoms: C_17  and  C_18 
REMARK   12  A    between atoms: C_18  and  C_19 
ROOT
ATOM      1  C   LIG d   1       9.016   1.731  -5.414  0.00  0.00     0.410 C 
ATOM      2  F   LIG d   1      10.146   0.911  -5.322  0.00  0.00    -0.186 F 
ATOM      3  F   LIG d   1       8.993   2.355  -6.665  0.00  0.00    -0.186 F 
ENDROOT
BRANCH   1   4
ATOM      4  C   LIG d   1       7.774   0.894  -5.246  0.00  0.00     0.389 C 
ATOM      5  O   LIG d   1       6.872   0.984  -6.046  0.00  0.00    -0.243 OA
BRANCH   4   6
ATOM      6  O   LIG d   1       7.669   0.049  -4.208  0.00  0.00    -0.421 OA
BRANCH   6   7
ATOM      7  C   LIG d   1       6.508   0.047  -3.502  0.00  0.00     0.135 A 
ATOM      8  C   LIG d   1       6.028   1.226  -2.948  0.00  0.00    -0.019 A 
ATOM      9  C   LIG d   1       4.847   1.220  -2.232  0.00  0.00    -0.058 A 
ATOM     10  H   LIG d   1       6.578   2.146  -3.079  0.00  0.00     0.065 H 
ATOM     11  C   LIG d   1       4.143   0.042  -2.066  0.00  0.00    -0.058 A 
ATOM     12  H   LIG d   1       4.474   2.138  -1.800  0.00  0.00     0.062 H 
ATOM     13  C   LIG d   1       4.619  -1.134  -2.616  0.00  0.00    -0.044 A 
ATOM     14  H   LIG d   1       3.220   0.040  -1.505  0.00  0.00     0.062 H 
ATOM     15  C   LIG d   1       5.802  -1.135  -3.329  0.00  0.00    -0.005 A 
BRANCH  13  16
ATOM     16  C   LIG d   1       3.849  -2.416  -2.434  0.00  0.00    -0.039 C 
ATOM     17  H   LIG d   1       2.819  -2.185  -2.161  0.00  0.00     0.028 H 
ATOM     18  H   LIG d   1       3.860  -2.982  -3.366  0.00  0.00     0.028 H 
ATOM     19  H   LIG d   1       4.311  -3.008  -1.644  0.00  0.00     0.028 H 
ENDBRANCH  13  16
BRANCH  15  20
ATOM     20  C   LIG d   1       6.323  -2.419  -3.923  0.00  0.00    -0.036 C 
ATOM     21  H   LIG d   1       6.293  -2.354  -5.011  0.00  0.00     0.028 H 
ATOM     22  H   LIG d   1       7.350  -2.579  -3.596  0.00  0.00     0.028 H 
ATOM     23  H   LIG d   1       5.703  -3.251  -3.592  0.00  0.00     0.028 H 
ENDBRANCH  15  20
ENDBRANCH   6   7
ENDBRANCH   4   6
ENDBRANCH   1   4
BRANCH   1  24
ATOM     24  C   LIG d   1       9.067   2.795  -4.315  0.00  0.00     0.389 C 
ATOM     25  F   LIG d   1       7.797   3.358  -4.151  0.00  0.00    -0.192 F 
ATOM     26  F   LIG d   1       9.473   2.204  -3.113  0.00  0.00    -0.192 F 
BRANCH  24  27
ATOM     27  C   LIG d   1      10.063   3.888  -4.709  0.00  0.00     0.384 C 
ATOM     28  F   LIG d   1      11.232   3.298  -5.201  0.00  0.00    -0.192 F 
ATOM     29  F   LIG d   1       9.498   4.699  -5.699  0.00  0.00    -0.192 F 
BRANCH  27  30
ATOM     30  C   LIG d   1      10.398   4.738  -3.482  0.00  0.00     0.384 C 
ATOM     31  F   LIG d   1       9.641   4.299  -2.390  0.00  0.00    -0.192 F 
ATOM     32  F   LIG d   1      11.759   4.614  -3.185  0.00  0.00    -0.192 F 
BRANCH  30  33
ATOM     33  C   LIG d   1      10.070   6.204  -3.774  0.00  0.00     0.384 C 
ATOM     34  F   LIG d   1      10.988   6.711  -4.699  0.00  0.00    -0.192 F 
ATOM     35  F   LIG d   1       8.777   6.297  -4.299  0.00  0.00    -0.192 F 
BRANCH  33  36
ATOM     36  C   LIG d   1      10.153   7.012  -2.477  0.00  0.00     0.387 C 
ATOM     37  F   LIG d   1       8.917   6.974  -1.824  0.00  0.00    -0.192 F 
ATOM     38  F   LIG d   1      11.137   6.463  -1.648  0.00  0.00    -0.192 F 
BRANCH  36  39
ATOM     39  C   LIG d   1      10.513   8.464  -2.803  0.00  0.00     0.409 C 
ATOM     40  F   LIG d   1      11.870   8.545  -3.134  0.00  0.00    -0.189 F 
ATOM     41  F   LIG d   1       9.741   8.903  -3.884  0.00  0.00    -0.189 F 
BRANCH  39  42
ATOM     42  C   LIG d   1      10.232   9.344  -1.584  0.00  0.00     0.460 C 
ATOM     43  F   LIG d   1       8.890   9.740  -1.594  0.00  0.00    -0.165 F 
ATOM     44  F   LIG d   1      10.496   8.621  -0.416  0.00  0.00    -0.165 F 
ATOM     45  F   LIG d   1      11.054  10.475  -1.626  0.00  0.00    -0.165 F 
ENDBRANCH  39  42
ENDBRANCH  36  39
ENDBRANCH  33  36
ENDBRANCH  30  33
ENDBRANCH  27  30
ENDBRANCH  24  27
ENDBRANCH   1  24
TORSDOF 12
ENDMDL
MODEL 6
REMARK VINA RESULT:      -6.7      5.383      8.448
REMARK  12 active torsions:
REMARK  status: ('A' for Active; 'I' for Inactive)
REMARK    1  A    between atoms: C_1  and  C_2 
REMARK    2  A    between atoms: C_6  and  O_9 
REMARK    3  A    between atoms: C_7  and  C_8 
REMARK    4  A    between atoms: O_9  and  C_10 
REMARK    5  A    between atoms: C_10  and  C_12 
REMARK    6  A    between atoms: C_12  and  C_13 
REMARK    7  A    between atoms: C_13  and  C_14 
REMARK    8  A    between atoms: C_14  and  C_15 
REMARK    9  A    between atoms: C_15  and  C_16 
REMARK   10  A    between atoms: C_16  and  C_17 
REMARK   11  A    between atoms: C_17  and  C_18 
REMARK   12  A    between atoms: C_18  and  C_19 
ROOT
ATOM      1  C   LIG d   1       7.032  -0.296  -7.038  0.00  0.00     0.410 C 
ATOM      2  F   LIG d   1       7.894   0.146  -8.048  0.00  0.00    -0.186 F 
ATOM      3  F   LIG d   1       7.215  -1.668  -6.837  0.00  0.00    -0.186 F 
ENDROOT
BRANCH   1   4
ATOM      4  C   LIG d   1       7.335   0.444  -5.760  0.00  0.00     0.389 C 
ATOM      5  O   LIG d   1       7.496   1.642  -5.780  0.00  0.00    -0.243 OA
BRANCH   4   6
ATOM      6  O   LIG d   1       7.424  -0.227  -4.602  0.00  0.00    -0.421 OA
BRANCH   6   7
ATOM      7  C   LIG d   1       6.387  -0.133  -3.728  0.00  0.00     0.135 A 
ATOM      8  C   LIG d   1       6.091   1.083  -3.128  0.00  0.00    -0.019 A 
ATOM      9  C   LIG d   1       5.036   1.176  -2.242  0.00  0.00    -0.058 A 
ATOM     10  H   LIG d   1       6.686   1.955  -3.355  0.00  0.00     0.065 H 
ATOM     11  C   LIG d   1       4.275   0.059  -1.952  0.00  0.00    -0.058 A 
ATOM     12  H   LIG d   1       4.806   2.122  -1.774  0.00  0.00     0.062 H 
ATOM     13  C   LIG d   1       4.567  -1.154  -2.548  0.00  0.00    -0.044 A 
ATOM     14  H   LIG d   1       3.450   0.134  -1.258  0.00  0.00     0.062 H 
ATOM     15  C   LIG d   1       5.624  -1.254  -3.431  0.00  0.00    -0.005 A 
BRANCH  13  16
ATOM     16  C   LIG d   1       3.735  -2.369  -2.230  0.00  0.00    -0.039 C 
ATOM     17  H   LIG d   1       3.171  -2.665  -3.115  0.00  0.00     0.028 H 
ATOM     18  H   LIG d   1       4.388  -3.187  -1.925  0.00  0.00     0.028 H 
ATOM     19  H   LIG d   1       3.044  -2.135  -1.421  0.00  0.00     0.028 H 
ENDBRANCH  13  16
BRANCH  15  20
ATOM     20  C   LIG d   1       5.946  -2.578  -4.075  0.00  0.00    -0.036 C 
ATOM     21  H   LIG d   1       5.028  -3.036  -4.443  0.00  0.00     0.028 H 
ATOM     22  H   LIG d   1       6.631  -2.419  -4.908  0.00  0.00     0.028 H 
ATOM     23  H   LIG d   1       6.411  -3.235  -3.342  0.00  0.00     0.028 H 
ENDBRANCH  15  20
ENDBRANCH   6   7
ENDBRANCH   4   6
ENDBRANCH   1   4
BRANCH   1  24
ATOM     24  C   LIG d   1       5.583  -0.030  -7.451  0.00  0.00     0.389 C 
ATOM     25  F   LIG d   1       4.760  -0.074  -6.321  0.00  0.00    -0.192 F 
ATOM     26  F   LIG d   1       5.492   1.234  -8.044  0.00  0.00    -0.192 F 
BRANCH  24  27
ATOM     27  C   LIG d   1       5.134  -1.097  -8.452  0.00  0.00     0.384 C 
ATOM     28  F   LIG d   1       6.105  -1.240  -9.448  0.00  0.00    -0.192 F 
ATOM     29  F   LIG d   1       4.963  -2.316  -7.788  0.00  0.00    -0.192 F 
BRANCH  27  30
ATOM     30  C   LIG d   1       3.809  -0.672  -9.089  0.00  0.00     0.384 C 
ATOM     31  F   LIG d   1       2.913  -0.284  -8.086  0.00  0.00    -0.192 F 
ATOM     32  F   LIG d   1       4.031   0.402  -9.956  0.00  0.00    -0.192 F 
BRANCH  30  33
ATOM     33  C   LIG d   1       3.220  -1.848  -9.872  0.00  0.00     0.384 C 
ATOM     34  F   LIG d   1       4.222  -2.436 -10.651  0.00  0.00    -0.192 F 
ATOM     35  F   LIG d   1       2.707  -2.793  -8.979  0.00  0.00    -0.192 F 
BRANCH  33  36
ATOM     36  C   LIG d   1       2.098  -1.343 -10.780  0.00  0.00     0.387 C 
ATOM     37  F   LIG d   1       1.252  -0.501 -10.053  0.00  0.00    -0.192 F 
ATOM     38  F   LIG d   1       2.649  -0.636 -11.855  0.00  0.00    -0.192 F 
BRANCH  36  39
ATOM     39  C   LIG d   1       1.297  -2.534 -11.312  0.00  0.00     0.409 C 
ATOM     40  F   LIG d   1       2.178  -3.528 -11.755  0.00  0.00    -0.189 F 
ATOM     41  F   LIG d   1       0.491  -3.047 -10.290  0.00  0.00    -0.189 F 
BRANCH  39  42
ATOM     42  C   LIG d   1       0.416  -2.078 -12.477  0.00  0.00     0.460 C 
ATOM     43  F   LIG d   1      -0.105  -0.810 -12.197  0.00  0.00    -0.165 F 
ATOM     44  F   LIG d   1       1.183  -2.020 -13.646  0.00  0.00    -0.165 F 
ATOM     45  F   LIG d   1      -0.633  -2.987 -12.652  0.00  0.00    -0.165 F 
ENDBRANCH  39  42
ENDBRANCH  36  39
ENDBRANCH  33  36
ENDBRANCH  30  33
ENDBRANCH  27  30
ENDBRANCH  24  27
ENDBRANCH   1  24
TORSDOF 12
ENDMDL
MODEL 7
REMARK VINA RESULT:      -6.6      5.111      7.676
REMARK  12 active torsions:
REMARK  status: ('A' for Active; 'I' for Inactive)
REMARK    1  A    between atoms: C_1  and  C_2 
REMARK    2  A    between atoms: C_6  and  O_9 
REMARK    3  A    between atoms: C_7  and  C_8 
REMARK    4  A    between atoms: O_9  and  C_10 
REMARK    5  A    between atoms: C_10  and  C_12 
REMARK    6  A    between atoms: C_12  and  C_13 
REMARK    7  A    between atoms: C_13  and  C_14 
REMARK    8  A    between atoms: C_14  and  C_15 
REMARK    9  A    between atoms: C_15  and  C_16 
REMARK   10  A    between atoms: C_16  and  C_17 
REMARK   11  A    between atoms: C_17  and  C_18 
REMARK   12  A    between atoms: C_18  and  C_19 
ROOT
ATOM      1  C   LIG d   1       7.699  -1.803  -5.710  0.00  0.00     0.410 C 
ATOM      2  F   LIG d   1       7.921  -0.425  -5.620  0.00  0.00    -0.186 F 
ATOM      3  F   LIG d   1       8.824  -2.422  -6.264  0.00  0.00    -0.186 F 
ENDROOT
BRANCH   1   4
ATOM      4  C   LIG d   1       7.443  -2.361  -4.334  0.00  0.00     0.389 C 
ATOM      5  O   LIG d   1       7.502  -3.554  -4.145  0.00  0.00    -0.243 OA
BRANCH   4   6
ATOM      6  O   LIG d   1       7.150  -1.534  -3.319  0.00  0.00    -0.421 OA
BRANCH   6   7
ATOM      7  C   LIG d   1       5.841  -1.256  -3.080  0.00  0.00     0.135 A 
ATOM      8  C   LIG d   1       4.935  -2.290  -2.886  0.00  0.00    -0.019 A 
ATOM      9  C   LIG d   1       3.606  -2.005  -2.643  0.00  0.00    -0.058 A 
ATOM     10  H   LIG d   1       5.270  -3.316  -2.926  0.00  0.00     0.065 H 
ATOM     11  C   LIG d   1       3.177  -0.692  -2.592  0.00  0.00    -0.058 A 
ATOM     12  H   LIG d   1       2.900  -2.810  -2.493  0.00  0.00     0.062 H 
ATOM     13  C   LIG d   1       4.077   0.340  -2.784  0.00  0.00    -0.044 A 
ATOM     14  H   LIG d   1       2.136  -0.471  -2.401  0.00  0.00     0.062 H 
ATOM     15  C   LIG d   1       5.407   0.061  -3.033  0.00  0.00    -0.005 A 
BRANCH  13  16
ATOM     16  C   LIG d   1       3.607   1.770  -2.727  0.00  0.00    -0.039 C 
ATOM     17  H   LIG d   1       2.550   1.795  -2.460  0.00  0.00     0.028 H 
ATOM     18  H   LIG d   1       4.184   2.313  -1.978  0.00  0.00     0.028 H 
ATOM     19  H   LIG d   1       3.746   2.238  -3.702  0.00  0.00     0.028 H 
ENDBRANCH  13  16
BRANCH  15  20
ATOM     20  C   LIG d   1       6.386   1.186  -3.250  0.00  0.00    -0.036 C 
ATOM     21  H   LIG d   1       5.964   1.904  -3.952  0.00  0.00     0.028 H 
ATOM     22  H   LIG d   1       6.586   1.681  -2.300  0.00  0.00     0.028 H 
ATOM     23  H   LIG d   1       7.315   0.786  -3.654  0.00  0.00     0.028 H 
ENDBRANCH  15  20
ENDBRANCH   6   7
ENDBRANCH   4   6
ENDBRANCH   1   4
BRANCH   1  24
ATOM     24  C   LIG d   1       6.482  -2.066  -6.602  0.00  0.00     0.389 C 
ATOM     25  F   LIG d   1       6.849  -2.912  -7.654  0.00  0.00    -0.192 F 
ATOM     26  F   LIG d   1       5.473  -2.674  -5.846  0.00  0.00    -0.192 F 
BRANCH  24  27
ATOM     27  C   LIG d   1       5.968  -0.740  -7.168  0.00  0.00     0.384 C 
ATOM     28  F   LIG d   1       5.985   0.233  -6.164  0.00  0.00    -0.192 F 
ATOM     29  F   LIG d   1       6.791  -0.335  -8.224  0.00  0.00    -0.192 F 
BRANCH  27  30
ATOM     30  C   LIG d   1       4.538  -0.925  -7.677  0.00  0.00     0.384 C 
ATOM     31  F   LIG d   1       4.379  -2.228  -8.161  0.00  0.00    -0.192 F 
ATOM     32  F   LIG d   1       3.637  -0.704  -6.630  0.00  0.00    -0.192 F 
BRANCH  30  33
ATOM     33  C   LIG d   1       4.266   0.074  -8.804  0.00  0.00     0.384 C 
ATOM     34  F   LIG d   1       4.484   1.374  -8.336  0.00  0.00    -0.192 F 
ATOM     35  F   LIG d   1       5.124  -0.187  -9.876  0.00  0.00    -0.192 F 
BRANCH  33  36
ATOM     36  C   LIG d   1       2.814  -0.064  -9.268  0.00  0.00     0.387 C 
ATOM     37  F   LIG d   1       2.127  -0.919  -8.400  0.00  0.00    -0.192 F 
ATOM     38  F   LIG d   1       2.202   1.193  -9.266  0.00  0.00    -0.192 F 
BRANCH  36  39
ATOM     39  C   LIG d   1       2.784  -0.644 -10.684  0.00  0.00     0.409 C 
ATOM     40  F   LIG d   1       3.159   0.345 -11.601  0.00  0.00    -0.189 F 
ATOM     41  F   LIG d   1       3.676  -1.719 -10.766  0.00  0.00    -0.189 F 
BRANCH  39  42
ATOM     42  C   LIG d   1       1.370  -1.129 -11.007  0.00  0.00     0.460 C 
ATOM     43  F   LIG d   1       1.224  -1.253 -12.393  0.00  0.00    -0.165 F 
ATOM     44  F   LIG d   1       1.154  -2.372 -10.401  0.00  0.00    -0.165 F 
ATOM     45  F   LIG d   1       0.438  -0.206 -10.520  0.00  0.00    -0.165 F 
ENDBRANCH  39  42
ENDBRANCH  36  39
ENDBRANCH  33  36
ENDBRANCH  30  33
ENDBRANCH  27  30
ENDBRANCH  24  27
ENDBRANCH   1  24
TORSDOF 12
ENDMDL
MODEL 8
REMARK VINA RESULT:      -6.4      4.618      6.369
REMARK  12 active torsions:
REMARK  status: ('A' for Active; 'I' for Inactive)
REMARK    1  A    between atoms: C_1  and  C_2 
REMARK    2  A    between atoms: C_6  and  O_9 
REMARK    3  A    between atoms: C_7  and  C_8 
REMARK    4  A    between atoms: O_9  and  C_10 
REMARK    5  A    between atoms: C_10  and  C_12 
REMARK    6  A    between atoms: C_12  and  C_13 
REMARK    7  A    between atoms: C_13  and  C_14 
REMARK    8  A    between atoms: C_14  and  C_15 
REMARK    9  A    between atoms: C_15  and  C_16 
REMARK   10  A    between atoms: C_16  and  C_17 
REMARK   11  A    between atoms: C_17  and  C_18 
REMARK   12  A    between atoms: C_18  and  C_19 
ROOT
ATOM      1  C   LIG d   1       3.109   0.933  -9.812  0.00  0.00     0.410 C 
ATOM      2  F   LIG d   1       3.178   2.326  -9.928  0.00  0.00    -0.186 F 
ATOM      3  F   LIG d   1       1.791   0.552  -9.540  0.00  0.00    -0.186 F 
ENDROOT
BRANCH   1   4
ATOM      4  C   LIG d   1       3.559   0.299 -11.103  0.00  0.00     0.389 C 
ATOM      5  O   LIG d   1       4.555   0.701 -11.658  0.00  0.00    -0.243 OA
BRANCH   4   6
ATOM      6  O   LIG d   1       2.855  -0.712 -11.635  0.00  0.00    -0.421 OA
BRANCH   6   7
ATOM      7  C   LIG d   1       3.360  -1.970 -11.523  0.00  0.00     0.135 A 
ATOM      8  C   LIG d   1       4.566  -2.291 -12.129  0.00  0.00    -0.019 A 
ATOM      9  C   LIG d   1       5.077  -3.569 -12.014  0.00  0.00    -0.058 A 
ATOM     10  H   LIG d   1       5.105  -1.542 -12.691  0.00  0.00     0.065 H 
ATOM     11  C   LIG d   1       4.387  -4.528 -11.294  0.00  0.00    -0.058 A 
ATOM     12  H   LIG d   1       6.016  -3.820 -12.486  0.00  0.00     0.062 H 
ATOM     13  C   LIG d   1       3.185  -4.210 -10.690  0.00  0.00    -0.044 A 
ATOM     14  H   LIG d   1       4.789  -5.527 -11.205  0.00  0.00     0.062 H 
ATOM     15  C   LIG d   1       2.667  -2.935 -10.807  0.00  0.00    -0.005 A 
BRANCH  13  16
ATOM     16  C   LIG d   1       2.437  -5.257  -9.906  0.00  0.00    -0.039 C 
ATOM     17  H   LIG d   1       2.289  -6.140 -10.529  0.00  0.00     0.028 H 
ATOM     18  H   LIG d   1       3.012  -5.529  -9.021  0.00  0.00     0.028 H 
ATOM     19  H   LIG d   1       1.468  -4.861  -9.603  0.00  0.00     0.028 H 
ENDBRANCH  13  16
BRANCH  15  20
ATOM     20  C   LIG d   1       1.354  -2.592 -10.153  0.00  0.00    -0.036 C 
ATOM     21  H   LIG d   1       1.244  -1.508 -10.105  0.00  0.00     0.028 H 
ATOM     22  H   LIG d   1       0.536  -3.014 -10.737  0.00  0.00     0.028 H 
ATOM     23  H   LIG d   1       1.330  -3.003  -9.145  0.00  0.00     0.028 H 
ENDBRANCH  15  20
ENDBRANCH   6   7
ENDBRANCH   4   6
ENDBRANCH   1   4
BRANCH   1  24
ATOM     24  C   LIG d   1       4.019   0.470  -8.672  0.00  0.00     0.389 C 
ATOM     25  F   LIG d   1       4.626  -0.741  -9.021  0.00  0.00    -0.192 F 
ATOM     26  F   LIG d   1       5.005   1.437  -8.442  0.00  0.00    -0.192 F 
BRANCH  24  27
ATOM     27  C   LIG d   1       3.187   0.277  -7.402  0.00  0.00     0.384 C 
ATOM     28  F   LIG d   1       2.757   1.522  -6.933  0.00  0.00    -0.192 F 
ATOM     29  F   LIG d   1       2.076  -0.523  -7.690  0.00  0.00    -0.192 F 
BRANCH  27  30
ATOM     30  C   LIG d   1       4.043  -0.403  -6.331  0.00  0.00     0.384 C 
ATOM     31  F   LIG d   1       4.051  -1.786  -6.550  0.00  0.00    -0.192 F 
ATOM     32  F   LIG d   1       5.351   0.087  -6.398  0.00  0.00    -0.192 F 
BRANCH  30  33
ATOM     33  C   LIG d   1       3.457  -0.110  -4.949  0.00  0.00     0.384 C 
ATOM     34  F   LIG d   1       3.408   1.274  -4.748  0.00  0.00    -0.192 F 
ATOM     35  F   LIG d   1       2.166  -0.640  -4.867  0.00  0.00    -0.192 F 
BRANCH  33  36
ATOM     36  C   LIG d   1       4.340  -0.750  -3.875  0.00  0.00     0.387 C 
ATOM     37  F   LIG d   1       4.322  -2.140  -4.024  0.00  0.00    -0.192 F 
ATOM     38  F   LIG d   1       5.652  -0.283  -4.010  0.00  0.00    -0.192 F 
BRANCH  36  39
ATOM     39  C   LIG d   1       3.807  -0.379  -2.489  0.00  0.00     0.409 C 
ATOM     40  F   LIG d   1       2.409  -0.333  -2.523  0.00  0.00    -0.189 F 
ATOM     41  F   LIG d   1       4.221  -1.340  -1.560  0.00  0.00    -0.189 F 
BRANCH  39  42
ATOM     42  C   LIG d   1       4.352   0.992  -2.083  0.00  0.00     0.460 C 
ATOM     43  F   LIG d   1       5.420   1.335  -2.920  0.00  0.00    -0.165 F 
ATOM     44  F   LIG d   1       3.339   1.950  -2.202  0.00  0.00    -0.165 F 
ATOM     45  F   LIG d   1       4.794   0.944  -0.757  0.00  0.00    -0.165 F 
ENDBRANCH  39  42
ENDBRANCH  36  39
ENDBRANCH  33  36
ENDBRANCH  30  33
ENDBRANCH  27  30
ENDBRANCH  24  27
ENDBRANCH   1  24
TORSDOF 12
ENDMDL
MODEL 9
REMARK VINA RESULT:      -6.3      4.945      8.024
REMARK  12 active torsions:
REMARK  status: ('A' for Active; 'I' for Inactive)
REMARK    1  A    between atoms: C_1  and  C_2 
REMARK    2  A    between atoms: C_6  and  O_9 
REMARK    3  A    between atoms: C_7  and  C_8 
REMARK    4  A    between atoms: O_9  and  C_10 
REMARK    5  A    between atoms: C_10  and  C_12 
REMARK    6  A    between atoms: C_12  and  C_13 
REMARK    7  A    between atoms: C_13  and  C_14 
REMARK    8  A    between atoms: C_14  and  C_15 
REMARK    9  A    between atoms: C_15  and  C_16 
REMARK   10  A    between atoms: C_16  and  C_17 
REMARK   11  A    between atoms: C_17  and  C_18 
REMARK   12  A    between atoms: C_18  and  C_19 
ROOT
ATOM      1  C   LIG d   1       6.691  -1.638  -6.810  0.00  0.00     0.410 C 
ATOM      2  F   LIG d   1       7.409  -0.462  -6.562  0.00  0.00    -0.186 F 
ATOM      3  F   LIG d   1       7.199  -2.260  -7.955  0.00  0.00    -0.186 F 
ENDROOT
BRANCH   1   4
ATOM      4  C   LIG d   1       6.826  -2.566  -5.631  0.00  0.00     0.389 C 
ATOM      5  O   LIG d   1       6.759  -3.762  -5.794  0.00  0.00    -0.243 OA
BRANCH   4   6
ATOM      6  O   LIG d   1       7.020  -2.065  -4.402  0.00  0.00    -0.421 OA
BRANCH   6   7
ATOM      7  C   LIG d   1       5.924  -1.741  -3.664  0.00  0.00     0.135 A 
ATOM      8  C   LIG d   1       4.936  -2.689  -3.436  0.00  0.00    -0.019 A 
ATOM      9  C   LIG d   1       3.824  -2.358  -2.686  0.00  0.00    -0.058 A 
ATOM     10  H   LIG d   1       5.037  -3.683  -3.843  0.00  0.00     0.065 H 
ATOM     11  C   LIG d   1       3.696  -1.084  -2.163  0.00  0.00    -0.058 A 
ATOM     12  H   LIG d   1       3.054  -3.095  -2.508  0.00  0.00     0.062 H 
ATOM     13  C   LIG d   1       4.678  -0.138  -2.390  0.00  0.00    -0.044 A 
ATOM     14  H   LIG d   1       2.825  -0.828  -1.577  0.00  0.00     0.062 H 
ATOM     15  C   LIG d   1       5.790  -0.462  -3.143  0.00  0.00    -0.005 A 
BRANCH  13  16
ATOM     16  C   LIG d   1       4.535   1.248  -1.818  0.00  0.00    -0.039 C 
ATOM     17  H   LIG d   1       4.622   1.204  -0.732  0.00  0.00     0.028 H 
ATOM     18  H   LIG d   1       5.320   1.889  -2.220  0.00  0.00     0.028 H 
ATOM     19  H   LIG d   1       3.561   1.654  -2.089  0.00  0.00     0.028 H 
ENDBRANCH  13  16
BRANCH  15  20
ATOM     20  C   LIG d   1       6.857   0.571  -3.395  0.00  0.00    -0.036 C 
ATOM     21  H   LIG d   1       7.822   0.183  -3.067  0.00  0.00     0.028 H 
ATOM     22  H   LIG d   1       6.900   0.796  -4.461  0.00  0.00     0.028 H 
ATOM     23  H   LIG d   1       6.623   1.478  -2.841  0.00  0.00     0.028 H 
ENDBRANCH  15  20
ENDBRANCH   6   7
ENDBRANCH   4   6
ENDBRANCH   1   4
BRANCH   1  24
ATOM     24  C   LIG d   1       5.215  -1.298  -7.027  0.00  0.00     0.389 C 
ATOM     25  F   LIG d   1       4.421  -2.357  -6.575  0.00  0.00    -0.192 F 
ATOM     26  F   LIG d   1       4.894  -0.138  -6.312  0.00  0.00    -0.192 F 
BRANCH  24  27
ATOM     27  C   LIG d   1       4.958  -1.066  -8.518  0.00  0.00     0.384 C 
ATOM     28  F   LIG d   1       6.026  -0.353  -9.070  0.00  0.00    -0.192 F 
ATOM     29  F   LIG d   1       4.836  -2.300  -9.166  0.00  0.00    -0.192 F 
BRANCH  27  30
ATOM     30  C   LIG d   1       3.665  -0.268  -8.693  0.00  0.00     0.384 C 
ATOM     31  F   LIG d   1       2.673  -0.795  -7.858  0.00  0.00    -0.192 F 
ATOM     32  F   LIG d   1       3.893   1.070  -8.358  0.00  0.00    -0.192 F 
BRANCH  30  33
ATOM     33  C   LIG d   1       3.205  -0.358 -10.150  0.00  0.00     0.384 C 
ATOM     34  F   LIG d   1       3.032   0.931 -10.664  0.00  0.00    -0.192 F 
ATOM     35  F   LIG d   1       4.169  -1.036 -10.903  0.00  0.00    -0.192 F 
BRANCH  33  36
ATOM     36  C   LIG d   1       1.878  -1.117 -10.219  0.00  0.00     0.387 C 
ATOM     37  F   LIG d   1       2.000  -2.333  -9.540  0.00  0.00    -0.192 F 
ATOM     38  F   LIG d   1       0.870  -0.350  -9.624  0.00  0.00    -0.192 F 
BRANCH  36  39
ATOM     39  C   LIG d   1       1.518  -1.384 -11.682  0.00  0.00     0.409 C 
ATOM     40  F   LIG d   1       0.278  -0.804 -11.971  0.00  0.00    -0.189 F 
ATOM     41  F   LIG d   1       2.499  -0.829 -12.511  0.00  0.00    -0.189 F 
BRANCH  39  42
ATOM     42  C   LIG d   1       1.443  -2.894 -11.921  0.00  0.00     0.460 C 
ATOM     43  F   LIG d   1       0.424  -3.440 -11.133  0.00  0.00    -0.165 F 
ATOM     44  F   LIG d   1       1.170  -3.138 -13.272  0.00  0.00    -0.165 F 
ATOM     45  F   LIG d   1       2.665  -3.482 -11.580  0.00  0.00    -0.165 F 
ENDBRANCH  39  42
ENDBRANCH  36  39
ENDBRANCH  33  36
ENDBRANCH  30  33
ENDBRANCH  27  30
ENDBRANCH  24  27
ENDBRANCH   1  24
TORSDOF 12
ENDMDL
