MODEL 1
REMARK VINA RESULT:      -6.0      0.000      0.000
REMARK  7 active torsions:
REMARK  status: ('A' for Active; 'I' for Inactive)
REMARK    1  A    between atoms: C_1  and  C_2 
REMARK    2  A    between atoms: C_2  and  C_4 
REMARK    3  A    between atoms: C_2  and  O_20 
REMARK    4  A    between atoms: C_4  and  C_5 
REMARK    5  A    between atoms: C_5  and  C_6 
REMARK    6  A    between atoms: C_6  and  C_7 
REMARK    7  A    between atoms: C_14  and  O_19 
ROOT
ATOM      1  C   LIG d   1       3.357   0.072  -6.815  0.00  0.00     0.107 C 
ATOM      2  H   LIG d   1       3.859   1.011  -7.047  0.00  0.00     0.074 H 
ATOM      3  C   LIG d   1       2.576   0.221  -5.509  0.00  0.00     0.011 C 
ATOM      4  C   LIG d   1       3.526   0.331  -4.345  0.00  0.00    -0.026 A 
ATOM      5  C   LIG d   1       3.102   0.892  -3.159  0.00  0.00    -0.057 A 
ATOM      6  C   LIG d   1       3.972   0.992  -2.085  0.00  0.00    -0.058 A 
ATOM      7  C   LIG d   1       5.271   0.533  -2.188  0.00  0.00    -0.019 A 
ATOM      8  C   LIG d   1       5.715  -0.034  -3.374  0.00  0.00     0.131 A 
ATOM      9  C   LIG d   1       4.838  -0.134  -4.459  0.00  0.00     0.103 A 
ATOM     10  C   LIG d   1       5.285  -0.726  -5.737  0.00  0.00     0.343 C 
ATOM     11  O   LIG d   1       6.455  -0.983  -5.942  0.00  0.00    -0.245 OA
ATOM     12  O   LIG d   1       4.331  -0.969  -6.673  0.00  0.00    -0.458 OA
ATOM     13  H   LIG d   1       1.958   1.117  -5.557  0.00  0.00     0.035 H 
ATOM     14  H   LIG d   1       1.935  -0.650  -5.370  0.00  0.00     0.035 H 
ATOM     15  H   LIG d   1       2.090   1.255  -3.065  0.00  0.00     0.062 H 
ATOM     16  H   LIG d   1       3.633   1.434  -1.160  0.00  0.00     0.062 H 
ATOM     17  H   LIG d   1       5.941   0.615  -1.344  0.00  0.00     0.065 H 
ENDROOT
BRANCH   1  18
ATOM     18  C   LIG d   1       2.392  -0.284  -7.949  0.00  0.00    -0.015 C 
ATOM     19  H   LIG d   1       1.368  -0.262  -7.574  0.00  0.00     0.030 H 
ATOM     20  H   LIG d   1       2.621  -1.283  -8.320  0.00  0.00     0.030 H 
BRANCH  18  21
ATOM     21  C   LIG d   1       2.542   0.730  -9.084  0.00  0.00    -0.047 C 
ATOM     22  H   LIG d   1       1.556   1.005  -9.460  0.00  0.00     0.027 H 
ATOM     23  H   LIG d   1       3.129   0.289  -9.890  0.00  0.00     0.027 H 
BRANCH  21  24
ATOM     24  C   LIG d   1       3.255   1.979  -8.561  0.00  0.00    -0.027 C 
ATOM     25  H   LIG d   1       3.678   1.771  -7.578  0.00  0.00     0.029 H 
ATOM     26  H   LIG d   1       2.540   2.798  -8.482  0.00  0.00     0.029 H 
BRANCH  24  27
ATOM     27  C   LIG d   1       4.375   2.370  -9.527  0.00  0.00     0.052 C 
ATOM     28  H   LIG d   1       4.376   3.451  -9.665  0.00  0.00     0.059 H 
BRANCH  27  29
ATOM     29  C   LIG d   1       5.722   1.927  -8.951  0.00  0.00    -0.039 C 
ATOM     30  H   LIG d   1       6.509   2.120  -9.681  0.00  0.00     0.025 H 
ATOM     31  H   LIG d   1       5.928   2.485  -8.038  0.00  0.00     0.025 H 
ATOM     32  H   LIG d   1       5.688   0.861  -8.727  0.00  0.00     0.025 H 
ENDBRANCH  27  29
BRANCH  27  33
ATOM     33  O   LIG d   1       4.162   1.729 -10.787  0.00  0.00    -0.392 OA
ATOM     34  H   LIG d   1       4.881   1.142 -11.056  0.00  0.00     0.210 HD
ENDBRANCH  27  33
ENDBRANCH  24  27
ENDBRANCH  21  24
ENDBRANCH  18  21
ENDBRANCH   1  18
BRANCH   8  35
ATOM     35  O   LIG d   1       6.989  -0.486  -3.481  0.00  0.00    -0.506 OA
ATOM     36  H   LIG d   1       7.068  -1.337  -3.933  0.00  0.00     0.292 HD
ENDBRANCH   8  35
TORSDOF 7
ENDMDL
MODEL 2
REMARK VINA RESULT:      -5.9      2.150      5.861
REMARK  7 active torsions:
REMARK  status: ('A' for Active; 'I' for Inactive)
REMARK    1  A    between atoms: C_1  and  C_2 
REMARK    2  A    between atoms: C_2  and  C_4 
REMARK    3  A    between atoms: C_2  and  O_20 
REMARK    4  A    between atoms: C_4  and  C_5 
REMARK    5  A    between atoms: C_5  and  C_6 
REMARK    6  A    between atoms: C_6  and  C_7 
REMARK    7  A    between atoms: C_14  and  O_19 
ROOT
ATOM      1  C   LIG d   1       4.495  -1.488  -5.038  0.00  0.00     0.107 C 
ATOM      2  H   LIG d   1       5.364  -0.832  -4.999  0.00  0.00     0.074 H 
ATOM      3  C   LIG d   1       4.507  -2.270  -6.352  0.00  0.00     0.011 C 
ATOM      4  C   LIG d   1       4.222  -1.350  -7.509  0.00  0.00    -0.026 A 
ATOM      5  C   LIG d   1       4.598  -1.709  -8.787  0.00  0.00    -0.057 A 
ATOM      6  C   LIG d   1       4.335  -0.866  -9.854  0.00  0.00    -0.058 A 
ATOM      7  C   LIG d   1       3.697   0.343  -9.654  0.00  0.00    -0.019 A 
ATOM      8  C   LIG d   1       3.312   0.722  -8.376  0.00  0.00     0.131 A 
ATOM      9  C   LIG d   1       3.579  -0.129  -7.297  0.00  0.00     0.103 A 
ATOM     10  C   LIG d   1       3.188   0.253  -5.924  0.00  0.00     0.343 C 
ATOM     11  O   LIG d   1       2.787   1.371  -5.666  0.00  0.00    -0.245 OA
ATOM     12  O   LIG d   1       3.299  -0.701  -4.963  0.00  0.00    -0.458 OA
ATOM     13  H   LIG d   1       5.485  -2.732  -6.489  0.00  0.00     0.035 H 
ATOM     14  H   LIG d   1       3.744  -3.049  -6.315  0.00  0.00     0.035 H 
ATOM     15  H   LIG d   1       5.097  -2.651  -8.956  0.00  0.00     0.062 H 
ATOM     16  H   LIG d   1       4.632  -1.155 -10.851  0.00  0.00     0.062 H 
ATOM     17  H   LIG d   1       3.496   0.993 -10.494  0.00  0.00     0.065 H 
ENDROOT
BRANCH   1  18
ATOM     18  C   LIG d   1       4.538  -2.465  -3.861  0.00  0.00    -0.015 C 
ATOM     19  H   LIG d   1       5.570  -2.600  -3.539  0.00  0.00     0.030 H 
ATOM     20  H   LIG d   1       4.124  -3.425  -4.172  0.00  0.00     0.030 H 
BRANCH  18  21
ATOM     21  C   LIG d   1       3.710  -1.904  -2.703  0.00  0.00    -0.047 C 
ATOM     22  H   LIG d   1       3.225  -2.723  -2.173  0.00  0.00     0.027 H 
ATOM     23  H   LIG d   1       2.953  -1.224  -3.093  0.00  0.00     0.027 H 
BRANCH  21  24
ATOM     24  C   LIG d   1       4.628  -1.146  -1.741  0.00  0.00    -0.027 C 
ATOM     25  H   LIG d   1       5.668  -1.331  -2.011  0.00  0.00     0.029 H 
ATOM     26  H   LIG d   1       4.450  -1.491  -0.723  0.00  0.00     0.029 H 
BRANCH  24  27
ATOM     27  C   LIG d   1       4.335   0.352  -1.831  0.00  0.00     0.052 C 
ATOM     28  H   LIG d   1       4.287   0.774  -0.827  0.00  0.00     0.059 H 
BRANCH  27  29
ATOM     29  C   LIG d   1       5.447   1.043  -2.622  0.00  0.00    -0.039 C 
ATOM     30  H   LIG d   1       6.364   0.457  -2.547  0.00  0.00     0.025 H 
ATOM     31  H   LIG d   1       5.153   1.124  -3.668  0.00  0.00     0.025 H 
ATOM     32  H   LIG d   1       5.619   2.039  -2.214  0.00  0.00     0.025 H 
ENDBRANCH  27  29
BRANCH  27  33
ATOM     33  O   LIG d   1       3.084   0.554  -2.492  0.00  0.00    -0.392 OA
ATOM     34  H   LIG d   1       2.656  -0.263  -2.782  0.00  0.00     0.210 HD
ENDBRANCH  27  33
ENDBRANCH  24  27
ENDBRANCH  21  24
ENDBRANCH  18  21
ENDBRANCH   1  18
BRANCH   8  35
ATOM     35  O   LIG d   1       2.686   1.907  -8.174  0.00  0.00    -0.506 OA
ATOM     36  H   LIG d   1       3.134   2.486  -7.543  0.00  0.00     0.292 HD
ENDBRANCH   8  35
TORSDOF 7
ENDMDL
MODEL 3
REMARK VINA RESULT:      -5.8      3.474      5.747
REMARK  7 active torsions:
REMARK  status: ('A' for Active; 'I' for Inactive)
REMARK    1  A    between atoms: C_1  and  C_2 
REMARK    2  A    between atoms: C_2  and  C_4 
REMARK    3  A    between atoms: C_2  and  O_20 
REMARK    4  A    between atoms: C_4  and  C_5 
REMARK    5  A    between atoms: C_5  and  C_6 
REMARK    6  A    between atoms: C_6  and  C_7 
REMARK    7  A    between atoms: C_14  and  O_19 
ROOT
ATOM      1  C   LIG d   1       7.444   0.846  -4.603  0.00  0.00     0.107 C 
ATOM      2  H   LIG d   1       8.122   0.014  -4.416  0.00  0.00     0.074 H 
ATOM      3  C   LIG d   1       6.553   1.062  -3.380  0.00  0.00     0.011 C 
ATOM      4  C   LIG d   1       5.576  -0.075  -3.240  0.00  0.00    -0.026 A 
ATOM      5  C   LIG d   1       4.983  -0.331  -2.021  0.00  0.00    -0.057 A 
ATOM      6  C   LIG d   1       4.082  -1.375  -1.890  0.00  0.00    -0.058 A 
ATOM      7  C   LIG d   1       3.765  -2.171  -2.973  0.00  0.00    -0.019 A 
ATOM      8  C   LIG d   1       4.351  -1.928  -4.208  0.00  0.00     0.131 A 
ATOM      9  C   LIG d   1       5.263  -0.875  -4.341  0.00  0.00     0.103 A 
ATOM     10  C   LIG d   1       5.909  -0.599  -5.641  0.00  0.00     0.343 C 
ATOM     11  O   LIG d   1       5.805  -1.367  -6.577  0.00  0.00    -0.245 OA
ATOM     12  O   LIG d   1       6.626   0.550  -5.743  0.00  0.00    -0.458 OA
ATOM     13  H   LIG d   1       7.174   1.118  -2.486  0.00  0.00     0.035 H 
ATOM     14  H   LIG d   1       6.004   1.998  -3.493  0.00  0.00     0.035 H 
ATOM     15  H   LIG d   1       5.222   0.284  -1.166  0.00  0.00     0.062 H 
ATOM     16  H   LIG d   1       3.623  -1.568  -0.931  0.00  0.00     0.062 H 
ATOM     17  H   LIG d   1       3.059  -2.981  -2.860  0.00  0.00     0.065 H 
ENDROOT
BRANCH   1  18
ATOM     18  C   LIG d   1       8.256   2.115  -4.874  0.00  0.00    -0.015 C 
ATOM     19  H   LIG d   1       7.578   2.938  -5.102  0.00  0.00     0.030 H 
ATOM     20  H   LIG d   1       8.921   1.947  -5.722  0.00  0.00     0.030 H 
BRANCH  18  21
ATOM     21  C   LIG d   1       9.084   2.464  -3.636  0.00  0.00    -0.047 C 
ATOM     22  H   LIG d   1       9.940   1.791  -3.570  0.00  0.00     0.027 H 
ATOM     23  H   LIG d   1       8.468   2.358  -2.744  0.00  0.00     0.027 H 
BRANCH  21  24
ATOM     24  C   LIG d   1       9.579   3.908  -3.745  0.00  0.00    -0.027 C 
ATOM     25  H   LIG d   1       8.761   4.591  -3.515  0.00  0.00     0.029 H 
ATOM     26  H   LIG d   1       9.935   4.095  -4.758  0.00  0.00     0.029 H 
BRANCH  24  27
ATOM     27  C   LIG d   1      10.723   4.131  -2.753  0.00  0.00     0.052 C 
ATOM     28  H   LIG d   1      11.647   4.316  -3.300  0.00  0.00     0.059 H 
BRANCH  27  29
ATOM     29  C   LIG d   1      10.402   5.337  -1.868  0.00  0.00    -0.039 C 
ATOM     30  H   LIG d   1      10.518   6.253  -2.447  0.00  0.00     0.025 H 
ATOM     31  H   LIG d   1       9.376   5.261  -1.508  0.00  0.00     0.025 H 
ATOM     32  H   LIG d   1      11.086   5.355  -1.019  0.00  0.00     0.025 H 
ENDBRANCH  27  29
BRANCH  27  33
ATOM     33  O   LIG d   1      10.878   2.968  -1.936  0.00  0.00    -0.392 OA
ATOM     34  H   LIG d   1      11.779   2.832  -1.613  0.00  0.00     0.210 HD
ENDBRANCH  27  33
ENDBRANCH  24  27
ENDBRANCH  21  24
ENDBRANCH  18  21
ENDBRANCH   1  18
BRANCH   8  35
ATOM     35  O   LIG d   1       4.044  -2.706  -5.275  0.00  0.00    -0.506 OA
ATOM     36  H   LIG d   1       4.356  -2.355  -6.120  0.00  0.00     0.292 HD
ENDBRANCH   8  35
TORSDOF 7
ENDMDL
MODEL 4
REMARK VINA RESULT:      -5.7      1.672      5.614
REMARK  7 active torsions:
REMARK  status: ('A' for Active; 'I' for Inactive)
REMARK    1  A    between atoms: C_1  and  C_2 
REMARK    2  A    between atoms: C_2  and  C_4 
REMARK    3  A    between atoms: C_2  and  O_20 
REMARK    4  A    between atoms: C_4  and  C_5 
REMARK    5  A    between atoms: C_5  and  C_6 
REMARK    6  A    between atoms: C_6  and  C_7 
REMARK    7  A    between atoms: C_14  and  O_19 
ROOT
ATOM      1  C   LIG d   1       3.063   0.058  -6.008  0.00  0.00     0.107 C 
ATOM      2  H   LIG d   1       2.700  -0.904  -6.366  0.00  0.00     0.074 H 
ATOM      3  C   LIG d   1       2.702   1.147  -7.019  0.00  0.00     0.011 C 
ATOM      4  C   LIG d   1       3.518   0.984  -8.274  0.00  0.00    -0.026 A 
ATOM      5  C   LIG d   1       3.086   1.546  -9.457  0.00  0.00    -0.057 A 
ATOM      6  C   LIG d   1       3.836   1.400 -10.613  0.00  0.00    -0.058 A 
ATOM      7  C   LIG d   1       5.022   0.692 -10.596  0.00  0.00    -0.019 A 
ATOM      8  C   LIG d   1       5.473   0.119  -9.415  0.00  0.00     0.131 A 
ATOM      9  C   LIG d   1       4.715   0.265  -8.248  0.00  0.00     0.103 A 
ATOM     10  C   LIG d   1       5.166  -0.341  -6.978  0.00  0.00     0.343 C 
ATOM     11  O   LIG d   1       6.101  -1.116  -6.941  0.00  0.00    -0.245 OA
ATOM     12  O   LIG d   1       4.487   0.005  -5.853  0.00  0.00    -0.458 OA
ATOM     13  H   LIG d   1       1.642   1.075  -7.265  0.00  0.00     0.035 H 
ATOM     14  H   LIG d   1       2.903   2.127  -6.583  0.00  0.00     0.035 H 
ATOM     15  H   LIG d   1       2.161   2.102  -9.484  0.00  0.00     0.062 H 
ATOM     16  H   LIG d   1       3.490   1.843 -11.535  0.00  0.00     0.062 H 
ATOM     17  H   LIG d   1       5.600   0.585 -11.503  0.00  0.00     0.065 H 
ENDROOT
BRANCH   1  18
ATOM     18  C   LIG d   1       2.415   0.379  -4.659  0.00  0.00    -0.015 C 
ATOM     19  H   LIG d   1       2.017  -0.536  -4.221  0.00  0.00     0.030 H 
ATOM     20  H   LIG d   1       1.604   1.094  -4.807  0.00  0.00     0.030 H 
BRANCH  18  21
ATOM     21  C   LIG d   1       3.463   0.982  -3.721  0.00  0.00    -0.047 C 
ATOM     22  H   LIG d   1       3.290   2.055  -3.625  0.00  0.00     0.027 H 
ATOM     23  H   LIG d   1       4.458   0.809  -4.129  0.00  0.00     0.027 H 
BRANCH  21  24
ATOM     24  C   LIG d   1       3.354   0.323  -2.344  0.00  0.00    -0.027 C 
ATOM     25  H   LIG d   1       2.384  -0.166  -2.252  0.00  0.00     0.029 H 
ATOM     26  H   LIG d   1       3.453   1.082  -1.569  0.00  0.00     0.029 H 
BRANCH  24  27
ATOM     27  C   LIG d   1       4.467  -0.715  -2.187  0.00  0.00     0.052 C 
ATOM     28  H   LIG d   1       4.876  -0.660  -1.179  0.00  0.00     0.059 H 
BRANCH  27  29
ATOM     29  C   LIG d   1       3.897  -2.114  -2.431  0.00  0.00    -0.039 C 
ATOM     30  H   LIG d   1       4.715  -2.818  -2.584  0.00  0.00     0.025 H 
ATOM     31  H   LIG d   1       3.308  -2.422  -1.567  0.00  0.00     0.025 H 
ATOM     32  H   LIG d   1       3.261  -2.098  -3.316  0.00  0.00     0.025 H 
ENDBRANCH  27  29
BRANCH  27  33
ATOM     33  O   LIG d   1       5.502  -0.451  -3.137  0.00  0.00    -0.392 OA
ATOM     34  H   LIG d   1       6.143  -1.169  -3.229  0.00  0.00     0.210 HD
ENDBRANCH  27  33
ENDBRANCH  24  27
ENDBRANCH  21  24
ENDBRANCH  18  21
ENDBRANCH   1  18
BRANCH   8  35
ATOM     35  O   LIG d   1       6.636  -0.577  -9.393  0.00  0.00    -0.506 OA
ATOM     36  H   LIG d   1       6.520  -1.537  -9.379  0.00  0.00     0.292 HD
ENDBRANCH   8  35
TORSDOF 7
ENDMDL
MODEL 5
REMARK VINA RESULT:      -5.6      3.995      6.737
REMARK  7 active torsions:
REMARK  status: ('A' for Active; 'I' for Inactive)
REMARK    1  A    between atoms: C_1  and  C_2 
REMARK    2  A    between atoms: C_2  and  C_4 
REMARK    3  A    between atoms: C_2  and  O_20 
REMARK    4  A    between atoms: C_4  and  C_5 
REMARK    5  A    between atoms: C_5  and  C_6 
REMARK    6  A    between atoms: C_6  and  C_7 
REMARK    7  A    between atoms: C_14  and  O_19 
ROOT
ATOM      1  C   LIG d   1       7.493  -1.724  -4.488  0.00  0.00     0.107 C 
ATOM      2  H   LIG d   1       7.075  -1.575  -5.482  0.00  0.00     0.074 H 
ATOM      3  C   LIG d   1       6.480  -2.466  -3.616  0.00  0.00     0.011 C 
ATOM      4  C   LIG d   1       5.310  -1.572  -3.302  0.00  0.00    -0.026 A 
ATOM      5  C   LIG d   1       4.104  -2.121  -2.917  0.00  0.00    -0.057 A 
ATOM      6  C   LIG d   1       3.026  -1.301  -2.625  0.00  0.00    -0.058 A 
ATOM      7  C   LIG d   1       3.143   0.073  -2.715  0.00  0.00    -0.019 A 
ATOM      8  C   LIG d   1       4.349   0.643  -3.100  0.00  0.00     0.131 A 
ATOM      9  C   LIG d   1       5.437  -0.185  -3.397  0.00  0.00     0.103 A 
ATOM     10  C   LIG d   1       6.730   0.395  -3.818  0.00  0.00     0.343 C 
ATOM     11  O   LIG d   1       6.840   1.576  -4.083  0.00  0.00    -0.245 OA
ATOM     12  O   LIG d   1       7.789  -0.452  -3.897  0.00  0.00    -0.458 OA
ATOM     13  H   LIG d   1       6.127  -3.351  -4.145  0.00  0.00     0.035 H 
ATOM     14  H   LIG d   1       6.960  -2.773  -2.685  0.00  0.00     0.035 H 
ATOM     15  H   LIG d   1       3.999  -3.193  -2.843  0.00  0.00     0.062 H 
ATOM     16  H   LIG d   1       2.086  -1.739  -2.325  0.00  0.00     0.062 H 
ATOM     17  H   LIG d   1       2.297   0.703  -2.483  0.00  0.00     0.065 H 
ENDROOT
BRANCH   1  18
ATOM     18  C   LIG d   1       8.778  -2.549  -4.592  0.00  0.00    -0.015 C 
ATOM     19  H   LIG d   1       9.603  -1.995  -4.144  0.00  0.00     0.030 H 
ATOM     20  H   LIG d   1       9.000  -2.745  -5.641  0.00  0.00     0.030 H 
BRANCH  18  21
ATOM     21  C   LIG d   1       8.593  -3.876  -3.852  0.00  0.00    -0.047 C 
ATOM     22  H   LIG d   1       8.717  -4.703  -4.553  0.00  0.00     0.027 H 
ATOM     23  H   LIG d   1       7.594  -3.914  -3.418  0.00  0.00     0.027 H 
BRANCH  21  24
ATOM     24  C   LIG d   1       9.638  -3.990  -2.740  0.00  0.00    -0.027 C 
ATOM     25  H   LIG d   1       9.270  -3.489  -1.844  0.00  0.00     0.029 H 
ATOM     26  H   LIG d   1      10.566  -3.519  -3.064  0.00  0.00     0.029 H 
BRANCH  24  27
ATOM     27  C   LIG d   1       9.895  -5.466  -2.431  0.00  0.00     0.052 C 
ATOM     28  H   LIG d   1       9.438  -5.722  -1.475  0.00  0.00     0.059 H 
BRANCH  27  29
ATOM     29  C   LIG d   1       9.286  -6.331  -3.537  0.00  0.00    -0.039 C 
ATOM     30  H   LIG d   1      10.084  -6.801  -4.111  0.00  0.00     0.025 H 
ATOM     31  H   LIG d   1       8.657  -7.101  -3.090  0.00  0.00     0.025 H 
ATOM     32  H   LIG d   1       8.683  -5.706  -4.196  0.00  0.00     0.025 H 
ENDBRANCH  27  29
BRANCH  27  33
ATOM     33  O   LIG d   1      11.303  -5.700  -2.365  0.00  0.00    -0.392 OA
ATOM     34  H   LIG d   1      11.753  -5.634  -3.218  0.00  0.00     0.210 HD
ENDBRANCH  27  33
ENDBRANCH  24  27
ENDBRANCH  21  24
ENDBRANCH  18  21
ENDBRANCH   1  18
BRANCH   8  35
ATOM     35  O   LIG d   1       4.469   1.991  -3.190  0.00  0.00    -0.506 OA
ATOM     36  H   LIG d   1       5.080   2.374  -2.546  0.00  0.00     0.292 HD
ENDBRANCH   8  35
TORSDOF 7
ENDMDL
MODEL 6
REMARK VINA RESULT:      -5.6      4.027      4.710
REMARK  7 active torsions:
REMARK  status: ('A' for Active; 'I' for Inactive)
REMARK    1  A    between atoms: C_1  and  C_2 
REMARK    2  A    between atoms: C_2  and  C_4 
REMARK    3  A    between atoms: C_2  and  O_20 
REMARK    4  A    between atoms: C_4  and  C_5 
REMARK    5  A    between atoms: C_5  and  C_6 
REMARK    6  A    between atoms: C_6  and  C_7 
REMARK    7  A    between atoms: C_14  and  O_19 
ROOT
ATOM      1  C   LIG d   1       5.813  -3.074  -4.784  0.00  0.00     0.107 C 
ATOM      2  H   LIG d   1       5.555  -2.575  -5.718  0.00  0.00     0.074 H 
ATOM      3  C   LIG d   1       4.676  -2.893  -3.779  0.00  0.00     0.011 C 
ATOM      4  C   LIG d   1       4.606  -1.458  -3.325  0.00  0.00    -0.026 A 
ATOM      5  C   LIG d   1       3.440  -0.962  -2.780  0.00  0.00    -0.057 A 
ATOM      6  C   LIG d   1       3.374   0.357  -2.359  0.00  0.00    -0.058 A 
ATOM      7  C   LIG d   1       4.470   1.189  -2.479  0.00  0.00    -0.019 A 
ATOM      8  C   LIG d   1       5.651   0.707  -3.026  0.00  0.00     0.131 A 
ATOM      9  C   LIG d   1       5.718  -0.624  -3.453  0.00  0.00     0.103 A 
ATOM     10  C   LIG d   1       6.961  -1.161  -4.046  0.00  0.00     0.343 C 
ATOM     11  O   LIG d   1       7.891  -0.436  -4.337  0.00  0.00    -0.245 OA
ATOM     12  O   LIG d   1       7.016  -2.503  -4.253  0.00  0.00    -0.458 OA
ATOM     13  H   LIG d   1       3.732  -3.170  -4.247  0.00  0.00     0.035 H 
ATOM     14  H   LIG d   1       4.851  -3.536  -2.915  0.00  0.00     0.035 H 
ATOM     15  H   LIG d   1       2.577  -1.602  -2.680  0.00  0.00     0.062 H 
ATOM     16  H   LIG d   1       2.457   0.737  -1.934  0.00  0.00     0.062 H 
ATOM     17  H   LIG d   1       4.407   2.216  -2.147  0.00  0.00     0.065 H 
ENDROOT
BRANCH   1  18
ATOM     18  C   LIG d   1       6.030  -4.567  -5.046  0.00  0.00    -0.015 C 
ATOM     19  H   LIG d   1       5.228  -5.137  -4.577  0.00  0.00     0.030 H 
ATOM     20  H   LIG d   1       6.988  -4.873  -4.625  0.00  0.00     0.030 H 
BRANCH  18  21
ATOM     21  C   LIG d   1       6.028  -4.826  -6.554  0.00  0.00    -0.047 C 
ATOM     22  H   LIG d   1       5.781  -5.871  -6.743  0.00  0.00     0.027 H 
ATOM     23  H   LIG d   1       7.014  -4.605  -6.962  0.00  0.00     0.027 H 
BRANCH  21  24
ATOM     24  C   LIG d   1       4.986  -3.927  -7.223  0.00  0.00    -0.027 C 
ATOM     25  H   LIG d   1       5.399  -3.516  -8.145  0.00  0.00     0.029 H 
ATOM     26  H   LIG d   1       4.722  -3.112  -6.549  0.00  0.00     0.029 H 
BRANCH  24  27
ATOM     27  C   LIG d   1       3.736  -4.748  -7.545  0.00  0.00     0.052 C 
ATOM     28  H   LIG d   1       3.049  -4.147  -8.141  0.00  0.00     0.059 H 
BRANCH  27  29
ATOM     29  C   LIG d   1       4.136  -5.997  -8.333  0.00  0.00    -0.039 C 
ATOM     30  H   LIG d   1       3.260  -6.404  -8.838  0.00  0.00     0.025 H 
ATOM     31  H   LIG d   1       4.893  -5.734  -9.072  0.00  0.00     0.025 H 
ATOM     32  H   LIG d   1       4.540  -6.744  -7.649  0.00  0.00     0.025 H 
ENDBRANCH  27  29
BRANCH  27  33
ATOM     33  O   LIG d   1       3.095  -5.137  -6.328  0.00  0.00    -0.392 OA
ATOM     34  H   LIG d   1       2.146  -4.953  -6.308  0.00  0.00     0.210 HD
ENDBRANCH  27  33
ENDBRANCH  24  27
ENDBRANCH  21  24
ENDBRANCH  18  21
ENDBRANCH   1  18
BRANCH   8  35
ATOM     35  O   LIG d   1       6.730   1.520  -3.147  0.00  0.00    -0.506 OA
ATOM     36  H   LIG d   1       6.530   2.459  -3.033  0.00  0.00     0.292 HD
ENDBRANCH   8  35
TORSDOF 7
ENDMDL
MODEL 7
REMARK VINA RESULT:      -5.6      1.938      3.018
REMARK  7 active torsions:
REMARK  status: ('A' for Active; 'I' for Inactive)
REMARK    1  A    between atoms: C_1  and  C_2 
REMARK    2  A    between atoms: C_2  and  C_4 
REMARK    3  A    between atoms: C_2  and  O_20 
REMARK    4  A    between atoms: C_4  and  C_5 
REMARK    5  A    between atoms: C_5  and  C_6 
REMARK    6  A    between atoms: C_6  and  C_7 
REMARK    7  A    between atoms: C_14  and  O_19 
ROOT
ATOM      1  C   LIG d   1       5.752  -0.360  -6.838  0.00  0.00     0.107 C 
ATOM      2  H   LIG d   1       5.461  -1.353  -7.178  0.00  0.00     0.074 H 
ATOM      3  C   LIG d   1       6.407  -0.465  -5.460  0.00  0.00     0.011 C 
ATOM      4  C   LIG d   1       5.380  -0.833  -4.422  0.00  0.00    -0.026 A 
ATOM      5  C   LIG d   1       5.775  -1.398  -3.228  0.00  0.00    -0.057 A 
ATOM      6  C   LIG d   1       4.833  -1.734  -2.270  0.00  0.00    -0.058 A 
ATOM      7  C   LIG d   1       3.489  -1.510  -2.496  0.00  0.00    -0.019 A 
ATOM      8  C   LIG d   1       3.072  -0.942  -3.692  0.00  0.00     0.131 A 
ATOM      9  C   LIG d   1       4.023  -0.604  -4.661  0.00  0.00     0.103 A 
ATOM     10  C   LIG d   1       3.607  -0.006  -5.947  0.00  0.00     0.343 C 
ATOM     11  O   LIG d   1       2.437   0.052  -6.271  0.00  0.00    -0.245 OA
ATOM     12  O   LIG d   1       4.590   0.476  -6.751  0.00  0.00    -0.458 OA
ATOM     13  H   LIG d   1       7.184  -1.230  -5.487  0.00  0.00     0.035 H 
ATOM     14  H   LIG d   1       6.856   0.494  -5.199  0.00  0.00     0.035 H 
ATOM     15  H   LIG d   1       6.822  -1.578  -3.038  0.00  0.00     0.062 H 
ATOM     16  H   LIG d   1       5.152  -2.177  -1.338  0.00  0.00     0.062 H 
ATOM     17  H   LIG d   1       2.762  -1.775  -1.741  0.00  0.00     0.065 H 
ENDROOT
BRANCH   1  18
ATOM     18  C   LIG d   1       6.745   0.250  -7.830  0.00  0.00    -0.015 C 
ATOM     19  H   LIG d   1       7.515  -0.483  -8.070  0.00  0.00     0.030 H 
ATOM     20  H   LIG d   1       7.209   1.131  -7.384  0.00  0.00     0.030 H 
BRANCH  18  21
ATOM     21  C   LIG d   1       6.007   0.652  -9.108  0.00  0.00    -0.047 C 
ATOM     22  H   LIG d   1       5.056   0.121  -9.161  0.00  0.00     0.027 H 
ATOM     23  H   LIG d   1       6.616   0.398  -9.975  0.00  0.00     0.027 H 
BRANCH  21  24
ATOM     24  C   LIG d   1       5.746   2.161  -9.092  0.00  0.00    -0.027 C 
ATOM     25  H   LIG d   1       6.431   2.654  -9.782  0.00  0.00     0.029 H 
ATOM     26  H   LIG d   1       5.904   2.546  -8.085  0.00  0.00     0.029 H 
BRANCH  24  27
ATOM     27  C   LIG d   1       4.304   2.433  -9.523  0.00  0.00     0.052 C 
ATOM     28  H   LIG d   1       4.228   3.444  -9.923  0.00  0.00     0.059 H 
BRANCH  27  29
ATOM     29  C   LIG d   1       3.895   1.426 -10.599  0.00  0.00    -0.039 C 
ATOM     30  H   LIG d   1       3.264   1.921 -11.338  0.00  0.00     0.025 H 
ATOM     31  H   LIG d   1       4.786   1.033 -11.087  0.00  0.00     0.025 H 
ATOM     32  H   LIG d   1       3.341   0.608 -10.139  0.00  0.00     0.025 H 
ENDBRANCH  27  29
BRANCH  27  33
ATOM     33  O   LIG d   1       3.437   2.301  -8.393  0.00  0.00    -0.392 OA
ATOM     34  H   LIG d   1       3.887   2.025  -7.583  0.00  0.00     0.210 HD
ENDBRANCH  27  33
ENDBRANCH  24  27
ENDBRANCH  21  24
ENDBRANCH  18  21
ENDBRANCH   1  18
BRANCH   8  35
ATOM     35  O   LIG d   1       1.754  -0.720  -3.920  0.00  0.00    -0.506 OA
ATOM     36  H   LIG d   1       1.176  -1.432  -3.614  0.00  0.00     0.292 HD
ENDBRANCH   8  35
TORSDOF 7
ENDMDL
MODEL 8
REMARK VINA RESULT:      -5.5      3.281      5.075
REMARK  7 active torsions:
REMARK  status: ('A' for Active; 'I' for Inactive)
REMARK    1  A    between atoms: C_1  and  C_2 
REMARK    2  A    between atoms: C_2  and  C_4 
REMARK    3  A    between atoms: C_2  and  O_20 
REMARK    4  A    between atoms: C_4  and  C_5 
REMARK    5  A    between atoms: C_5  and  C_6 
REMARK    6  A    between atoms: C_6  and  C_7 
REMARK    7  A    between atoms: C_14  and  O_19 
ROOT
ATOM      1  C   LIG d   1       4.751  -2.854  -4.891  0.00  0.00     0.107 C 
ATOM      2  H   LIG d   1       3.745  -3.186  -4.638  0.00  0.00     0.074 H 
ATOM      3  C   LIG d   1       5.422  -2.270  -3.647  0.00  0.00     0.011 C 
ATOM      4  C   LIG d   1       4.776  -0.961  -3.274  0.00  0.00    -0.026 A 
ATOM      5  C   LIG d   1       4.897  -0.472  -1.990  0.00  0.00    -0.057 A 
ATOM      6  C   LIG d   1       4.307   0.733  -1.645  0.00  0.00    -0.058 A 
ATOM      7  C   LIG d   1       3.591   1.458  -2.578  0.00  0.00    -0.019 A 
ATOM      8  C   LIG d   1       3.458   0.981  -3.874  0.00  0.00     0.131 A 
ATOM      9  C   LIG d   1       4.052  -0.237  -4.224  0.00  0.00     0.103 A 
ATOM     10  C   LIG d   1       3.920  -0.772  -5.594  0.00  0.00     0.343 C 
ATOM     11  O   LIG d   1       3.162  -0.271  -6.401  0.00  0.00    -0.245 OA
ATOM     12  O   LIG d   1       4.682  -1.851  -5.912  0.00  0.00    -0.458 OA
ATOM     13  H   LIG d   1       5.322  -2.971  -2.819  0.00  0.00     0.035 H 
ATOM     14  H   LIG d   1       6.480  -2.104  -3.851  0.00  0.00     0.035 H 
ATOM     15  H   LIG d   1       5.454  -1.028  -1.252  0.00  0.00     0.062 H 
ATOM     16  H   LIG d   1       4.407   1.108  -0.637  0.00  0.00     0.062 H 
ATOM     17  H   LIG d   1       3.135   2.397  -2.298  0.00  0.00     0.065 H 
ENDROOT
BRANCH   1  18
ATOM     18  C   LIG d   1       5.569  -4.044  -5.400  0.00  0.00    -0.015 C 
ATOM     19  H   LIG d   1       6.451  -4.173  -4.772  0.00  0.00     0.030 H 
ATOM     20  H   LIG d   1       5.878  -3.858  -6.429  0.00  0.00     0.030 H 
BRANCH  18  21
ATOM     21  C   LIG d   1       4.713  -5.311  -5.345  0.00  0.00    -0.047 C 
ATOM     22  H   LIG d   1       3.657  -5.037  -5.354  0.00  0.00     0.027 H 
ATOM     23  H   LIG d   1       4.938  -5.863  -4.432  0.00  0.00     0.027 H 
BRANCH  21  24
ATOM     24  C   LIG d   1       5.022  -6.188  -6.560  0.00  0.00    -0.027 C 
ATOM     25  H   LIG d   1       4.769  -7.224  -6.334  0.00  0.00     0.029 H 
ATOM     26  H   LIG d   1       6.084  -6.118  -6.798  0.00  0.00     0.029 H 
BRANCH  24  27
ATOM     27  C   LIG d   1       4.198  -5.709  -7.757  0.00  0.00     0.052 C 
ATOM     28  H   LIG d   1       4.762  -4.958  -8.310  0.00  0.00     0.059 H 
BRANCH  27  29
ATOM     29  C   LIG d   1       3.894  -6.896  -8.674  0.00  0.00    -0.039 C 
ATOM     30  H   LIG d   1       4.690  -7.636  -8.586  0.00  0.00     0.025 H 
ATOM     31  H   LIG d   1       2.945  -7.347  -8.382  0.00  0.00     0.025 H 
ATOM     32  H   LIG d   1       3.832  -6.551  -9.705  0.00  0.00     0.025 H 
ENDBRANCH  27  29
BRANCH  27  33
ATOM     33  O   LIG d   1       2.972  -5.139  -7.293  0.00  0.00    -0.392 OA
ATOM     34  H   LIG d   1       2.234  -5.243  -7.909  0.00  0.00     0.210 HD
ENDBRANCH  27  33
ENDBRANCH  24  27
ENDBRANCH  21  24
ENDBRANCH  18  21
ENDBRANCH   1  18
BRANCH   8  35
ATOM     35  O   LIG d   1       2.756   1.688  -4.794  0.00  0.00    -0.506 OA
ATOM     36  H   LIG d   1       2.658   1.239  -5.644  0.00  0.00     0.292 HD
ENDBRANCH   8  35
TORSDOF 7
ENDMDL
MODEL 9
REMARK VINA RESULT:      -5.4      1.822      6.254
REMARK  7 active torsions:
REMARK  status: ('A' for Active; 'I' for Inactive)
REMARK    1  A    between atoms: C_1  and  C_2 
REMARK    2  A    between atoms: C_2  and  C_4 
REMARK    3  A    between atoms: C_2  and  O_20 
REMARK    4  A    between atoms: C_4  and  C_5 
REMARK    5  A    between atoms: C_5  and  C_6 
REMARK    6  A    between atoms: C_6  and  C_7 
REMARK    7  A    between atoms: C_14  and  O_19 
ROOT
ATOM      1  C   LIG d   1       4.287  -0.396  -6.835  0.00  0.00     0.107 C 
ATOM      2  H   LIG d   1       4.753  -1.354  -7.064  0.00  0.00     0.074 H 
ATOM      3  C   LIG d   1       2.828  -0.417  -7.292  0.00  0.00     0.011 C 
ATOM      4  C   LIG d   1       2.753  -0.419  -8.796  0.00  0.00    -0.026 A 
ATOM      5  C   LIG d   1       1.613  -0.864  -9.431  0.00  0.00    -0.057 A 
ATOM      6  C   LIG d   1       1.540  -0.864 -10.815  0.00  0.00    -0.058 A 
ATOM      7  C   LIG d   1       2.604  -0.421 -11.575  0.00  0.00    -0.019 A 
ATOM      8  C   LIG d   1       3.761   0.030 -10.953  0.00  0.00     0.131 A 
ATOM      9  C   LIG d   1       3.836   0.029  -9.556  0.00  0.00     0.103 A 
ATOM     10  C   LIG d   1       5.058   0.496  -8.868  0.00  0.00     0.343 C 
ATOM     11  O   LIG d   1       6.081   0.729  -9.481  0.00  0.00    -0.245 OA
ATOM     12  O   LIG d   1       4.986   0.652  -7.521  0.00  0.00    -0.458 OA
ATOM     13  H   LIG d   1       2.342  -1.313  -6.905  0.00  0.00     0.035 H 
ATOM     14  H   LIG d   1       2.316   0.465  -6.906  0.00  0.00     0.035 H 
ATOM     15  H   LIG d   1       0.774  -1.213  -8.849  0.00  0.00     0.062 H 
ATOM     16  H   LIG d   1       0.643  -1.215 -11.303  0.00  0.00     0.062 H 
ATOM     17  H   LIG d   1       2.536  -0.424 -12.653  0.00  0.00     0.065 H 
ENDROOT
BRANCH   1  18
ATOM     18  C   LIG d   1       4.346  -0.146  -5.327  0.00  0.00    -0.015 C 
ATOM     19  H   LIG d   1       5.016   0.689  -5.123  0.00  0.00     0.030 H 
ATOM     20  H   LIG d   1       4.717  -1.040  -4.825  0.00  0.00     0.030 H 
BRANCH  18  21
ATOM     21  C   LIG d   1       2.945   0.186  -4.810  0.00  0.00    -0.047 C 
ATOM     22  H   LIG d   1       2.200  -0.286  -5.452  0.00  0.00     0.027 H 
ATOM     23  H   LIG d   1       2.801   1.266  -4.819  0.00  0.00     0.027 H 
BRANCH  21  24
ATOM     24  C   LIG d   1       2.791  -0.338  -3.380  0.00  0.00    -0.027 C 
ATOM     25  H   LIG d   1       2.399  -1.354  -3.406  0.00  0.00     0.029 H 
ATOM     26  H   LIG d   1       2.102   0.303  -2.831  0.00  0.00     0.029 H 
BRANCH  24  27
ATOM     27  C   LIG d   1       4.155  -0.333  -2.687  0.00  0.00     0.052 C 
ATOM     28  H   LIG d   1       4.945  -0.349  -3.438  0.00  0.00     0.059 H 
BRANCH  27  29
ATOM     29  C   LIG d   1       4.288   0.929  -1.832  0.00  0.00    -0.039 C 
ATOM     30  H   LIG d   1       4.521   1.779  -2.474  0.00  0.00     0.025 H 
ATOM     31  H   LIG d   1       3.350   1.114  -1.309  0.00  0.00     0.025 H 
ATOM     32  H   LIG d   1       5.090   0.793  -1.106  0.00  0.00     0.025 H 
ENDBRANCH  27  29
BRANCH  27  33
ATOM     33  O   LIG d   1       4.269  -1.488  -1.852  0.00  0.00    -0.392 OA
ATOM     34  H   LIG d   1       4.210  -2.326  -2.331  0.00  0.00     0.210 HD
ENDBRANCH  27  33
ENDBRANCH  24  27
ENDBRANCH  21  24
ENDBRANCH  18  21
ENDBRANCH   1  18
BRANCH   8  35
ATOM     35  O   LIG d   1       4.809   0.467 -11.695  0.00  0.00    -0.506 OA
ATOM     36  H   LIG d   1       4.639   0.482 -12.646  0.00  0.00     0.292 HD
ENDBRANCH   8  35
TORSDOF 7
ENDMDL
