MODEL 1
REMARK VINA RESULT:      -6.9      0.000      0.000
REMARK  3 active torsions:
REMARK  status: ('A' for Active; 'I' for Inactive)
REMARK    1  A    between atoms: C_1  and  C_2 
REMARK    2  A    between atoms: C_9  and  C_20 
REMARK    3  A    between atoms: C_10  and  C_14 
ROOT
ATOM      1  C   LIG d   1       4.525  -1.320  -3.066  0.00  0.00    -0.029 A 
ATOM      2  C   LIG d   1       4.547  -2.483  -3.806  0.00  0.00    -0.014 A 
ATOM      3  C   LIG d   1       4.459  -2.430  -5.192  0.00  0.00     0.140 A 
ATOM      4  C   LIG d   1       4.346  -1.183  -5.827  0.00  0.00     0.027 A 
ATOM      5  C   LIG d   1       4.324  -0.011  -5.066  0.00  0.00    -0.032 A 
ATOM      6  C   LIG d   1       4.413  -0.086  -3.693  0.00  0.00     0.045 A 
ATOM      7 CL   LIG d   1       4.387   1.367  -2.743  0.00  0.00    -0.083 Cl
ATOM      8  C   LIG d   1       4.252  -1.123  -7.295  0.00  0.00     0.007 A 
ATOM      9  C   LIG d   1       4.279  -2.323  -8.000  0.00  0.00     0.075 A 
ATOM     10  C   LIG d   1       4.400  -3.575  -7.253  0.00  0.00     0.346 A 
ATOM     11  O   LIG d   1       4.426  -4.634  -7.853  0.00  0.00    -0.244 OA
ATOM     12  O   LIG d   1       4.483  -3.572  -5.914  0.00  0.00    -0.422 OA
ATOM     13  H   LIG d   1       4.634  -3.437  -3.307  0.00  0.00     0.066 H 
ATOM     14  H   LIG d   1       4.237   0.950  -5.552  0.00  0.00     0.064 H 
ENDROOT
BRANCH   8  15
ATOM     15  C   LIG d   1       4.126   0.171  -7.998  0.00  0.00    -0.016 A 
ATOM     16  C   LIG d   1       2.866   0.743  -8.192  0.00  0.00    -0.054 A 
ATOM     17  C   LIG d   1       2.756   1.950  -8.850  0.00  0.00    -0.061 A 
ATOM     18  H   LIG d   1       1.982   0.242  -7.830  0.00  0.00     0.062 H 
ATOM     19  C   LIG d   1       3.890   2.595  -9.316  0.00  0.00    -0.062 A 
ATOM     20  H   LIG d   1       1.783   2.395  -9.001  0.00  0.00     0.062 H 
ATOM     21  C   LIG d   1       5.139   2.033  -9.126  0.00  0.00    -0.061 A 
ATOM     22  H   LIG d   1       3.797   3.540  -9.830  0.00  0.00     0.062 H 
ATOM     23  C   LIG d   1       5.265   0.829  -8.466  0.00  0.00    -0.054 A 
ATOM     24  H   LIG d   1       6.020   2.540  -9.494  0.00  0.00     0.062 H 
ATOM     25  H   LIG d   1       6.242   0.394  -8.314  0.00  0.00     0.062 H 
ENDBRANCH   8  15
BRANCH   9  26
ATOM     26  C   LIG d   1       4.188  -2.333  -9.477  0.00  0.00    -0.010 A 
ATOM     27  C   LIG d   1       5.349  -2.290 -10.251  0.00  0.00    -0.054 A 
ATOM     28  C   LIG d   1       5.257  -2.300 -11.628  0.00  0.00    -0.061 A 
ATOM     29  H   LIG d   1       6.317  -2.248  -9.773  0.00  0.00     0.062 H 
ATOM     30  C   LIG d   1       4.018  -2.352 -12.242  0.00  0.00    -0.062 A 
ATOM     31  H   LIG d   1       6.155  -2.266 -12.228  0.00  0.00     0.062 H 
ATOM     32  C   LIG d   1       2.864  -2.396 -11.480  0.00  0.00    -0.061 A 
ATOM     33  H   LIG d   1       3.952  -2.359 -13.319  0.00  0.00     0.062 H 
ATOM     34  C   LIG d   1       2.942  -2.393 -10.102  0.00  0.00    -0.054 A 
ATOM     35  H   LIG d   1       1.899  -2.437 -11.965  0.00  0.00     0.062 H 
ATOM     36  H   LIG d   1       2.040  -2.430  -9.509  0.00  0.00     0.062 H 
ENDBRANCH   9  26
BRANCH   1  37
ATOM     37  C   LIG d   1       4.621  -1.388  -1.564  0.00  0.00    -0.038 C 
ATOM     38  H   LIG d   1       5.651  -1.595  -1.276  0.00  0.00     0.028 H 
ATOM     39  H   LIG d   1       4.309  -0.436  -1.136  0.00  0.00     0.028 H 
ATOM     40  H   LIG d   1       3.973  -2.182  -1.193  0.00  0.00     0.028 H 
ENDBRANCH   1  37
TORSDOF 3
ENDMDL
MODEL 2
REMARK VINA RESULT:      -6.8      2.881      6.855
REMARK  3 active torsions:
REMARK  status: ('A' for Active; 'I' for Inactive)
REMARK    1  A    between atoms: C_1  and  C_2 
REMARK    2  A    between atoms: C_9  and  C_20 
REMARK    3  A    between atoms: C_10  and  C_14 
ROOT
ATOM      1  C   LIG d   1       3.270  -0.990 -10.701  0.00  0.00    -0.029 A 
ATOM      2  C   LIG d   1       2.767  -0.104  -9.772  0.00  0.00    -0.014 A 
ATOM      3  C   LIG d   1       3.097  -0.239  -8.428  0.00  0.00     0.140 A 
ATOM      4  C   LIG d   1       3.946  -1.285  -8.031  0.00  0.00     0.027 A 
ATOM      5  C   LIG d   1       4.450  -2.176  -8.982  0.00  0.00    -0.032 A 
ATOM      6  C   LIG d   1       4.110  -2.024 -10.309  0.00  0.00     0.045 A 
ATOM      7 CL   LIG d   1       4.734  -3.128 -11.494  0.00  0.00    -0.083 Cl
ATOM      8  C   LIG d   1       4.299  -1.432  -6.609  0.00  0.00     0.007 A 
ATOM      9  C   LIG d   1       3.767  -0.514  -5.707  0.00  0.00     0.075 A 
ATOM     10  C   LIG d   1       2.892   0.543  -6.213  0.00  0.00     0.346 A 
ATOM     11  O   LIG d   1       2.418   1.355  -5.439  0.00  0.00    -0.244 OA
ATOM     12  O   LIG d   1       2.603   0.631  -7.521  0.00  0.00    -0.422 OA
ATOM     13  H   LIG d   1       2.115   0.696 -10.088  0.00  0.00     0.066 H 
ATOM     14  H   LIG d   1       5.103  -2.981  -8.679  0.00  0.00     0.064 H 
ENDROOT
BRANCH   8  15
ATOM     15  C   LIG d   1       5.184  -2.523  -6.152  0.00  0.00    -0.016 A 
ATOM     16  C   LIG d   1       4.668  -3.804  -5.944  0.00  0.00    -0.054 A 
ATOM     17  C   LIG d   1       5.500  -4.818  -5.517  0.00  0.00    -0.061 A 
ATOM     18  H   LIG d   1       3.620  -4.001  -6.116  0.00  0.00     0.062 H 
ATOM     19  C   LIG d   1       6.844  -4.567  -5.295  0.00  0.00    -0.062 A 
ATOM     20  H   LIG d   1       5.103  -5.809  -5.356  0.00  0.00     0.062 H 
ATOM     21  C   LIG d   1       7.361  -3.301  -5.499  0.00  0.00    -0.061 A 
ATOM     22  H   LIG d   1       7.490  -5.365  -4.960  0.00  0.00     0.062 H 
ATOM     23  C   LIG d   1       6.541  -2.279  -5.932  0.00  0.00    -0.054 A 
ATOM     24  H   LIG d   1       8.410  -3.112  -5.323  0.00  0.00     0.062 H 
ATOM     25  H   LIG d   1       6.947  -1.292  -6.095  0.00  0.00     0.062 H 
ENDBRANCH   8  15
BRANCH   9  26
ATOM     26  C   LIG d   1       4.081  -0.605  -4.263  0.00  0.00    -0.010 A 
ATOM     27  C   LIG d   1       4.977   0.293  -3.683  0.00  0.00    -0.054 A 
ATOM     28  C   LIG d   1       5.265   0.203  -2.337  0.00  0.00    -0.061 A 
ATOM     29  H   LIG d   1       5.445   1.058  -4.287  0.00  0.00     0.062 H 
ATOM     30  C   LIG d   1       4.668  -0.775  -1.562  0.00  0.00    -0.062 A 
ATOM     31  H   LIG d   1       5.960   0.898  -1.886  0.00  0.00     0.062 H 
ATOM     32  C   LIG d   1       3.778  -1.669  -2.132  0.00  0.00    -0.061 A 
ATOM     33  H   LIG d   1       4.897  -0.842  -0.509  0.00  0.00     0.062 H 
ATOM     34  C   LIG d   1       3.477  -1.585  -3.476  0.00  0.00    -0.054 A 
ATOM     35  H   LIG d   1       3.314  -2.430  -1.522  0.00  0.00     0.062 H 
ATOM     36  H   LIG d   1       2.779  -2.281  -3.917  0.00  0.00     0.062 H 
ENDBRANCH   9  26
BRANCH   1  37
ATOM     37  C   LIG d   1       2.905  -0.835 -12.155  0.00  0.00    -0.038 C 
ATOM     38  H   LIG d   1       1.848  -0.583 -12.238  0.00  0.00     0.028 H 
ATOM     39  H   LIG d   1       3.504  -0.040 -12.597  0.00  0.00     0.028 H 
ATOM     40  H   LIG d   1       3.099  -1.770 -12.680  0.00  0.00     0.028 H 
ENDBRANCH   1  37
TORSDOF 3
ENDMDL
MODEL 3
REMARK VINA RESULT:      -6.5      2.615      4.917
REMARK  3 active torsions:
REMARK  status: ('A' for Active; 'I' for Inactive)
REMARK    1  A    between atoms: C_1  and  C_2 
REMARK    2  A    between atoms: C_9  and  C_20 
REMARK    3  A    between atoms: C_10  and  C_14 
ROOT
ATOM      1  C   LIG d   1       4.680  -5.871  -6.091  0.00  0.00    -0.029 A 
ATOM      2  C   LIG d   1       4.952  -4.692  -5.432  0.00  0.00    -0.014 A 
ATOM      3  C   LIG d   1       4.758  -3.473  -6.073  0.00  0.00     0.140 A 
ATOM      4  C   LIG d   1       4.285  -3.460  -7.395  0.00  0.00     0.027 A 
ATOM      5  C   LIG d   1       4.014  -4.663  -8.053  0.00  0.00    -0.032 A 
ATOM      6  C   LIG d   1       4.213  -5.860  -7.398  0.00  0.00     0.045 A 
ATOM      7 CL   LIG d   1       3.876  -7.356  -8.210  0.00  0.00    -0.083 Cl
ATOM      8  C   LIG d   1       4.079  -2.173  -8.079  0.00  0.00     0.007 A 
ATOM      9  C   LIG d   1       4.366  -1.006  -7.373  0.00  0.00     0.075 A 
ATOM     10  C   LIG d   1       4.854  -1.119  -5.999  0.00  0.00     0.346 A 
ATOM     11  O   LIG d   1       5.110  -0.110  -5.367  0.00  0.00    -0.244 OA
ATOM     12  O   LIG d   1       5.024  -2.319  -5.425  0.00  0.00    -0.422 OA
ATOM     13  H   LIG d   1       5.315  -4.713  -4.416  0.00  0.00     0.066 H 
ATOM     14  H   LIG d   1       3.650  -4.655  -9.070  0.00  0.00     0.064 H 
ENDROOT
BRANCH   8  15
ATOM     15  C   LIG d   1       3.588  -2.119  -9.472  0.00  0.00    -0.016 A 
ATOM     16  C   LIG d   1       4.494  -2.131 -10.535  0.00  0.00    -0.054 A 
ATOM     17  C   LIG d   1       4.029  -2.079 -11.832  0.00  0.00    -0.061 A 
ATOM     18  H   LIG d   1       5.555  -2.179 -10.342  0.00  0.00     0.062 H 
ATOM     19  C   LIG d   1       2.669  -2.017 -12.082  0.00  0.00    -0.062 A 
ATOM     20  H   LIG d   1       4.728  -2.090 -12.656  0.00  0.00     0.062 H 
ATOM     21  C   LIG d   1       1.767  -2.004 -11.033  0.00  0.00    -0.061 A 
ATOM     22  H   LIG d   1       2.310  -1.977 -13.100  0.00  0.00     0.062 H 
ATOM     23  C   LIG d   1       2.217  -2.061  -9.731  0.00  0.00    -0.054 A 
ATOM     24  H   LIG d   1       0.706  -1.954 -11.234  0.00  0.00     0.062 H 
ATOM     25  H   LIG d   1       1.512  -2.056  -8.913  0.00  0.00     0.062 H 
ENDBRANCH   8  15
BRANCH   9  26
ATOM     26  C   LIG d   1       4.181   0.321  -8.001  0.00  0.00    -0.010 A 
ATOM     27  C   LIG d   1       2.947   0.968  -7.922  0.00  0.00    -0.054 A 
ATOM     28  C   LIG d   1       2.781   2.205  -8.509  0.00  0.00    -0.061 A 
ATOM     29  H   LIG d   1       2.123   0.501  -7.401  0.00  0.00     0.062 H 
ATOM     30  C   LIG d   1       3.835   2.805  -9.176  0.00  0.00    -0.062 A 
ATOM     31  H   LIG d   1       1.827   2.708  -8.448  0.00  0.00     0.062 H 
ATOM     32  C   LIG d   1       5.061   2.168  -9.259  0.00  0.00    -0.061 A 
ATOM     33  H   LIG d   1       3.700   3.773  -9.635  0.00  0.00     0.062 H 
ATOM     34  C   LIG d   1       5.241   0.933  -8.670  0.00  0.00    -0.054 A 
ATOM     35  H   LIG d   1       5.880   2.642  -9.781  0.00  0.00     0.062 H 
ATOM     36  H   LIG d   1       6.200   0.440  -8.732  0.00  0.00     0.062 H 
ENDBRANCH   9  26
BRANCH   1  37
ATOM     37  C   LIG d   1       4.894  -7.187  -5.387  0.00  0.00    -0.038 C 
ATOM     38  H   LIG d   1       4.299  -7.210  -4.474  0.00  0.00     0.028 H 
ATOM     39  H   LIG d   1       4.588  -8.003  -6.041  0.00  0.00     0.028 H 
ATOM     40  H   LIG d   1       5.949  -7.298  -5.137  0.00  0.00     0.028 H 
ENDBRANCH   1  37
TORSDOF 3
ENDMDL
MODEL 4
REMARK VINA RESULT:      -6.4      1.336      2.000
REMARK  3 active torsions:
REMARK  status: ('A' for Active; 'I' for Inactive)
REMARK    1  A    between atoms: C_1  and  C_2 
REMARK    2  A    between atoms: C_9  and  C_20 
REMARK    3  A    between atoms: C_10  and  C_14 
ROOT
ATOM      1  C   LIG d   1       6.212  -2.022  -4.138  0.00  0.00    -0.029 A 
ATOM      2  C   LIG d   1       5.698  -3.047  -4.902  0.00  0.00    -0.014 A 
ATOM      3  C   LIG d   1       5.052  -2.767  -6.101  0.00  0.00     0.140 A 
ATOM      4  C   LIG d   1       4.929  -1.433  -6.521  0.00  0.00     0.027 A 
ATOM      5  C   LIG d   1       5.454  -0.402  -5.737  0.00  0.00    -0.032 A 
ATOM      6  C   LIG d   1       6.091  -0.702  -4.552  0.00  0.00     0.045 A 
ATOM      7 CL   LIG d   1       6.746   0.574  -3.575  0.00  0.00    -0.083 Cl
ATOM      8  C   LIG d   1       4.245  -1.132  -7.790  0.00  0.00     0.007 A 
ATOM      9  C   LIG d   1       3.742  -2.200  -8.529  0.00  0.00     0.075 A 
ATOM     10  C   LIG d   1       3.918  -3.557  -8.012  0.00  0.00     0.346 A 
ATOM     11  O   LIG d   1       3.485  -4.503  -8.645  0.00  0.00    -0.244 OA
ATOM     12  O   LIG d   1       4.550  -3.774  -6.849  0.00  0.00    -0.422 OA
ATOM     13  H   LIG d   1       5.797  -4.069  -4.570  0.00  0.00     0.066 H 
ATOM     14  H   LIG d   1       5.362   0.625  -6.058  0.00  0.00     0.064 H 
ENDROOT
BRANCH   8  15
ATOM     15  C   LIG d   1       4.092   0.260  -8.261  0.00  0.00    -0.016 A 
ATOM     16  C   LIG d   1       5.110   0.866  -9.001  0.00  0.00    -0.054 A 
ATOM     17  C   LIG d   1       4.961   2.165  -9.437  0.00  0.00    -0.061 A 
ATOM     18  H   LIG d   1       6.012   0.319  -9.230  0.00  0.00     0.062 H 
ATOM     19  C   LIG d   1       3.805   2.869  -9.143  0.00  0.00    -0.062 A 
ATOM     20  H   LIG d   1       5.746   2.636 -10.010  0.00  0.00     0.062 H 
ATOM     21  C   LIG d   1       2.793   2.275  -8.411  0.00  0.00    -0.061 A 
ATOM     22  H   LIG d   1       3.693   3.887  -9.487  0.00  0.00     0.062 H 
ATOM     23  C   LIG d   1       2.927   0.974  -7.973  0.00  0.00    -0.054 A 
ATOM     24  H   LIG d   1       1.894   2.829  -8.184  0.00  0.00     0.062 H 
ATOM     25  H   LIG d   1       2.134   0.509  -7.405  0.00  0.00     0.062 H 
ENDBRANCH   8  15
BRANCH   9  26
ATOM     26  C   LIG d   1       3.044  -1.967  -9.813  0.00  0.00    -0.010 A 
ATOM     27  C   LIG d   1       1.668  -1.738  -9.830  0.00  0.00    -0.054 A 
ATOM     28  C   LIG d   1       1.023  -1.521 -11.030  0.00  0.00    -0.061 A 
ATOM     29  H   LIG d   1       1.108  -1.730  -8.906  0.00  0.00     0.062 H 
ATOM     30  C   LIG d   1       1.737  -1.530 -12.215  0.00  0.00    -0.062 A 
ATOM     31  H   LIG d   1      -0.043  -1.343 -11.046  0.00  0.00     0.062 H 
ATOM     32  C   LIG d   1       3.102  -1.758 -12.205  0.00  0.00    -0.061 A 
ATOM     33  H   LIG d   1       1.228  -1.361 -13.152  0.00  0.00     0.062 H 
ATOM     34  C   LIG d   1       3.760  -1.970 -11.010  0.00  0.00    -0.054 A 
ATOM     35  H   LIG d   1       3.655  -1.764 -13.133  0.00  0.00     0.062 H 
ATOM     36  H   LIG d   1       4.826  -2.143 -11.004  0.00  0.00     0.062 H 
ENDBRANCH   9  26
BRANCH   1  37
ATOM     37  C   LIG d   1       6.910  -2.335  -2.839  0.00  0.00    -0.038 C 
ATOM     38  H   LIG d   1       7.023  -1.420  -2.259  0.00  0.00     0.028 H 
ATOM     39  H   LIG d   1       6.319  -3.054  -2.273  0.00  0.00     0.028 H 
ATOM     40  H   LIG d   1       7.893  -2.758  -3.048  0.00  0.00     0.028 H 
ENDBRANCH   1  37
TORSDOF 3
ENDMDL
MODEL 5
REMARK VINA RESULT:      -6.1      5.151      6.535
REMARK  3 active torsions:
REMARK  status: ('A' for Active; 'I' for Inactive)
REMARK    1  A    between atoms: C_1  and  C_2 
REMARK    2  A    between atoms: C_9  and  C_20 
REMARK    3  A    between atoms: C_10  and  C_14 
ROOT
ATOM      1  C   LIG d   1       5.239  -1.207  -2.899  0.00  0.00    -0.029 A 
ATOM      2  C   LIG d   1       6.073  -1.982  -3.677  0.00  0.00    -0.014 A 
ATOM      3  C   LIG d   1       7.216  -1.427  -4.241  0.00  0.00     0.140 A 
ATOM      4  C   LIG d   1       7.509  -0.074  -4.012  0.00  0.00     0.027 A 
ATOM      5  C   LIG d   1       6.655   0.702  -3.222  0.00  0.00    -0.032 A 
ATOM      6  C   LIG d   1       5.528   0.132  -2.672  0.00  0.00     0.045 A 
ATOM      7 CL   LIG d   1       4.466   1.091  -1.689  0.00  0.00    -0.083 Cl
ATOM      8  C   LIG d   1       8.717   0.518  -4.608  0.00  0.00     0.007 A 
ATOM      9  C   LIG d   1       9.530  -0.303  -5.386  0.00  0.00     0.075 A 
ATOM     10  C   LIG d   1       9.145  -1.702  -5.569  0.00  0.00     0.346 A 
ATOM     11  O   LIG d   1       9.844  -2.435  -6.245  0.00  0.00    -0.244 OA
ATOM     12  O   LIG d   1       8.031  -2.190  -5.002  0.00  0.00    -0.422 OA
ATOM     13  H   LIG d   1       5.838  -3.022  -3.847  0.00  0.00     0.066 H 
ATOM     14  H   LIG d   1       6.879   1.744  -3.044  0.00  0.00     0.064 H 
ENDROOT
BRANCH   8  15
ATOM     15  C   LIG d   1       9.055   1.941  -4.394  0.00  0.00    -0.016 A 
ATOM     16  C   LIG d   1       9.779   2.327  -3.264  0.00  0.00    -0.054 A 
ATOM     17  C   LIG d   1      10.090   3.656  -3.070  0.00  0.00    -0.061 A 
ATOM     18  H   LIG d   1      10.094   1.587  -2.543  0.00  0.00     0.062 H 
ATOM     19  C   LIG d   1       9.687   4.607  -3.992  0.00  0.00    -0.062 A 
ATOM     20  H   LIG d   1      10.650   3.957  -2.196  0.00  0.00     0.062 H 
ATOM     21  C   LIG d   1       8.969   4.231  -5.113  0.00  0.00    -0.061 A 
ATOM     22  H   LIG d   1       9.933   5.646  -3.835  0.00  0.00     0.062 H 
ATOM     23  C   LIG d   1       8.656   2.904  -5.323  0.00  0.00    -0.054 A 
ATOM     24  H   LIG d   1       8.656   4.977  -5.829  0.00  0.00     0.062 H 
ATOM     25  H   LIG d   1       8.100   2.611  -6.201  0.00  0.00     0.062 H 
ENDBRANCH   8  15
BRANCH   9  26
ATOM     26  C   LIG d   1      10.760   0.228  -6.015  0.00  0.00    -0.010 A 
ATOM     27  C   LIG d   1      11.967   0.214  -5.315  0.00  0.00    -0.054 A 
ATOM     28  C   LIG d   1      13.110   0.711  -5.907  0.00  0.00    -0.061 A 
ATOM     29  H   LIG d   1      12.007  -0.184  -4.312  0.00  0.00     0.062 H 
ATOM     30  C   LIG d   1      13.061   1.223  -7.192  0.00  0.00    -0.062 A 
ATOM     31  H   LIG d   1      14.046   0.701  -5.367  0.00  0.00     0.062 H 
ATOM     32  C   LIG d   1      11.867   1.240  -7.891  0.00  0.00    -0.061 A 
ATOM     33  H   LIG d   1      13.958   1.611  -7.651  0.00  0.00     0.062 H 
ATOM     34  C   LIG d   1      10.718   0.740  -7.312  0.00  0.00    -0.054 A 
ATOM     35  H   LIG d   1      11.835   1.640  -8.894  0.00  0.00     0.062 H 
ATOM     36  H   LIG d   1       9.788   0.750  -7.861  0.00  0.00     0.062 H 
ENDBRANCH   9  26
BRANCH   1  37
ATOM     37  C   LIG d   1       4.003  -1.817  -2.292  0.00  0.00    -0.038 C 
ATOM     38  H   LIG d   1       3.518  -1.086  -1.645  0.00  0.00     0.028 H 
ATOM     39  H   LIG d   1       3.316  -2.114  -3.084  0.00  0.00     0.028 H 
ATOM     40  H   LIG d   1       4.280  -2.693  -1.705  0.00  0.00     0.028 H 
ENDBRANCH   1  37
TORSDOF 3
ENDMDL
MODEL 6
REMARK VINA RESULT:      -5.9      3.972      5.682
REMARK  3 active torsions:
REMARK  status: ('A' for Active; 'I' for Inactive)
REMARK    1  A    between atoms: C_1  and  C_2 
REMARK    2  A    between atoms: C_9  and  C_20 
REMARK    3  A    between atoms: C_10  and  C_14 
ROOT
ATOM      1  C   LIG d   1      10.025  -4.923  -4.807  0.00  0.00    -0.029 A 
ATOM      2  C   LIG d   1       8.700  -5.299  -4.871  0.00  0.00    -0.014 A 
ATOM      3  C   LIG d   1       7.702  -4.333  -4.913  0.00  0.00     0.140 A 
ATOM      4  C   LIG d   1       8.057  -2.975  -4.888  0.00  0.00     0.027 A 
ATOM      5  C   LIG d   1       9.404  -2.606  -4.824  0.00  0.00    -0.032 A 
ATOM      6  C   LIG d   1      10.378  -3.580  -4.783  0.00  0.00     0.045 A 
ATOM      7 CL   LIG d   1      12.051  -3.127  -4.704  0.00  0.00    -0.083 Cl
ATOM      8  C   LIG d   1       7.003  -1.948  -4.932  0.00  0.00     0.007 A 
ATOM      9  C   LIG d   1       5.678  -2.376  -4.996  0.00  0.00     0.075 A 
ATOM     10  C   LIG d   1       5.404  -3.812  -5.018  0.00  0.00     0.346 A 
ATOM     11  O   LIG d   1       4.253  -4.204  -5.075  0.00  0.00    -0.244 OA
ATOM     12  O   LIG d   1       6.405  -4.705  -4.976  0.00  0.00    -0.422 OA
ATOM     13  H   LIG d   1       8.438  -6.346  -4.889  0.00  0.00     0.066 H 
ATOM     14  H   LIG d   1       9.679  -1.562  -4.805  0.00  0.00     0.064 H 
ENDROOT
BRANCH   8  15
ATOM     15  C   LIG d   1       7.338  -0.510  -4.902  0.00  0.00    -0.016 A 
ATOM     16  C   LIG d   1       7.230   0.211  -3.710  0.00  0.00    -0.054 A 
ATOM     17  C   LIG d   1       7.544   1.553  -3.690  0.00  0.00    -0.061 A 
ATOM     18  H   LIG d   1       6.901  -0.282  -2.807  0.00  0.00     0.062 H 
ATOM     19  C   LIG d   1       7.965   2.187  -4.847  0.00  0.00    -0.062 A 
ATOM     20  H   LIG d   1       7.462   2.113  -2.769  0.00  0.00     0.062 H 
ATOM     21  C   LIG d   1       8.074   1.479  -6.030  0.00  0.00    -0.061 A 
ATOM     22  H   LIG d   1       8.209   3.239  -4.825  0.00  0.00     0.062 H 
ATOM     23  C   LIG d   1       7.769   0.135  -6.064  0.00  0.00    -0.054 A 
ATOM     24  H   LIG d   1       8.402   1.979  -6.929  0.00  0.00     0.062 H 
ATOM     25  H   LIG d   1       7.859  -0.418  -6.987  0.00  0.00     0.062 H 
ENDBRANCH   8  15
BRANCH   9  26
ATOM     26  C   LIG d   1       4.570  -1.396  -5.042  0.00  0.00    -0.010 A 
ATOM     27  C   LIG d   1       4.220  -0.790  -6.250  0.00  0.00    -0.054 A 
ATOM     28  C   LIG d   1       3.186   0.122  -6.286  0.00  0.00    -0.061 A 
ATOM     29  H   LIG d   1       4.758  -1.035  -7.154  0.00  0.00     0.062 H 
ATOM     30  C   LIG d   1       2.496   0.437  -5.129  0.00  0.00    -0.062 A 
ATOM     31  H   LIG d   1       2.914   0.592  -7.220  0.00  0.00     0.062 H 
ATOM     32  C   LIG d   1       2.839  -0.160  -3.928  0.00  0.00    -0.061 A 
ATOM     33  H   LIG d   1       1.688   1.152  -5.162  0.00  0.00     0.062 H 
ATOM     34  C   LIG d   1       3.867  -1.079  -3.880  0.00  0.00    -0.054 A 
ATOM     35  H   LIG d   1       2.296   0.090  -3.028  0.00  0.00     0.062 H 
ATOM     36  H   LIG d   1       4.130  -1.547  -2.943  0.00  0.00     0.062 H 
ENDBRANCH   9  26
BRANCH   1  37
ATOM     37  C   LIG d   1      11.100  -5.978  -4.762  0.00  0.00    -0.038 C 
ATOM     38  H   LIG d   1      11.746  -5.874  -5.634  0.00  0.00     0.028 H 
ATOM     39  H   LIG d   1      11.692  -5.855  -3.855  0.00  0.00     0.028 H 
ATOM     40  H   LIG d   1      10.641  -6.966  -4.766  0.00  0.00     0.028 H 
ENDBRANCH   1  37
TORSDOF 3
ENDMDL
MODEL 7
REMARK VINA RESULT:      -5.9      2.539      5.575
REMARK  3 active torsions:
REMARK  status: ('A' for Active; 'I' for Inactive)
REMARK    1  A    between atoms: C_1  and  C_2 
REMARK    2  A    between atoms: C_9  and  C_20 
REMARK    3  A    between atoms: C_10  and  C_14 
ROOT
ATOM      1  C   LIG d   1       4.419  -5.048  -9.765  0.00  0.00    -0.029 A 
ATOM      2  C   LIG d   1       4.528  -5.222  -8.402  0.00  0.00    -0.014 A 
ATOM      3  C   LIG d   1       4.495  -4.122  -7.552  0.00  0.00     0.140 A 
ATOM      4  C   LIG d   1       4.352  -2.837  -8.098  0.00  0.00     0.027 A 
ATOM      5  C   LIG d   1       4.242  -2.672  -9.482  0.00  0.00    -0.032 A 
ATOM      6  C   LIG d   1       4.277  -3.777 -10.305  0.00  0.00     0.045 A 
ATOM      7 CL   LIG d   1       4.140  -3.579 -12.024  0.00  0.00    -0.083 Cl
ATOM      8  C   LIG d   1       4.318  -1.668  -7.203  0.00  0.00     0.007 A 
ATOM      9  C   LIG d   1       4.431  -1.893  -5.832  0.00  0.00     0.075 A 
ATOM     10  C   LIG d   1       4.576  -3.268  -5.356  0.00  0.00     0.346 A 
ATOM     11  O   LIG d   1       4.676  -3.484  -4.162  0.00  0.00    -0.244 OA
ATOM     12  O   LIG d   1       4.602  -4.297  -6.217  0.00  0.00    -0.422 OA
ATOM     13  H   LIG d   1       4.638  -6.215  -7.993  0.00  0.00     0.066 H 
ATOM     14  H   LIG d   1       4.131  -1.684  -9.903  0.00  0.00     0.064 H 
ENDROOT
BRANCH   8  15
ATOM     15  C   LIG d   1       4.174  -0.300  -7.740  0.00  0.00    -0.016 A 
ATOM     16  C   LIG d   1       2.914   0.301  -7.800  0.00  0.00    -0.054 A 
ATOM     17  C   LIG d   1       2.787   1.579  -8.304  0.00  0.00    -0.061 A 
ATOM     18  H   LIG d   1       2.042  -0.233  -7.454  0.00  0.00     0.062 H 
ATOM     19  C   LIG d   1       3.904   2.265  -8.750  0.00  0.00    -0.062 A 
ATOM     20  H   LIG d   1       1.814   2.046  -8.351  0.00  0.00     0.062 H 
ATOM     21  C   LIG d   1       5.154   1.675  -8.693  0.00  0.00    -0.061 A 
ATOM     22  H   LIG d   1       3.799   3.265  -9.143  0.00  0.00     0.062 H 
ATOM     23  C   LIG d   1       5.297   0.400  -8.187  0.00  0.00    -0.054 A 
ATOM     24  H   LIG d   1       6.022   2.215  -9.043  0.00  0.00     0.062 H 
ATOM     25  H   LIG d   1       6.274  -0.057  -8.139  0.00  0.00     0.062 H 
ENDBRANCH   8  15
BRANCH   9  26
ATOM     26  C   LIG d   1       4.404  -0.763  -4.877  0.00  0.00    -0.010 A 
ATOM     27  C   LIG d   1       5.598  -0.214  -4.408  0.00  0.00    -0.054 A 
ATOM     28  C   LIG d   1       5.566   0.840  -3.518  0.00  0.00    -0.061 A 
ATOM     29  H   LIG d   1       6.545  -0.612  -4.741  0.00  0.00     0.062 H 
ATOM     30  C   LIG d   1       4.354   1.352  -3.090  0.00  0.00    -0.062 A 
ATOM     31  H   LIG d   1       6.490   1.267  -3.154  0.00  0.00     0.062 H 
ATOM     32  C   LIG d   1       3.167   0.811  -3.551  0.00  0.00    -0.061 A 
ATOM     33  H   LIG d   1       4.334   2.176  -2.393  0.00  0.00     0.062 H 
ATOM     34  C   LIG d   1       3.185  -0.239  -4.446  0.00  0.00    -0.054 A 
ATOM     35  H   LIG d   1       2.223   1.215  -3.214  0.00  0.00     0.062 H 
ATOM     36  H   LIG d   1       2.257  -0.657  -4.808  0.00  0.00     0.062 H 
ENDBRANCH   9  26
BRANCH   1  37
ATOM     37  C   LIG d   1       4.455  -6.247 -10.677  0.00  0.00    -0.038 C 
ATOM     38  H   LIG d   1       3.628  -6.189 -11.384  0.00  0.00     0.028 H 
ATOM     39  H   LIG d   1       5.399  -6.261 -11.221  0.00  0.00     0.028 H 
ATOM     40  H   LIG d   1       4.364  -7.157 -10.085  0.00  0.00     0.028 H 
ENDBRANCH   1  37
TORSDOF 3
ENDMDL
MODEL 8
REMARK VINA RESULT:      -5.8      4.494      7.152
REMARK  3 active torsions:
REMARK  status: ('A' for Active; 'I' for Inactive)
REMARK    1  A    between atoms: C_1  and  C_2 
REMARK    2  A    between atoms: C_9  and  C_20 
REMARK    3  A    between atoms: C_10  and  C_14 
ROOT
ATOM      1  C   LIG d   1      11.400   0.097  -6.248  0.00  0.00    -0.029 A 
ATOM      2  C   LIG d   1      10.651   0.916  -5.430  0.00  0.00    -0.014 A 
ATOM      3  C   LIG d   1       9.378   0.526  -5.030  0.00  0.00     0.140 A 
ATOM      4  C   LIG d   1       8.866  -0.706  -5.468  0.00  0.00     0.027 A 
ATOM      5  C   LIG d   1       9.636  -1.527  -6.298  0.00  0.00    -0.032 A 
ATOM      6  C   LIG d   1      10.896  -1.121  -6.682  0.00  0.00     0.045 A 
ATOM      7 CL   LIG d   1      11.855  -2.138  -7.711  0.00  0.00    -0.083 Cl
ATOM      8  C   LIG d   1       7.519  -1.123  -5.048  0.00  0.00     0.007 A 
ATOM      9  C   LIG d   1       6.799  -0.264  -4.220  0.00  0.00     0.075 A 
ATOM     10  C   LIG d   1       7.414   0.999  -3.814  0.00  0.00     0.346 A 
ATOM     11  O   LIG d   1       6.799   1.762  -3.091  0.00  0.00    -0.244 OA
ATOM     12  O   LIG d   1       8.647   1.330  -4.228  0.00  0.00    -0.422 OA
ATOM     13  H   LIG d   1      11.053   1.861  -5.099  0.00  0.00     0.066 H 
ATOM     14  H   LIG d   1       9.245  -2.475  -6.636  0.00  0.00     0.064 H 
ENDROOT
BRANCH   8  15
ATOM     15  C   LIG d   1       6.945  -2.410  -5.493  0.00  0.00    -0.016 A 
ATOM     16  C   LIG d   1       7.196  -3.577  -4.769  0.00  0.00    -0.054 A 
ATOM     17  C   LIG d   1       6.657  -4.775  -5.191  0.00  0.00    -0.061 A 
ATOM     18  H   LIG d   1       7.809  -3.543  -3.882  0.00  0.00     0.062 H 
ATOM     19  C   LIG d   1       5.870  -4.821  -6.330  0.00  0.00    -0.062 A 
ATOM     20  H   LIG d   1       6.849  -5.679  -4.632  0.00  0.00     0.062 H 
ATOM     21  C   LIG d   1       5.619  -3.668  -7.051  0.00  0.00    -0.061 A 
ATOM     22  H   LIG d   1       5.452  -5.762  -6.656  0.00  0.00     0.062 H 
ATOM     23  C   LIG d   1       6.146  -2.463  -6.638  0.00  0.00    -0.054 A 
ATOM     24  H   LIG d   1       5.005  -3.711  -7.939  0.00  0.00     0.062 H 
ATOM     25  H   LIG d   1       5.945  -1.562  -7.199  0.00  0.00     0.062 H 
ENDBRANCH   8  15
BRANCH   9  26
ATOM     26  C   LIG d   1       5.438  -0.622  -3.761  0.00  0.00    -0.010 A 
ATOM     27  C   LIG d   1       4.320  -0.134  -4.437  0.00  0.00    -0.054 A 
ATOM     28  C   LIG d   1       3.054  -0.472  -4.004  0.00  0.00    -0.061 A 
ATOM     29  H   LIG d   1       4.444   0.507  -5.298  0.00  0.00     0.062 H 
ATOM     30  C   LIG d   1       2.892  -1.293  -2.902  0.00  0.00    -0.062 A 
ATOM     31  H   LIG d   1       2.186  -0.095  -4.527  0.00  0.00     0.062 H 
ATOM     32  C   LIG d   1       3.998  -1.780  -2.227  0.00  0.00    -0.061 A 
ATOM     33  H   LIG d   1       1.900  -1.554  -2.567  0.00  0.00     0.062 H 
ATOM     34  C   LIG d   1       5.269  -1.454  -2.654  0.00  0.00    -0.054 A 
ATOM     35  H   LIG d   1       3.866  -2.420  -1.367  0.00  0.00     0.062 H 
ATOM     36  H   LIG d   1       6.131  -1.838  -2.128  0.00  0.00     0.062 H 
ENDBRANCH   9  26
BRANCH   1  37
ATOM     37  C   LIG d   1      12.779   0.529  -6.677  0.00  0.00    -0.038 C 
ATOM     38  H   LIG d   1      12.864   1.612  -6.584  0.00  0.00     0.028 H 
ATOM     39  H   LIG d   1      13.524   0.050  -6.042  0.00  0.00     0.028 H 
ATOM     40  H   LIG d   1      12.944   0.239  -7.714  0.00  0.00     0.028 H 
ENDBRANCH   1  37
TORSDOF 3
ENDMDL
MODEL 9
REMARK VINA RESULT:      -5.8     10.549     13.606
REMARK  3 active torsions:
REMARK  status: ('A' for Active; 'I' for Inactive)
REMARK    1  A    between atoms: C_1  and  C_2 
REMARK    2  A    between atoms: C_9  and  C_20 
REMARK    3  A    between atoms: C_10  and  C_14 
ROOT
ATOM      1  C   LIG d   1       9.380   7.205  -7.866  0.00  0.00    -0.029 A 
ATOM      2  C   LIG d   1       9.170   8.502  -7.449  0.00  0.00    -0.014 A 
ATOM      3  C   LIG d   1       9.463   8.871  -6.141  0.00  0.00     0.140 A 
ATOM      4  C   LIG d   1       9.971   7.909  -5.254  0.00  0.00     0.027 A 
ATOM      5  C   LIG d   1      10.180   6.597  -5.688  0.00  0.00    -0.032 A 
ATOM      6  C   LIG d   1       9.883   6.254  -6.990  0.00  0.00     0.045 A 
ATOM      7 CL   LIG d   1      10.142   4.626  -7.535  0.00  0.00    -0.083 Cl
ATOM      8  C   LIG d   1      10.282   8.295  -3.867  0.00  0.00     0.007 A 
ATOM      9  C   LIG d   1      10.054   9.617  -3.491  0.00  0.00     0.075 A 
ATOM     10  C   LIG d   1       9.522  10.548  -4.485  0.00  0.00     0.346 A 
ATOM     11  O   LIG d   1       9.317  11.707  -4.174  0.00  0.00    -0.244 OA
ATOM     12  O   LIG d   1       9.256  10.143  -5.736  0.00  0.00    -0.422 OA
ATOM     13  H   LIG d   1       8.778   9.233  -8.140  0.00  0.00     0.066 H 
ATOM     14  H   LIG d   1      10.572   5.856  -5.007  0.00  0.00     0.064 H 
ENDROOT
BRANCH   8  15
ATOM     15  C   LIG d   1      10.813   7.309  -2.903  0.00  0.00    -0.016 A 
ATOM     16  C   LIG d   1       9.938   6.558  -2.115  0.00  0.00    -0.054 A 
ATOM     17  C   LIG d   1      10.441   5.640  -1.216  0.00  0.00    -0.061 A 
ATOM     18  H   LIG d   1       8.872   6.695  -2.208  0.00  0.00     0.062 H 
ATOM     19  C   LIG d   1      11.809   5.464  -1.095  0.00  0.00    -0.062 A 
ATOM     20  H   LIG d   1       9.766   5.057  -0.607  0.00  0.00     0.062 H 
ATOM     21  C   LIG d   1      12.680   6.205  -1.872  0.00  0.00    -0.061 A 
ATOM     22  H   LIG d   1      12.197   4.744  -0.389  0.00  0.00     0.062 H 
ATOM     23  C   LIG d   1      12.191   7.122  -2.778  0.00  0.00    -0.054 A 
ATOM     24  H   LIG d   1      13.747   6.064  -1.771  0.00  0.00     0.062 H 
ATOM     25  H   LIG d   1      12.873   7.697  -3.388  0.00  0.00     0.062 H 
ENDBRANCH   8  15
BRANCH   9  26
ATOM     26  C   LIG d   1      10.344  10.070  -2.113  0.00  0.00    -0.010 A 
ATOM     27  C   LIG d   1      11.602  10.584  -1.795  0.00  0.00    -0.054 A 
ATOM     28  C   LIG d   1      11.866  11.006  -0.508  0.00  0.00    -0.061 A 
ATOM     29  H   LIG d   1      12.368  10.652  -2.554  0.00  0.00     0.062 H 
ATOM     30  C   LIG d   1      10.888  10.919   0.467  0.00  0.00    -0.062 A 
ATOM     31  H   LIG d   1      12.840  11.404  -0.260  0.00  0.00     0.062 H 
ATOM     32  C   LIG d   1       9.639  10.410   0.158  0.00  0.00    -0.061 A 
ATOM     33  H   LIG d   1      11.100  11.250   1.473  0.00  0.00     0.062 H 
ATOM     34  C   LIG d   1       9.360   9.991  -1.127  0.00  0.00    -0.054 A 
ATOM     35  H   LIG d   1       8.879  10.346   0.923  0.00  0.00     0.062 H 
ATOM     36  H   LIG d   1       8.383   9.598  -1.367  0.00  0.00     0.062 H 
ENDBRANCH   9  26
BRANCH   1  37
ATOM     37  C   LIG d   1       9.060   6.816  -9.287  0.00  0.00    -0.038 C 
ATOM     38  H   LIG d   1       9.722   7.351  -9.967  0.00  0.00     0.028 H 
ATOM     39  H   LIG d   1       9.203   5.743  -9.410  0.00  0.00     0.028 H 
ATOM     40  H   LIG d   1       8.024   7.073  -9.509  0.00  0.00     0.028 H 
ENDBRANCH   1  37
TORSDOF 3
ENDMDL
MODEL 10
REMARK VINA RESULT:      -5.7      3.382      5.340
REMARK  3 active torsions:
REMARK  status: ('A' for Active; 'I' for Inactive)
REMARK    1  A    between atoms: C_1  and  C_2 
REMARK    2  A    between atoms: C_9  and  C_20 
REMARK    3  A    between atoms: C_10  and  C_14 
ROOT
ATOM      1  C   LIG d   1       4.464  -0.010  -2.980  0.00  0.00    -0.029 A 
ATOM      2  C   LIG d   1       5.684  -0.556  -2.642  0.00  0.00    -0.014 A 
ATOM      3  C   LIG d   1       6.208  -1.607  -3.385  0.00  0.00     0.140 A 
ATOM      4  C   LIG d   1       5.482  -2.105  -4.479  0.00  0.00     0.027 A 
ATOM      5  C   LIG d   1       4.247  -1.543  -4.812  0.00  0.00    -0.032 A 
ATOM      6  C   LIG d   1       3.746  -0.501  -4.062  0.00  0.00     0.045 A 
ATOM      7 CL   LIG d   1       2.212   0.201  -4.473  0.00  0.00    -0.083 Cl
ATOM      8  C   LIG d   1       6.033  -3.219  -5.268  0.00  0.00     0.007 A 
ATOM      9  C   LIG d   1       7.269  -3.738  -4.889  0.00  0.00     0.075 A 
ATOM     10  C   LIG d   1       7.952  -3.155  -3.735  0.00  0.00     0.346 A 
ATOM     11  O   LIG d   1       9.033  -3.596  -3.390  0.00  0.00    -0.244 OA
ATOM     12  O   LIG d   1       7.404  -2.139  -3.051  0.00  0.00    -0.422 OA
ATOM     13  H   LIG d   1       6.233  -0.166  -1.798  0.00  0.00     0.066 H 
ATOM     14  H   LIG d   1       3.687  -1.924  -5.653  0.00  0.00     0.064 H 
ENDROOT
BRANCH   8  15
ATOM     15  C   LIG d   1       5.296  -3.773  -6.422  0.00  0.00    -0.016 A 
ATOM     16  C   LIG d   1       5.506  -3.255  -7.702  0.00  0.00    -0.054 A 
ATOM     17  C   LIG d   1       4.813  -3.776  -8.775  0.00  0.00    -0.061 A 
ATOM     18  H   LIG d   1       6.207  -2.448  -7.852  0.00  0.00     0.062 H 
ATOM     19  C   LIG d   1       3.913  -4.811  -8.585  0.00  0.00    -0.062 A 
ATOM     20  H   LIG d   1       4.974  -3.378  -9.766  0.00  0.00     0.062 H 
ATOM     21  C   LIG d   1       3.701  -5.328  -7.320  0.00  0.00    -0.061 A 
ATOM     22  H   LIG d   1       3.374  -5.215  -9.429  0.00  0.00     0.062 H 
ATOM     23  C   LIG d   1       4.390  -4.820  -6.239  0.00  0.00    -0.054 A 
ATOM     24  H   LIG d   1       2.996  -6.135  -7.179  0.00  0.00     0.062 H 
ATOM     25  H   LIG d   1       4.227  -5.228  -5.253  0.00  0.00     0.062 H 
ENDBRANCH   8  15
BRANCH   9  26
ATOM     26  C   LIG d   1       7.879  -4.859  -5.639  0.00  0.00    -0.010 A 
ATOM     27  C   LIG d   1       8.729  -4.600  -6.715  0.00  0.00    -0.054 A 
ATOM     28  C   LIG d   1       9.296  -5.649  -7.410  0.00  0.00    -0.061 A 
ATOM     29  H   LIG d   1       8.944  -3.581  -7.004  0.00  0.00     0.062 H 
ATOM     30  C   LIG d   1       9.022  -6.955  -7.043  0.00  0.00    -0.062 A 
ATOM     31  H   LIG d   1       9.954  -5.451  -8.244  0.00  0.00     0.062 H 
ATOM     32  C   LIG d   1       8.179  -7.217  -5.977  0.00  0.00    -0.061 A 
ATOM     33  H   LIG d   1       9.467  -7.772  -7.591  0.00  0.00     0.062 H 
ATOM     34  C   LIG d   1       7.612  -6.177  -5.270  0.00  0.00    -0.054 A 
ATOM     35  H   LIG d   1       7.970  -8.239  -5.695  0.00  0.00     0.062 H 
ATOM     36  H   LIG d   1       6.958  -6.384  -4.436  0.00  0.00     0.062 H 
ENDBRANCH   9  26
BRANCH   1  37
ATOM     37  C   LIG d   1       3.904   1.130  -2.169  0.00  0.00    -0.038 C 
ATOM     38  H   LIG d   1       3.249   0.734  -1.392  0.00  0.00     0.028 H 
ATOM     39  H   LIG d   1       4.721   1.683  -1.707  0.00  0.00     0.028 H 
ATOM     40  H   LIG d   1       3.337   1.795  -2.819  0.00  0.00     0.028 H 
ENDBRANCH   1  37
TORSDOF 3
ENDMDL
