MODEL 1
REMARK VINA RESULT:      -7.4      0.000      0.000
REMARK  9 active torsions:
REMARK  status: ('A' for Active; 'I' for Inactive)
REMARK    1  A    between atoms: C_1  and  C_2 
REMARK    2  A    between atoms: C_2  and  C_3 
REMARK       I    between atoms: C_3  and  N_5 
REMARK    3  A    between atoms: C_15  and  C_17 
REMARK    4  A    between atoms: C_20  and  C_23 
REMARK    5  A    between atoms: C_23  and  O_25 
REMARK    6  A    between atoms: O_25  and  C_26 
REMARK    7  A    between atoms: C_30  and  C_33 
REMARK    8  A    between atoms: C_36  and  O_39 
REMARK    9  A    between atoms: O_39  and  C_40 
ROOT
ATOM      1  C   LIG d   1       4.846  -0.289  -6.783  0.00  0.00     0.220 C 
ATOM      2  O   LIG d   1       5.310  -0.116  -7.890  0.00  0.00    -0.275 OA
ATOM      3  N   LIG d   1       5.658  -0.592  -5.750  0.00  0.00    -0.258 N 
ATOM      4  C   LIG d   1       5.109  -0.787  -4.481  0.00  0.00     0.058 A 
ATOM      5  C   LIG d   1       4.278  -1.860  -4.207  0.00  0.00    -0.038 A 
ATOM      6  C   LIG d   1       3.831  -2.061  -2.912  0.00  0.00    -0.060 A 
ATOM      7  C   LIG d   1       4.212  -1.200  -1.900  0.00  0.00    -0.060 A 
ATOM      8  C   LIG d   1       5.030  -0.116  -2.173  0.00  0.00    -0.039 A 
ATOM      9  C   LIG d   1       5.464   0.095  -3.472  0.00  0.00     0.053 A 
ATOM     10  N   LIG d   1       6.215   1.207  -3.829  0.00  0.00    -0.316 N 
ATOM     11  C   LIG d   1       7.487   1.162  -4.300  0.00  0.00     0.017 C 
ATOM     12  C   LIG d   1       7.918   0.328  -5.261  0.00  0.00     0.037 C 
ATOM     13  C   LIG d   1       7.083  -0.707  -5.976  0.00  0.00     0.086 C 
ATOM     14  H   LIG d   1       7.271  -0.623  -7.046  0.00  0.00     0.061 H 
ATOM     15  C   LIG d   1       9.264   0.373  -5.692  0.00  0.00     0.163 C 
ATOM     16  O   LIG d   1       9.632  -0.404  -6.550  0.00  0.00    -0.292 OA
ATOM     17  C   LIG d   1      10.255   1.346  -5.125  0.00  0.00     0.017 C 
ATOM     18  C   LIG d   1       9.499   2.595  -4.656  0.00  0.00    -0.004 C 
ATOM     19  H   LIG d   1       9.017   3.076  -5.507  0.00  0.00     0.036 H 
ATOM     20  C   LIG d   1       8.443   2.146  -3.647  0.00  0.00    -0.007 C 
ATOM     21  H   LIG d   1       3.981  -2.534  -4.997  0.00  0.00     0.064 H 
ATOM     22  H   LIG d   1       3.182  -2.896  -2.692  0.00  0.00     0.062 H 
ATOM     23  H   LIG d   1       3.870  -1.372  -0.890  0.00  0.00     0.062 H 
ATOM     24  H   LIG d   1       5.326   0.557  -1.382  0.00  0.00     0.064 H 
ATOM     25  H   LIG d   1       5.801   2.079  -3.734  0.00  0.00     0.152 HD
ATOM     26  H   LIG d   1      10.920   1.593  -5.830  0.00  0.00     0.035 H 
ATOM     27  H   LIG d   1      10.775   0.894  -4.281  0.00  0.00     0.035 H 
ATOM     28  H   LIG d   1       7.885   3.016  -3.298  0.00  0.00     0.033 H 
ATOM     29  H   LIG d   1       8.932   1.668  -2.800  0.00  0.00     0.033 H 
ENDROOT
BRANCH  13  30
ATOM     30  C   LIG d   1       7.528  -2.072  -5.521  0.00  0.00    -0.022 A 
ATOM     31  C   LIG d   1       8.010  -2.246  -4.235  0.00  0.00    -0.056 A 
ATOM     32  C   LIG d   1       8.420  -3.494  -3.812  0.00  0.00    -0.047 A 
ATOM     33  H   LIG d   1       8.067  -1.403  -3.562  0.00  0.00     0.062 H 
ATOM     34  C   LIG d   1       8.347  -4.582  -4.683  0.00  0.00     0.059 A 
ATOM     35  H   LIG d   1       8.796  -3.627  -2.808  0.00  0.00     0.063 H 
ATOM     36  C   LIG d   1       7.859  -4.400  -5.979  0.00  0.00    -0.047 A 
ATOM     37  C   LIG d   1       7.447  -3.148  -6.387  0.00  0.00    -0.056 A 
ATOM     38  H   LIG d   1       7.800  -5.237  -6.657  0.00  0.00     0.063 H 
ATOM     39  H   LIG d   1       7.066  -3.007  -7.388  0.00  0.00     0.062 H 
BRANCH  34  40
ATOM     40  C   LIG d   1       8.784  -5.921  -4.236  0.00  0.00     0.339 C 
ATOM     41  O   LIG d   1       8.177  -6.910  -4.596  0.00  0.00    -0.245 OA
BRANCH  40  42
ATOM     42  O   LIG d   1       9.856  -6.045  -3.429  0.00  0.00    -0.465 OA
BRANCH  42  43
ATOM     43  C   LIG d   1       9.628  -6.614  -2.113  0.00  0.00     0.082 C 
ATOM     44  H   LIG d   1      10.582  -6.882  -1.662  0.00  0.00     0.066 H 
ATOM     45  H   LIG d   1       9.121  -5.882  -1.483  0.00  0.00     0.066 H 
ATOM     46  H   LIG d   1       9.007  -7.505  -2.206  0.00  0.00     0.066 H 
ENDBRANCH  42  43
ENDBRANCH  40  42
ENDBRANCH  34  40
ENDBRANCH  13  30
BRANCH   1  47
ATOM     47  C   LIG d   1       3.360  -0.165  -6.561  0.00  0.00     0.022 C 
ATOM     48  H   LIG d   1       3.011  -1.001  -5.956  0.00  0.00     0.036 H 
ATOM     49  H   LIG d   1       3.146   0.771  -6.045  0.00  0.00     0.036 H 
BRANCH  47  50
ATOM     50  C   LIG d   1       2.640  -0.178  -7.912  0.00  0.00    -0.057 C 
ATOM     51  H   LIG d   1       3.210   0.408  -8.632  0.00  0.00     0.023 H 
ATOM     52  H   LIG d   1       2.554  -1.205  -8.267  0.00  0.00     0.023 H 
ATOM     53  H   LIG d   1       1.645   0.252  -7.797  0.00  0.00     0.023 H 
ENDBRANCH  47  50
ENDBRANCH   1  47
BRANCH  18  54
ATOM     54  C   LIG d   1      10.457   3.555  -4.000  0.00  0.00    -0.043 A 
ATOM     55  C   LIG d   1      11.570   4.000  -4.689  0.00  0.00    -0.055 A 
ATOM     56  C   LIG d   1      12.450   4.881  -4.089  0.00  0.00    -0.020 A 
ATOM     57  H   LIG d   1      11.751   3.659  -5.698  0.00  0.00     0.062 H 
ATOM     58  C   LIG d   1      12.215   5.318  -2.793  0.00  0.00     0.120 A 
ATOM     59  H   LIG d   1      13.318   5.229  -4.629  0.00  0.00     0.065 H 
ATOM     60  C   LIG d   1      11.098   4.869  -2.103  0.00  0.00    -0.020 A 
ATOM     61  C   LIG d   1      10.219   3.994  -2.710  0.00  0.00    -0.055 A 
ATOM     62  H   LIG d   1      10.914   5.209  -1.095  0.00  0.00     0.065 H 
ATOM     63  H   LIG d   1       9.346   3.647  -2.175  0.00  0.00     0.062 H 
BRANCH  58  64
ATOM     64  O   LIG d   1      13.078   6.184  -2.201  0.00  0.00    -0.495 OA
BRANCH  64  65
ATOM     65  C   LIG d   1      13.455   5.904  -0.851  0.00  0.00     0.079 C 
ATOM     66  H   LIG d   1      14.305   5.220  -0.846  0.00  0.00     0.066 H 
ATOM     67  H   LIG d   1      13.733   6.831  -0.351  0.00  0.00     0.066 H 
ATOM     68  H   LIG d   1      12.616   5.445  -0.327  0.00  0.00     0.066 H 
ENDBRANCH  64  65
ENDBRANCH  58  64
ENDBRANCH  18  54
TORSDOF 9
ENDMDL
MODEL 2
REMARK VINA RESULT:      -6.3      3.561     10.160
REMARK  9 active torsions:
REMARK  status: ('A' for Active; 'I' for Inactive)
REMARK    1  A    between atoms: C_1  and  C_2 
REMARK    2  A    between atoms: C_2  and  C_3 
REMARK       I    between atoms: C_3  and  N_5 
REMARK    3  A    between atoms: C_15  and  C_17 
REMARK    4  A    between atoms: C_20  and  C_23 
REMARK    5  A    between atoms: C_23  and  O_25 
REMARK    6  A    between atoms: O_25  and  C_26 
REMARK    7  A    between atoms: C_30  and  C_33 
REMARK    8  A    between atoms: C_36  and  O_39 
REMARK    9  A    between atoms: O_39  and  C_40 
ROOT
ATOM      1  C   LIG d   1      13.601   4.645  -3.728  0.00  0.00     0.220 C 
ATOM      2  O   LIG d   1      14.138   3.912  -4.531  0.00  0.00    -0.275 OA
ATOM      3  N   LIG d   1      12.326   5.037  -3.918  0.00  0.00    -0.258 N 
ATOM      4  C   LIG d   1      11.720   5.881  -2.985  0.00  0.00     0.058 A 
ATOM      5  C   LIG d   1      12.147   7.185  -2.802  0.00  0.00    -0.038 A 
ATOM      6  C   LIG d   1      11.458   8.010  -1.930  0.00  0.00    -0.060 A 
ATOM      7  C   LIG d   1      10.353   7.537  -1.246  0.00  0.00    -0.060 A 
ATOM      8  C   LIG d   1       9.934   6.228  -1.414  0.00  0.00    -0.039 A 
ATOM      9  C   LIG d   1      10.632   5.397  -2.275  0.00  0.00     0.053 A 
ATOM     10  N   LIG d   1      10.316   4.053  -2.425  0.00  0.00    -0.316 N 
ATOM     11  C   LIG d   1       9.876   3.486  -3.576  0.00  0.00     0.017 C 
ATOM     12  C   LIG d   1      10.424   3.686  -4.786  0.00  0.00     0.037 C 
ATOM     13  C   LIG d   1      11.607   4.575  -5.087  0.00  0.00     0.086 C 
ATOM     14  H   LIG d   1      12.300   4.024  -5.723  0.00  0.00     0.061 H 
ATOM     15  C   LIG d   1       9.896   3.033  -5.924  0.00  0.00     0.163 C 
ATOM     16  O   LIG d   1      10.400   3.245  -7.009  0.00  0.00    -0.292 OA
ATOM     17  C   LIG d   1       8.734   2.088  -5.839  0.00  0.00     0.017 C 
ATOM     18  C   LIG d   1       8.727   1.448  -4.446  0.00  0.00    -0.004 C 
ATOM     19  H   LIG d   1       9.636   0.864  -4.303  0.00  0.00     0.036 H 
ATOM     20  C   LIG d   1       8.669   2.577  -3.417  0.00  0.00    -0.007 C 
ATOM     21  H   LIG d   1      13.009   7.556  -3.336  0.00  0.00     0.064 H 
ATOM     22  H   LIG d   1      11.786   9.028  -1.782  0.00  0.00     0.062 H 
ATOM     23  H   LIG d   1       9.813   8.191  -0.577  0.00  0.00     0.062 H 
ATOM     24  H   LIG d   1       9.071   5.859  -0.880  0.00  0.00     0.064 H 
ATOM     25  H   LIG d   1      10.418   3.479  -1.650  0.00  0.00     0.152 HD
ATOM     26  H   LIG d   1       8.828   1.381  -6.540  0.00  0.00     0.035 H 
ATOM     27  H   LIG d   1       7.804   2.632  -5.997  0.00  0.00     0.035 H 
ATOM     28  H   LIG d   1       8.667   2.151  -2.413  0.00  0.00     0.033 H 
ATOM     29  H   LIG d   1       7.758   3.155  -3.565  0.00  0.00     0.033 H 
ENDROOT
BRANCH  13  30
ATOM     30  C   LIG d   1      11.114   5.777  -5.850  0.00  0.00    -0.022 A 
ATOM     31  C   LIG d   1       9.853   6.286  -5.594  0.00  0.00    -0.056 A 
ATOM     32  C   LIG d   1       9.396   7.387  -6.288  0.00  0.00    -0.047 A 
ATOM     33  H   LIG d   1       9.225   5.820  -4.849  0.00  0.00     0.062 H 
ATOM     34  C   LIG d   1      10.209   7.988  -7.251  0.00  0.00     0.059 A 
ATOM     35  H   LIG d   1       8.411   7.782  -6.087  0.00  0.00     0.063 H 
ATOM     36  C   LIG d   1      11.481   7.470  -7.504  0.00  0.00    -0.047 A 
ATOM     37  C   LIG d   1      11.927   6.373  -6.798  0.00  0.00    -0.056 A 
ATOM     38  H   LIG d   1      12.114   7.931  -8.248  0.00  0.00     0.063 H 
ATOM     39  H   LIG d   1      12.913   5.973  -6.991  0.00  0.00     0.062 H 
BRANCH  34  40
ATOM     40  C   LIG d   1       9.725   9.167  -7.998  0.00  0.00     0.339 C 
ATOM     41  O   LIG d   1       8.786   9.060  -8.762  0.00  0.00    -0.245 OA
BRANCH  40  42
ATOM     42  O   LIG d   1      10.326  10.362  -7.833  0.00  0.00    -0.465 OA
BRANCH  42  43
ATOM     43  C   LIG d   1      10.029  11.084  -6.609  0.00  0.00     0.082 C 
ATOM     44  H   LIG d   1       9.107  11.650  -6.734  0.00  0.00     0.066 H 
ATOM     45  H   LIG d   1       9.913  10.376  -5.788  0.00  0.00     0.066 H 
ATOM     46  H   LIG d   1      10.847  11.769  -6.384  0.00  0.00     0.066 H 
ENDBRANCH  42  43
ENDBRANCH  40  42
ENDBRANCH  34  40
ENDBRANCH  13  30
BRANCH   1  47
ATOM     47  C   LIG d   1      14.361   5.118  -2.514  0.00  0.00     0.022 C 
ATOM     48  H   LIG d   1      14.834   6.075  -2.732  0.00  0.00     0.036 H 
ATOM     49  H   LIG d   1      13.673   5.235  -1.677  0.00  0.00     0.036 H 
BRANCH  47  50
ATOM     50  C   LIG d   1      15.435   4.089  -2.153  0.00  0.00    -0.057 C 
ATOM     51  H   LIG d   1      15.326   3.212  -2.790  0.00  0.00     0.023 H 
ATOM     52  H   LIG d   1      16.422   4.526  -2.302  0.00  0.00     0.023 H 
ATOM     53  H   LIG d   1      15.320   3.797  -1.109  0.00  0.00     0.023 H 
ENDBRANCH  47  50
ENDBRANCH   1  47
BRANCH  18  54
ATOM     54  C   LIG d   1       7.519   0.560  -4.298  0.00  0.00    -0.043 A 
ATOM     55  C   LIG d   1       6.529   0.886  -3.389  0.00  0.00    -0.055 A 
ATOM     56  C   LIG d   1       5.420   0.073  -3.251  0.00  0.00    -0.020 A 
ATOM     57  H   LIG d   1       6.622   1.779  -2.787  0.00  0.00     0.062 H 
ATOM     58  C   LIG d   1       5.302  -1.072  -4.024  0.00  0.00     0.120 A 
ATOM     59  H   LIG d   1       4.647   0.330  -2.541  0.00  0.00     0.065 H 
ATOM     60  C   LIG d   1       6.297  -1.398  -4.935  0.00  0.00    -0.020 A 
ATOM     61  C   LIG d   1       7.400  -0.578  -5.073  0.00  0.00    -0.055 A 
ATOM     62  H   LIG d   1       6.206  -2.289  -5.539  0.00  0.00     0.065 H 
ATOM     63  H   LIG d   1       8.173  -0.829  -5.786  0.00  0.00     0.062 H 
BRANCH  58  64
ATOM     64  O   LIG d   1       4.213  -1.873  -3.891  0.00  0.00    -0.495 OA
BRANCH  64  65
ATOM     65  C   LIG d   1       3.609  -1.937  -2.597  0.00  0.00     0.079 C 
ATOM     66  H   LIG d   1       4.122  -1.252  -1.922  0.00  0.00     0.066 H 
ATOM     67  H   LIG d   1       2.559  -1.656  -2.672  0.00  0.00     0.066 H 
ATOM     68  H   LIG d   1       3.686  -2.954  -2.210  0.00  0.00     0.066 H 
ENDBRANCH  64  65
ENDBRANCH  58  64
ENDBRANCH  18  54
TORSDOF 9
ENDMDL
MODEL 3
REMARK VINA RESULT:      -6.2      3.572     10.856
REMARK  9 active torsions:
REMARK  status: ('A' for Active; 'I' for Inactive)
REMARK    1  A    between atoms: C_1  and  C_2 
REMARK    2  A    between atoms: C_2  and  C_3 
REMARK       I    between atoms: C_3  and  N_5 
REMARK    3  A    between atoms: C_15  and  C_17 
REMARK    4  A    between atoms: C_20  and  C_23 
REMARK    5  A    between atoms: C_23  and  O_25 
REMARK    6  A    between atoms: O_25  and  C_26 
REMARK    7  A    between atoms: C_30  and  C_33 
REMARK    8  A    between atoms: C_36  and  O_39 
REMARK    9  A    between atoms: O_39  and  C_40 
ROOT
ATOM      1  C   LIG d   1      14.390   5.408  -2.696  0.00  0.00     0.220 C 
ATOM      2  O   LIG d   1      14.920   5.090  -3.740  0.00  0.00    -0.275 OA
ATOM      3  N   LIG d   1      13.091   5.770  -2.682  0.00  0.00    -0.258 N 
ATOM      4  C   LIG d   1      12.494   6.133  -1.473  0.00  0.00     0.058 A 
ATOM      5  C   LIG d   1      12.873   7.277  -0.791  0.00  0.00    -0.038 A 
ATOM      6  C   LIG d   1      12.190   7.643   0.356  0.00  0.00    -0.060 A 
ATOM      7  C   LIG d   1      11.139   6.873   0.818  0.00  0.00    -0.060 A 
ATOM      8  C   LIG d   1      10.768   5.719   0.148  0.00  0.00    -0.039 A 
ATOM      9  C   LIG d   1      11.461   5.344  -0.991  0.00  0.00     0.053 A 
ATOM     10  N   LIG d   1      11.196   4.157  -1.661  0.00  0.00    -0.316 N 
ATOM     11  C   LIG d   1      10.728   4.075  -2.932  0.00  0.00     0.017 C 
ATOM     12  C   LIG d   1      11.212   4.773  -3.972  0.00  0.00     0.037 C 
ATOM     13  C   LIG d   1      12.341   5.774  -3.919  0.00  0.00     0.086 C 
ATOM     14  H   LIG d   1      13.026   5.565  -4.740  0.00  0.00     0.061 H 
ATOM     15  C   LIG d   1      10.660   4.601  -5.263  0.00  0.00     0.163 C 
ATOM     16  O   LIG d   1      11.104   5.259  -6.184  0.00  0.00    -0.292 OA
ATOM     17  C   LIG d   1       9.544   3.637  -5.536  0.00  0.00     0.017 C 
ATOM     18  C   LIG d   1       9.628   2.493  -4.519  0.00  0.00    -0.004 C 
ATOM     19  H   LIG d   1      10.567   1.954  -4.646  0.00  0.00     0.036 H 
ATOM     20  C   LIG d   1       9.569   3.110  -3.122  0.00  0.00    -0.007 C 
ATOM     21  H   LIG d   1      13.694   7.880  -1.152  0.00  0.00     0.064 H 
ATOM     22  H   LIG d   1      12.481   8.534   0.893  0.00  0.00     0.062 H 
ATOM     23  H   LIG d   1      10.603   7.173   1.708  0.00  0.00     0.062 H 
ATOM     24  H   LIG d   1       9.947   5.118   0.511  0.00  0.00     0.064 H 
ATOM     25  H   LIG d   1      11.358   3.327  -1.185  0.00  0.00     0.152 HD
ATOM     26  H   LIG d   1       9.636   3.276  -6.465  0.00  0.00     0.035 H 
ATOM     27  H   LIG d   1       8.585   4.144  -5.439  0.00  0.00     0.035 H 
ATOM     28  H   LIG d   1       9.631   2.318  -2.374  0.00  0.00     0.033 H 
ATOM     29  H   LIG d   1       8.629   3.646  -3.002  0.00  0.00     0.033 H 
ENDROOT
BRANCH  13  30
ATOM     30  C   LIG d   1      11.763   7.151  -4.121  0.00  0.00    -0.022 A 
ATOM     31  C   LIG d   1      10.477   7.429  -3.690  0.00  0.00    -0.056 A 
ATOM     32  C   LIG d   1       9.942   8.688  -3.872  0.00  0.00    -0.047 A 
ATOM     33  H   LIG d   1       9.891   6.658  -3.211  0.00  0.00     0.062 H 
ATOM     34  C   LIG d   1      10.701   9.683  -4.492  0.00  0.00     0.059 A 
ATOM     35  H   LIG d   1       8.939   8.902  -3.535  0.00  0.00     0.063 H 
ATOM     36  C   LIG d   1      11.998   9.396  -4.924  0.00  0.00    -0.047 A 
ATOM     37  C   LIG d   1      12.522   8.135  -4.730  0.00  0.00    -0.056 A 
ATOM     38  H   LIG d   1      12.589  10.161  -5.404  0.00  0.00     0.063 H 
ATOM     39  H   LIG d   1      13.527   7.913  -5.061  0.00  0.00     0.062 H 
BRANCH  34  40
ATOM     40  C   LIG d   1      10.134  11.032  -4.689  0.00  0.00     0.339 C 
ATOM     41  O   LIG d   1      10.856  11.952  -5.019  0.00  0.00    -0.245 OA
BRANCH  40  42
ATOM     42  O   LIG d   1       8.816  11.243  -4.504  0.00  0.00    -0.465 OA
BRANCH  42  43
ATOM     43  C   LIG d   1       8.427  11.970  -3.310  0.00  0.00     0.082 C 
ATOM     44  H   LIG d   1       8.432  11.295  -2.455  0.00  0.00     0.066 H 
ATOM     45  H   LIG d   1       9.131  12.784  -3.133  0.00  0.00     0.066 H 
ATOM     46  H   LIG d   1       7.426  12.379  -3.443  0.00  0.00     0.066 H 
ENDBRANCH  42  43
ENDBRANCH  40  42
ENDBRANCH  34  40
ENDBRANCH  13  30
BRANCH   1  47
ATOM     47  C   LIG d   1      15.184   5.398  -1.415  0.00  0.00     0.022 C 
ATOM     48  H   LIG d   1      15.928   6.193  -1.442  0.00  0.00     0.036 H 
ATOM     49  H   LIG d   1      14.513   5.558  -0.571  0.00  0.00     0.036 H 
BRANCH  47  50
ATOM     50  C   LIG d   1      15.886   4.047  -1.261  0.00  0.00    -0.057 C 
ATOM     51  H   LIG d   1      16.962   4.204  -1.185  0.00  0.00     0.023 H 
ATOM     52  H   LIG d   1      15.527   3.552  -0.359  0.00  0.00     0.023 H 
ATOM     53  H   LIG d   1      15.669   3.425  -2.129  0.00  0.00     0.023 H 
ENDBRANCH  47  50
ENDBRANCH   1  47
BRANCH  18  54
ATOM     54  C   LIG d   1       8.467   1.553  -4.710  0.00  0.00    -0.043 A 
ATOM     55  C   LIG d   1       8.290   0.911  -5.922  0.00  0.00    -0.055 A 
ATOM     56  C   LIG d   1       7.226   0.048  -6.101  0.00  0.00    -0.020 A 
ATOM     57  H   LIG d   1       8.986   1.085  -6.731  0.00  0.00     0.062 H 
ATOM     58  C   LIG d   1       6.333  -0.173  -5.062  0.00  0.00     0.120 A 
ATOM     59  H   LIG d   1       7.090  -0.453  -7.048  0.00  0.00     0.065 H 
ATOM     60  C   LIG d   1       6.512   0.472  -3.847  0.00  0.00    -0.020 A 
ATOM     61  C   LIG d   1       7.581   1.329  -3.672  0.00  0.00    -0.055 A 
ATOM     62  H   LIG d   1       5.818   0.300  -3.037  0.00  0.00     0.065 H 
ATOM     63  H   LIG d   1       7.723   1.828  -2.724  0.00  0.00     0.062 H 
BRANCH  58  64
ATOM     64  O   LIG d   1       5.286  -1.022  -5.235  0.00  0.00    -0.495 OA
BRANCH  64  65
ATOM     65  C   LIG d   1       3.978  -0.447  -5.235  0.00  0.00     0.079 C 
ATOM     66  H   LIG d   1       3.900   0.279  -6.046  0.00  0.00     0.066 H 
ATOM     67  H   LIG d   1       3.235  -1.231  -5.377  0.00  0.00     0.066 H 
ATOM     68  H   LIG d   1       3.801   0.054  -4.282  0.00  0.00     0.066 H 
ENDBRANCH  64  65
ENDBRANCH  58  64
ENDBRANCH  18  54
TORSDOF 9
ENDMDL
MODEL 4
REMARK VINA RESULT:      -6.1      3.996      9.572
REMARK  9 active torsions:
REMARK  status: ('A' for Active; 'I' for Inactive)
REMARK    1  A    between atoms: C_1  and  C_2 
REMARK    2  A    between atoms: C_2  and  C_3 
REMARK       I    between atoms: C_3  and  N_5 
REMARK    3  A    between atoms: C_15  and  C_17 
REMARK    4  A    between atoms: C_20  and  C_23 
REMARK    5  A    between atoms: C_23  and  O_25 
REMARK    6  A    between atoms: O_25  and  C_26 
REMARK    7  A    between atoms: C_30  and  C_33 
REMARK    8  A    between atoms: C_36  and  O_39 
REMARK    9  A    between atoms: O_39  and  C_40 
ROOT
ATOM      1  C   LIG d   1      13.387   4.294  -4.994  0.00  0.00     0.220 C 
ATOM      2  O   LIG d   1      13.913   3.261  -5.350  0.00  0.00    -0.275 OA
ATOM      3  N   LIG d   1      12.125   4.575  -5.375  0.00  0.00    -0.258 N 
ATOM      4  C   LIG d   1      11.532   5.768  -4.957  0.00  0.00     0.058 A 
ATOM      5  C   LIG d   1      11.992   6.999  -5.395  0.00  0.00    -0.038 A 
ATOM      6  C   LIG d   1      11.315   8.148  -5.024  0.00  0.00    -0.060 A 
ATOM      7  C   LIG d   1      10.189   8.069  -4.224  0.00  0.00    -0.060 A 
ATOM      8  C   LIG d   1       9.737   6.842  -3.772  0.00  0.00    -0.039 A 
ATOM      9  C   LIG d   1      10.423   5.692  -4.129  0.00  0.00     0.053 A 
ATOM     10  N   LIG d   1      10.073   4.440  -3.641  0.00  0.00    -0.316 N 
ATOM     11  C   LIG d   1       9.631   3.409  -4.404  0.00  0.00     0.017 C 
ATOM     12  C   LIG d   1      10.198   3.010  -5.555  0.00  0.00     0.037 C 
ATOM     13  C   LIG d   1      11.408   3.634  -6.209  0.00  0.00     0.086 C 
ATOM     14  H   LIG d   1      12.093   2.837  -6.498  0.00  0.00     0.061 H 
ATOM     15  C   LIG d   1       9.666   1.911  -6.268  0.00  0.00     0.163 C 
ATOM     16  O   LIG d   1      10.188   1.582  -7.315  0.00  0.00    -0.292 OA
ATOM     17  C   LIG d   1       8.478   1.137  -5.778  0.00  0.00     0.017 C 
ATOM     18  C   LIG d   1       8.437   1.223  -4.248  0.00  0.00    -0.004 C 
ATOM     19  H   LIG d   1       9.329   0.756  -3.828  0.00  0.00     0.036 H 
ATOM     20  C   LIG d   1       8.398   2.702  -3.867  0.00  0.00    -0.007 C 
ATOM     21  H   LIG d   1      12.870   7.062  -6.020  0.00  0.00     0.064 H 
ATOM     22  H   LIG d   1      11.668   9.111  -5.361  0.00  0.00     0.062 H 
ATOM     23  H   LIG d   1       9.660   8.971  -3.951  0.00  0.00     0.062 H 
ATOM     24  H   LIG d   1       8.859   6.781  -3.146  0.00  0.00     0.064 H 
ATOM     25  H   LIG d   1      10.150   4.292  -2.686  0.00  0.00     0.152 HD
ATOM     26  H   LIG d   1       8.561   0.183  -6.066  0.00  0.00     0.035 H 
ATOM     27  H   LIG d   1       7.565   1.561  -6.193  0.00  0.00     0.035 H 
ATOM     28  H   LIG d   1       8.372   2.794  -2.780  0.00  0.00     0.033 H 
ATOM     29  H   LIG d   1       7.505   3.160  -4.289  0.00  0.00     0.033 H 
ENDROOT
BRANCH  13  30
ATOM     30  C   LIG d   1      10.957   4.349  -7.456  0.00  0.00    -0.022 A 
ATOM     31  C   LIG d   1      11.801   4.426  -8.550  0.00  0.00    -0.056 A 
ATOM     32  C   LIG d   1      11.394   5.080  -9.695  0.00  0.00    -0.047 A 
ATOM     33  H   LIG d   1      12.781   3.974  -8.507  0.00  0.00     0.062 H 
ATOM     34  C   LIG d   1      10.127   5.664  -9.748  0.00  0.00     0.059 A 
ATOM     35  H   LIG d   1      12.054   5.139 -10.547  0.00  0.00     0.063 H 
ATOM     36  C   LIG d   1       9.280   5.582  -8.640  0.00  0.00    -0.047 A 
ATOM     37  C   LIG d   1       9.698   4.921  -7.505  0.00  0.00    -0.056 A 
ATOM     38  H   LIG d   1       8.299   6.032  -8.676  0.00  0.00     0.063 H 
ATOM     39  H   LIG d   1       9.042   4.854  -6.649  0.00  0.00     0.062 H 
BRANCH  34  40
ATOM     40  C   LIG d   1       9.684   6.365 -10.971  0.00  0.00     0.339 C 
ATOM     41  O   LIG d   1      10.106   7.476 -11.220  0.00  0.00    -0.245 OA
BRANCH  40  42
ATOM     42  O   LIG d   1       8.812   5.771 -11.809  0.00  0.00    -0.465 OA
BRANCH  42  43
ATOM     43  C   LIG d   1       8.903   6.128 -13.214  0.00  0.00     0.082 C 
ATOM     44  H   LIG d   1       8.784   7.205 -13.324  0.00  0.00     0.066 H 
ATOM     45  H   LIG d   1       9.877   5.828 -13.603  0.00  0.00     0.066 H 
ATOM     46  H   LIG d   1       8.117   5.617 -13.770  0.00  0.00     0.066 H 
ENDBRANCH  42  43
ENDBRANCH  40  42
ENDBRANCH  34  40
ENDBRANCH  13  30
BRANCH   1  47
ATOM     47  C   LIG d   1      14.145   5.265  -4.125  0.00  0.00     0.022 C 
ATOM     48  H   LIG d   1      15.170   5.352  -4.485  0.00  0.00     0.036 H 
ATOM     49  H   LIG d   1      13.663   6.242  -4.164  0.00  0.00     0.036 H 
BRANCH  47  50
ATOM     50  C   LIG d   1      14.153   4.758  -2.681  0.00  0.00    -0.057 C 
ATOM     51  H   LIG d   1      13.911   5.578  -2.006  0.00  0.00     0.023 H 
ATOM     52  H   LIG d   1      13.413   3.966  -2.570  0.00  0.00     0.023 H 
ATOM     53  H   LIG d   1      15.142   4.367  -2.439  0.00  0.00     0.023 H 
ENDBRANCH  47  50
ENDBRANCH   1  47
BRANCH  18  54
ATOM     54  C   LIG d   1       7.204   0.529  -3.730  0.00  0.00    -0.043 A 
ATOM     55  C   LIG d   1       7.079  -0.842  -3.855  0.00  0.00    -0.055 A 
ATOM     56  C   LIG d   1       5.949  -1.481  -3.381  0.00  0.00    -0.020 A 
ATOM     57  H   LIG d   1       7.867  -1.415  -4.324  0.00  0.00     0.062 H 
ATOM     58  C   LIG d   1       4.939  -0.744  -2.780  0.00  0.00     0.120 A 
ATOM     59  H   LIG d   1       5.853  -2.552  -3.479  0.00  0.00     0.065 H 
ATOM     60  C   LIG d   1       5.066   0.632  -2.657  0.00  0.00    -0.020 A 
ATOM     61  C   LIG d   1       6.201   1.264  -3.127  0.00  0.00    -0.055 A 
ATOM     62  H   LIG d   1       4.281   1.207  -2.189  0.00  0.00     0.065 H 
ATOM     63  H   LIG d   1       6.302   2.336  -3.027  0.00  0.00     0.062 H 
BRANCH  58  64
ATOM     64  O   LIG d   1       3.827  -1.369  -2.313  0.00  0.00    -0.495 OA
BRANCH  64  65
ATOM     65  C   LIG d   1       2.587  -1.049  -2.947  0.00  0.00     0.079 C 
ATOM     66  H   LIG d   1       2.581   0.007  -3.220  0.00  0.00     0.066 H 
ATOM     67  H   LIG d   1       2.468  -1.657  -3.844  0.00  0.00     0.066 H 
ATOM     68  H   LIG d   1       1.765  -1.250  -2.260  0.00  0.00     0.066 H 
ENDBRANCH  64  65
ENDBRANCH  58  64
ENDBRANCH  18  54
TORSDOF 9
ENDMDL
MODEL 5
REMARK VINA RESULT:      -6.0      3.861      7.851
REMARK  9 active torsions:
REMARK  status: ('A' for Active; 'I' for Inactive)
REMARK    1  A    between atoms: C_1  and  C_2 
REMARK    2  A    between atoms: C_2  and  C_3 
REMARK       I    between atoms: C_3  and  N_5 
REMARK    3  A    between atoms: C_15  and  C_17 
REMARK    4  A    between atoms: C_20  and  C_23 
REMARK    5  A    between atoms: C_23  and  O_25 
REMARK    6  A    between atoms: O_25  and  C_26 
REMARK    7  A    between atoms: C_30  and  C_33 
REMARK    8  A    between atoms: C_36  and  O_39 
REMARK    9  A    between atoms: O_39  and  C_40 
ROOT
ATOM      1  C   LIG d   1       8.297   1.622  -4.554  0.00  0.00     0.220 C 
ATOM      2  O   LIG d   1       7.211   2.159  -4.605  0.00  0.00    -0.275 OA
ATOM      3  N   LIG d   1       9.420   2.362  -4.651  0.00  0.00    -0.258 N 
ATOM      4  C   LIG d   1      10.665   1.731  -4.590  0.00  0.00     0.058 A 
ATOM      5  C   LIG d   1      11.088   0.865  -5.585  0.00  0.00    -0.038 A 
ATOM      6  C   LIG d   1      12.365   0.334  -5.525  0.00  0.00    -0.060 A 
ATOM      7  C   LIG d   1      13.211   0.664  -4.483  0.00  0.00    -0.060 A 
ATOM      8  C   LIG d   1      12.785   1.517  -3.478  0.00  0.00    -0.039 A 
ATOM      9  C   LIG d   1      11.502   2.036  -3.528  0.00  0.00     0.053 A 
ATOM     10  N   LIG d   1      10.983   2.827  -2.512  0.00  0.00    -0.316 N 
ATOM     11  C   LIG d   1      10.615   4.125  -2.654  0.00  0.00     0.017 C 
ATOM     12  C   LIG d   1       9.866   4.602  -3.663  0.00  0.00     0.037 C 
ATOM     13  C   LIG d   1       9.315   3.796  -4.815  0.00  0.00     0.086 C 
ATOM     14  H   LIG d   1       8.264   4.053  -4.945  0.00  0.00     0.061 H 
ATOM     15  C   LIG d   1       9.525   5.974  -3.710  0.00  0.00     0.163 C 
ATOM     16  O   LIG d   1       8.862   6.382  -4.643  0.00  0.00    -0.292 OA
ATOM     17  C   LIG d   1       9.953   6.943  -2.649  0.00  0.00     0.017 C 
ATOM     18  C   LIG d   1      10.118   6.181  -1.329  0.00  0.00    -0.004 C 
ATOM     19  H   LIG d   1       9.159   5.762  -1.023  0.00  0.00     0.036 H 
ATOM     20  C   LIG d   1      11.123   5.055  -1.565  0.00  0.00    -0.007 C 
ATOM     21  H   LIG d   1      10.428   0.607  -6.400  0.00  0.00     0.064 H 
ATOM     22  H   LIG d   1      12.702  -0.342  -6.297  0.00  0.00     0.062 H 
ATOM     23  H   LIG d   1      14.211   0.255  -4.451  0.00  0.00     0.062 H 
ATOM     24  H   LIG d   1      13.446   1.773  -2.664  0.00  0.00     0.064 H 
ATOM     25  H   LIG d   1      10.877   2.423  -1.637  0.00  0.00     0.152 HD
ATOM     26  H   LIG d   1       9.259   7.656  -2.549  0.00  0.00     0.035 H 
ATOM     27  H   LIG d   1      10.902   7.400  -2.928  0.00  0.00     0.035 H 
ATOM     28  H   LIG d   1      11.258   4.491  -0.642  0.00  0.00     0.033 H 
ATOM     29  H   LIG d   1      12.078   5.481  -1.870  0.00  0.00     0.033 H 
ENDROOT
BRANCH  13  30
ATOM     30  C   LIG d   1      10.058   4.188  -6.066  0.00  0.00    -0.022 A 
ATOM     31  C   LIG d   1       9.442   4.068  -7.299  0.00  0.00    -0.056 A 
ATOM     32  C   LIG d   1      10.117   4.426  -8.449  0.00  0.00    -0.047 A 
ATOM     33  H   LIG d   1       8.432   3.692  -7.363  0.00  0.00     0.062 H 
ATOM     34  C   LIG d   1      11.424   4.911  -8.365  0.00  0.00     0.059 A 
ATOM     35  H   LIG d   1       9.635   4.330  -9.410  0.00  0.00     0.063 H 
ATOM     36  C   LIG d   1      12.039   5.030  -7.117  0.00  0.00    -0.047 A 
ATOM     37  C   LIG d   1      11.351   4.675  -5.976  0.00  0.00    -0.056 A 
ATOM     38  H   LIG d   1      13.049   5.404  -7.046  0.00  0.00     0.063 H 
ATOM     39  H   LIG d   1      11.824   4.770  -5.010  0.00  0.00     0.062 H 
BRANCH  34  40
ATOM     40  C   LIG d   1      12.152   5.295  -9.591  0.00  0.00     0.339 C 
ATOM     41  O   LIG d   1      12.193   4.535 -10.538  0.00  0.00    -0.245 OA
BRANCH  40  42
ATOM     42  O   LIG d   1      12.770   6.491  -9.660  0.00  0.00    -0.465 OA
BRANCH  42  43
ATOM     43  C   LIG d   1      11.935   7.651  -9.907  0.00  0.00     0.082 C 
ATOM     44  H   LIG d   1      11.449   7.551 -10.877  0.00  0.00     0.066 H 
ATOM     45  H   LIG d   1      11.176   7.726  -9.127  0.00  0.00     0.066 H 
ATOM     46  H   LIG d   1      12.551   8.550  -9.902  0.00  0.00     0.066 H 
ENDBRANCH  42  43
ENDBRANCH  40  42
ENDBRANCH  34  40
ENDBRANCH  13  30
BRANCH   1  47
ATOM     47  C   LIG d   1       8.392   0.128  -4.382  0.00  0.00     0.022 C 
ATOM     48  H   LIG d   1       8.592  -0.337  -5.347  0.00  0.00     0.036 H 
ATOM     49  H   LIG d   1       9.200  -0.108  -3.691  0.00  0.00     0.036 H 
BRANCH  47  50
ATOM     50  C   LIG d   1       7.070  -0.406  -3.824  0.00  0.00    -0.057 C 
ATOM     51  H   LIG d   1       6.580   0.375  -3.243  0.00  0.00     0.023 H 
ATOM     52  H   LIG d   1       6.423  -0.706  -4.647  0.00  0.00     0.023 H 
ATOM     53  H   LIG d   1       7.267  -1.266  -3.185  0.00  0.00     0.023 H 
ENDBRANCH  47  50
ENDBRANCH   1  47
BRANCH  18  54
ATOM     54  C   LIG d   1      10.634   7.111  -0.262  0.00  0.00    -0.043 A 
ATOM     55  C   LIG d   1      11.017   6.607   0.967  0.00  0.00    -0.055 A 
ATOM     56  C   LIG d   1      11.490   7.458   1.948  0.00  0.00    -0.020 A 
ATOM     57  H   LIG d   1      10.946   5.547   1.161  0.00  0.00     0.062 H 
ATOM     58  C   LIG d   1      11.581   8.820   1.697  0.00  0.00     0.120 A 
ATOM     59  H   LIG d   1      11.790   7.063   2.907  0.00  0.00     0.065 H 
ATOM     60  C   LIG d   1      11.196   9.323   0.463  0.00  0.00    -0.020 A 
ATOM     61  C   LIG d   1      10.729   8.467  -0.516  0.00  0.00    -0.055 A 
ATOM     62  H   LIG d   1      11.266  10.383   0.266  0.00  0.00     0.065 H 
ATOM     63  H   LIG d   1      10.433   8.858  -1.479  0.00  0.00     0.062 H 
BRANCH  58  64
ATOM     64  O   LIG d   1      12.046   9.659   2.659  0.00  0.00    -0.495 OA
BRANCH  64  65
ATOM     65  C   LIG d   1      12.191   9.121   3.975  0.00  0.00     0.079 C 
ATOM     66  H   LIG d   1      11.276   9.296   4.542  0.00  0.00     0.066 H 
ATOM     67  H   LIG d   1      12.381   8.050   3.912  0.00  0.00     0.066 H 
ATOM     68  H   LIG d   1      13.027   9.609   4.477  0.00  0.00     0.066 H 
ENDBRANCH  64  65
ENDBRANCH  58  64
ENDBRANCH  18  54
TORSDOF 9
ENDMDL
MODEL 6
REMARK VINA RESULT:      -5.5      3.509      6.748
REMARK  9 active torsions:
REMARK  status: ('A' for Active; 'I' for Inactive)
REMARK    1  A    between atoms: C_1  and  C_2 
REMARK    2  A    between atoms: C_2  and  C_3 
REMARK       I    between atoms: C_3  and  N_5 
REMARK    3  A    between atoms: C_15  and  C_17 
REMARK    4  A    between atoms: C_20  and  C_23 
REMARK    5  A    between atoms: C_23  and  O_25 
REMARK    6  A    between atoms: O_25  and  C_26 
REMARK    7  A    between atoms: C_30  and  C_33 
REMARK    8  A    between atoms: C_36  and  O_39 
REMARK    9  A    between atoms: O_39  and  C_40 
ROOT
ATOM      1  C   LIG d   1      12.777   2.293  -6.705  0.00  0.00     0.220 C 
ATOM      2  O   LIG d   1      13.495   1.817  -5.851  0.00  0.00    -0.275 OA
ATOM      3  N   LIG d   1      11.532   2.702  -6.389  0.00  0.00    -0.258 N 
ATOM      4  C   LIG d   1      10.716   3.248  -7.382  0.00  0.00     0.058 A 
ATOM      5  C   LIG d   1      10.252   2.485  -8.440  0.00  0.00    -0.038 A 
ATOM      6  C   LIG d   1       9.374   3.048  -9.350  0.00  0.00    -0.060 A 
ATOM      7  C   LIG d   1       8.963   4.360  -9.205  0.00  0.00    -0.060 A 
ATOM      8  C   LIG d   1       9.439   5.131  -8.158  0.00  0.00    -0.039 A 
ATOM      9  C   LIG d   1      10.330   4.573  -7.256  0.00  0.00     0.053 A 
ATOM     10  N   LIG d   1      10.910   5.314  -6.234  0.00  0.00    -0.316 N 
ATOM     11  C   LIG d   1      10.721   5.085  -4.910  0.00  0.00     0.017 C 
ATOM     12  C   LIG d   1      10.786   3.877  -4.326  0.00  0.00     0.037 C 
ATOM     13  C   LIG d   1      11.064   2.568  -5.025  0.00  0.00     0.086 C 
ATOM     14  H   LIG d   1      11.816   2.024  -4.454  0.00  0.00     0.061 H 
ATOM     15  C   LIG d   1      10.588   3.749  -2.931  0.00  0.00     0.163 C 
ATOM     16  O   LIG d   1      10.635   2.643  -2.431  0.00  0.00    -0.292 OA
ATOM     17  C   LIG d   1      10.321   4.931  -2.048  0.00  0.00     0.017 C 
ATOM     18  C   LIG d   1      10.974   6.168  -2.676  0.00  0.00    -0.004 C 
ATOM     19  H   LIG d   1      12.055   6.030  -2.722  0.00  0.00     0.036 H 
ATOM     20  C   LIG d   1      10.411   6.324  -4.088  0.00  0.00    -0.007 C 
ATOM     21  H   LIG d   1      10.571   1.459  -8.554  0.00  0.00     0.064 H 
ATOM     22  H   LIG d   1       9.008   2.458 -10.178  0.00  0.00     0.062 H 
ATOM     23  H   LIG d   1       8.267   4.787  -9.913  0.00  0.00     0.062 H 
ATOM     24  H   LIG d   1       9.119   6.156  -8.046  0.00  0.00     0.064 H 
ATOM     25  H   LIG d   1      11.491   6.049  -6.486  0.00  0.00     0.152 HD
ATOM     26  H   LIG d   1      10.707   4.763  -1.141  0.00  0.00     0.035 H 
ATOM     27  H   LIG d   1       9.246   5.091  -1.959  0.00  0.00     0.035 H 
ATOM     28  H   LIG d   1      10.863   7.196  -4.562  0.00  0.00     0.033 H 
ATOM     29  H   LIG d   1       9.332   6.462  -4.033  0.00  0.00     0.033 H 
ENDROOT
BRANCH  13  30
ATOM     30  C   LIG d   1       9.795   1.756  -5.034  0.00  0.00    -0.022 A 
ATOM     31  C   LIG d   1       9.858   0.380  -5.162  0.00  0.00    -0.056 A 
ATOM     32  C   LIG d   1       8.699  -0.369  -5.171  0.00  0.00    -0.047 A 
ATOM     33  H   LIG d   1      10.817  -0.109  -5.256  0.00  0.00     0.062 H 
ATOM     34  C   LIG d   1       7.461   0.264  -5.050  0.00  0.00     0.059 A 
ATOM     35  H   LIG d   1       8.751  -1.443  -5.271  0.00  0.00     0.063 H 
ATOM     36  C   LIG d   1       7.405   1.654  -4.921  0.00  0.00    -0.047 A 
ATOM     37  C   LIG d   1       8.571   2.389  -4.907  0.00  0.00    -0.056 A 
ATOM     38  H   LIG d   1       6.450   2.149  -4.827  0.00  0.00     0.063 H 
ATOM     39  H   LIG d   1       8.529   3.464  -4.803  0.00  0.00     0.062 H 
BRANCH  34  40
ATOM     40  C   LIG d   1       6.217  -0.532  -5.058  0.00  0.00     0.339 C 
ATOM     41  O   LIG d   1       6.196  -1.633  -4.545  0.00  0.00    -0.245 OA
BRANCH  40  42
ATOM     42  O   LIG d   1       5.104  -0.037  -5.635  0.00  0.00    -0.465 OA
BRANCH  42  43
ATOM     43  C   LIG d   1       3.836  -0.377  -5.018  0.00  0.00     0.082 C 
ATOM     44  H   LIG d   1       3.353  -1.168  -5.591  0.00  0.00     0.066 H 
ATOM     45  H   LIG d   1       4.008  -0.721  -3.998  0.00  0.00     0.066 H 
ATOM     46  H   LIG d   1       3.192   0.503  -5.001  0.00  0.00     0.066 H 
ENDBRANCH  42  43
ENDBRANCH  40  42
ENDBRANCH  34  40
ENDBRANCH  13  30
BRANCH   1  47
ATOM     47  C   LIG d   1      13.277   2.427  -8.121  0.00  0.00     0.022 C 
ATOM     48  H   LIG d   1      13.788   1.510  -8.414  0.00  0.00     0.036 H 
ATOM     49  H   LIG d   1      12.435   2.602  -8.789  0.00  0.00     0.036 H 
BRANCH  47  50
ATOM     50  C   LIG d   1      14.252   3.603  -8.207  0.00  0.00    -0.057 C 
ATOM     51  H   LIG d   1      14.793   3.696  -7.266  0.00  0.00     0.023 H 
ATOM     52  H   LIG d   1      14.959   3.431  -9.018  0.00  0.00     0.023 H 
ATOM     53  H   LIG d   1      13.696   4.521  -8.399  0.00  0.00     0.023 H 
ENDBRANCH  47  50
ENDBRANCH   1  47
BRANCH  18  54
ATOM     54  C   LIG d   1      10.649   7.390  -1.858  0.00  0.00    -0.043 A 
ATOM     55  C   LIG d   1      11.659   8.249  -1.467  0.00  0.00    -0.055 A 
ATOM     56  C   LIG d   1      11.363   9.370  -0.716  0.00  0.00    -0.020 A 
ATOM     57  H   LIG d   1      12.681   8.043  -1.749  0.00  0.00     0.062 H 
ATOM     58  C   LIG d   1      10.050   9.633  -0.353  0.00  0.00     0.120 A 
ATOM     59  H   LIG d   1      12.153  10.041  -0.412  0.00  0.00     0.065 H 
ATOM     60  C   LIG d   1       9.038   8.769  -0.746  0.00  0.00    -0.020 A 
ATOM     61  C   LIG d   1       9.339   7.653  -1.502  0.00  0.00    -0.055 A 
ATOM     62  H   LIG d   1       8.015   8.973  -0.465  0.00  0.00     0.065 H 
ATOM     63  H   LIG d   1       8.550   6.982  -1.811  0.00  0.00     0.062 H 
BRANCH  58  64
ATOM     64  O   LIG d   1       9.756  10.735   0.385  0.00  0.00    -0.495 OA
BRANCH  64  65
ATOM     65  C   LIG d   1      10.858  11.499   0.880  0.00  0.00     0.079 C 
ATOM     66  H   LIG d   1      10.511  12.491   1.169  0.00  0.00     0.066 H 
ATOM     67  H   LIG d   1      11.289  10.997   1.745  0.00  0.00     0.066 H 
ATOM     68  H   LIG d   1      11.614  11.592   0.100  0.00  0.00     0.066 H 
ENDBRANCH  64  65
ENDBRANCH  58  64
ENDBRANCH  18  54
TORSDOF 9
ENDMDL
MODEL 7
REMARK VINA RESULT:      -5.5      7.884     11.787
REMARK  9 active torsions:
REMARK  status: ('A' for Active; 'I' for Inactive)
REMARK    1  A    between atoms: C_1  and  C_2 
REMARK    2  A    between atoms: C_2  and  C_3 
REMARK       I    between atoms: C_3  and  N_5 
REMARK    3  A    between atoms: C_15  and  C_17 
REMARK    4  A    between atoms: C_20  and  C_23 
REMARK    5  A    between atoms: C_23  and  O_25 
REMARK    6  A    between atoms: O_25  and  C_26 
REMARK    7  A    between atoms: C_30  and  C_33 
REMARK    8  A    between atoms: C_36  and  O_39 
REMARK    9  A    between atoms: O_39  and  C_40 
ROOT
ATOM      1  C   LIG d   1      -2.296  -5.901 -10.627  0.00  0.00     0.220 C 
ATOM      2  O   LIG d   1      -3.183  -5.107 -10.861  0.00  0.00    -0.275 OA
ATOM      3  N   LIG d   1      -1.090  -5.758 -11.213  0.00  0.00    -0.258 N 
ATOM      4  C   LIG d   1      -0.079  -6.679 -10.934  0.00  0.00     0.058 A 
ATOM      5  C   LIG d   1      -0.172  -8.002 -11.331  0.00  0.00    -0.038 A 
ATOM      6  C   LIG d   1       0.895  -8.855 -11.110  0.00  0.00    -0.060 A 
ATOM      7  C   LIG d   1       2.045  -8.391 -10.498  0.00  0.00    -0.060 A 
ATOM      8  C   LIG d   1       2.135  -7.073 -10.084  0.00  0.00    -0.039 A 
ATOM      9  C   LIG d   1       1.062  -6.223 -10.290  0.00  0.00     0.053 A 
ATOM     10  N   LIG d   1       1.054  -4.915  -9.824  0.00  0.00    -0.316 N 
ATOM     11  C   LIG d   1       1.003  -3.813 -10.615  0.00  0.00     0.017 C 
ATOM     12  C   LIG d   1       0.159  -3.650 -11.647  0.00  0.00     0.037 C 
ATOM     13  C   LIG d   1      -0.867  -4.652 -12.120  0.00  0.00     0.086 C 
ATOM     14  H   LIG d   1      -1.813  -4.132 -12.271  0.00  0.00     0.061 H 
ATOM     15  C   LIG d   1       0.178  -2.452 -12.400  0.00  0.00     0.163 C 
ATOM     16  O   LIG d   1      -0.585  -2.338 -13.340  0.00  0.00    -0.292 OA
ATOM     17  C   LIG d   1       1.107  -1.319 -12.081  0.00  0.00     0.017 C 
ATOM     18  C   LIG d   1       1.420  -1.352 -10.581  0.00  0.00    -0.004 C 
ATOM     19  H   LIG d   1       0.504  -1.196 -10.010  0.00  0.00     0.036 H 
ATOM     20  C   LIG d   1       2.004  -2.727 -10.258  0.00  0.00    -0.007 C 
ATOM     21  H   LIG d   1      -1.069  -8.365 -11.811  0.00  0.00     0.064 H 
ATOM     22  H   LIG d   1       0.829  -9.888 -11.417  0.00  0.00     0.062 H 
ATOM     23  H   LIG d   1       2.879  -9.061 -10.341  0.00  0.00     0.062 H 
ATOM     24  H   LIG d   1       3.033  -6.712  -9.604  0.00  0.00     0.064 H 
ATOM     25  H   LIG d   1       1.087  -4.779  -8.865  0.00  0.00     0.152 HD
ATOM     26  H   LIG d   1       0.670  -0.453 -12.321  0.00  0.00     0.035 H 
ATOM     27  H   LIG d   1       2.030  -1.428 -12.650  0.00  0.00     0.035 H 
ATOM     28  H   LIG d   1       2.233  -2.781  -9.193  0.00  0.00     0.033 H 
ATOM     29  H   LIG d   1       2.918  -2.875 -10.831  0.00  0.00     0.033 H 
ENDROOT
BRANCH  13  30
ATOM     30  C   LIG d   1      -0.412  -5.206 -13.445  0.00  0.00    -0.022 A 
ATOM     31  C   LIG d   1       0.940  -5.302 -13.724  0.00  0.00    -0.056 A 
ATOM     32  C   LIG d   1       1.363  -5.810 -14.935  0.00  0.00    -0.047 A 
ATOM     33  H   LIG d   1       1.665  -4.979 -12.992  0.00  0.00     0.062 H 
ATOM     34  C   LIG d   1       0.424  -6.227 -15.880  0.00  0.00     0.059 A 
ATOM     35  H   LIG d   1       2.419  -5.883 -15.151  0.00  0.00     0.063 H 
ATOM     36  C   LIG d   1      -0.939  -6.128 -15.592  0.00  0.00    -0.047 A 
ATOM     37  C   LIG d   1      -1.348  -5.625 -14.375  0.00  0.00    -0.056 A 
ATOM     38  H   LIG d   1      -1.670  -6.449 -16.319  0.00  0.00     0.063 H 
ATOM     39  H   LIG d   1      -2.402  -5.551 -14.149  0.00  0.00     0.062 H 
BRANCH  34  40
ATOM     40  C   LIG d   1       0.871  -6.771 -17.179  0.00  0.00     0.339 C 
ATOM     41  O   LIG d   1       0.528  -6.233 -18.213  0.00  0.00    -0.245 OA
BRANCH  40  42
ATOM     42  O   LIG d   1       1.658  -7.864 -17.217  0.00  0.00    -0.465 OA
BRANCH  42  43
ATOM     43  C   LIG d   1       0.997  -9.154 -17.137  0.00  0.00     0.082 C 
ATOM     44  H   LIG d   1       1.682  -9.935 -17.466  0.00  0.00     0.066 H 
ATOM     45  H   LIG d   1       0.695  -9.346 -16.107  0.00  0.00     0.066 H 
ATOM     46  H   LIG d   1       0.116  -9.151 -17.779  0.00  0.00     0.066 H 
ENDBRANCH  42  43
ENDBRANCH  40  42
ENDBRANCH  34  40
ENDBRANCH  13  30
BRANCH   1  47
ATOM     47  C   LIG d   1      -2.542  -7.047  -9.680  0.00  0.00     0.022 C 
ATOM     48  H   LIG d   1      -1.604  -7.566  -9.486  0.00  0.00     0.036 H 
ATOM     49  H   LIG d   1      -2.946  -6.665  -8.743  0.00  0.00     0.036 H 
BRANCH  47  50
ATOM     50  C   LIG d   1      -3.543  -8.020 -10.307  0.00  0.00    -0.057 C 
ATOM     51  H   LIG d   1      -3.095  -8.485 -11.185  0.00  0.00     0.023 H 
ATOM     52  H   LIG d   1      -3.805  -8.791  -9.582  0.00  0.00     0.023 H 
ATOM     53  H   LIG d   1      -4.441  -7.478 -10.601  0.00  0.00     0.023 H 
ENDBRANCH  47  50
ENDBRANCH   1  47
BRANCH  18  54
ATOM     54  C   LIG d   1       2.422  -0.279 -10.244  0.00  0.00    -0.043 A 
ATOM     55  C   LIG d   1       3.385   0.081 -11.168  0.00  0.00    -0.055 A 
ATOM     56  C   LIG d   1       4.306   1.065 -10.862  0.00  0.00    -0.020 A 
ATOM     57  H   LIG d   1       3.417  -0.406 -12.132  0.00  0.00     0.062 H 
ATOM     58  C   LIG d   1       4.264   1.690  -9.624  0.00  0.00     0.120 A 
ATOM     59  H   LIG d   1       5.057   1.347 -11.585  0.00  0.00     0.065 H 
ATOM     60  C   LIG d   1       3.297   1.326  -8.697  0.00  0.00    -0.020 A 
ATOM     61  C   LIG d   1       2.376   0.346  -9.012  0.00  0.00    -0.055 A 
ATOM     62  H   LIG d   1       3.263   1.811  -7.733  0.00  0.00     0.065 H 
ATOM     63  H   LIG d   1       1.620   0.065  -8.292  0.00  0.00     0.062 H 
BRANCH  58  64
ATOM     64  O   LIG d   1       5.168   2.657  -9.319  0.00  0.00    -0.495 OA
BRANCH  64  65
ATOM     65  C   LIG d   1       6.465   2.226  -8.901  0.00  0.00     0.079 C 
ATOM     66  H   LIG d   1       6.473   1.139  -8.807  0.00  0.00     0.066 H 
ATOM     67  H   LIG d   1       7.206   2.533  -9.638  0.00  0.00     0.066 H 
ATOM     68  H   LIG d   1       6.703   2.675  -7.936  0.00  0.00     0.066 H 
ENDBRANCH  64  65
ENDBRANCH  58  64
ENDBRANCH  18  54
TORSDOF 9
ENDMDL
MODEL 8
REMARK VINA RESULT:      -5.4      2.993      4.093
REMARK  9 active torsions:
REMARK  status: ('A' for Active; 'I' for Inactive)
REMARK    1  A    between atoms: C_1  and  C_2 
REMARK    2  A    between atoms: C_2  and  C_3 
REMARK       I    between atoms: C_3  and  N_5 
REMARK    3  A    between atoms: C_15  and  C_17 
REMARK    4  A    between atoms: C_20  and  C_23 
REMARK    5  A    between atoms: C_23  and  O_25 
REMARK    6  A    between atoms: O_25  and  C_26 
REMARK    7  A    between atoms: C_30  and  C_33 
REMARK    8  A    between atoms: C_36  and  O_39 
REMARK    9  A    between atoms: O_39  and  C_40 
ROOT
ATOM      1  C   LIG d   1       6.492  -1.142 -10.848  0.00  0.00     0.220 C 
ATOM      2  O   LIG d   1       7.588  -1.514 -11.210  0.00  0.00    -0.275 OA
ATOM      3  N   LIG d   1       6.141  -1.241  -9.550  0.00  0.00    -0.258 N 
ATOM      4  C   LIG d   1       4.876  -0.808  -9.146  0.00  0.00     0.058 A 
ATOM      5  C   LIG d   1       3.723  -1.453  -9.559  0.00  0.00    -0.038 A 
ATOM      6  C   LIG d   1       2.499  -1.043  -9.061  0.00  0.00    -0.060 A 
ATOM      7  C   LIG d   1       2.427   0.002  -8.158  0.00  0.00    -0.060 A 
ATOM      8  C   LIG d   1       3.577   0.660  -7.756  0.00  0.00    -0.039 A 
ATOM      9  C   LIG d   1       4.800   0.261  -8.266  0.00  0.00     0.053 A 
ATOM     10  N   LIG d   1       5.980   0.931  -7.970  0.00  0.00    -0.316 N 
ATOM     11  C   LIG d   1       7.028   0.391  -7.297  0.00  0.00     0.017 C 
ATOM     12  C   LIG d   1       7.557  -0.818  -7.547  0.00  0.00     0.037 C 
ATOM     13  C   LIG d   1       7.083  -1.792  -8.599  0.00  0.00     0.086 C 
ATOM     14  H   LIG d   1       7.952  -2.159  -9.146  0.00  0.00     0.061 H 
ATOM     15  C   LIG d   1       8.661  -1.282  -6.795  0.00  0.00     0.163 C 
ATOM     16  O   LIG d   1       9.109  -2.387  -7.029  0.00  0.00    -0.292 OA
ATOM     17  C   LIG d   1       9.299  -0.458  -5.716  0.00  0.00     0.017 C 
ATOM     18  C   LIG d   1       9.094   1.025  -6.048  0.00  0.00    -0.004 C 
ATOM     19  H   LIG d   1       9.597   1.266  -6.986  0.00  0.00     0.036 H 
ATOM     20  C   LIG d   1       7.592   1.266  -6.190  0.00  0.00    -0.007 C 
ATOM     21  H   LIG d   1       3.778  -2.270 -10.264  0.00  0.00     0.064 H 
ATOM     22  H   LIG d   1       1.595  -1.541  -9.379  0.00  0.00     0.062 H 
ATOM     23  H   LIG d   1       1.468   0.308  -7.764  0.00  0.00     0.062 H 
ATOM     24  H   LIG d   1       3.519   1.477  -7.051  0.00  0.00     0.064 H 
ATOM     25  H   LIG d   1       6.061   1.851  -8.266  0.00  0.00     0.152 HD
ATOM     26  H   LIG d   1      10.275  -0.667  -5.670  0.00  0.00     0.035 H 
ATOM     27  H   LIG d   1       8.836  -0.685  -4.756  0.00  0.00     0.035 H 
ATOM     28  H   LIG d   1       7.415   2.314  -6.432  0.00  0.00     0.033 H 
ATOM     29  H   LIG d   1       7.097   1.024  -5.251  0.00  0.00     0.033 H 
ENDROOT
BRANCH  13  30
ATOM     30  C   LIG d   1       6.431  -2.960  -7.905  0.00  0.00    -0.022 A 
ATOM     31  C   LIG d   1       6.486  -4.219  -8.475  0.00  0.00    -0.056 A 
ATOM     32  C   LIG d   1       5.891  -5.292  -7.844  0.00  0.00    -0.047 A 
ATOM     33  H   LIG d   1       6.995  -4.363  -9.416  0.00  0.00     0.062 H 
ATOM     34  C   LIG d   1       5.232  -5.106  -6.627  0.00  0.00     0.059 A 
ATOM     35  H   LIG d   1       5.935  -6.274  -8.291  0.00  0.00     0.063 H 
ATOM     36  C   LIG d   1       5.180  -3.831  -6.057  0.00  0.00    -0.047 A 
ATOM     37  C   LIG d   1       5.785  -2.769  -6.696  0.00  0.00    -0.056 A 
ATOM     38  H   LIG d   1       4.672  -3.681  -5.116  0.00  0.00     0.063 H 
ATOM     39  H   LIG d   1       5.749  -1.784  -6.253  0.00  0.00     0.062 H 
BRANCH  34  40
ATOM     40  C   LIG d   1       4.593  -6.250  -5.947  0.00  0.00     0.339 C 
ATOM     41  O   LIG d   1       3.982  -6.077  -4.911  0.00  0.00    -0.245 OA
BRANCH  40  42
ATOM     42  O   LIG d   1       4.687  -7.486  -6.475  0.00  0.00    -0.465 OA
BRANCH  42  43
ATOM     43  C   LIG d   1       5.042  -8.564  -5.569  0.00  0.00     0.082 C 
ATOM     44  H   LIG d   1       5.939  -8.291  -5.013  0.00  0.00     0.066 H 
ATOM     45  H   LIG d   1       4.222  -8.739  -4.872  0.00  0.00     0.066 H 
ATOM     46  H   LIG d   1       5.233  -9.471  -6.141  0.00  0.00     0.066 H 
ENDBRANCH  42  43
ENDBRANCH  40  42
ENDBRANCH  34  40
ENDBRANCH  13  30
BRANCH   1  47
ATOM     47  C   LIG d   1       5.521  -0.568 -11.849  0.00  0.00     0.022 C 
ATOM     48  H   LIG d   1       4.512  -0.898 -11.606  0.00  0.00     0.036 H 
ATOM     49  H   LIG d   1       5.565   0.520 -11.816  0.00  0.00     0.036 H 
BRANCH  47  50
ATOM     50  C   LIG d   1       5.892  -1.052 -13.252  0.00  0.00    -0.057 C 
ATOM     51  H   LIG d   1       5.000  -1.064 -13.879  0.00  0.00     0.023 H 
ATOM     52  H   LIG d   1       6.631  -0.379 -13.686  0.00  0.00     0.023 H 
ATOM     53  H   LIG d   1       6.308  -2.057 -13.192  0.00  0.00     0.023 H 
ENDBRANCH  47  50
ENDBRANCH   1  47
BRANCH  18  54
ATOM     54  C   LIG d   1       9.646   1.879  -4.937  0.00  0.00    -0.043 A 
ATOM     55  C   LIG d   1      10.836   1.532  -4.325  0.00  0.00    -0.055 A 
ATOM     56  C   LIG d   1      11.344   2.314  -3.305  0.00  0.00    -0.020 A 
ATOM     57  H   LIG d   1      11.369   0.649  -4.644  0.00  0.00     0.062 H 
ATOM     58  C   LIG d   1      10.657   3.448  -2.895  0.00  0.00     0.120 A 
ATOM     59  H   LIG d   1      12.274   2.042  -2.828  0.00  0.00     0.065 H 
ATOM     60  C   LIG d   1       9.463   3.794  -3.511  0.00  0.00    -0.020 A 
ATOM     61  C   LIG d   1       8.963   3.012  -4.534  0.00  0.00    -0.055 A 
ATOM     62  H   LIG d   1       8.928   4.677  -3.194  0.00  0.00     0.065 H 
ATOM     63  H   LIG d   1       8.035   3.284  -5.016  0.00  0.00     0.062 H 
BRANCH  58  64
ATOM     64  O   LIG d   1      11.155   4.219  -1.893  0.00  0.00    -0.495 OA
BRANCH  64  65
ATOM     65  C   LIG d   1      10.487   5.455  -1.632  0.00  0.00     0.079 C 
ATOM     66  H   LIG d   1      11.202   6.276  -1.702  0.00  0.00     0.066 H 
ATOM     67  H   LIG d   1       9.693   5.601  -2.363  0.00  0.00     0.066 H 
ATOM     68  H   LIG d   1      10.059   5.432  -0.629  0.00  0.00     0.066 H 
ENDBRANCH  64  65
ENDBRANCH  58  64
ENDBRANCH  18  54
TORSDOF 9
ENDMDL
MODEL 9
REMARK VINA RESULT:      -5.3      4.580      7.872
REMARK  9 active torsions:
REMARK  status: ('A' for Active; 'I' for Inactive)
REMARK    1  A    between atoms: C_1  and  C_2 
REMARK    2  A    between atoms: C_2  and  C_3 
REMARK       I    between atoms: C_3  and  N_5 
REMARK    3  A    between atoms: C_15  and  C_17 
REMARK    4  A    between atoms: C_20  and  C_23 
REMARK    5  A    between atoms: C_23  and  O_25 
REMARK    6  A    between atoms: O_25  and  C_26 
REMARK    7  A    between atoms: C_30  and  C_33 
REMARK    8  A    between atoms: C_36  and  O_39 
REMARK    9  A    between atoms: O_39  and  C_40 
ROOT
ATOM      1  C   LIG d   1      10.691  -7.546  -6.776  0.00  0.00     0.220 C 
ATOM      2  O   LIG d   1      11.531  -6.753  -7.145  0.00  0.00    -0.275 OA
ATOM      3  N   LIG d   1      10.059  -7.361  -5.599  0.00  0.00    -0.258 N 
ATOM      4  C   LIG d   1       9.093  -8.281  -5.187  0.00  0.00     0.058 A 
ATOM      5  C   LIG d   1       9.426  -9.585  -4.861  0.00  0.00    -0.038 A 
ATOM      6  C   LIG d   1       8.448 -10.435  -4.372  0.00  0.00    -0.060 A 
ATOM      7  C   LIG d   1       7.150  -9.986  -4.210  0.00  0.00    -0.060 A 
ATOM      8  C   LIG d   1       6.811  -8.688  -4.551  0.00  0.00    -0.039 A 
ATOM      9  C   LIG d   1       7.785  -7.842  -5.055  0.00  0.00     0.053 A 
ATOM     10  N   LIG d   1       7.494  -6.557  -5.495  0.00  0.00    -0.316 N 
ATOM     11  C   LIG d   1       7.981  -5.420  -4.937  0.00  0.00     0.017 C 
ATOM     12  C   LIG d   1       9.268  -5.220  -4.609  0.00  0.00     0.037 C 
ATOM     13  C   LIG d   1      10.393  -6.211  -4.786  0.00  0.00     0.086 C 
ATOM     14  H   LIG d   1      11.237  -5.697  -5.245  0.00  0.00     0.061 H 
ATOM     15  C   LIG d   1       9.675  -3.988  -4.044  0.00  0.00     0.163 C 
ATOM     16  O   LIG d   1      10.842  -3.839  -3.740  0.00  0.00    -0.292 OA
ATOM     17  C   LIG d   1       8.716  -2.860  -3.805  0.00  0.00     0.017 C 
ATOM     18  C   LIG d   1       7.581  -2.959  -4.830  0.00  0.00    -0.004 C 
ATOM     19  H   LIG d   1       7.981  -2.842  -5.838  0.00  0.00     0.036 H 
ATOM     20  C   LIG d   1       6.943  -4.340  -4.684  0.00  0.00    -0.007 C 
ATOM     21  H   LIG d   1      10.439  -9.936  -4.986  0.00  0.00     0.064 H 
ATOM     22  H   LIG d   1       8.701 -11.453  -4.116  0.00  0.00     0.062 H 
ATOM     23  H   LIG d   1       6.396 -10.652  -3.815  0.00  0.00     0.062 H 
ATOM     24  H   LIG d   1       5.796  -8.338  -4.425  0.00  0.00     0.064 H 
ATOM     25  H   LIG d   1       6.899  -6.466  -6.256  0.00  0.00     0.152 HD
ATOM     26  H   LIG d   1       9.196  -1.988  -3.909  0.00  0.00     0.035 H 
ATOM     27  H   LIG d   1       8.307  -2.930  -2.798  0.00  0.00     0.035 H 
ATOM     28  H   LIG d   1       6.132  -4.441  -5.406  0.00  0.00     0.033 H 
ATOM     29  H   LIG d   1       6.544  -4.449  -3.677  0.00  0.00     0.033 H 
ENDROOT
BRANCH  13  30
ATOM     30  C   LIG d   1      10.815  -6.697  -3.424  0.00  0.00    -0.022 A 
ATOM     31  C   LIG d   1       9.905  -6.702  -2.382  0.00  0.00    -0.056 A 
ATOM     32  C   LIG d   1      10.285  -7.146  -1.132  0.00  0.00    -0.047 A 
ATOM     33  H   LIG d   1       8.895  -6.356  -2.546  0.00  0.00     0.062 H 
ATOM     34  C   LIG d   1      11.591  -7.592  -0.920  0.00  0.00     0.059 A 
ATOM     35  H   LIG d   1       9.574  -7.148  -0.319  0.00  0.00     0.063 H 
ATOM     36  C   LIG d   1      12.505  -7.585  -1.977  0.00  0.00    -0.047 A 
ATOM     37  C   LIG d   1      12.109  -7.144  -3.222  0.00  0.00    -0.056 A 
ATOM     38  H   LIG d   1      13.516  -7.928  -1.819  0.00  0.00     0.063 H 
ATOM     39  H   LIG d   1      12.814  -7.142  -4.042  0.00  0.00     0.062 H 
BRANCH  34  40
ATOM     40  C   LIG d   1      12.005  -8.068   0.415  0.00  0.00     0.339 C 
ATOM     41  O   LIG d   1      13.163  -7.964   0.766  0.00  0.00    -0.245 OA
BRANCH  40  42
ATOM     42  O   LIG d   1      11.097  -8.619   1.245  0.00  0.00    -0.465 OA
BRANCH  42  43
ATOM     43  C   LIG d   1      11.250  -8.345   2.663  0.00  0.00     0.082 C 
ATOM     44  H   LIG d   1      10.335  -8.619   3.187  0.00  0.00     0.066 H 
ATOM     45  H   LIG d   1      12.083  -8.927   3.058  0.00  0.00     0.066 H 
ATOM     46  H   LIG d   1      11.447  -7.284   2.809  0.00  0.00     0.066 H 
ENDBRANCH  42  43
ENDBRANCH  40  42
ENDBRANCH  34  40
ENDBRANCH  13  30
BRANCH   1  47
ATOM     47  C   LIG d   1      10.352  -8.739  -7.633  0.00  0.00     0.022 C 
ATOM     48  H   LIG d   1       9.632  -9.369  -7.111  0.00  0.00     0.036 H 
ATOM     49  H   LIG d   1       9.921  -8.400  -8.575  0.00  0.00     0.036 H 
BRANCH  47  50
ATOM     50  C   LIG d   1      11.624  -9.543  -7.913  0.00  0.00    -0.057 C 
ATOM     51  H   LIG d   1      11.460 -10.586  -7.645  0.00  0.00     0.023 H 
ATOM     52  H   LIG d   1      11.872  -9.474  -8.972  0.00  0.00     0.023 H 
ATOM     53  H   LIG d   1      12.445  -9.140  -7.321  0.00  0.00     0.023 H 
ENDBRANCH  47  50
ENDBRANCH   1  47
BRANCH  18  54
ATOM     54  C   LIG d   1       6.554  -1.891  -4.561  0.00  0.00    -0.043 A 
ATOM     55  C   LIG d   1       6.817  -0.897  -3.636  0.00  0.00    -0.055 A 
ATOM     56  C   LIG d   1       5.876   0.084  -3.386  0.00  0.00    -0.020 A 
ATOM     57  H   LIG d   1       7.760  -0.887  -3.108  0.00  0.00     0.062 H 
ATOM     58  C   LIG d   1       4.666   0.070  -4.064  0.00  0.00     0.120 A 
ATOM     59  H   LIG d   1       6.083   0.860  -2.665  0.00  0.00     0.065 H 
ATOM     60  C   LIG d   1       4.403  -0.929  -4.991  0.00  0.00    -0.020 A 
ATOM     61  C   LIG d   1       5.350  -1.903  -5.241  0.00  0.00    -0.055 A 
ATOM     62  H   LIG d   1       3.462  -0.941  -5.520  0.00  0.00     0.065 H 
ATOM     63  H   LIG d   1       5.148  -2.678  -5.966  0.00  0.00     0.062 H 
BRANCH  58  64
ATOM     64  O   LIG d   1       3.739   1.033  -3.821  0.00  0.00    -0.495 OA
BRANCH  64  65
ATOM     65  C   LIG d   1       3.542   1.416  -2.458  0.00  0.00     0.079 C 
ATOM     66  H   LIG d   1       3.113   0.580  -1.904  0.00  0.00     0.066 H 
ATOM     67  H   LIG d   1       4.499   1.692  -2.016  0.00  0.00     0.066 H 
ATOM     68  H   LIG d   1       2.862   2.267  -2.414  0.00  0.00     0.066 H 
ENDBRANCH  64  65
ENDBRANCH  58  64
ENDBRANCH  18  54
TORSDOF 9
ENDMDL
MODEL 10
REMARK VINA RESULT:      -5.3      3.867      9.658
REMARK  9 active torsions:
REMARK  status: ('A' for Active; 'I' for Inactive)
REMARK    1  A    between atoms: C_1  and  C_2 
REMARK    2  A    between atoms: C_2  and  C_3 
REMARK       I    between atoms: C_3  and  N_5 
REMARK    3  A    between atoms: C_15  and  C_17 
REMARK    4  A    between atoms: C_20  and  C_23 
REMARK    5  A    between atoms: C_23  and  O_25 
REMARK    6  A    between atoms: O_25  and  C_26 
REMARK    7  A    between atoms: C_30  and  C_33 
REMARK    8  A    between atoms: C_36  and  O_39 
REMARK    9  A    between atoms: O_39  and  C_40 
ROOT
ATOM      1  C   LIG d   1       9.385  -1.277  -6.395  0.00  0.00     0.220 C 
ATOM      2  O   LIG d   1       9.916  -1.629  -7.427  0.00  0.00    -0.275 OA
ATOM      3  N   LIG d   1       8.064  -1.476  -6.214  0.00  0.00    -0.258 N 
ATOM      4  C   LIG d   1       7.466  -1.067  -5.021  0.00  0.00     0.058 A 
ATOM      5  C   LIG d   1       7.361   0.272  -4.684  0.00  0.00    -0.038 A 
ATOM      6  C   LIG d   1       6.680   0.632  -3.533  0.00  0.00    -0.060 A 
ATOM      7  C   LIG d   1       6.109  -0.335  -2.727  0.00  0.00    -0.060 A 
ATOM      8  C   LIG d   1       6.226  -1.676  -3.053  0.00  0.00    -0.039 A 
ATOM      9  C   LIG d   1       6.921  -2.039  -4.195  0.00  0.00     0.053 A 
ATOM     10  N   LIG d   1       7.148  -3.366  -4.533  0.00  0.00    -0.316 N 
ATOM     11  C   LIG d   1       6.663  -3.974  -5.646  0.00  0.00     0.017 C 
ATOM     12  C   LIG d   1       6.711  -3.454  -6.883  0.00  0.00     0.037 C 
ATOM     13  C   LIG d   1       7.291  -2.112  -7.260  0.00  0.00     0.086 C 
ATOM     14  H   LIG d   1       7.932  -2.246  -8.131  0.00  0.00     0.061 H 
ATOM     15  C   LIG d   1       6.189  -4.179  -7.981  0.00  0.00     0.163 C 
ATOM     16  O   LIG d   1       6.229  -3.679  -9.087  0.00  0.00    -0.292 OA
ATOM     17  C   LIG d   1       5.587  -5.544  -7.826  0.00  0.00     0.017 C 
ATOM     18  C   LIG d   1       6.240  -6.232  -6.621  0.00  0.00    -0.004 C 
ATOM     19  H   LIG d   1       7.307  -6.363  -6.804  0.00  0.00     0.036 H 
ATOM     20  C   LIG d   1       6.029  -5.333  -5.403  0.00  0.00    -0.007 C 
ATOM     21  H   LIG d   1       7.806   1.028  -5.313  0.00  0.00     0.064 H 
ATOM     22  H   LIG d   1       6.595   1.675  -3.264  0.00  0.00     0.062 H 
ATOM     23  H   LIG d   1       5.568  -0.044  -1.838  0.00  0.00     0.062 H 
ATOM     24  H   LIG d   1       5.780  -2.431  -2.422  0.00  0.00     0.064 H 
ATOM     25  H   LIG d   1       7.691  -3.897  -3.931  0.00  0.00     0.152 HD
ATOM     26  H   LIG d   1       5.753  -6.077  -8.656  0.00  0.00     0.035 H 
ATOM     27  H   LIG d   1       4.514  -5.458  -7.661  0.00  0.00     0.035 H 
ATOM     28  H   LIG d   1       6.488  -5.796  -4.529  0.00  0.00     0.033 H 
ATOM     29  H   LIG d   1       4.962  -5.208  -5.227  0.00  0.00     0.033 H 
ENDROOT
BRANCH  13  30
ATOM     30  C   LIG d   1       6.158  -1.195  -7.639  0.00  0.00    -0.022 A 
ATOM     31  C   LIG d   1       4.938  -1.304  -6.995  0.00  0.00    -0.056 A 
ATOM     32  C   LIG d   1       3.896  -0.467  -7.337  0.00  0.00    -0.047 A 
ATOM     33  H   LIG d   1       4.801  -2.047  -6.222  0.00  0.00     0.062 H 
ATOM     34  C   LIG d   1       4.074   0.491  -8.336  0.00  0.00     0.059 A 
ATOM     35  H   LIG d   1       2.945  -0.555  -6.833  0.00  0.00     0.063 H 
ATOM     36  C   LIG d   1       5.308   0.597  -8.983  0.00  0.00    -0.047 A 
ATOM     37  C   LIG d   1       6.342  -0.242  -8.625  0.00  0.00    -0.056 A 
ATOM     38  H   LIG d   1       5.451   1.336  -9.756  0.00  0.00     0.063 H 
ATOM     39  H   LIG d   1       7.299  -0.159  -9.122  0.00  0.00     0.062 H 
BRANCH  34  40
ATOM     40  C   LIG d   1       2.962   1.391  -8.708  0.00  0.00     0.339 C 
ATOM     41  O   LIG d   1       2.784   2.423  -8.092  0.00  0.00    -0.245 OA
BRANCH  40  42
ATOM     42  O   LIG d   1       2.147   1.067  -9.730  0.00  0.00    -0.465 OA
BRANCH  42  43
ATOM     43  C   LIG d   1       1.787  -0.333  -9.868  0.00  0.00     0.082 C 
ATOM     44  H   LIG d   1       1.639  -0.769  -8.880  0.00  0.00     0.066 H 
ATOM     45  H   LIG d   1       0.866  -0.418 -10.445  0.00  0.00     0.066 H 
ATOM     46  H   LIG d   1       2.588  -0.865 -10.382  0.00  0.00     0.066 H 
ENDBRANCH  42  43
ENDBRANCH  40  42
ENDBRANCH  34  40
ENDBRANCH  13  30
BRANCH   1  47
ATOM     47  C   LIG d   1      10.202  -0.617  -5.314  0.00  0.00     0.022 C 
ATOM     48  H   LIG d   1      10.540   0.360  -5.659  0.00  0.00     0.036 H 
ATOM     49  H   LIG d   1       9.591  -0.494  -4.420  0.00  0.00     0.036 H 
BRANCH  47  50
ATOM     50  C   LIG d   1      11.416  -1.490  -4.988  0.00  0.00    -0.057 C 
ATOM     51  H   LIG d   1      12.069  -1.544  -5.858  0.00  0.00     0.023 H 
ATOM     52  H   LIG d   1      11.962  -1.056  -4.151  0.00  0.00     0.023 H 
ATOM     53  H   LIG d   1      11.080  -2.492  -4.722  0.00  0.00     0.023 H 
ENDBRANCH  47  50
ENDBRANCH   1  47
BRANCH  18  54
ATOM     54  C   LIG d   1       5.593  -7.572  -6.385  0.00  0.00    -0.043 A 
ATOM     55  C   LIG d   1       5.285  -8.389  -7.457  0.00  0.00    -0.055 A 
ATOM     56  C   LIG d   1       4.692  -9.619  -7.243  0.00  0.00    -0.020 A 
ATOM     57  H   LIG d   1       5.510  -8.066  -8.463  0.00  0.00     0.062 H 
ATOM     58  C   LIG d   1       4.404 -10.032  -5.951  0.00  0.00     0.120 A 
ATOM     59  H   LIG d   1       4.453 -10.257  -8.081  0.00  0.00     0.065 H 
ATOM     60  C   LIG d   1       4.713  -9.210  -4.877  0.00  0.00    -0.020 A 
ATOM     61  C   LIG d   1       5.312  -7.985  -5.096  0.00  0.00    -0.055 A 
ATOM     62  H   LIG d   1       4.490  -9.531  -3.869  0.00  0.00     0.065 H 
ATOM     63  H   LIG d   1       5.556  -7.346  -4.259  0.00  0.00     0.062 H 
BRANCH  58  64
ATOM     64  O   LIG d   1       3.821 -11.240  -5.737  0.00  0.00    -0.495 OA
BRANCH  64  65
ATOM     65  C   LIG d   1       4.519 -12.392  -6.216  0.00  0.00     0.079 C 
ATOM     66  H   LIG d   1       5.422 -12.542  -5.623  0.00  0.00     0.066 H 
ATOM     67  H   LIG d   1       3.877 -13.268  -6.129  0.00  0.00     0.066 H 
ATOM     68  H   LIG d   1       4.792 -12.243  -7.261  0.00  0.00     0.066 H 
ENDBRANCH  64  65
ENDBRANCH  58  64
ENDBRANCH  18  54
TORSDOF 9
ENDMDL
