MODEL 1
REMARK VINA RESULT:      -5.8      0.000      0.000
REMARK  12 active torsions:
REMARK  status: ('A' for Active; 'I' for Inactive)
REMARK    1  A    between atoms: C_1  and  O_2 
REMARK    2  A    between atoms: O_2  and  C_3 
REMARK    3  A    between atoms: C_8  and  C_9 
REMARK    4  A    between atoms: C_9  and  C_11 
REMARK    5  A    between atoms: C_9  and  C_15 
REMARK    6  A    between atoms: C_11  and  C_12 
REMARK    7  A    between atoms: C_12  and  C_13 
REMARK    8  A    between atoms: C_13  and  O_14 
REMARK    9  A    between atoms: C_15  and  C_17 
REMARK   10  A    between atoms: C_15  and  O_25 
REMARK   11  A    between atoms: C_22  and  O_23 
REMARK   12  A    between atoms: O_23  and  C_24 
ROOT
ATOM      1  C   LIG d   1       4.364  -1.506  -6.228  0.00  0.00     0.018 C 
ATOM      2  H   LIG d   1       3.366  -1.345  -6.635  0.00  0.00     0.038 H 
ENDROOT
BRANCH   1   3
ATOM      3  C   LIG d   1       4.329  -1.339  -4.730  0.00  0.00     0.000 A 
ATOM      4  C   LIG d   1       3.353  -0.548  -4.143  0.00  0.00     0.124 A 
ATOM      5  C   LIG d   1       3.320  -0.400  -2.764  0.00  0.00    -0.020 A 
ATOM      6  C   LIG d   1       4.267  -1.030  -1.980  0.00  0.00    -0.058 A 
ATOM      7  H   LIG d   1       2.558   0.213  -2.304  0.00  0.00     0.065 H 
ATOM      8  C   LIG d   1       5.242  -1.814  -2.569  0.00  0.00    -0.061 A 
ATOM      9  H   LIG d   1       4.244  -0.912  -0.906  0.00  0.00     0.062 H 
ATOM     10  C   LIG d   1       5.274  -1.967  -3.942  0.00  0.00    -0.055 A 
ATOM     11  H   LIG d   1       5.981  -2.307  -1.954  0.00  0.00     0.062 H 
ATOM     12  H   LIG d   1       6.037  -2.580  -4.399  0.00  0.00     0.062 H 
BRANCH   4  13
ATOM     13  O   LIG d   1       2.426   0.076  -4.916  0.00  0.00    -0.495 OA
BRANCH  13  14
ATOM     14  C   LIG d   1       2.428   1.505  -4.907  0.00  0.00     0.079 C 
ATOM     15  H   LIG d   1       3.226   1.871  -5.552  0.00  0.00     0.066 H 
ATOM     16  H   LIG d   1       1.468   1.872  -5.269  0.00  0.00     0.066 H 
ATOM     17  H   LIG d   1       2.592   1.861  -3.890  0.00  0.00     0.066 H 
ENDBRANCH  13  14
ENDBRANCH   4  13
ENDBRANCH   1   3
BRANCH   1  18
ATOM     18  C   LIG d   1       4.832  -2.922  -6.571  0.00  0.00    -0.041 C 
ATOM     19  H   LIG d   1       4.657  -3.580  -5.720  0.00  0.00     0.027 H 
ATOM     20  H   LIG d   1       5.897  -2.907  -6.804  0.00  0.00     0.027 H 
BRANCH  18  21
ATOM     21  C   LIG d   1       4.052  -3.437  -7.782  0.00  0.00    -0.029 C 
ATOM     22  H   LIG d   1       4.659  -3.323  -8.680  0.00  0.00     0.029 H 
ATOM     23  H   LIG d   1       3.130  -2.866  -7.890  0.00  0.00     0.029 H 
BRANCH  21  24
ATOM     24  C   LIG d   1       3.715  -4.916  -7.580  0.00  0.00     0.044 C 
ATOM     25  H   LIG d   1       2.993  -5.231  -8.335  0.00  0.00     0.056 H 
ATOM     26  H   LIG d   1       4.623  -5.512  -7.676  0.00  0.00     0.056 H 
BRANCH  24  27
ATOM     27  O   LIG d   1       3.156  -5.104  -6.278  0.00  0.00    -0.395 OA
ATOM     28  H   LIG d   1       3.601  -4.599  -5.584  0.00  0.00     0.209 HD
ENDBRANCH  24  27
ENDBRANCH  21  24
ENDBRANCH  18  21
ENDBRANCH   1  18
BRANCH   1  29
ATOM     29  C   LIG d   1       5.333  -0.489  -6.832  0.00  0.00     0.090 C 
ATOM     30  H   LIG d   1       6.153  -1.012  -7.320  0.00  0.00     0.065 H 
BRANCH  29  31
ATOM     31  C   LIG d   1       4.604   0.358  -7.844  0.00  0.00     0.023 A 
ATOM     32  C   LIG d   1       5.254   1.421  -8.456  0.00  0.00     0.126 A 
ATOM     33  C   LIG d   1       4.581   2.198  -9.388  0.00  0.00    -0.020 A 
ATOM     34  C   LIG d   1       3.267   1.912  -9.705  0.00  0.00    -0.058 A 
ATOM     35  H   LIG d   1       5.084   3.025  -9.866  0.00  0.00     0.065 H 
ATOM     36  C   LIG d   1       2.623   0.853  -9.093  0.00  0.00    -0.061 A 
ATOM     37  H   LIG d   1       2.743   2.517 -10.429  0.00  0.00     0.062 H 
ATOM     38  C   LIG d   1       3.291   0.073  -8.168  0.00  0.00    -0.053 A 
ATOM     39  H   LIG d   1       1.595   0.631  -9.342  0.00  0.00     0.062 H 
ATOM     40  H   LIG d   1       2.787  -0.756  -7.695  0.00  0.00     0.062 H 
BRANCH  32  41
ATOM     41  O   LIG d   1       6.546   1.700  -8.143  0.00  0.00    -0.495 OA
BRANCH  41  42
ATOM     42  C   LIG d   1       7.513   1.550  -9.184  0.00  0.00     0.079 C 
ATOM     43  H   LIG d   1       8.478   1.291  -8.747  0.00  0.00     0.066 H 
ATOM     44  H   LIG d   1       7.197   0.759  -9.863  0.00  0.00     0.066 H 
ATOM     45  H   LIG d   1       7.604   2.488  -9.732  0.00  0.00     0.066 H 
ENDBRANCH  41  42
ENDBRANCH  32  41
ENDBRANCH  29  31
BRANCH  29  46
ATOM     46  O   LIG d   1       5.851   0.349  -5.796  0.00  0.00    -0.387 OA
ATOM     47  H   LIG d   1       5.356   0.300  -4.966  0.00  0.00     0.210 HD
ENDBRANCH  29  46
ENDBRANCH   1  29
TORSDOF 12
ENDMDL
MODEL 2
REMARK VINA RESULT:      -5.6      1.276      5.274
REMARK  12 active torsions:
REMARK  status: ('A' for Active; 'I' for Inactive)
REMARK    1  A    between atoms: C_1  and  O_2 
REMARK    2  A    between atoms: O_2  and  C_3 
REMARK    3  A    between atoms: C_8  and  C_9 
REMARK    4  A    between atoms: C_9  and  C_11 
REMARK    5  A    between atoms: C_9  and  C_15 
REMARK    6  A    between atoms: C_11  and  C_12 
REMARK    7  A    between atoms: C_12  and  C_13 
REMARK    8  A    between atoms: C_13  and  O_14 
REMARK    9  A    between atoms: C_15  and  C_17 
REMARK   10  A    between atoms: C_15  and  O_25 
REMARK   11  A    between atoms: C_22  and  O_23 
REMARK   12  A    between atoms: O_23  and  C_24 
ROOT
ATOM      1  C   LIG d   1       4.386  -0.608  -6.820  0.00  0.00     0.018 C 
ATOM      2  H   LIG d   1       5.365  -0.284  -6.469  0.00  0.00     0.038 H 
ENDROOT
BRANCH   1   3
ATOM      3  C   LIG d   1       4.082   0.050  -8.142  0.00  0.00     0.000 A 
ATOM      4  C   LIG d   1       4.919   1.043  -8.631  0.00  0.00     0.124 A 
ATOM      5  C   LIG d   1       4.641   1.643  -9.850  0.00  0.00    -0.020 A 
ATOM      6  C   LIG d   1       3.525   1.259 -10.568  0.00  0.00    -0.058 A 
ATOM      7  H   LIG d   1       5.293   2.413 -10.235  0.00  0.00     0.065 H 
ATOM      8  C   LIG d   1       2.690   0.274 -10.076  0.00  0.00    -0.061 A 
ATOM      9  H   LIG d   1       3.305   1.730 -11.516  0.00  0.00     0.062 H 
ATOM     10  C   LIG d   1       2.968  -0.329  -8.864  0.00  0.00    -0.055 A 
ATOM     11  H   LIG d   1       1.817  -0.025 -10.639  0.00  0.00     0.062 H 
ATOM     12  H   LIG d   1       2.313  -1.099  -8.481  0.00  0.00     0.062 H 
BRANCH   4  13
ATOM     13  O   LIG d   1       6.014   1.422  -7.920  0.00  0.00    -0.495 OA
BRANCH  13  14
ATOM     14  C   LIG d   1       7.191   1.743  -8.663  0.00  0.00     0.079 C 
ATOM     15  H   LIG d   1       7.062   2.710  -9.148  0.00  0.00     0.066 H 
ATOM     16  H   LIG d   1       8.046   1.785  -7.988  0.00  0.00     0.066 H 
ATOM     17  H   LIG d   1       7.363   0.977  -9.419  0.00  0.00     0.066 H 
ENDBRANCH  13  14
ENDBRANCH   4  13
ENDBRANCH   1   3
BRANCH   1  18
ATOM     18  C   LIG d   1       4.384  -2.128  -6.995  0.00  0.00    -0.041 C 
ATOM     19  H   LIG d   1       4.285  -2.372  -8.053  0.00  0.00     0.027 H 
ATOM     20  H   LIG d   1       3.546  -2.556  -6.445  0.00  0.00     0.027 H 
BRANCH  18  21
ATOM     21  C   LIG d   1       5.695  -2.704  -6.459  0.00  0.00    -0.029 C 
ATOM     22  H   LIG d   1       6.299  -1.901  -6.037  0.00  0.00     0.029 H 
ATOM     23  H   LIG d   1       6.241  -3.183  -7.272  0.00  0.00     0.029 H 
BRANCH  21  24
ATOM     24  C   LIG d   1       5.391  -3.738  -5.372  0.00  0.00     0.044 C 
ATOM     25  H   LIG d   1       6.031  -4.609  -5.508  0.00  0.00     0.056 H 
ATOM     26  H   LIG d   1       5.579  -3.299  -4.391  0.00  0.00     0.056 H 
BRANCH  24  27
ATOM     27  O   LIG d   1       4.020  -4.135  -5.462  0.00  0.00    -0.395 OA
ATOM     28  H   LIG d   1       3.666  -4.120  -6.361  0.00  0.00     0.209 HD
ENDBRANCH  24  27
ENDBRANCH  21  24
ENDBRANCH  18  21
ENDBRANCH   1  18
BRANCH   1  29
ATOM     29  C   LIG d   1       3.320  -0.211  -5.797  0.00  0.00     0.090 C 
ATOM     30  H   LIG d   1       2.395  -0.746  -6.010  0.00  0.00     0.065 H 
BRANCH  29  31
ATOM     31  C   LIG d   1       3.797  -0.565  -4.412  0.00  0.00     0.023 A 
ATOM     32  C   LIG d   1       5.028  -0.105  -3.964  0.00  0.00     0.126 A 
ATOM     33  C   LIG d   1       5.465  -0.433  -2.688  0.00  0.00    -0.020 A 
ATOM     34  C   LIG d   1       4.674  -1.213  -1.867  0.00  0.00    -0.058 A 
ATOM     35  H   LIG d   1       6.421  -0.076  -2.336  0.00  0.00     0.065 H 
ATOM     36  C   LIG d   1       3.449  -1.670  -2.317  0.00  0.00    -0.061 A 
ATOM     37  H   LIG d   1       5.014  -1.469  -0.875  0.00  0.00     0.062 H 
ATOM     38  C   LIG d   1       3.009  -1.342  -3.585  0.00  0.00    -0.053 A 
ATOM     39  H   LIG d   1       2.833  -2.281  -1.673  0.00  0.00     0.062 H 
ATOM     40  H   LIG d   1       2.049  -1.697  -3.932  0.00  0.00     0.062 H 
BRANCH  32  41
ATOM     41  O   LIG d   1       5.803   0.662  -4.773  0.00  0.00    -0.495 OA
BRANCH  41  42
ATOM     42  C   LIG d   1       7.211   0.647  -4.527  0.00  0.00     0.079 C 
ATOM     43  H   LIG d   1       7.437   1.284  -3.671  0.00  0.00     0.066 H 
ATOM     44  H   LIG d   1       7.533  -0.373  -4.318  0.00  0.00     0.066 H 
ATOM     45  H   LIG d   1       7.736   1.022  -5.406  0.00  0.00     0.066 H 
ENDBRANCH  41  42
ENDBRANCH  32  41
ENDBRANCH  29  31
BRANCH  29  46
ATOM     46  O   LIG d   1       3.085   1.196  -5.874  0.00  0.00    -0.387 OA
ATOM     47  H   LIG d   1       3.228   1.665  -5.040  0.00  0.00     0.210 HD
ENDBRANCH  29  46
ENDBRANCH   1  29
TORSDOF 12
ENDMDL
MODEL 3
REMARK VINA RESULT:      -5.6      1.769      5.934
REMARK  12 active torsions:
REMARK  status: ('A' for Active; 'I' for Inactive)
REMARK    1  A    between atoms: C_1  and  O_2 
REMARK    2  A    between atoms: O_2  and  C_3 
REMARK    3  A    between atoms: C_8  and  C_9 
REMARK    4  A    between atoms: C_9  and  C_11 
REMARK    5  A    between atoms: C_9  and  C_15 
REMARK    6  A    between atoms: C_11  and  C_12 
REMARK    7  A    between atoms: C_12  and  C_13 
REMARK    8  A    between atoms: C_13  and  O_14 
REMARK    9  A    between atoms: C_15  and  C_17 
REMARK   10  A    between atoms: C_15  and  O_25 
REMARK   11  A    between atoms: C_22  and  O_23 
REMARK   12  A    between atoms: O_23  and  C_24 
ROOT
ATOM      1  C   LIG d   1       4.320  -0.001  -6.549  0.00  0.00     0.018 C 
ATOM      2  H   LIG d   1       4.530   1.027  -6.255  0.00  0.00     0.038 H 
ENDROOT
BRANCH   1   3
ATOM      3  C   LIG d   1       3.820  -0.026  -7.971  0.00  0.00     0.000 A 
ATOM      4  C   LIG d   1       4.195   0.975  -8.856  0.00  0.00     0.124 A 
ATOM      5  C   LIG d   1       3.738   0.946 -10.165  0.00  0.00    -0.020 A 
ATOM      6  C   LIG d   1       2.902  -0.072 -10.581  0.00  0.00    -0.058 A 
ATOM      7  H   LIG d   1       4.032   1.722 -10.857  0.00  0.00     0.065 H 
ATOM      8  C   LIG d   1       2.526  -1.065  -9.696  0.00  0.00    -0.061 A 
ATOM      9  H   LIG d   1       2.543  -0.092 -11.600  0.00  0.00     0.062 H 
ATOM     10  C   LIG d   1       2.984  -1.041  -8.392  0.00  0.00    -0.055 A 
ATOM     11  H   LIG d   1       1.872  -1.860 -10.024  0.00  0.00     0.062 H 
ATOM     12  H   LIG d   1       2.689  -1.819  -7.703  0.00  0.00     0.062 H 
BRANCH   4  13
ATOM     13  O   LIG d   1       5.013   1.978  -8.442  0.00  0.00    -0.495 OA
BRANCH  13  14
ATOM     14  C   LIG d   1       6.345   1.983  -8.957  0.00  0.00     0.079 C 
ATOM     15  H   LIG d   1       6.354   2.459  -9.937  0.00  0.00     0.066 H 
ATOM     16  H   LIG d   1       6.996   2.535  -8.279  0.00  0.00     0.066 H 
ATOM     17  H   LIG d   1       6.703   0.957  -9.049  0.00  0.00     0.066 H 
ENDBRANCH  13  14
ENDBRANCH   4  13
ENDBRANCH   1   3
BRANCH   1  18
ATOM     18  C   LIG d   1       5.600  -0.833  -6.444  0.00  0.00    -0.041 C 
ATOM     19  H   LIG d   1       5.899  -1.167  -7.437  0.00  0.00     0.027 H 
ATOM     20  H   LIG d   1       5.418  -1.700  -5.808  0.00  0.00     0.027 H 
BRANCH  18  21
ATOM     21  C   LIG d   1       6.714   0.021  -5.836  0.00  0.00    -0.029 C 
ATOM     22  H   LIG d   1       6.277   0.883  -5.333  0.00  0.00     0.029 H 
ATOM     23  H   LIG d   1       7.384   0.361  -6.627  0.00  0.00     0.029 H 
BRANCH  21  24
ATOM     24  C   LIG d   1       7.502  -0.814  -4.825  0.00  0.00     0.044 C 
ATOM     25  H   LIG d   1       7.042  -1.798  -4.728  0.00  0.00     0.056 H 
ATOM     26  H   LIG d   1       8.531  -0.927  -5.169  0.00  0.00     0.056 H 
BRANCH  24  27
ATOM     27  O   LIG d   1       7.494  -0.158  -3.555  0.00  0.00    -0.395 OA
ATOM     28  H   LIG d   1       8.141  -0.509  -2.928  0.00  0.00     0.209 HD
ENDBRANCH  24  27
ENDBRANCH  21  24
ENDBRANCH  18  21
ENDBRANCH   1  18
BRANCH   1  29
ATOM     29  C   LIG d   1       3.253  -0.588  -5.623  0.00  0.00     0.090 C 
ATOM     30  H   LIG d   1       3.097  -1.638  -5.868  0.00  0.00     0.065 H 
BRANCH  29  31
ATOM     31  C   LIG d   1       3.709  -0.468  -4.192  0.00  0.00     0.023 A 
ATOM     32  C   LIG d   1       4.004  -1.610  -3.460  0.00  0.00     0.126 A 
ATOM     33  C   LIG d   1       4.424  -1.496  -2.142  0.00  0.00    -0.020 A 
ATOM     34  C   LIG d   1       4.547  -0.249  -1.562  0.00  0.00    -0.058 A 
ATOM     35  H   LIG d   1       4.655  -2.383  -1.571  0.00  0.00     0.065 H 
ATOM     36  C   LIG d   1       4.252   0.887  -2.294  0.00  0.00    -0.061 A 
ATOM     37  H   LIG d   1       4.873  -0.160  -0.537  0.00  0.00     0.062 H 
ATOM     38  C   LIG d   1       3.838   0.778  -3.608  0.00  0.00    -0.053 A 
ATOM     39  H   LIG d   1       4.349   1.861  -1.839  0.00  0.00     0.062 H 
ATOM     40  H   LIG d   1       3.612   1.667  -4.179  0.00  0.00     0.062 H 
BRANCH  32  41
ATOM     41  O   LIG d   1       3.882  -2.836  -4.032  0.00  0.00    -0.495 OA
BRANCH  41  42
ATOM     42  C   LIG d   1       5.091  -3.521  -4.363  0.00  0.00     0.079 C 
ATOM     43  H   LIG d   1       5.147  -3.659  -5.443  0.00  0.00     0.066 H 
ATOM     44  H   LIG d   1       5.946  -2.934  -4.026  0.00  0.00     0.066 H 
ATOM     45  H   LIG d   1       5.102  -4.495  -3.872  0.00  0.00     0.066 H 
ENDBRANCH  41  42
ENDBRANCH  32  41
ENDBRANCH  29  31
BRANCH  29  46
ATOM     46  O   LIG d   1       2.028   0.128  -5.794  0.00  0.00    -0.387 OA
ATOM     47  H   LIG d   1       1.255  -0.320  -5.422  0.00  0.00     0.210 HD
ENDBRANCH  29  46
ENDBRANCH   1  29
TORSDOF 12
ENDMDL
MODEL 4
REMARK VINA RESULT:      -5.5      3.302      4.615
REMARK  12 active torsions:
REMARK  status: ('A' for Active; 'I' for Inactive)
REMARK    1  A    between atoms: C_1  and  O_2 
REMARK    2  A    between atoms: O_2  and  C_3 
REMARK    3  A    between atoms: C_8  and  C_9 
REMARK    4  A    between atoms: C_9  and  C_11 
REMARK    5  A    between atoms: C_9  and  C_15 
REMARK    6  A    between atoms: C_11  and  C_12 
REMARK    7  A    between atoms: C_12  and  C_13 
REMARK    8  A    between atoms: C_13  and  O_14 
REMARK    9  A    between atoms: C_15  and  C_17 
REMARK   10  A    between atoms: C_15  and  O_25 
REMARK   11  A    between atoms: C_22  and  O_23 
REMARK   12  A    between atoms: O_23  and  C_24 
ROOT
ATOM      1  C   LIG d   1       6.751  -0.502  -4.434  0.00  0.00     0.018 C 
ATOM      2  H   LIG d   1       6.665  -0.389  -5.514  0.00  0.00     0.038 H 
ENDROOT
BRANCH   1   3
ATOM      3  C   LIG d   1       5.390  -0.773  -3.846  0.00  0.00     0.000 A 
ATOM      4  C   LIG d   1       4.251  -0.318  -4.494  0.00  0.00     0.124 A 
ATOM      5  C   LIG d   1       2.999  -0.574  -3.954  0.00  0.00    -0.020 A 
ATOM      6  C   LIG d   1       2.891  -1.271  -2.766  0.00  0.00    -0.058 A 
ATOM      7  H   LIG d   1       2.111  -0.224  -4.459  0.00  0.00     0.065 H 
ATOM      8  C   LIG d   1       4.028  -1.719  -2.120  0.00  0.00    -0.061 A 
ATOM      9  H   LIG d   1       1.916  -1.467  -2.343  0.00  0.00     0.062 H 
ATOM     10  C   LIG d   1       5.276  -1.469  -2.659  0.00  0.00    -0.055 A 
ATOM     11  H   LIG d   1       3.941  -2.264  -1.191  0.00  0.00     0.062 H 
ATOM     12  H   LIG d   1       6.163  -1.821  -2.151  0.00  0.00     0.062 H 
BRANCH   4  13
ATOM     13  O   LIG d   1       4.361   0.372  -5.660  0.00  0.00    -0.495 OA
BRANCH  13  14
ATOM     14  C   LIG d   1       3.547  -0.062  -6.750  0.00  0.00     0.079 C 
ATOM     15  H   LIG d   1       4.156  -0.627  -7.455  0.00  0.00     0.066 H 
ATOM     16  H   LIG d   1       2.743  -0.694  -6.374  0.00  0.00     0.066 H 
ATOM     17  H   LIG d   1       3.121   0.806  -7.253  0.00  0.00     0.066 H 
ENDBRANCH  13  14
ENDBRANCH   4  13
ENDBRANCH   1   3
BRANCH   1  18
ATOM     18  C   LIG d   1       7.686  -1.671  -4.117  0.00  0.00    -0.041 C 
ATOM     19  H   LIG d   1       7.182  -2.367  -3.445  0.00  0.00     0.027 H 
ATOM     20  H   LIG d   1       8.590  -1.295  -3.638  0.00  0.00     0.027 H 
BRANCH  18  21
ATOM     21  C   LIG d   1       8.057  -2.393  -5.413  0.00  0.00    -0.029 C 
ATOM     22  H   LIG d   1       7.357  -2.111  -6.199  0.00  0.00     0.029 H 
ATOM     23  H   LIG d   1       8.014  -3.470  -5.255  0.00  0.00     0.029 H 
BRANCH  21  24
ATOM     24  C   LIG d   1       9.476  -1.995  -5.829  0.00  0.00     0.044 C 
ATOM     25  H   LIG d   1      10.027  -2.884  -6.137  0.00  0.00     0.056 H 
ATOM     26  H   LIG d   1       9.427  -1.293  -6.661  0.00  0.00     0.056 H 
BRANCH  24  27
ATOM     27  O   LIG d   1      10.142  -1.381  -4.724  0.00  0.00    -0.395 OA
ATOM     28  H   LIG d   1      10.538  -0.524  -4.933  0.00  0.00     0.209 HD
ENDBRANCH  24  27
ENDBRANCH  21  24
ENDBRANCH  18  21
ENDBRANCH   1  18
BRANCH   1  29
ATOM     29  C   LIG d   1       7.320   0.783  -3.829  0.00  0.00     0.090 C 
ATOM     30  H   LIG d   1       8.025   0.533  -3.038  0.00  0.00     0.065 H 
BRANCH  29  31
ATOM     31  C   LIG d   1       8.029   1.572  -4.902  0.00  0.00     0.023 A 
ATOM     32  C   LIG d   1       8.880   2.610  -4.551  0.00  0.00     0.126 A 
ATOM     33  C   LIG d   1       9.531   3.334  -5.540  0.00  0.00    -0.020 A 
ATOM     34  C   LIG d   1       9.331   3.019  -6.870  0.00  0.00    -0.058 A 
ATOM     35  H   LIG d   1      10.195   4.141  -5.270  0.00  0.00     0.065 H 
ATOM     36  C   LIG d   1       8.481   1.983  -7.216  0.00  0.00    -0.061 A 
ATOM     37  H   LIG d   1       9.836   3.582  -7.640  0.00  0.00     0.062 H 
ATOM     38  C   LIG d   1       7.835   1.258  -6.233  0.00  0.00    -0.053 A 
ATOM     39  H   LIG d   1       8.326   1.739  -8.257  0.00  0.00     0.062 H 
ATOM     40  H   LIG d   1       7.175   0.447  -6.506  0.00  0.00     0.062 H 
BRANCH  32  41
ATOM     41  O   LIG d   1       9.075   2.918  -3.242  0.00  0.00    -0.495 OA
BRANCH  41  42
ATOM     42  C   LIG d   1      10.428   3.040  -2.799  0.00  0.00     0.079 C 
ATOM     43  H   LIG d   1      10.772   4.061  -2.961  0.00  0.00     0.066 H 
ATOM     44  H   LIG d   1      10.486   2.800  -1.738  0.00  0.00     0.066 H 
ATOM     45  H   LIG d   1      11.058   2.352  -3.363  0.00  0.00     0.066 H 
ENDBRANCH  41  42
ENDBRANCH  32  41
ENDBRANCH  29  31
BRANCH  29  46
ATOM     46  O   LIG d   1       6.255   1.567  -3.288  0.00  0.00    -0.387 OA
ATOM     47  H   LIG d   1       5.533   1.044  -2.911  0.00  0.00     0.210 HD
ENDBRANCH  29  46
ENDBRANCH   1  29
TORSDOF 12
ENDMDL
MODEL 5
REMARK VINA RESULT:      -5.4      1.600      3.499
REMARK  12 active torsions:
REMARK  status: ('A' for Active; 'I' for Inactive)
REMARK    1  A    between atoms: C_1  and  O_2 
REMARK    2  A    between atoms: O_2  and  C_3 
REMARK    3  A    between atoms: C_8  and  C_9 
REMARK    4  A    between atoms: C_9  and  C_11 
REMARK    5  A    between atoms: C_9  and  C_15 
REMARK    6  A    between atoms: C_11  and  C_12 
REMARK    7  A    between atoms: C_12  and  C_13 
REMARK    8  A    between atoms: C_13  and  O_14 
REMARK    9  A    between atoms: C_15  and  C_17 
REMARK   10  A    between atoms: C_15  and  O_25 
REMARK   11  A    between atoms: C_22  and  O_23 
REMARK   12  A    between atoms: O_23  and  C_24 
ROOT
ATOM      1  C   LIG d   1       4.403  -0.626  -6.182  0.00  0.00     0.018 C 
ATOM      2  H   LIG d   1       4.219  -1.584  -6.667  0.00  0.00     0.038 H 
ENDROOT
BRANCH   1   3
ATOM      3  C   LIG d   1       4.339  -0.799  -4.686  0.00  0.00     0.000 A 
ATOM      4  C   LIG d   1       4.264  -2.071  -4.137  0.00  0.00     0.124 A 
ATOM      5  C   LIG d   1       4.211  -2.227  -2.759  0.00  0.00    -0.020 A 
ATOM      6  C   LIG d   1       4.220  -1.116  -1.939  0.00  0.00    -0.058 A 
ATOM      7  H   LIG d   1       4.157  -3.217  -2.329  0.00  0.00     0.065 H 
ATOM      8  C   LIG d   1       4.289   0.150  -2.489  0.00  0.00    -0.061 A 
ATOM      9  H   LIG d   1       4.174  -1.237  -0.866  0.00  0.00     0.062 H 
ATOM     10  C   LIG d   1       4.347   0.308  -3.861  0.00  0.00    -0.055 A 
ATOM     11  H   LIG d   1       4.296   1.018  -1.845  0.00  0.00     0.062 H 
ATOM     12  H   LIG d   1       4.401   1.299  -4.288  0.00  0.00     0.062 H 
BRANCH   4  13
ATOM     13  O   LIG d   1       4.250  -3.162  -4.947  0.00  0.00    -0.495 OA
BRANCH  13  14
ATOM     14  C   LIG d   1       5.428  -3.971  -4.967  0.00  0.00     0.079 C 
ATOM     15  H   LIG d   1       5.973  -3.842  -4.032  0.00  0.00     0.066 H 
ATOM     16  H   LIG d   1       5.148  -5.018  -5.084  0.00  0.00     0.066 H 
ATOM     17  H   LIG d   1       6.061  -3.669  -5.801  0.00  0.00     0.066 H 
ENDBRANCH  13  14
ENDBRANCH   4  13
ENDBRANCH   1   3
BRANCH   1  18
ATOM     18  C   LIG d   1       5.789  -0.112  -6.577  0.00  0.00    -0.041 C 
ATOM     19  H   LIG d   1       6.340   0.174  -5.680  0.00  0.00     0.027 H 
ATOM     20  H   LIG d   1       5.683   0.754  -7.229  0.00  0.00     0.027 H 
BRANCH  18  21
ATOM     21  C   LIG d   1       6.551  -1.216  -7.313  0.00  0.00    -0.029 C 
ATOM     22  H   LIG d   1       5.914  -2.094  -7.410  0.00  0.00     0.029 H 
ATOM     23  H   LIG d   1       7.448  -1.476  -6.750  0.00  0.00     0.029 H 
BRANCH  21  24
ATOM     24  C   LIG d   1       6.948  -0.719  -8.705  0.00  0.00     0.044 C 
ATOM     25  H   LIG d   1       7.928  -1.118  -8.967  0.00  0.00     0.056 H 
ATOM     26  H   LIG d   1       6.212  -1.056  -9.435  0.00  0.00     0.056 H 
BRANCH  24  27
ATOM     27  O   LIG d   1       7.000   0.710  -8.704  0.00  0.00    -0.395 OA
ATOM     28  H   LIG d   1       6.520   1.119  -7.972  0.00  0.00     0.209 HD
ENDBRANCH  24  27
ENDBRANCH  21  24
ENDBRANCH  18  21
ENDBRANCH   1  18
BRANCH   1  29
ATOM     29  C   LIG d   1       3.341   0.381  -6.624  0.00  0.00     0.090 C 
ATOM     30  H   LIG d   1       3.491   1.323  -6.098  0.00  0.00     0.065 H 
BRANCH  29  31
ATOM     31  C   LIG d   1       3.455   0.612  -8.110  0.00  0.00     0.023 A 
ATOM     32  C   LIG d   1       3.236  -0.436  -8.992  0.00  0.00     0.126 A 
ATOM     33  C   LIG d   1       3.342  -0.221 -10.360  0.00  0.00    -0.020 A 
ATOM     34  C   LIG d   1       3.663   1.034 -10.838  0.00  0.00    -0.058 A 
ATOM     35  H   LIG d   1       3.172  -1.034 -11.049  0.00  0.00     0.065 H 
ATOM     36  C   LIG d   1       3.881   2.076  -9.955  0.00  0.00    -0.061 A 
ATOM     37  H   LIG d   1       3.746   1.202 -11.901  0.00  0.00     0.062 H 
ATOM     38  C   LIG d   1       3.772   1.867  -8.593  0.00  0.00    -0.053 A 
ATOM     39  H   LIG d   1       4.132   3.057 -10.331  0.00  0.00     0.062 H 
ATOM     40  H   LIG d   1       3.938   2.683  -7.906  0.00  0.00     0.062 H 
BRANCH  32  41
ATOM     41  O   LIG d   1       2.920  -1.670  -8.520  0.00  0.00    -0.495 OA
BRANCH  41  42
ATOM     42  C   LIG d   1       3.613  -2.781  -9.093  0.00  0.00     0.079 C 
ATOM     43  H   LIG d   1       4.674  -2.544  -9.175  0.00  0.00     0.066 H 
ATOM     44  H   LIG d   1       3.484  -3.657  -8.457  0.00  0.00     0.066 H 
ATOM     45  H   LIG d   1       3.210  -2.988 -10.084  0.00  0.00     0.066 H 
ENDBRANCH  41  42
ENDBRANCH  32  41
ENDBRANCH  29  31
BRANCH  29  46
ATOM     46  O   LIG d   1       2.042  -0.132  -6.321  0.00  0.00    -0.387 OA
ATOM     47  H   LIG d   1       1.709  -0.769  -6.969  0.00  0.00     0.210 HD
ENDBRANCH  29  46
ENDBRANCH   1  29
TORSDOF 12
ENDMDL
MODEL 6
REMARK VINA RESULT:      -5.4      3.321      5.366
REMARK  12 active torsions:
REMARK  status: ('A' for Active; 'I' for Inactive)
REMARK    1  A    between atoms: C_1  and  O_2 
REMARK    2  A    between atoms: O_2  and  C_3 
REMARK    3  A    between atoms: C_8  and  C_9 
REMARK    4  A    between atoms: C_9  and  C_11 
REMARK    5  A    between atoms: C_9  and  C_15 
REMARK    6  A    between atoms: C_11  and  C_12 
REMARK    7  A    between atoms: C_12  and  C_13 
REMARK    8  A    between atoms: C_13  and  O_14 
REMARK    9  A    between atoms: C_15  and  C_17 
REMARK   10  A    between atoms: C_15  and  O_25 
REMARK   11  A    between atoms: C_22  and  O_23 
REMARK   12  A    between atoms: O_23  and  C_24 
ROOT
ATOM      1  C   LIG d   1       6.268  -2.266  -4.785  0.00  0.00     0.018 C 
ATOM      2  H   LIG d   1       6.476  -1.753  -5.723  0.00  0.00     0.038 H 
ENDROOT
BRANCH   1   3
ATOM      3  C   LIG d   1       5.016  -1.696  -4.167  0.00  0.00     0.000 A 
ATOM      4  C   LIG d   1       4.373  -0.622  -4.767  0.00  0.00     0.124 A 
ATOM      5  C   LIG d   1       3.219  -0.103  -4.200  0.00  0.00    -0.020 A 
ATOM      6  C   LIG d   1       2.719  -0.649  -3.033  0.00  0.00    -0.058 A 
ATOM      7  H   LIG d   1       2.714   0.730  -4.667  0.00  0.00     0.065 H 
ATOM      8  C   LIG d   1       3.364  -1.715  -2.435  0.00  0.00    -0.061 A 
ATOM      9  H   LIG d   1       1.822  -0.242  -2.589  0.00  0.00     0.062 H 
ATOM     10  C   LIG d   1       4.512  -2.237  -3.001  0.00  0.00    -0.055 A 
ATOM     11  H   LIG d   1       2.971  -2.140  -1.523  0.00  0.00     0.062 H 
ATOM     12  H   LIG d   1       5.014  -3.070  -2.531  0.00  0.00     0.062 H 
BRANCH   4  13
ATOM     13  O   LIG d   1       4.871  -0.084  -5.912  0.00  0.00    -0.495 OA
BRANCH  13  14
ATOM     14  C   LIG d   1       4.076  -0.220  -7.091  0.00  0.00     0.079 C 
ATOM     15  H   LIG d   1       4.723  -0.432  -7.942  0.00  0.00     0.066 H 
ATOM     16  H   LIG d   1       3.368  -1.038  -6.960  0.00  0.00     0.066 H 
ATOM     17  H   LIG d   1       3.531   0.706  -7.271  0.00  0.00     0.066 H 
ENDBRANCH  13  14
ENDBRANCH   4  13
ENDBRANCH   1   3
BRANCH   1  18
ATOM     18  C   LIG d   1       6.069  -3.759  -5.054  0.00  0.00    -0.041 C 
ATOM     19  H   LIG d   1       5.680  -4.241  -4.156  0.00  0.00     0.027 H 
ATOM     20  H   LIG d   1       7.024  -4.210  -5.323  0.00  0.00     0.027 H 
BRANCH  18  21
ATOM     21  C   LIG d   1       5.075  -3.942  -6.202  0.00  0.00    -0.029 C 
ATOM     22  H   LIG d   1       5.607  -3.898  -7.152  0.00  0.00     0.029 H 
ATOM     23  H   LIG d   1       4.327  -3.150  -6.165  0.00  0.00     0.029 H 
BRANCH  21  24
ATOM     24  C   LIG d   1       4.385  -5.302  -6.067  0.00  0.00     0.044 C 
ATOM     25  H   LIG d   1       4.893  -6.031  -6.698  0.00  0.00     0.056 H 
ATOM     26  H   LIG d   1       4.428  -5.629  -5.028  0.00  0.00     0.056 H 
BRANCH  24  27
ATOM     27  O   LIG d   1       3.020  -5.186  -6.475  0.00  0.00    -0.395 OA
ATOM     28  H   LIG d   1       2.907  -4.976  -7.412  0.00  0.00     0.209 HD
ENDBRANCH  24  27
ENDBRANCH  21  24
ENDBRANCH  18  21
ENDBRANCH   1  18
BRANCH   1  29
ATOM     29  C   LIG d   1       7.443  -2.072  -3.825  0.00  0.00     0.090 C 
ATOM     30  H   LIG d   1       7.282  -2.669  -2.928  0.00  0.00     0.065 H 
BRANCH  29  31
ATOM     31  C   LIG d   1       8.718  -2.510  -4.498  0.00  0.00     0.023 A 
ATOM     32  C   LIG d   1       9.521  -3.473  -3.903  0.00  0.00     0.126 A 
ATOM     33  C   LIG d   1      10.695  -3.875  -4.525  0.00  0.00    -0.020 A 
ATOM     34  C   LIG d   1      11.061  -3.316  -5.734  0.00  0.00    -0.058 A 
ATOM     35  H   LIG d   1      11.321  -4.624  -4.065  0.00  0.00     0.065 H 
ATOM     36  C   LIG d   1      10.258  -2.357  -6.324  0.00  0.00    -0.061 A 
ATOM     37  H   LIG d   1      11.974  -3.627  -6.219  0.00  0.00     0.062 H 
ATOM     38  C   LIG d   1       9.086  -1.958  -5.710  0.00  0.00    -0.053 A 
ATOM     39  H   LIG d   1      10.546  -1.921  -7.270  0.00  0.00     0.062 H 
ATOM     40  H   LIG d   1       8.459  -1.211  -6.175  0.00  0.00     0.062 H 
BRANCH  32  41
ATOM     41  O   LIG d   1       9.160  -4.021  -2.714  0.00  0.00    -0.495 OA
BRANCH  41  42
ATOM     42  C   LIG d   1       9.961  -5.099  -2.225  0.00  0.00     0.079 C 
ATOM     43  H   LIG d   1       9.506  -5.510  -1.324  0.00  0.00     0.066 H 
ATOM     44  H   LIG d   1      10.028  -5.876  -2.986  0.00  0.00     0.066 H 
ATOM     45  H   LIG d   1      10.960  -4.731  -1.992  0.00  0.00     0.066 H 
ENDBRANCH  41  42
ENDBRANCH  32  41
ENDBRANCH  29  31
BRANCH  29  46
ATOM     46  O   LIG d   1       7.543  -0.693  -3.467  0.00  0.00    -0.387 OA
ATOM     47  H   LIG d   1       6.886  -0.405  -2.817  0.00  0.00     0.210 HD
ENDBRANCH  29  46
ENDBRANCH   1  29
TORSDOF 12
ENDMDL
MODEL 7
REMARK VINA RESULT:      -5.3      2.699      5.746
REMARK  12 active torsions:
REMARK  status: ('A' for Active; 'I' for Inactive)
REMARK    1  A    between atoms: C_1  and  O_2 
REMARK    2  A    between atoms: O_2  and  C_3 
REMARK    3  A    between atoms: C_8  and  C_9 
REMARK    4  A    between atoms: C_9  and  C_11 
REMARK    5  A    between atoms: C_9  and  C_15 
REMARK    6  A    between atoms: C_11  and  C_12 
REMARK    7  A    between atoms: C_12  and  C_13 
REMARK    8  A    between atoms: C_13  and  O_14 
REMARK    9  A    between atoms: C_15  and  C_17 
REMARK   10  A    between atoms: C_15  and  O_25 
REMARK   11  A    between atoms: C_22  and  O_23 
REMARK   12  A    between atoms: O_23  and  C_24 
ROOT
ATOM      1  C   LIG d   1       6.225  -2.207  -4.720  0.00  0.00     0.018 C 
ATOM      2  H   LIG d   1       5.871  -2.198  -5.750  0.00  0.00     0.038 H 
ENDROOT
BRANCH   1   3
ATOM      3  C   LIG d   1       7.197  -3.344  -4.532  0.00  0.00     0.000 A 
ATOM      4  C   LIG d   1       7.052  -4.509  -5.271  0.00  0.00     0.124 A 
ATOM      5  C   LIG d   1       7.951  -5.552  -5.100  0.00  0.00    -0.020 A 
ATOM      6  C   LIG d   1       8.979  -5.433  -4.185  0.00  0.00    -0.058 A 
ATOM      7  H   LIG d   1       7.843  -6.459  -5.677  0.00  0.00     0.065 H 
ATOM      8  C   LIG d   1       9.118  -4.273  -3.447  0.00  0.00    -0.061 A 
ATOM      9  H   LIG d   1       9.677  -6.247  -4.049  0.00  0.00     0.062 H 
ATOM     10  C   LIG d   1       8.227  -3.230  -3.619  0.00  0.00    -0.055 A 
ATOM     11  H   LIG d   1       9.923  -4.181  -2.732  0.00  0.00     0.062 H 
ATOM     12  H   LIG d   1       8.338  -2.324  -3.040  0.00  0.00     0.062 H 
BRANCH   4  13
ATOM     13  O   LIG d   1       6.036  -4.626  -6.166  0.00  0.00    -0.495 OA
BRANCH  13  14
ATOM     14  C   LIG d   1       5.247  -5.815  -6.099  0.00  0.00     0.079 C 
ATOM     15  H   LIG d   1       5.609  -6.533  -6.834  0.00  0.00     0.066 H 
ATOM     16  H   LIG d   1       5.322  -6.246  -5.101  0.00  0.00     0.066 H 
ATOM     17  H   LIG d   1       4.206  -5.572  -6.311  0.00  0.00     0.066 H 
ENDBRANCH  13  14
ENDBRANCH   4  13
ENDBRANCH   1   3
BRANCH   1  18
ATOM     18  C   LIG d   1       6.926  -0.882  -4.410  0.00  0.00    -0.041 C 
ATOM     19  H   LIG d   1       7.855  -1.079  -3.874  0.00  0.00     0.027 H 
ATOM     20  H   LIG d   1       6.275  -0.262  -3.793  0.00  0.00     0.027 H 
BRANCH  18  21
ATOM     21  C   LIG d   1       7.236  -0.152  -5.718  0.00  0.00    -0.029 C 
ATOM     22  H   LIG d   1       6.467   0.596  -5.907  0.00  0.00     0.029 H 
ATOM     23  H   LIG d   1       7.258  -0.869  -6.538  0.00  0.00     0.029 H 
BRANCH  21  24
ATOM     24  C   LIG d   1       8.599   0.537  -5.606  0.00  0.00     0.044 C 
ATOM     25  H   LIG d   1       9.176   0.350  -6.512  0.00  0.00     0.056 H 
ATOM     26  H   LIG d   1       8.454   1.610  -5.483  0.00  0.00     0.056 H 
BRANCH  24  27
ATOM     27  O   LIG d   1       9.304   0.018  -4.476  0.00  0.00    -0.395 OA
ATOM     28  H   LIG d   1      10.118  -0.451  -4.703  0.00  0.00     0.209 HD
ENDBRANCH  24  27
ENDBRANCH  21  24
ENDBRANCH  18  21
ENDBRANCH   1  18
BRANCH   1  29
ATOM     29  C   LIG d   1       5.038  -2.389  -3.773  0.00  0.00     0.090 C 
ATOM     30  H   LIG d   1       5.348  -2.975  -2.910  0.00  0.00     0.065 H 
BRANCH  29  31
ATOM     31  C   LIG d   1       4.549  -1.039  -3.315  0.00  0.00     0.023 A 
ATOM     32  C   LIG d   1       3.827  -0.232  -4.183  0.00  0.00     0.126 A 
ATOM     33  C   LIG d   1       3.378   1.011  -3.758  0.00  0.00    -0.020 A 
ATOM     34  C   LIG d   1       3.651   1.441  -2.474  0.00  0.00    -0.058 A 
ATOM     35  H   LIG d   1       2.815   1.641  -4.430  0.00  0.00     0.065 H 
ATOM     36  C   LIG d   1       4.371   0.634  -1.612  0.00  0.00    -0.061 A 
ATOM     37  H   LIG d   1       3.303   2.408  -2.143  0.00  0.00     0.062 H 
ATOM     38  C   LIG d   1       4.815  -0.606  -2.030  0.00  0.00    -0.053 A 
ATOM     39  H   LIG d   1       4.583   0.972  -0.608  0.00  0.00     0.062 H 
ATOM     40  H   LIG d   1       5.374  -1.236  -1.354  0.00  0.00     0.062 H 
BRANCH  32  41
ATOM     41  O   LIG d   1       3.561  -0.656  -5.445  0.00  0.00    -0.495 OA
BRANCH  41  42
ATOM     42  C   LIG d   1       2.901   0.266  -6.314  0.00  0.00     0.079 C 
ATOM     43  H   LIG d   1       3.593   0.591  -7.092  0.00  0.00     0.066 H 
ATOM     44  H   LIG d   1       2.040  -0.219  -6.773  0.00  0.00     0.066 H 
ATOM     45  H   LIG d   1       2.569   1.132  -5.740  0.00  0.00     0.066 H 
ENDBRANCH  41  42
ENDBRANCH  32  41
ENDBRANCH  29  31
BRANCH  29  46
ATOM     46  O   LIG d   1       3.983  -3.069  -4.457  0.00  0.00    -0.387 OA
ATOM     47  H   LIG d   1       4.269  -3.866  -4.927  0.00  0.00     0.210 HD
ENDBRANCH  29  46
ENDBRANCH   1  29
TORSDOF 12
ENDMDL
MODEL 8
REMARK VINA RESULT:      -5.2      1.777      2.931
REMARK  12 active torsions:
REMARK  status: ('A' for Active; 'I' for Inactive)
REMARK    1  A    between atoms: C_1  and  O_2 
REMARK    2  A    between atoms: O_2  and  C_3 
REMARK    3  A    between atoms: C_8  and  C_9 
REMARK    4  A    between atoms: C_9  and  C_11 
REMARK    5  A    between atoms: C_9  and  C_15 
REMARK    6  A    between atoms: C_11  and  C_12 
REMARK    7  A    between atoms: C_12  and  C_13 
REMARK    8  A    between atoms: C_13  and  O_14 
REMARK    9  A    between atoms: C_15  and  C_17 
REMARK   10  A    between atoms: C_15  and  O_25 
REMARK   11  A    between atoms: C_22  and  O_23 
REMARK   12  A    between atoms: O_23  and  C_24 
ROOT
ATOM      1  C   LIG d   1       4.415  -0.836  -6.198  0.00  0.00     0.018 C 
ATOM      2  H   LIG d   1       4.211  -1.812  -6.635  0.00  0.00     0.038 H 
ENDROOT
BRANCH   1   3
ATOM      3  C   LIG d   1       4.357  -0.934  -4.695  0.00  0.00     0.000 A 
ATOM      4  C   LIG d   1       4.227  -2.173  -4.085  0.00  0.00     0.124 A 
ATOM      5  C   LIG d   1       4.179  -2.262  -2.702  0.00  0.00    -0.020 A 
ATOM      6  C   LIG d   1       4.249  -1.115  -1.935  0.00  0.00    -0.058 A 
ATOM      7  H   LIG d   1       4.081  -3.226  -2.225  0.00  0.00     0.065 H 
ATOM      8  C   LIG d   1       4.374   0.119  -2.545  0.00  0.00    -0.061 A 
ATOM      9  H   LIG d   1       4.208  -1.183  -0.857  0.00  0.00     0.062 H 
ATOM     10  C   LIG d   1       4.427   0.209  -3.923  0.00  0.00    -0.055 A 
ATOM     11  H   LIG d   1       4.429   1.015  -1.944  0.00  0.00     0.062 H 
ATOM     12  H   LIG d   1       4.525   1.175  -4.397  0.00  0.00     0.062 H 
BRANCH   4  13
ATOM     13  O   LIG d   1       4.152  -3.300  -4.842  0.00  0.00    -0.495 OA
BRANCH  13  14
ATOM     14  C   LIG d   1       5.346  -4.073  -4.974  0.00  0.00     0.079 C 
ATOM     15  H   LIG d   1       6.129  -3.643  -4.350  0.00  0.00     0.066 H 
ATOM     16  H   LIG d   1       5.152  -5.098  -4.659  0.00  0.00     0.066 H 
ATOM     17  H   LIG d   1       5.668  -4.069  -6.015  0.00  0.00     0.066 H 
ENDBRANCH  13  14
ENDBRANCH   4  13
ENDBRANCH   1   3
BRANCH   1  18
ATOM     18  C   LIG d   1       5.809  -0.368  -6.624  0.00  0.00    -0.041 C 
ATOM     19  H   LIG d   1       6.409  -0.158  -5.738  0.00  0.00     0.027 H 
ATOM     20  H   LIG d   1       5.721   0.537  -7.225  0.00  0.00     0.027 H 
BRANCH  18  21
ATOM     21  C   LIG d   1       6.484  -1.465  -7.449  0.00  0.00    -0.029 C 
ATOM     22  H   LIG d   1       6.684  -1.093  -8.453  0.00  0.00     0.029 H 
ATOM     23  H   LIG d   1       5.827  -2.333  -7.506  0.00  0.00     0.029 H 
BRANCH  21  24
ATOM     24  C   LIG d   1       7.802  -1.866  -6.783  0.00  0.00     0.044 C 
ATOM     25  H   LIG d   1       8.588  -1.174  -7.086  0.00  0.00     0.056 H 
ATOM     26  H   LIG d   1       7.687  -1.832  -5.699  0.00  0.00     0.056 H 
BRANCH  24  27
ATOM     27  O   LIG d   1       8.155  -3.192  -7.183  0.00  0.00    -0.395 OA
ATOM     28  H   LIG d   1       8.893  -3.231  -7.806  0.00  0.00     0.209 HD
ENDBRANCH  24  27
ENDBRANCH  21  24
ENDBRANCH  18  21
ENDBRANCH   1  18
BRANCH   1  29
ATOM     29  C   LIG d   1       3.370   0.170  -6.683  0.00  0.00     0.090 C 
ATOM     30  H   LIG d   1       3.714   1.182  -6.474  0.00  0.00     0.065 H 
BRANCH  29  31
ATOM     31  C   LIG d   1       3.166   0.005  -8.168  0.00  0.00     0.023 A 
ATOM     32  C   LIG d   1       3.645   0.968  -9.044  0.00  0.00     0.126 A 
ATOM     33  C   LIG d   1       3.456   0.813 -10.411  0.00  0.00    -0.020 A 
ATOM     34  C   LIG d   1       2.793  -0.298 -10.894  0.00  0.00    -0.058 A 
ATOM     35  H   LIG d   1       3.829   1.560 -11.096  0.00  0.00     0.065 H 
ATOM     36  C   LIG d   1       2.317  -1.255 -10.017  0.00  0.00    -0.061 A 
ATOM     37  H   LIG d   1       2.645  -0.418 -11.957  0.00  0.00     0.062 H 
ATOM     38  C   LIG d   1       2.507  -1.107  -8.657  0.00  0.00    -0.053 A 
ATOM     39  H   LIG d   1       1.798  -2.123 -10.397  0.00  0.00     0.062 H 
ATOM     40  H   LIG d   1       2.137  -1.858  -7.974  0.00  0.00     0.062 H 
BRANCH  32  41
ATOM     41  O   LIG d   1       4.297   2.060  -8.567  0.00  0.00    -0.495 OA
BRANCH  41  42
ATOM     42  C   LIG d   1       5.590   2.333  -9.111  0.00  0.00     0.079 C 
ATOM     43  H   LIG d   1       5.770   3.409  -9.096  0.00  0.00     0.066 H 
ATOM     44  H   LIG d   1       6.350   1.829  -8.514  0.00  0.00     0.066 H 
ATOM     45  H   LIG d   1       5.635   1.973 -10.139  0.00  0.00     0.066 H 
ENDBRANCH  41  42
ENDBRANCH  32  41
ENDBRANCH  29  31
BRANCH  29  46
ATOM     46  O   LIG d   1       2.134  -0.063  -6.005  0.00  0.00    -0.387 OA
ATOM     47  H   LIG d   1       2.040  -0.961  -5.656  0.00  0.00     0.210 HD
ENDBRANCH  29  46
ENDBRANCH   1  29
TORSDOF 12
ENDMDL
MODEL 9
REMARK VINA RESULT:      -5.1      2.170      3.147
REMARK  12 active torsions:
REMARK  status: ('A' for Active; 'I' for Inactive)
REMARK    1  A    between atoms: C_1  and  O_2 
REMARK    2  A    between atoms: O_2  and  C_3 
REMARK    3  A    between atoms: C_8  and  C_9 
REMARK    4  A    between atoms: C_9  and  C_11 
REMARK    5  A    between atoms: C_9  and  C_15 
REMARK    6  A    between atoms: C_11  and  C_12 
REMARK    7  A    between atoms: C_12  and  C_13 
REMARK    8  A    between atoms: C_13  and  O_14 
REMARK    9  A    between atoms: C_15  and  C_17 
REMARK   10  A    between atoms: C_15  and  O_25 
REMARK   11  A    between atoms: C_22  and  O_23 
REMARK   12  A    between atoms: O_23  and  C_24 
ROOT
ATOM      1  C   LIG d   1       4.913  -1.442  -5.970  0.00  0.00     0.018 C 
ATOM      2  H   LIG d   1       4.398  -2.344  -6.299  0.00  0.00     0.038 H 
ENDROOT
BRANCH   1   3
ATOM      3  C   LIG d   1       4.757  -1.290  -4.478  0.00  0.00     0.000 A 
ATOM      4  C   LIG d   1       5.412  -0.263  -3.814  0.00  0.00     0.124 A 
ATOM      5  C   LIG d   1       5.263  -0.122  -2.442  0.00  0.00    -0.020 A 
ATOM      6  C   LIG d   1       4.473  -1.012  -1.740  0.00  0.00    -0.058 A 
ATOM      7  H   LIG d   1       5.769   0.679  -1.923  0.00  0.00     0.065 H 
ATOM      8  C   LIG d   1       3.826  -2.037  -2.403  0.00  0.00    -0.061 A 
ATOM      9  H   LIG d   1       4.360  -0.904  -0.670  0.00  0.00     0.062 H 
ATOM     10  C   LIG d   1       3.969  -2.176  -3.771  0.00  0.00    -0.055 A 
ATOM     11  H   LIG d   1       3.209  -2.731  -1.852  0.00  0.00     0.062 H 
ATOM     12  H   LIG d   1       3.462  -2.979  -4.287  0.00  0.00     0.062 H 
BRANCH   4  13
ATOM     13  O   LIG d   1       6.193   0.607  -4.507  0.00  0.00    -0.495 OA
BRANCH  13  14
ATOM     14  C   LIG d   1       7.109   1.400  -3.751  0.00  0.00     0.079 C 
ATOM     15  H   LIG d   1       7.355   0.886  -2.822  0.00  0.00     0.066 H 
ATOM     16  H   LIG d   1       8.019   1.558  -4.331  0.00  0.00     0.066 H 
ATOM     17  H   LIG d   1       6.653   2.363  -3.522  0.00  0.00     0.066 H 
ENDBRANCH  13  14
ENDBRANCH   4  13
ENDBRANCH   1   3
BRANCH   1  18
ATOM     18  C   LIG d   1       6.399  -1.548  -6.320  0.00  0.00    -0.041 C 
ATOM     19  H   LIG d   1       6.961  -0.813  -5.743  0.00  0.00     0.027 H 
ATOM     20  H   LIG d   1       6.537  -1.356  -7.384  0.00  0.00     0.027 H 
BRANCH  18  21
ATOM     21  C   LIG d   1       6.902  -2.953  -5.985  0.00  0.00    -0.029 C 
ATOM     22  H   LIG d   1       7.057  -3.512  -6.907  0.00  0.00     0.029 H 
ATOM     23  H   LIG d   1       6.165  -3.465  -5.366  0.00  0.00     0.029 H 
BRANCH  21  24
ATOM     24  C   LIG d   1       8.226  -2.852  -5.223  0.00  0.00     0.044 C 
ATOM     25  H   LIG d   1       8.156  -3.423  -4.297  0.00  0.00     0.056 H 
ATOM     26  H   LIG d   1       9.031  -3.255  -5.838  0.00  0.00     0.056 H 
BRANCH  24  27
ATOM     27  O   LIG d   1       8.497  -1.482  -4.919  0.00  0.00    -0.395 OA
ATOM     28  H   LIG d   1       9.415  -1.220  -5.077  0.00  0.00     0.209 HD
ENDBRANCH  24  27
ENDBRANCH  21  24
ENDBRANCH  18  21
ENDBRANCH   1  18
BRANCH   1  29
ATOM     29  C   LIG d   1       4.309  -0.224  -6.672  0.00  0.00     0.090 C 
ATOM     30  H   LIG d   1       5.107   0.446  -6.987  0.00  0.00     0.065 H 
BRANCH  29  31
ATOM     31  C   LIG d   1       3.527  -0.677  -7.878  0.00  0.00     0.023 A 
ATOM     32  C   LIG d   1       2.812   0.247  -8.627  0.00  0.00     0.126 A 
ATOM     33  C   LIG d   1       2.093  -0.172  -9.738  0.00  0.00    -0.020 A 
ATOM     34  C   LIG d   1       2.091  -1.506 -10.095  0.00  0.00    -0.058 A 
ATOM     35  H   LIG d   1       1.536   0.545 -10.323  0.00  0.00     0.065 H 
ATOM     36  C   LIG d   1       2.804  -2.424  -9.346  0.00  0.00    -0.061 A 
ATOM     37  H   LIG d   1       1.531  -1.833 -10.958  0.00  0.00     0.062 H 
ATOM     38  C   LIG d   1       3.525  -2.010  -8.242  0.00  0.00    -0.053 A 
ATOM     39  H   LIG d   1       2.801  -3.467  -9.627  0.00  0.00     0.062 H 
ATOM     40  H   LIG d   1       4.085  -2.728  -7.661  0.00  0.00     0.062 H 
BRANCH  32  41
ATOM     41  O   LIG d   1       2.815   1.559  -8.274  0.00  0.00    -0.495 OA
BRANCH  41  42
ATOM     42  C   LIG d   1       3.575   2.450  -9.093  0.00  0.00     0.079 C 
ATOM     43  H   LIG d   1       3.728   2.000 -10.075  0.00  0.00     0.066 H 
ATOM     44  H   LIG d   1       3.037   3.391  -9.204  0.00  0.00     0.066 H 
ATOM     45  H   LIG d   1       4.542   2.636  -8.626  0.00  0.00     0.066 H 
ENDBRANCH  41  42
ENDBRANCH  32  41
ENDBRANCH  29  31
BRANCH  29  46
ATOM     46  O   LIG d   1       3.439   0.462  -5.770  0.00  0.00    -0.387 OA
ATOM     47  H   LIG d   1       3.837   1.240  -5.353  0.00  0.00     0.210 HD
ENDBRANCH  29  46
ENDBRANCH   1  29
TORSDOF 12
ENDMDL
MODEL 10
REMARK VINA RESULT:      -5.0      1.989      4.223
REMARK  12 active torsions:
REMARK  status: ('A' for Active; 'I' for Inactive)
REMARK    1  A    between atoms: C_1  and  O_2 
REMARK    2  A    between atoms: O_2  and  C_3 
REMARK    3  A    between atoms: C_8  and  C_9 
REMARK    4  A    between atoms: C_9  and  C_11 
REMARK    5  A    between atoms: C_9  and  C_15 
REMARK    6  A    between atoms: C_11  and  C_12 
REMARK    7  A    between atoms: C_12  and  C_13 
REMARK    8  A    between atoms: C_13  and  O_14 
REMARK    9  A    between atoms: C_15  and  C_17 
REMARK   10  A    between atoms: C_15  and  O_25 
REMARK   11  A    between atoms: C_22  and  O_23 
REMARK   12  A    between atoms: O_23  and  C_24 
ROOT
ATOM      1  C   LIG d   1       4.247  -0.346  -5.215  0.00  0.00     0.018 C 
ATOM      2  H   LIG d   1       4.315   0.698  -5.518  0.00  0.00     0.038 H 
ENDROOT
BRANCH   1   3
ATOM      3  C   LIG d   1       5.627  -0.878  -4.924  0.00  0.00     0.000 A 
ATOM      4  C   LIG d   1       6.735  -0.295  -5.521  0.00  0.00     0.124 A 
ATOM      5  C   LIG d   1       8.004  -0.782  -5.246  0.00  0.00    -0.020 A 
ATOM      6  C   LIG d   1       8.160  -1.855  -4.389  0.00  0.00    -0.058 A 
ATOM      7  H   LIG d   1       8.870  -0.328  -5.707  0.00  0.00     0.065 H 
ATOM      8  C   LIG d   1       7.054  -2.437  -3.800  0.00  0.00    -0.061 A 
ATOM      9  H   LIG d   1       9.149  -2.237  -4.179  0.00  0.00     0.062 H 
ATOM     10  C   LIG d   1       5.788  -1.949  -4.068  0.00  0.00    -0.055 A 
ATOM     11  H   LIG d   1       7.178  -3.275  -3.129  0.00  0.00     0.062 H 
ATOM     12  H   LIG d   1       4.925  -2.406  -3.605  0.00  0.00     0.062 H 
BRANCH   4  13
ATOM     13  O   LIG d   1       6.578   0.756  -6.368  0.00  0.00    -0.495 OA
BRANCH  13  14
ATOM     14  C   LIG d   1       6.903   0.536  -7.741  0.00  0.00     0.079 C 
ATOM     15  H   LIG d   1       7.047  -0.530  -7.915  0.00  0.00     0.066 H 
ATOM     16  H   LIG d   1       6.090   0.901  -8.370  0.00  0.00     0.066 H 
ATOM     17  H   LIG d   1       7.820   1.071  -7.988  0.00  0.00     0.066 H 
ENDBRANCH  13  14
ENDBRANCH   4  13
ENDBRANCH   1   3
BRANCH   1  18
ATOM     18  C   LIG d   1       3.382  -0.456  -3.958  0.00  0.00    -0.041 C 
ATOM     19  H   LIG d   1       3.802  -1.211  -3.292  0.00  0.00     0.027 H 
ATOM     20  H   LIG d   1       2.368  -0.744  -4.237  0.00  0.00     0.027 H 
BRANCH  18  21
ATOM     21  C   LIG d   1       3.350   0.895  -3.241  0.00  0.00    -0.029 C 
ATOM     22  H   LIG d   1       2.330   1.117  -2.931  0.00  0.00     0.029 H 
ATOM     23  H   LIG d   1       3.703   1.673  -3.918  0.00  0.00     0.029 H 
BRANCH  21  24
ATOM     24  C   LIG d   1       4.257   0.840  -2.010  0.00  0.00     0.044 C 
ATOM     25  H   LIG d   1       3.794   1.394  -1.193  0.00  0.00     0.056 H 
ATOM     26  H   LIG d   1       4.399  -0.198  -1.709  0.00  0.00     0.056 H 
BRANCH  24  27
ATOM     27  O   LIG d   1       5.523   1.423  -2.324  0.00  0.00    -0.395 OA
ATOM     28  H   LIG d   1       5.667   1.563  -3.270  0.00  0.00     0.209 HD
ENDBRANCH  24  27
ENDBRANCH  21  24
ENDBRANCH  18  21
ENDBRANCH   1  18
BRANCH   1  29
ATOM     29  C   LIG d   1       3.613  -1.164  -6.342  0.00  0.00     0.090 C 
ATOM     30  H   LIG d   1       2.734  -1.684  -5.965  0.00  0.00     0.065 H 
BRANCH  29  31
ATOM     31  C   LIG d   1       3.209  -0.243  -7.465  0.00  0.00     0.023 A 
ATOM     32  C   LIG d   1       2.814  -0.771  -8.686  0.00  0.00     0.126 A 
ATOM     33  C   LIG d   1       2.442   0.080  -9.718  0.00  0.00    -0.020 A 
ATOM     34  C   LIG d   1       2.465   1.448  -9.527  0.00  0.00    -0.058 A 
ATOM     35  H   LIG d   1       2.133  -0.327 -10.669  0.00  0.00     0.065 H 
ATOM     36  C   LIG d   1       2.859   1.970  -8.308  0.00  0.00    -0.061 A 
ATOM     37  H   LIG d   1       2.176   2.110 -10.329  0.00  0.00     0.062 H 
ATOM     38  C   LIG d   1       3.226   1.126  -7.277  0.00  0.00    -0.053 A 
ATOM     39  H   LIG d   1       2.877   3.040  -8.161  0.00  0.00     0.062 H 
ATOM     40  H   LIG d   1       3.530   1.536  -6.326  0.00  0.00     0.062 H 
BRANCH  32  41
ATOM     41  O   LIG d   1       2.792  -2.116  -8.872  0.00  0.00    -0.495 OA
BRANCH  41  42
ATOM     42  C   LIG d   1       3.256  -2.605 -10.132  0.00  0.00     0.079 C 
ATOM     43  H   LIG d   1       3.141  -1.827 -10.888  0.00  0.00     0.066 H 
ATOM     44  H   LIG d   1       4.307  -2.881 -10.050  0.00  0.00     0.066 H 
ATOM     45  H   LIG d   1       2.671  -3.478 -10.420  0.00  0.00     0.066 H 
ENDBRANCH  41  42
ENDBRANCH  32  41
ENDBRANCH  29  31
BRANCH  29  46
ATOM     46  O   LIG d   1       4.560  -2.119  -6.828  0.00  0.00    -0.387 OA
ATOM     47  H   LIG d   1       4.468  -2.999  -6.435  0.00  0.00     0.210 HD
ENDBRANCH  29  46
ENDBRANCH   1  29
TORSDOF 12
ENDMDL
