MODEL 1
REMARK VINA RESULT:      -7.6      0.000      0.000
REMARK  6 active torsions:
REMARK  status: ('A' for Active; 'I' for Inactive)
REMARK    1  A    between atoms: C_1  and  O_2 
REMARK    2  A    between atoms: O_2  and  C_3 
REMARK    3  A    between atoms: C_6  and  S_9 
REMARK    4  A    between atoms: S_9  and  N_12 
REMARK    5  A    between atoms: N_12  and  C_13 
REMARK       I    between atoms: N_27  and  C_29 
REMARK    6  A    between atoms: C_29  and  C_31 
ROOT
ATOM      1  C   LIG d   1       7.948   1.657  -5.062  0.00  0.00     0.112 C 
ATOM      2  C   LIG d   1       7.490   1.504  -3.783  0.00  0.00    -0.032 C 
ATOM      3  C   LIG d   1       6.822   0.324  -3.439  0.00  0.00    -0.040 C 
ATOM      4  C   LIG d   1       6.641  -0.660  -4.358  0.00  0.00     0.027 C 
ATOM      5  N   LIG d   1       7.170  -0.548  -5.601  0.00  0.00    -0.310 N 
ATOM      6  C   LIG d   1       7.743   0.617  -5.991  0.00  0.00     0.274 C 
ATOM      7  O   LIG d   1       8.088   0.765  -7.152  0.00  0.00    -0.266 OA
ATOM      8  C   LIG d   1       7.208  -1.659  -6.553  0.00  0.00     0.031 C 
ATOM      9  C   LIG d   1       6.161  -2.716  -6.249  0.00  0.00    -0.006 C 
ATOM     10  H   LIG d   1       6.413  -3.614  -6.811  0.00  0.00     0.033 H 
ATOM     11  C   LIG d   1       6.198  -3.074  -4.763  0.00  0.00    -0.037 C 
ATOM     12  C   LIG d   1       5.786  -1.840  -3.956  0.00  0.00     0.016 C 
ATOM     13  H   LIG d   1       5.885  -2.027  -2.887  0.00  0.00     0.038 H 
ATOM     14  C   LIG d   1       4.326  -1.502  -4.301  0.00  0.00     0.023 C 
ATOM     15  N   LIG d   1       4.265  -1.241  -5.748  0.00  0.00    -0.297 N 
ATOM     16  C   LIG d   1       4.766  -2.270  -6.667  0.00  0.00     0.019 C 
ATOM     17  C   LIG d   1       3.761  -0.084  -6.219  0.00  0.00     0.247 C 
ATOM     18  O   LIG d   1       3.267   0.720  -5.452  0.00  0.00    -0.270 OA
ATOM     19  H   LIG d   1       7.646   2.281  -3.048  0.00  0.00     0.064 H 
ATOM     20  H   LIG d   1       6.447   0.194  -2.435  0.00  0.00     0.064 H 
ATOM     21  H   LIG d   1       7.036  -1.271  -7.557  0.00  0.00     0.050 H 
ATOM     22  H   LIG d   1       8.196  -2.120  -6.519  0.00  0.00     0.050 H 
ATOM     23  H   LIG d   1       7.209  -3.373  -4.484  0.00  0.00     0.028 H 
ATOM     24  H   LIG d   1       5.504  -3.890  -4.565  0.00  0.00     0.028 H 
ATOM     25  H   LIG d   1       3.681  -2.343  -4.048  0.00  0.00     0.047 H 
ATOM     26  H   LIG d   1       4.011  -0.615  -3.752  0.00  0.00     0.047 H 
ATOM     27  H   LIG d   1       4.092  -3.128  -6.651  0.00  0.00     0.047 H 
ATOM     28  H   LIG d   1       4.804  -1.863  -7.678  0.00  0.00     0.047 H 
ENDROOT
BRANCH   1  29
ATOM     29  N   LIG d   1       8.606   2.833  -5.447  0.00  0.00    -0.211 N 
ATOM     30  H   LIG d   1       8.130   3.512  -5.949  0.00  0.00     0.174 HD
BRANCH  29  31
ATOM     31  S   LIG d   1      10.196   3.061  -5.044  0.00  0.00     0.072 S 
ATOM     32  O   LIG d   1      10.685   1.808  -4.588  0.00  0.00    -0.150 OA
ATOM     33  O   LIG d   1      10.791   3.763  -6.127  0.00  0.00    -0.150 OA
BRANCH  31  34
ATOM     34  C   LIG d   1      10.232   4.150  -3.660  0.00  0.00     0.109 A 
ATOM     35  C   LIG d   1       9.578   5.367  -3.721  0.00  0.00    -0.032 A 
ATOM     36  C   LIG d   1       9.607   6.222  -2.637  0.00  0.00    -0.018 A 
ATOM     37  H   LIG d   1       9.045   5.648  -4.617  0.00  0.00     0.064 H 
ATOM     38  C   LIG d   1      10.292   5.860  -1.486  0.00  0.00     0.120 A 
ATOM     39  H   LIG d   1       9.096   7.173  -2.685  0.00  0.00     0.066 H 
ATOM     40  C   LIG d   1      10.947   4.639  -1.428  0.00  0.00    -0.018 A 
ATOM     41  C   LIG d   1      10.911   3.785  -2.512  0.00  0.00    -0.032 A 
ATOM     42  H   LIG d   1      11.482   4.355  -0.532  0.00  0.00     0.066 H 
ATOM     43  H   LIG d   1      11.418   2.832  -2.465  0.00  0.00     0.064 H 
BRANCH  38  44
ATOM     44  O   LIG d   1      10.320   6.701  -0.418  0.00  0.00    -0.495 OA
BRANCH  44  45
ATOM     45  C   LIG d   1      10.994   6.238   0.754  0.00  0.00     0.079 C 
ATOM     46  H   LIG d   1      10.625   5.247   1.017  0.00  0.00     0.066 H 
ATOM     47  H   LIG d   1      12.066   6.188   0.561  0.00  0.00     0.066 H 
ATOM     48  H   LIG d   1      10.804   6.927   1.578  0.00  0.00     0.066 H 
ENDBRANCH  44  45
ENDBRANCH  38  44
ENDBRANCH  31  34
ENDBRANCH  29  31
ENDBRANCH   1  29
BRANCH  17  49
ATOM     49  C   LIG d   1       3.807   0.208  -7.666  0.00  0.00     0.037 A 
ATOM     50  C   LIG d   1       2.712  -0.094  -8.478  0.00  0.00    -0.047 A 
ATOM     51  C   LIG d   1       2.760   0.179  -9.828  0.00  0.00    -0.026 A 
ATOM     52  H   LIG d   1       1.827  -0.542  -8.048  0.00  0.00     0.063 H 
ATOM     53  C   LIG d   1       3.895   0.753 -10.380  0.00  0.00     0.123 A 
ATOM     54  H   LIG d   1       1.914  -0.054 -10.456  0.00  0.00     0.065 H 
ATOM     55  C   LIG d   1       4.985   1.055  -9.579  0.00  0.00    -0.026 A 
ATOM     56  F   LIG d   1       3.938   1.020 -11.704  0.00  0.00    -0.205 F 
ATOM     57  C   LIG d   1       4.945   0.791  -8.228  0.00  0.00    -0.047 A 
ATOM     58  H   LIG d   1       5.868   1.501 -10.015  0.00  0.00     0.065 H 
ATOM     59  H   LIG d   1       5.793   1.031  -7.604  0.00  0.00     0.063 H 
ENDBRANCH  17  49
TORSDOF 6
ENDMDL
MODEL 2
REMARK VINA RESULT:      -7.4      2.852      4.168
REMARK  6 active torsions:
REMARK  status: ('A' for Active; 'I' for Inactive)
REMARK    1  A    between atoms: C_1  and  O_2 
REMARK    2  A    between atoms: O_2  and  C_3 
REMARK    3  A    between atoms: C_6  and  S_9 
REMARK    4  A    between atoms: S_9  and  N_12 
REMARK    5  A    between atoms: N_12  and  C_13 
REMARK       I    between atoms: N_27  and  C_29 
REMARK    6  A    between atoms: C_29  and  C_31 
ROOT
ATOM      1  C   LIG d   1       9.751   1.013  -5.690  0.00  0.00     0.112 C 
ATOM      2  C   LIG d   1      10.604  -0.054  -5.755  0.00  0.00    -0.032 C 
ATOM      3  C   LIG d   1      10.109  -1.292  -6.180  0.00  0.00    -0.040 C 
ATOM      4  C   LIG d   1       8.804  -1.429  -6.532  0.00  0.00     0.027 C 
ATOM      5  N   LIG d   1       7.979  -0.355  -6.552  0.00  0.00    -0.310 N 
ATOM      6  C   LIG d   1       8.404   0.835  -6.063  0.00  0.00     0.274 C 
ATOM      7  O   LIG d   1       7.617   1.761  -5.949  0.00  0.00    -0.266 OA
ATOM      8  C   LIG d   1       6.638  -0.393  -7.138  0.00  0.00     0.031 C 
ATOM      9  C   LIG d   1       6.077  -1.802  -7.206  0.00  0.00    -0.006 C 
ATOM     10  H   LIG d   1       5.219  -1.793  -7.878  0.00  0.00     0.033 H 
ATOM     11  C   LIG d   1       7.120  -2.750  -7.800  0.00  0.00    -0.037 C 
ATOM     12  C   LIG d   1       8.310  -2.825  -6.839  0.00  0.00     0.016 C 
ATOM     13  H   LIG d   1       9.115  -3.421  -7.268  0.00  0.00     0.038 H 
ATOM     14  C   LIG d   1       7.829  -3.454  -5.521  0.00  0.00     0.023 C 
ATOM     15  N   LIG d   1       6.762  -2.593  -4.987  0.00  0.00    -0.297 N 
ATOM     16  C   LIG d   1       5.608  -2.293  -5.843  0.00  0.00     0.019 C 
ATOM     17  C   LIG d   1       6.842  -2.090  -3.739  0.00  0.00     0.247 C 
ATOM     18  O   LIG d   1       7.757  -2.420  -3.009  0.00  0.00    -0.270 OA
ATOM     19  H   LIG d   1      11.645   0.059  -5.487  0.00  0.00     0.064 H 
ATOM     20  H   LIG d   1      10.769  -2.145  -6.227  0.00  0.00     0.064 H 
ATOM     21  H   LIG d   1       5.971   0.224  -6.535  0.00  0.00     0.050 H 
ATOM     22  H   LIG d   1       6.681   0.020  -8.147  0.00  0.00     0.050 H 
ATOM     23  H   LIG d   1       7.452  -2.369  -8.766  0.00  0.00     0.028 H 
ATOM     24  H   LIG d   1       6.686  -3.741  -7.923  0.00  0.00     0.028 H 
ATOM     25  H   LIG d   1       7.439  -4.454  -5.708  0.00  0.00     0.047 H 
ATOM     26  H   LIG d   1       8.654  -3.504  -4.811  0.00  0.00     0.047 H 
ATOM     27  H   LIG d   1       5.009  -3.196  -5.971  0.00  0.00     0.047 H 
ATOM     28  H   LIG d   1       4.999  -1.522  -5.371  0.00  0.00     0.047 H 
ENDROOT
BRANCH   1  29
ATOM     29  N   LIG d   1      10.208   2.263  -5.253  0.00  0.00    -0.211 N 
ATOM     30  H   LIG d   1      10.542   2.909  -5.896  0.00  0.00     0.174 HD
BRANCH  29  31
ATOM     31  S   LIG d   1      10.180   2.639  -3.641  0.00  0.00     0.072 S 
ATOM     32  O   LIG d   1       8.958   2.130  -3.126  0.00  0.00    -0.150 OA
ATOM     33  O   LIG d   1      11.444   2.261  -3.114  0.00  0.00    -0.150 OA
BRANCH  31  34
ATOM     34  C   LIG d   1      10.087   4.394  -3.515  0.00  0.00     0.109 A 
ATOM     35  C   LIG d   1       9.664   5.142  -4.598  0.00  0.00    -0.032 A 
ATOM     36  C   LIG d   1       9.591   6.517  -4.503  0.00  0.00    -0.018 A 
ATOM     37  H   LIG d   1       9.390   4.650  -5.520  0.00  0.00     0.064 H 
ATOM     38  C   LIG d   1       9.944   7.149  -3.319  0.00  0.00     0.120 A 
ATOM     39  H   LIG d   1       9.261   7.102  -5.349  0.00  0.00     0.066 H 
ATOM     40  C   LIG d   1      10.368   6.396  -2.234  0.00  0.00    -0.018 A 
ATOM     41  C   LIG d   1      10.434   5.021  -2.333  0.00  0.00    -0.032 A 
ATOM     42  H   LIG d   1      10.644   6.886  -1.311  0.00  0.00     0.066 H 
ATOM     43  H   LIG d   1      10.760   4.434  -1.487  0.00  0.00     0.064 H 
BRANCH  38  44
ATOM     44  O   LIG d   1       9.872   8.503  -3.222  0.00  0.00    -0.495 OA
BRANCH  44  45
ATOM     45  C   LIG d   1      10.501   9.107  -2.090  0.00  0.00     0.079 C 
ATOM     46  H   LIG d   1      10.311  10.180  -2.098  0.00  0.00     0.066 H 
ATOM     47  H   LIG d   1      10.096   8.673  -1.175  0.00  0.00     0.066 H 
ATOM     48  H   LIG d   1      11.576   8.927  -2.132  0.00  0.00     0.066 H 
ENDBRANCH  44  45
ENDBRANCH  38  44
ENDBRANCH  31  34
ENDBRANCH  29  31
ENDBRANCH   1  29
BRANCH  17  49
ATOM     49  C   LIG d   1       5.818  -1.141  -3.258  0.00  0.00     0.037 A 
ATOM     50  C   LIG d   1       6.075   0.232  -3.268  0.00  0.00    -0.047 A 
ATOM     51  C   LIG d   1       5.117   1.114  -2.817  0.00  0.00    -0.026 A 
ATOM     52  H   LIG d   1       7.024   0.602  -3.629  0.00  0.00     0.063 H 
ATOM     53  C   LIG d   1       3.899   0.640  -2.352  0.00  0.00     0.123 A 
ATOM     54  H   LIG d   1       5.315   2.175  -2.824  0.00  0.00     0.065 H 
ATOM     55  C   LIG d   1       3.639  -0.721  -2.340  0.00  0.00    -0.026 A 
ATOM     56  F   LIG d   1       2.963   1.509  -1.911  0.00  0.00    -0.205 F 
ATOM     57  C   LIG d   1       4.587  -1.611  -2.795  0.00  0.00    -0.047 A 
ATOM     58  H   LIG d   1       2.689  -1.085  -1.976  0.00  0.00     0.065 H 
ATOM     59  H   LIG d   1       4.382  -2.671  -2.789  0.00  0.00     0.063 H 
ENDBRANCH  17  49
TORSDOF 6
ENDMDL
MODEL 3
REMARK VINA RESULT:      -7.1      4.013      5.920
REMARK  6 active torsions:
REMARK  status: ('A' for Active; 'I' for Inactive)
REMARK    1  A    between atoms: C_1  and  O_2 
REMARK    2  A    between atoms: O_2  and  C_3 
REMARK    3  A    between atoms: C_6  and  S_9 
REMARK    4  A    between atoms: S_9  and  N_12 
REMARK    5  A    between atoms: N_12  and  C_13 
REMARK       I    between atoms: N_27  and  C_29 
REMARK    6  A    between atoms: C_29  and  C_31 
ROOT
ATOM      1  C   LIG d   1       6.522  -1.546  -7.336  0.00  0.00     0.112 C 
ATOM      2  C   LIG d   1       7.255  -0.559  -7.934  0.00  0.00    -0.032 C 
ATOM      3  C   LIG d   1       6.587   0.539  -8.490  0.00  0.00    -0.040 C 
ATOM      4  C   LIG d   1       5.233   0.627  -8.427  0.00  0.00     0.027 C 
ATOM      5  N   LIG d   1       4.512  -0.306  -7.758  0.00  0.00    -0.310 N 
ATOM      6  C   LIG d   1       5.119  -1.422  -7.288  0.00  0.00     0.274 C 
ATOM      7  O   LIG d   1       4.447  -2.325  -6.816  0.00  0.00    -0.266 OA
ATOM      8  C   LIG d   1       3.088  -0.146  -7.459  0.00  0.00     0.031 C 
ATOM      9  C   LIG d   1       2.406   0.833  -8.398  0.00  0.00    -0.006 C 
ATOM     10  H   LIG d   1       1.444   1.104  -7.965  0.00  0.00     0.033 H 
ATOM     11  C   LIG d   1       3.239   2.111  -8.510  0.00  0.00    -0.037 C 
ATOM     12  C   LIG d   1       4.574   1.764  -9.174  0.00  0.00     0.016 C 
ATOM     13  H   LIG d   1       5.233   2.631  -9.193  0.00  0.00     0.038 H 
ATOM     14  C   LIG d   1       4.291   1.283 -10.607  0.00  0.00     0.023 C 
ATOM     15  N   LIG d   1       3.417   0.103 -10.511  0.00  0.00    -0.297 N 
ATOM     16  C   LIG d   1       2.155   0.224  -9.770  0.00  0.00     0.019 C 
ATOM     17  C   LIG d   1       3.767  -1.063 -11.089  0.00  0.00     0.247 C 
ATOM     18  O   LIG d   1       4.770  -1.124 -11.774  0.00  0.00    -0.270 OA
ATOM     19  H   LIG d   1       8.332  -0.622  -7.973  0.00  0.00     0.064 H 
ATOM     20  H   LIG d   1       7.153   1.321  -8.974  0.00  0.00     0.064 H 
ATOM     21  H   LIG d   1       2.598  -1.116  -7.545  0.00  0.00     0.050 H 
ATOM     22  H   LIG d   1       2.979   0.212  -6.435  0.00  0.00     0.050 H 
ATOM     23  H   LIG d   1       3.419   2.519  -7.516  0.00  0.00     0.028 H 
ATOM     24  H   LIG d   1       2.707   2.842  -9.118  0.00  0.00     0.028 H 
ATOM     25  H   LIG d   1       3.790   2.070 -11.170  0.00  0.00     0.047 H 
ATOM     26  H   LIG d   1       5.225   1.012 -11.098  0.00  0.00     0.047 H 
ATOM     27  H   LIG d   1       1.469   0.861 -10.329  0.00  0.00     0.047 H 
ATOM     28  H   LIG d   1       1.711  -0.765  -9.652  0.00  0.00     0.047 H 
ENDROOT
BRANCH   1  29
ATOM     29  N   LIG d   1       7.155  -2.667  -6.784  0.00  0.00    -0.211 N 
ATOM     30  H   LIG d   1       7.109  -3.523  -7.238  0.00  0.00     0.174 HD
BRANCH  29  31
ATOM     31  S   LIG d   1       7.983  -2.532  -5.357  0.00  0.00     0.072 S 
ATOM     32  O   LIG d   1       7.923  -3.805  -4.729  0.00  0.00    -0.150 OA
ATOM     33  O   LIG d   1       9.213  -1.889  -5.660  0.00  0.00    -0.150 OA
BRANCH  31  34
ATOM     34  C   LIG d   1       7.076  -1.423  -4.331  0.00  0.00     0.109 A 
ATOM     35  C   LIG d   1       7.423  -0.085  -4.285  0.00  0.00    -0.032 A 
ATOM     36  C   LIG d   1       6.715   0.786  -3.481  0.00  0.00    -0.018 A 
ATOM     37  H   LIG d   1       8.249   0.279  -4.879  0.00  0.00     0.064 H 
ATOM     38  C   LIG d   1       5.654   0.319  -2.719  0.00  0.00     0.120 A 
ATOM     39  H   LIG d   1       6.987   1.832  -3.446  0.00  0.00     0.066 H 
ATOM     40  C   LIG d   1       5.308  -1.024  -2.767  0.00  0.00    -0.018 A 
ATOM     41  C   LIG d   1       6.016  -1.890  -3.576  0.00  0.00    -0.032 A 
ATOM     42  H   LIG d   1       4.483  -1.390  -2.174  0.00  0.00     0.066 H 
ATOM     43  H   LIG d   1       5.744  -2.935  -3.617  0.00  0.00     0.064 H 
BRANCH  38  44
ATOM     44  O   LIG d   1       4.955   1.175  -1.928  0.00  0.00    -0.495 OA
BRANCH  44  45
ATOM     45  C   LIG d   1       3.615   1.475  -2.322  0.00  0.00     0.079 C 
ATOM     46  H   LIG d   1       3.602   2.407  -2.886  0.00  0.00     0.066 H 
ATOM     47  H   LIG d   1       3.229   0.667  -2.945  0.00  0.00     0.066 H 
ATOM     48  H   LIG d   1       2.989   1.578  -1.434  0.00  0.00     0.066 H 
ENDBRANCH  44  45
ENDBRANCH  38  44
ENDBRANCH  31  34
ENDBRANCH  29  31
ENDBRANCH   1  29
BRANCH  17  49
ATOM     49  C   LIG d   1       2.934  -2.266 -10.890  0.00  0.00     0.037 A 
ATOM     50  C   LIG d   1       1.794  -2.466 -11.672  0.00  0.00    -0.047 A 
ATOM     51  C   LIG d   1       1.019  -3.589 -11.483  0.00  0.00    -0.026 A 
ATOM     52  H   LIG d   1       1.519  -1.740 -12.424  0.00  0.00     0.063 H 
ATOM     53  C   LIG d   1       1.369  -4.521 -10.517  0.00  0.00     0.123 A 
ATOM     54  H   LIG d   1       0.137  -3.744 -12.087  0.00  0.00     0.065 H 
ATOM     55  C   LIG d   1       2.499  -4.328  -9.739  0.00  0.00    -0.026 A 
ATOM     56  F   LIG d   1       0.606  -5.621 -10.336  0.00  0.00    -0.205 F 
ATOM     57  C   LIG d   1       3.285  -3.211  -9.924  0.00  0.00    -0.047 A 
ATOM     58  H   LIG d   1       2.767  -5.056  -8.987  0.00  0.00     0.065 H 
ATOM     59  H   LIG d   1       4.167  -3.064  -9.320  0.00  0.00     0.063 H 
ENDBRANCH  17  49
TORSDOF 6
ENDMDL
MODEL 4
REMARK VINA RESULT:      -7.0      3.899      5.333
REMARK  6 active torsions:
REMARK  status: ('A' for Active; 'I' for Inactive)
REMARK    1  A    between atoms: C_1  and  O_2 
REMARK    2  A    between atoms: O_2  and  C_3 
REMARK    3  A    between atoms: C_6  and  S_9 
REMARK    4  A    between atoms: S_9  and  N_12 
REMARK    5  A    between atoms: N_12  and  C_13 
REMARK       I    between atoms: N_27  and  C_29 
REMARK    6  A    between atoms: C_29  and  C_31 
ROOT
ATOM      1  C   LIG d   1       8.540   0.340  -7.576  0.00  0.00     0.112 C 
ATOM      2  C   LIG d   1       9.316  -0.750  -7.856  0.00  0.00    -0.032 C 
ATOM      3  C   LIG d   1       8.725  -2.018  -7.866  0.00  0.00    -0.040 C 
ATOM      4  C   LIG d   1       7.399  -2.163  -7.612  0.00  0.00     0.027 C 
ATOM      5  N   LIG d   1       6.610  -1.078  -7.421  0.00  0.00    -0.310 N 
ATOM      6  C   LIG d   1       7.167   0.153  -7.317  0.00  0.00     0.274 C 
ATOM      7  O   LIG d   1       6.474   1.108  -7.002  0.00  0.00    -0.266 OA
ATOM      8  C   LIG d   1       5.149  -1.154  -7.374  0.00  0.00     0.031 C 
ATOM      9  C   LIG d   1       4.654  -2.543  -7.013  0.00  0.00    -0.006 C 
ATOM     10  H   LIG d   1       3.593  -2.598  -7.254  0.00  0.00     0.033 H 
ATOM     11  C   LIG d   1       5.376  -3.589  -7.864  0.00  0.00    -0.037 C 
ATOM     12  C   LIG d   1       6.863  -3.572  -7.497  0.00  0.00     0.016 C 
ATOM     13  H   LIG d   1       7.428  -4.242  -8.144  0.00  0.00     0.038 H 
ATOM     14  C   LIG d   1       7.003  -4.010  -6.029  0.00  0.00     0.023 C 
ATOM     15  N   LIG d   1       6.237  -3.057  -5.210  0.00  0.00    -0.297 N 
ATOM     16  C   LIG d   1       4.821  -2.839  -5.530  0.00  0.00     0.019 C 
ATOM     17  C   LIG d   1       6.822  -2.398  -4.191  0.00  0.00     0.247 C 
ATOM     18  O   LIG d   1       7.970  -2.655  -3.881  0.00  0.00    -0.270 OA
ATOM     19  H   LIG d   1      10.369  -0.633  -8.071  0.00  0.00     0.064 H 
ATOM     20  H   LIG d   1       9.329  -2.888  -8.077  0.00  0.00     0.064 H 
ATOM     21  H   LIG d   1       4.782  -0.445  -6.631  0.00  0.00     0.050 H 
ATOM     22  H   LIG d   1       4.749  -0.878  -8.350  0.00  0.00     0.050 H 
ATOM     23  H   LIG d   1       5.257  -3.348  -8.920  0.00  0.00     0.028 H 
ATOM     24  H   LIG d   1       4.960  -4.576  -7.662  0.00  0.00     0.028 H 
ATOM     25  H   LIG d   1       6.601  -5.015  -5.902  0.00  0.00     0.047 H 
ATOM     26  H   LIG d   1       8.052  -3.990  -5.736  0.00  0.00     0.047 H 
ATOM     27  H   LIG d   1       4.251  -3.733  -5.273  0.00  0.00     0.047 H 
ATOM     28  H   LIG d   1       4.446  -1.996  -4.948  0.00  0.00     0.047 H 
ENDROOT
BRANCH   1  29
ATOM     29  N   LIG d   1       9.101   1.623  -7.540  0.00  0.00    -0.211 N 
ATOM     30  H   LIG d   1       9.263   2.058  -6.688  0.00  0.00     0.174 HD
BRANCH  29  31
ATOM     31  S   LIG d   1       9.486   2.398  -8.952  0.00  0.00     0.072 S 
ATOM     32  O   LIG d   1      10.835   2.062  -9.246  0.00  0.00    -0.150 OA
ATOM     33  O   LIG d   1       8.422   2.142  -9.858  0.00  0.00    -0.150 OA
BRANCH  31  34
ATOM     34  C   LIG d   1       9.460   4.129  -8.621  0.00  0.00     0.109 A 
ATOM     35  C   LIG d   1       9.939   4.609  -7.416  0.00  0.00    -0.032 A 
ATOM     36  C   LIG d   1       9.918   5.964  -7.154  0.00  0.00    -0.018 A 
ATOM     37  H   LIG d   1      10.330   3.923  -6.679  0.00  0.00     0.064 H 
ATOM     38  C   LIG d   1       9.416   6.845  -8.102  0.00  0.00     0.120 A 
ATOM     39  H   LIG d   1      10.292   6.339  -6.213  0.00  0.00     0.066 H 
ATOM     40  C   LIG d   1       8.935   6.361  -9.310  0.00  0.00    -0.018 A 
ATOM     41  C   LIG d   1       8.963   5.005  -9.569  0.00  0.00    -0.032 A 
ATOM     42  H   LIG d   1       8.543   7.045 -10.048  0.00  0.00     0.066 H 
ATOM     43  H   LIG d   1       8.593   4.628 -10.511  0.00  0.00     0.064 H 
BRANCH  38  44
ATOM     44  O   LIG d   1       9.395   8.181  -7.846  0.00  0.00    -0.495 OA
BRANCH  44  45
ATOM     45  C   LIG d   1       9.351   8.578  -6.475  0.00  0.00     0.079 C 
ATOM     46  H   LIG d   1       9.974   7.907  -5.883  0.00  0.00     0.066 H 
ATOM     47  H   LIG d   1       9.722   9.598  -6.379  0.00  0.00     0.066 H 
ATOM     48  H   LIG d   1       8.322   8.530  -6.115  0.00  0.00     0.066 H 
ENDBRANCH  44  45
ENDBRANCH  38  44
ENDBRANCH  31  34
ENDBRANCH  29  31
ENDBRANCH   1  29
BRANCH  17  49
ATOM     49  C   LIG d   1       6.071  -1.366  -3.450  0.00  0.00     0.037 A 
ATOM     50  C   LIG d   1       5.072  -1.738  -2.547  0.00  0.00    -0.047 A 
ATOM     51  C   LIG d   1       4.373  -0.770  -1.859  0.00  0.00    -0.026 A 
ATOM     52  H   LIG d   1       4.847  -2.783  -2.390  0.00  0.00     0.063 H 
ATOM     53  C   LIG d   1       4.660   0.572  -2.061  0.00  0.00     0.123 A 
ATOM     54  H   LIG d   1       3.601  -1.057  -1.161  0.00  0.00     0.065 H 
ATOM     55  C   LIG d   1       5.651   0.946  -2.955  0.00  0.00    -0.026 A 
ATOM     56  F   LIG d   1       3.972   1.516  -1.383  0.00  0.00    -0.205 F 
ATOM     57  C   LIG d   1       6.360  -0.013  -3.644  0.00  0.00    -0.047 A 
ATOM     58  H   LIG d   1       5.869   1.993  -3.110  0.00  0.00     0.065 H 
ATOM     59  H   LIG d   1       7.134   0.280  -4.337  0.00  0.00     0.063 H 
ENDBRANCH  17  49
TORSDOF 6
ENDMDL
MODEL 5
REMARK VINA RESULT:      -7.0      1.985      2.653
REMARK  6 active torsions:
REMARK  status: ('A' for Active; 'I' for Inactive)
REMARK    1  A    between atoms: C_1  and  O_2 
REMARK    2  A    between atoms: O_2  and  C_3 
REMARK    3  A    between atoms: C_6  and  S_9 
REMARK    4  A    between atoms: S_9  and  N_12 
REMARK    5  A    between atoms: N_12  and  C_13 
REMARK       I    between atoms: N_27  and  C_29 
REMARK    6  A    between atoms: C_29  and  C_31 
ROOT
ATOM      1  C   LIG d   1       8.157   0.690  -4.072  0.00  0.00     0.112 C 
ATOM      2  C   LIG d   1       7.220   1.475  -3.461  0.00  0.00    -0.032 C 
ATOM      3  C   LIG d   1       5.962   0.933  -3.178  0.00  0.00    -0.040 C 
ATOM      4  C   LIG d   1       5.678  -0.356  -3.497  0.00  0.00     0.027 C 
ATOM      5  N   LIG d   1       6.632  -1.162  -4.023  0.00  0.00    -0.310 N 
ATOM      6  C   LIG d   1       7.830  -0.644  -4.389  0.00  0.00     0.274 C 
ATOM      7  O   LIG d   1       8.632  -1.338  -4.993  0.00  0.00    -0.266 OA
ATOM      8  C   LIG d   1       6.460  -2.608  -4.171  0.00  0.00     0.031 C 
ATOM      9  C   LIG d   1       4.997  -3.015  -4.207  0.00  0.00    -0.006 C 
ATOM     10  H   LIG d   1       4.941  -4.091  -4.050  0.00  0.00     0.033 H 
ATOM     11  C   LIG d   1       4.242  -2.340  -3.061  0.00  0.00    -0.037 C 
ATOM     12  C   LIG d   1       4.256  -0.827  -3.295  0.00  0.00     0.016 C 
ATOM     13  H   LIG d   1       3.804  -0.302  -2.454  0.00  0.00     0.038 H 
ATOM     14  C   LIG d   1       3.475  -0.529  -4.586  0.00  0.00     0.023 C 
ATOM     15  N   LIG d   1       4.146  -1.248  -5.681  0.00  0.00    -0.297 N 
ATOM     16  C   LIG d   1       4.351  -2.695  -5.548  0.00  0.00     0.019 C 
ATOM     17  C   LIG d   1       4.563  -0.592  -6.782  0.00  0.00     0.247 C 
ATOM     18  O   LIG d   1       4.306   0.589  -6.919  0.00  0.00    -0.270 OA
ATOM     19  H   LIG d   1       7.450   2.497  -3.195  0.00  0.00     0.064 H 
ATOM     20  H   LIG d   1       5.209   1.545  -2.703  0.00  0.00     0.064 H 
ATOM     21  H   LIG d   1       6.937  -2.928  -5.098  0.00  0.00     0.050 H 
ATOM     22  H   LIG d   1       6.946  -3.110  -3.335  0.00  0.00     0.050 H 
ATOM     23  H   LIG d   1       4.732  -2.569  -2.115  0.00  0.00     0.028 H 
ATOM     24  H   LIG d   1       3.213  -2.698  -3.040  0.00  0.00     0.028 H 
ATOM     25  H   LIG d   1       2.448  -0.881  -4.487  0.00  0.00     0.047 H 
ATOM     26  H   LIG d   1       3.483   0.541  -4.786  0.00  0.00     0.047 H 
ATOM     27  H   LIG d   1       3.389  -3.204  -5.616  0.00  0.00     0.047 H 
ATOM     28  H   LIG d   1       4.998  -3.043  -6.353  0.00  0.00     0.047 H 
ENDROOT
BRANCH   1  29
ATOM     29  N   LIG d   1       9.423   1.204  -4.386  0.00  0.00    -0.211 N 
ATOM     30  H   LIG d   1      10.209   0.872  -3.925  0.00  0.00     0.174 HD
BRANCH  29  31
ATOM     31  S   LIG d   1       9.576   2.380  -5.541  0.00  0.00     0.072 S 
ATOM     32  O   LIG d   1      10.845   2.189  -6.150  0.00  0.00    -0.150 OA
ATOM     33  O   LIG d   1       8.366   2.376  -6.286  0.00  0.00    -0.150 OA
BRANCH  31  34
ATOM     34  C   LIG d   1       9.646   3.928  -4.704  0.00  0.00     0.109 A 
ATOM     35  C   LIG d   1       9.841   3.965  -3.335  0.00  0.00    -0.032 A 
ATOM     36  C   LIG d   1       9.895   5.177  -2.677  0.00  0.00    -0.018 A 
ATOM     37  H   LIG d   1       9.950   3.044  -2.781  0.00  0.00     0.064 H 
ATOM     38  C   LIG d   1       9.755   6.360  -3.390  0.00  0.00     0.120 A 
ATOM     39  H   LIG d   1      10.047   5.206  -1.607  0.00  0.00     0.066 H 
ATOM     40  C   LIG d   1       9.560   6.320  -4.762  0.00  0.00    -0.018 A 
ATOM     41  C   LIG d   1       9.512   5.105  -5.417  0.00  0.00    -0.032 A 
ATOM     42  H   LIG d   1       9.450   7.240  -5.319  0.00  0.00     0.066 H 
ATOM     43  H   LIG d   1       9.364   5.074  -6.487  0.00  0.00     0.064 H 
BRANCH  38  44
ATOM     44  O   LIG d   1       9.810   7.555  -2.743  0.00  0.00    -0.495 OA
BRANCH  44  45
ATOM     45  C   LIG d   1       9.416   7.567  -1.370  0.00  0.00     0.079 C 
ATOM     46  H   LIG d   1       8.807   8.450  -1.175  0.00  0.00     0.066 H 
ATOM     47  H   LIG d   1       8.836   6.670  -1.149  0.00  0.00     0.066 H 
ATOM     48  H   LIG d   1      10.304   7.591  -0.737  0.00  0.00     0.066 H 
ENDBRANCH  44  45
ENDBRANCH  38  44
ENDBRANCH  31  34
ENDBRANCH  29  31
ENDBRANCH   1  29
BRANCH  17  49
ATOM     49  C   LIG d   1       5.331  -1.306  -7.821  0.00  0.00     0.037 A 
ATOM     50  C   LIG d   1       6.727  -1.326  -7.773  0.00  0.00    -0.047 A 
ATOM     51  C   LIG d   1       7.439  -1.993  -8.746  0.00  0.00    -0.026 A 
ATOM     52  H   LIG d   1       7.248  -0.818  -6.974  0.00  0.00     0.063 H 
ATOM     53  C   LIG d   1       6.772  -2.644  -9.772  0.00  0.00     0.123 A 
ATOM     54  H   LIG d   1       8.518  -2.008  -8.709  0.00  0.00     0.065 H 
ATOM     55  C   LIG d   1       5.387  -2.628  -9.826  0.00  0.00    -0.026 A 
ATOM     56  F   LIG d   1       7.475  -3.297 -10.724  0.00  0.00    -0.205 F 
ATOM     57  C   LIG d   1       4.665  -1.969  -8.854  0.00  0.00    -0.047 A 
ATOM     58  H   LIG d   1       4.872  -3.135 -10.628  0.00  0.00     0.065 H 
ATOM     59  H   LIG d   1       3.586  -1.961  -8.894  0.00  0.00     0.063 H 
ENDBRANCH  17  49
TORSDOF 6
ENDMDL
MODEL 6
REMARK VINA RESULT:      -6.9      4.109      9.753
REMARK  6 active torsions:
REMARK  status: ('A' for Active; 'I' for Inactive)
REMARK    1  A    between atoms: C_1  and  O_2 
REMARK    2  A    between atoms: O_2  and  C_3 
REMARK    3  A    between atoms: C_6  and  S_9 
REMARK    4  A    between atoms: S_9  and  N_12 
REMARK    5  A    between atoms: N_12  and  C_13 
REMARK       I    between atoms: N_27  and  C_29 
REMARK    6  A    between atoms: C_29  and  C_31 
ROOT
ATOM      1  C   LIG d   1      11.365   5.346  -1.279  0.00  0.00     0.112 C 
ATOM      2  C   LIG d   1      12.427   5.781  -0.536  0.00  0.00    -0.032 C 
ATOM      3  C   LIG d   1      12.436   7.103  -0.076  0.00  0.00    -0.040 C 
ATOM      4  C   LIG d   1      11.401   7.937  -0.354  0.00  0.00     0.027 C 
ATOM      5  N   LIG d   1      10.308   7.484  -1.015  0.00  0.00    -0.310 N 
ATOM      6  C   LIG d   1      10.308   6.238  -1.549  0.00  0.00     0.274 C 
ATOM      7  O   LIG d   1       9.385   5.885  -2.264  0.00  0.00    -0.266 OA
ATOM      8  C   LIG d   1       9.075   8.262  -1.141  0.00  0.00     0.031 C 
ATOM      9  C   LIG d   1       9.311   9.752  -0.966  0.00  0.00    -0.006 C 
ATOM     10  H   LIG d   1       8.346  10.231  -0.805  0.00  0.00     0.033 H 
ATOM     11  C   LIG d   1      10.164  10.000   0.279  0.00  0.00    -0.037 C 
ATOM     12  C   LIG d   1      11.548   9.387   0.050  0.00  0.00     0.016 C 
ATOM     13  H   LIG d   1      12.158   9.465   0.949  0.00  0.00     0.038 H 
ATOM     14  C   LIG d   1      12.221  10.133  -1.113  0.00  0.00     0.023 C 
ATOM     15  N   LIG d   1      11.361   9.972  -2.296  0.00  0.00    -0.297 N 
ATOM     16  C   LIG d   1       9.952  10.374  -2.198  0.00  0.00     0.019 C 
ATOM     17  C   LIG d   1      11.854   9.467  -3.444  0.00  0.00     0.247 C 
ATOM     18  O   LIG d   1      13.041   9.223  -3.539  0.00  0.00    -0.270 OA
ATOM     19  H   LIG d   1      13.245   5.114  -0.303  0.00  0.00     0.064 H 
ATOM     20  H   LIG d   1      13.273   7.462   0.504  0.00  0.00     0.064 H 
ATOM     21  H   LIG d   1       8.646   8.087  -2.128  0.00  0.00     0.050 H 
ATOM     22  H   LIG d   1       8.365   7.925  -0.385  0.00  0.00     0.050 H 
ATOM     23  H   LIG d   1       9.694   9.532   1.144  0.00  0.00     0.028 H 
ATOM     24  H   LIG d   1      10.262  11.072   0.448  0.00  0.00     0.028 H 
ATOM     25  H   LIG d   1      12.320  11.190  -0.868  0.00  0.00     0.047 H 
ATOM     26  H   LIG d   1      13.204   9.705  -1.310  0.00  0.00     0.047 H 
ATOM     27  H   LIG d   1       9.891  11.461  -2.128  0.00  0.00     0.047 H 
ATOM     28  H   LIG d   1       9.420  10.042  -3.090  0.00  0.00     0.047 H 
ENDROOT
BRANCH   1  29
ATOM     29  N   LIG d   1      11.331   4.035  -1.770  0.00  0.00    -0.211 N 
ATOM     30  H   LIG d   1      11.008   3.314  -1.207  0.00  0.00     0.174 HD
BRANCH  29  31
ATOM     31  S   LIG d   1      11.841   3.714  -3.312  0.00  0.00     0.072 S 
ATOM     32  O   LIG d   1      12.136   4.967  -3.912  0.00  0.00    -0.150 OA
ATOM     33  O   LIG d   1      12.802   2.672  -3.213  0.00  0.00    -0.150 OA
BRANCH  31  34
ATOM     34  C   LIG d   1      10.466   3.047  -4.189  0.00  0.00     0.109 A 
ATOM     35  C   LIG d   1      10.458   3.058  -5.572  0.00  0.00    -0.032 A 
ATOM     36  C   LIG d   1       9.381   2.538  -6.262  0.00  0.00    -0.018 A 
ATOM     37  H   LIG d   1      11.295   3.475  -6.113  0.00  0.00     0.064 H 
ATOM     38  C   LIG d   1       8.307   2.003  -5.566  0.00  0.00     0.120 A 
ATOM     39  H   LIG d   1       9.375   2.547  -7.342  0.00  0.00     0.066 H 
ATOM     40  C   LIG d   1       8.317   1.993  -4.179  0.00  0.00    -0.018 A 
ATOM     41  C   LIG d   1       9.398   2.510  -3.494  0.00  0.00    -0.032 A 
ATOM     42  H   LIG d   1       7.480   1.577  -3.636  0.00  0.00     0.066 H 
ATOM     43  H   LIG d   1       9.409   2.499  -2.414  0.00  0.00     0.064 H 
BRANCH  38  44
ATOM     44  O   LIG d   1       7.245   1.488  -6.244  0.00  0.00    -0.495 OA
BRANCH  44  45
ATOM     45  C   LIG d   1       7.404   1.300  -7.651  0.00  0.00     0.079 C 
ATOM     46  H   LIG d   1       7.186   2.233  -8.169  0.00  0.00     0.066 H 
ATOM     47  H   LIG d   1       8.430   0.996  -7.864  0.00  0.00     0.066 H 
ATOM     48  H   LIG d   1       6.718   0.524  -7.993  0.00  0.00     0.066 H 
ENDBRANCH  44  45
ENDBRANCH  38  44
ENDBRANCH  31  34
ENDBRANCH  29  31
ENDBRANCH   1  29
BRANCH  17  49
ATOM     49  C   LIG d   1      10.953   9.209  -4.585  0.00  0.00     0.037 A 
ATOM     50  C   LIG d   1      10.754  10.193  -5.557  0.00  0.00    -0.047 A 
ATOM     51  C   LIG d   1       9.912   9.948  -6.620  0.00  0.00    -0.026 A 
ATOM     52  H   LIG d   1      11.259  11.144  -5.475  0.00  0.00     0.063 H 
ATOM     53  C   LIG d   1       9.263   8.727  -6.726  0.00  0.00     0.123 A 
ATOM     54  H   LIG d   1       9.758  10.708  -7.371  0.00  0.00     0.065 H 
ATOM     55  C   LIG d   1       9.457   7.748  -5.765  0.00  0.00    -0.026 A 
ATOM     56  F   LIG d   1       8.438   8.492  -7.770  0.00  0.00    -0.205 F 
ATOM     57  C   LIG d   1      10.301   7.980  -4.701  0.00  0.00    -0.047 A 
ATOM     58  H   LIG d   1       8.947   6.799  -5.851  0.00  0.00     0.065 H 
ATOM     59  H   LIG d   1      10.455   7.214  -3.955  0.00  0.00     0.063 H 
ENDBRANCH  17  49
TORSDOF 6
ENDMDL
MODEL 7
REMARK VINA RESULT:      -6.9      4.521     10.026
REMARK  6 active torsions:
REMARK  status: ('A' for Active; 'I' for Inactive)
REMARK    1  A    between atoms: C_1  and  O_2 
REMARK    2  A    between atoms: O_2  and  C_3 
REMARK    3  A    between atoms: C_6  and  S_9 
REMARK    4  A    between atoms: S_9  and  N_12 
REMARK    5  A    between atoms: N_12  and  C_13 
REMARK       I    between atoms: N_27  and  C_29 
REMARK    6  A    between atoms: C_29  and  C_31 
ROOT
ATOM      1  C   LIG d   1       9.681   4.053  -4.262  0.00  0.00     0.112 C 
ATOM      2  C   LIG d   1       9.518   4.881  -5.338  0.00  0.00    -0.032 C 
ATOM      3  C   LIG d   1      10.513   5.823  -5.624  0.00  0.00    -0.040 C 
ATOM      4  C   LIG d   1      11.627   5.907  -4.851  0.00  0.00     0.027 C 
ATOM      5  N   LIG d   1      11.831   5.030  -3.839  0.00  0.00    -0.310 N 
ATOM      6  C   LIG d   1      10.849   4.166  -3.482  0.00  0.00     0.274 C 
ATOM      7  O   LIG d   1      10.979   3.479  -2.482  0.00  0.00    -0.266 OA
ATOM      8  C   LIG d   1      13.104   4.921  -3.125  0.00  0.00     0.031 C 
ATOM      9  C   LIG d   1      13.937   6.186  -3.234  0.00  0.00    -0.006 C 
ATOM     10  H   LIG d   1      14.954   5.950  -2.922  0.00  0.00     0.033 H 
ATOM     11  C   LIG d   1      13.996   6.646  -4.691  0.00  0.00    -0.037 C 
ATOM     12  C   LIG d   1      12.585   7.042  -5.133  0.00  0.00     0.016 C 
ATOM     13  H   LIG d   1      12.568   7.292  -6.193  0.00  0.00     0.038 H 
ATOM     14  C   LIG d   1      12.138   8.253  -4.297  0.00  0.00     0.023 C 
ATOM     15  N   LIG d   1      12.163   7.844  -2.883  0.00  0.00    -0.297 N 
ATOM     16  C   LIG d   1      13.409   7.295  -2.334  0.00  0.00     0.019 C 
ATOM     17  C   LIG d   1      11.067   7.970  -2.110  0.00  0.00     0.247 C 
ATOM     18  O   LIG d   1      10.070   8.510  -2.552  0.00  0.00    -0.270 OA
ATOM     19  H   LIG d   1       8.638   4.805  -5.961  0.00  0.00     0.064 H 
ATOM     20  H   LIG d   1      10.393   6.489  -6.465  0.00  0.00     0.064 H 
ATOM     21  H   LIG d   1      12.903   4.722  -2.072  0.00  0.00     0.050 H 
ATOM     22  H   LIG d   1      13.672   4.087  -3.538  0.00  0.00     0.050 H 
ATOM     23  H   LIG d   1      14.361   5.832  -5.317  0.00  0.00     0.028 H 
ATOM     24  H   LIG d   1      14.662   7.505  -4.778  0.00  0.00     0.028 H 
ATOM     25  H   LIG d   1      12.823   9.085  -4.454  0.00  0.00     0.047 H 
ATOM     26  H   LIG d   1      11.127   8.545  -4.579  0.00  0.00     0.047 H 
ATOM     27  H   LIG d   1      14.153   8.089  -2.263  0.00  0.00     0.047 H 
ATOM     28  H   LIG d   1      13.217   6.892  -1.339  0.00  0.00     0.047 H 
ENDROOT
BRANCH   1  29
ATOM     29  N   LIG d   1       8.698   3.109  -3.936  0.00  0.00    -0.211 N 
ATOM     30  H   LIG d   1       8.095   3.273  -3.195  0.00  0.00     0.174 HD
BRANCH  29  31
ATOM     31  S   LIG d   1       8.567   1.712  -4.816  0.00  0.00     0.072 S 
ATOM     32  O   LIG d   1       8.005   2.072  -6.070  0.00  0.00    -0.150 OA
ATOM     33  O   LIG d   1       9.816   1.044  -4.704  0.00  0.00    -0.150 OA
BRANCH  31  34
ATOM     34  C   LIG d   1       7.379   0.694  -4.005  0.00  0.00     0.109 A 
ATOM     35  C   LIG d   1       6.352   1.274  -3.282  0.00  0.00    -0.032 A 
ATOM     36  C   LIG d   1       5.421   0.479  -2.645  0.00  0.00    -0.018 A 
ATOM     37  H   LIG d   1       6.280   2.349  -3.216  0.00  0.00     0.064 H 
ATOM     38  C   LIG d   1       5.515  -0.903  -2.731  0.00  0.00     0.120 A 
ATOM     39  H   LIG d   1       4.619   0.932  -2.080  0.00  0.00     0.066 H 
ATOM     40  C   LIG d   1       6.545  -1.482  -3.457  0.00  0.00    -0.018 A 
ATOM     41  C   LIG d   1       7.472  -0.682  -4.096  0.00  0.00    -0.032 A 
ATOM     42  H   LIG d   1       6.621  -2.557  -3.524  0.00  0.00     0.066 H 
ATOM     43  H   LIG d   1       8.272  -1.132  -4.665  0.00  0.00     0.064 H 
BRANCH  38  44
ATOM     44  O   LIG d   1       4.597  -1.688  -2.105  0.00  0.00    -0.495 OA
BRANCH  44  45
ATOM     45  C   LIG d   1       3.272  -1.686  -2.637  0.00  0.00     0.079 C 
ATOM     46  H   LIG d   1       3.293  -1.318  -3.663  0.00  0.00     0.066 H 
ATOM     47  H   LIG d   1       2.872  -2.700  -2.622  0.00  0.00     0.066 H 
ATOM     48  H   LIG d   1       2.638  -1.037  -2.031  0.00  0.00     0.066 H 
ENDBRANCH  44  45
ENDBRANCH  38  44
ENDBRANCH  31  34
ENDBRANCH  29  31
ENDBRANCH   1  29
BRANCH  17  49
ATOM     49  C   LIG d   1      11.075   7.455  -0.726  0.00  0.00     0.037 A 
ATOM     50  C   LIG d   1      11.307   8.322   0.344  0.00  0.00    -0.047 A 
ATOM     51  C   LIG d   1      11.314   7.836   1.634  0.00  0.00    -0.026 A 
ATOM     52  H   LIG d   1      11.481   9.373   0.161  0.00  0.00     0.063 H 
ATOM     53  C   LIG d   1      11.092   6.488   1.870  0.00  0.00     0.123 A 
ATOM     54  H   LIG d   1      11.494   8.506   2.461  0.00  0.00     0.065 H 
ATOM     55  C   LIG d   1      10.861   5.623   0.812  0.00  0.00    -0.026 A 
ATOM     56  F   LIG d   1      11.100   6.017   3.136  0.00  0.00    -0.205 F 
ATOM     57  C   LIG d   1      10.845   6.099  -0.481  0.00  0.00    -0.047 A 
ATOM     58  H   LIG d   1      10.690   4.573   1.001  0.00  0.00     0.065 H 
ATOM     59  H   LIG d   1      10.661   5.425  -1.304  0.00  0.00     0.063 H 
ENDBRANCH  17  49
TORSDOF 6
ENDMDL
MODEL 8
REMARK VINA RESULT:      -6.6      3.328      4.898
REMARK  6 active torsions:
REMARK  status: ('A' for Active; 'I' for Inactive)
REMARK    1  A    between atoms: C_1  and  O_2 
REMARK    2  A    between atoms: O_2  and  C_3 
REMARK    3  A    between atoms: C_6  and  S_9 
REMARK    4  A    between atoms: S_9  and  N_12 
REMARK    5  A    between atoms: N_12  and  C_13 
REMARK       I    between atoms: N_27  and  C_29 
REMARK    6  A    between atoms: C_29  and  C_31 
ROOT
ATOM      1  C   LIG d   1       9.521   0.675  -6.507  0.00  0.00     0.112 C 
ATOM      2  C   LIG d   1      10.335  -0.415  -6.648  0.00  0.00    -0.032 C 
ATOM      3  C   LIG d   1       9.757  -1.663  -6.905  0.00  0.00    -0.040 C 
ATOM      4  C   LIG d   1       8.409  -1.789  -7.022  0.00  0.00     0.027 C 
ATOM      5  N   LIG d   1       7.608  -0.697  -6.970  0.00  0.00    -0.310 N 
ATOM      6  C   LIG d   1       8.128   0.509  -6.635  0.00  0.00     0.274 C 
ATOM      7  O   LIG d   1       7.385   1.459  -6.448  0.00  0.00    -0.266 OA
ATOM      8  C   LIG d   1       6.187  -0.736  -7.317  0.00  0.00     0.031 C 
ATOM      9  C   LIG d   1       5.601  -2.132  -7.201  0.00  0.00    -0.006 C 
ATOM     10  H   LIG d   1       4.642  -2.142  -7.717  0.00  0.00     0.033 H 
ATOM     11  C   LIG d   1       6.515  -3.139  -7.902  0.00  0.00    -0.037 C 
ATOM     12  C   LIG d   1       7.850  -3.187  -7.154  0.00  0.00     0.016 C 
ATOM     13  H   LIG d   1       8.560  -3.828  -7.674  0.00  0.00     0.038 H 
ATOM     14  C   LIG d   1       7.591  -3.725  -5.736  0.00  0.00     0.023 C 
ATOM     15  N   LIG d   1       6.643  -2.807  -5.084  0.00  0.00    -0.297 N 
ATOM     16  C   LIG d   1       5.364  -2.530  -5.751  0.00  0.00     0.019 C 
ATOM     17  C   LIG d   1       6.941  -2.234  -3.902  0.00  0.00     0.247 C 
ATOM     18  O   LIG d   1       7.963  -2.542  -3.319  0.00  0.00    -0.270 OA
ATOM     19  H   LIG d   1      11.408  -0.313  -6.568  0.00  0.00     0.064 H 
ATOM     20  H   LIG d   1      10.387  -2.534  -7.010  0.00  0.00     0.064 H 
ATOM     21  H   LIG d   1       5.641  -0.068  -6.649  0.00  0.00     0.050 H 
ATOM     22  H   LIG d   1       6.063  -0.385  -8.342  0.00  0.00     0.050 H 
ATOM     23  H   LIG d   1       6.683  -2.825  -8.932  0.00  0.00     0.028 H 
ATOM     24  H   LIG d   1       6.051  -4.125  -7.888  0.00  0.00     0.028 H 
ATOM     25  H   LIG d   1       7.160  -4.724  -5.792  0.00  0.00     0.047 H 
ATOM     26  H   LIG d   1       8.524  -3.753  -5.175  0.00  0.00     0.047 H 
ATOM     27  H   LIG d   1       4.739  -3.423  -5.718  0.00  0.00     0.047 H 
ATOM     28  H   LIG d   1       4.856  -1.717  -5.231  0.00  0.00     0.047 H 
ENDROOT
BRANCH   1  29
ATOM     29  N   LIG d   1      10.064   1.937  -6.233  0.00  0.00    -0.211 N 
ATOM     30  H   LIG d   1      10.331   2.518  -6.962  0.00  0.00     0.174 HD
BRANCH  29  31
ATOM     31  S   LIG d   1      10.251   2.436  -4.665  0.00  0.00     0.072 S 
ATOM     32  O   LIG d   1      10.073   3.845  -4.662  0.00  0.00    -0.150 OA
ATOM     33  O   LIG d   1       9.460   1.567  -3.866  0.00  0.00    -0.150 OA
BRANCH  31  34
ATOM     34  C   LIG d   1      11.929   2.139  -4.220  0.00  0.00     0.109 A 
ATOM     35  C   LIG d   1      12.835   3.184  -4.209  0.00  0.00    -0.032 A 
ATOM     36  C   LIG d   1      14.152   2.954  -3.861  0.00  0.00    -0.018 A 
ATOM     37  H   LIG d   1      12.513   4.180  -4.472  0.00  0.00     0.064 H 
ATOM     38  C   LIG d   1      14.565   1.674  -3.522  0.00  0.00     0.120 A 
ATOM     39  H   LIG d   1      14.859   3.771  -3.853  0.00  0.00     0.066 H 
ATOM     40  C   LIG d   1      13.654   0.628  -3.534  0.00  0.00    -0.018 A 
ATOM     41  C   LIG d   1      12.338   0.864  -3.877  0.00  0.00    -0.032 A 
ATOM     42  H   LIG d   1      13.975  -0.370  -3.271  0.00  0.00     0.066 H 
ATOM     43  H   LIG d   1      11.628   0.050  -3.883  0.00  0.00     0.064 H 
BRANCH  38  44
ATOM     44  O   LIG d   1      15.861   1.446  -3.178  0.00  0.00    -0.495 OA
BRANCH  44  45
ATOM     45  C   LIG d   1      16.104   0.424  -2.210  0.00  0.00     0.079 C 
ATOM     46  H   LIG d   1      17.133   0.496  -1.857  0.00  0.00     0.066 H 
ATOM     47  H   LIG d   1      15.421   0.549  -1.369  0.00  0.00     0.066 H 
ATOM     48  H   LIG d   1      15.944  -0.554  -2.665  0.00  0.00     0.066 H 
ENDBRANCH  44  45
ENDBRANCH  38  44
ENDBRANCH  31  34
ENDBRANCH  29  31
ENDBRANCH   1  29
BRANCH  17  49
ATOM     49  C   LIG d   1       6.029  -1.232  -3.315  0.00  0.00     0.037 A 
ATOM     50  C   LIG d   1       4.895  -1.644  -2.610  0.00  0.00    -0.047 A 
ATOM     51  C   LIG d   1       4.046  -0.706  -2.065  0.00  0.00    -0.026 A 
ATOM     52  H   LIG d   1       4.684  -2.698  -2.494  0.00  0.00     0.063 H 
ATOM     53  C   LIG d   1       4.316   0.646  -2.215  0.00  0.00     0.123 A 
ATOM     54  H   LIG d   1       3.170  -1.024  -1.520  0.00  0.00     0.065 H 
ATOM     55  C   LIG d   1       5.440   1.061  -2.912  0.00  0.00    -0.026 A 
ATOM     56  F   LIG d   1       3.481   1.562  -1.678  0.00  0.00    -0.205 F 
ATOM     57  C   LIG d   1       6.298   0.130  -3.457  0.00  0.00    -0.047 A 
ATOM     58  H   LIG d   1       5.644   2.115  -3.028  0.00  0.00     0.065 H 
ATOM     59  H   LIG d   1       7.175   0.455  -3.996  0.00  0.00     0.063 H 
ENDBRANCH  17  49
TORSDOF 6
ENDMDL
MODEL 9
REMARK VINA RESULT:      -6.4      3.763      6.713
REMARK  6 active torsions:
REMARK  status: ('A' for Active; 'I' for Inactive)
REMARK    1  A    between atoms: C_1  and  O_2 
REMARK    2  A    between atoms: O_2  and  C_3 
REMARK    3  A    between atoms: C_6  and  S_9 
REMARK    4  A    between atoms: S_9  and  N_12 
REMARK    5  A    between atoms: N_12  and  C_13 
REMARK       I    between atoms: N_27  and  C_29 
REMARK    6  A    between atoms: C_29  and  C_31 
ROOT
ATOM      1  C   LIG d   1       8.471  -0.161  -5.140  0.00  0.00     0.112 C 
ATOM      2  C   LIG d   1       9.288  -1.246  -5.304  0.00  0.00    -0.032 C 
ATOM      3  C   LIG d   1      10.109  -1.311  -6.435  0.00  0.00    -0.040 C 
ATOM      4  C   LIG d   1      10.103  -0.307  -7.350  0.00  0.00     0.027 C 
ATOM      5  N   LIG d   1       9.361   0.808  -7.146  0.00  0.00    -0.310 N 
ATOM      6  C   LIG d   1       8.491   0.862  -6.109  0.00  0.00     0.274 C 
ATOM      7  O   LIG d   1       7.722   1.804  -6.010  0.00  0.00    -0.266 OA
ATOM      8  C   LIG d   1       9.489   2.011  -7.970  0.00  0.00     0.031 C 
ATOM      9  C   LIG d   1      10.081   1.714  -9.337  0.00  0.00    -0.006 C 
ATOM     10  H   LIG d   1      10.392   2.658  -9.783  0.00  0.00     0.033 H 
ATOM     11  C   LIG d   1      11.328   0.842  -9.184  0.00  0.00    -0.037 C 
ATOM     12  C   LIG d   1      10.905  -0.515  -8.615  0.00  0.00     0.016 C 
ATOM     13  H   LIG d   1      11.777  -1.135  -8.409  0.00  0.00     0.038 H 
ATOM     14  C   LIG d   1       9.994  -1.207  -9.642  0.00  0.00     0.023 C 
ATOM     15  N   LIG d   1       8.831  -0.331  -9.859  0.00  0.00    -0.297 N 
ATOM     16  C   LIG d   1       9.069   1.060 -10.266  0.00  0.00     0.019 C 
ATOM     17  C   LIG d   1       7.578  -0.794  -9.690  0.00  0.00     0.247 C 
ATOM     18  O   LIG d   1       7.393  -1.970  -9.442  0.00  0.00    -0.270 OA
ATOM     19  H   LIG d   1       9.302  -2.038  -4.569  0.00  0.00     0.064 H 
ATOM     20  H   LIG d   1      10.752  -2.166  -6.582  0.00  0.00     0.064 H 
ATOM     21  H   LIG d   1       8.502   2.455  -8.103  0.00  0.00     0.050 H 
ATOM     22  H   LIG d   1      10.129   2.727  -7.455  0.00  0.00     0.050 H 
ATOM     23  H   LIG d   1      12.030   1.323  -8.503  0.00  0.00     0.028 H 
ATOM     24  H   LIG d   1      11.797   0.701 -10.158  0.00  0.00     0.028 H 
ATOM     25  H   LIG d   1      10.532  -1.349 -10.579  0.00  0.00     0.047 H 
ATOM     26  H   LIG d   1       9.663  -2.170  -9.253  0.00  0.00     0.047 H 
ATOM     27  H   LIG d   1       9.451   1.077 -11.287  0.00  0.00     0.047 H 
ATOM     28  H   LIG d   1       8.130   1.612 -10.224  0.00  0.00     0.047 H 
ENDROOT
BRANCH   1  29
ATOM     29  N   LIG d   1       7.624  -0.071  -4.028  0.00  0.00    -0.211 N 
ATOM     30  H   LIG d   1       7.715   0.669  -3.407  0.00  0.00     0.174 HD
BRANCH  29  31
ATOM     31  S   LIG d   1       6.466  -1.227  -3.773  0.00  0.00     0.072 S 
ATOM     32  O   LIG d   1       7.149  -2.468  -3.656  0.00  0.00    -0.150 OA
ATOM     33  O   LIG d   1       5.613  -0.728  -2.752  0.00  0.00    -0.150 OA
BRANCH  31  34
ATOM     34  C   LIG d   1       5.493  -1.324  -5.238  0.00  0.00     0.109 A 
ATOM     35  C   LIG d   1       4.525  -0.369  -5.488  0.00  0.00    -0.032 A 
ATOM     36  C   LIG d   1       3.760  -0.443  -6.635  0.00  0.00    -0.018 A 
ATOM     37  H   LIG d   1       4.367   0.436  -4.786  0.00  0.00     0.064 H 
ATOM     38  C   LIG d   1       3.964  -1.477  -7.538  0.00  0.00     0.120 A 
ATOM     39  H   LIG d   1       3.003   0.303  -6.830  0.00  0.00     0.066 H 
ATOM     40  C   LIG d   1       4.935  -2.434  -7.285  0.00  0.00    -0.018 A 
ATOM     41  C   LIG d   1       5.701  -2.352  -6.139  0.00  0.00    -0.032 A 
ATOM     42  H   LIG d   1       5.095  -3.240  -7.986  0.00  0.00     0.066 H 
ATOM     43  H   LIG d   1       6.461  -3.095  -5.943  0.00  0.00     0.064 H 
BRANCH  38  44
ATOM     44  O   LIG d   1       3.212  -1.551  -8.669  0.00  0.00    -0.495 OA
BRANCH  44  45
ATOM     45  C   LIG d   1       2.101  -0.659  -8.769  0.00  0.00     0.079 C 
ATOM     46  H   LIG d   1       1.494  -0.733  -7.867  0.00  0.00     0.066 H 
ATOM     47  H   LIG d   1       2.464   0.363  -8.881  0.00  0.00     0.066 H 
ATOM     48  H   LIG d   1       1.497  -0.927  -9.637  0.00  0.00     0.066 H 
ENDBRANCH  44  45
ENDBRANCH  38  44
ENDBRANCH  31  34
ENDBRANCH  29  31
ENDBRANCH   1  29
BRANCH  17  49
ATOM     49  C   LIG d   1       6.428   0.125  -9.805  0.00  0.00     0.037 A 
ATOM     50  C   LIG d   1       5.526  -0.009 -10.863  0.00  0.00    -0.047 A 
ATOM     51  C   LIG d   1       4.455   0.852 -10.967  0.00  0.00    -0.026 A 
ATOM     52  H   LIG d   1       5.668  -0.786 -11.600  0.00  0.00     0.063 H 
ATOM     53  C   LIG d   1       4.272   1.851 -10.023  0.00  0.00     0.123 A 
ATOM     54  H   LIG d   1       3.758   0.749 -11.785  0.00  0.00     0.065 H 
ATOM     55  C   LIG d   1       5.164   1.989  -8.971  0.00  0.00    -0.026 A 
ATOM     56  F   LIG d   1       3.221   2.693 -10.129  0.00  0.00    -0.205 F 
ATOM     57  C   LIG d   1       6.235   1.130  -8.854  0.00  0.00    -0.047 A 
ATOM     58  H   LIG d   1       5.018   2.770  -8.239  0.00  0.00     0.065 H 
ATOM     59  H   LIG d   1       6.926   1.235  -8.032  0.00  0.00     0.063 H 
ENDBRANCH  17  49
TORSDOF 6
ENDMDL
