MODEL 1
REMARK VINA RESULT:      -7.3      0.000      0.000
REMARK  3 active torsions:
REMARK  status: ('A' for Active; 'I' for Inactive)
REMARK    1  A    between atoms: C_11  and  C_18 
REMARK    2  A    between atoms: CA_13  and  C_16 
REMARK    3  A    between atoms: C_22  and  O_24 
ROOT
ATOM      1  C   LIG d   1       5.513  -1.662  -2.590  0.00  0.00    -0.061 A 
ATOM      2  C   LIG d   1       4.177  -1.765  -2.241  0.00  0.00    -0.060 A 
ATOM      3  C   LIG d   1       3.158  -1.378  -3.094  0.00  0.00    -0.038 A 
ATOM      4  C   LIG d   1       3.534  -0.872  -4.338  0.00  0.00     0.047 A 
ATOM      5  C   LIG d   1       4.906  -0.769  -4.690  0.00  0.00     0.004 A 
ATOM      6  C   LIG d   1       5.913  -1.167  -3.807  0.00  0.00    -0.052 A 
ATOM      7  C   LIG d   1       4.930  -0.215  -6.025  0.00  0.00    -0.008 A 
ATOM      8  C   LIG d   1       3.646  -0.017  -6.400  0.00  0.00     0.074 A 
ATOM      9  N   LIG d   1       2.805  -0.409  -5.395  0.00  0.00    -0.353 N 
ATOM     10  H   LIG d   1       1.836  -0.366  -5.428  0.00  0.00     0.166 HD
ATOM     11  C   LIG d   1       3.259   0.558  -7.742  0.00  0.00     0.045 C 
ATOM     12  H   LIG d   1       2.466   1.295  -7.615  0.00  0.00     0.097 H 
ATOM     13  CA  LIG d   1       5.600   0.297  -8.339  0.00  0.00     0.023 C 
ATOM     14  HA  LIG d   1       5.303  -0.670  -8.745  0.00  0.00     0.092 H 
ATOM     15  C   LIG d   1       6.112   0.111  -6.903  0.00  0.00     0.023 C 
ATOM     16  H   LIG d   1       6.265  -1.980  -1.882  0.00  0.00     0.062 H 
ATOM     17  H   LIG d   1       3.920  -2.162  -1.269  0.00  0.00     0.062 H 
ATOM     18  H   LIG d   1       2.119  -1.463  -2.810  0.00  0.00     0.064 H 
ATOM     19  H   LIG d   1       6.958  -1.090  -4.070  0.00  0.00     0.062 H 
ATOM     20  H   LIG d   1       6.831  -0.706  -6.871  0.00  0.00     0.037 H 
ATOM     21  H   LIG d   1       6.583   1.032  -6.559  0.00  0.00     0.037 H 
ATOM     22  N   LIG d   1       4.443   1.216  -8.337  0.00  0.00     0.243 N 
ATOM     23  H1  LIG d   1       4.677   2.051  -7.789  0.00  0.00     0.203 HD
ATOM     24  H2  LIG d   1       4.228   1.489  -9.303  0.00  0.00     0.203 HD
ENDROOT
BRANCH  11  25
ATOM     25  C   LIG d   1       2.781  -0.548  -8.648  0.00  0.00     0.010 A 
ATOM     26  C   LIG d   1       1.836  -0.284  -9.620  0.00  0.00    -0.011 A 
ATOM     27  C   LIG d   1       1.401  -1.302 -10.457  0.00  0.00     0.117 A 
ATOM     28  H   LIG d   1       1.440   0.715  -9.732  0.00  0.00     0.066 H 
ATOM     29  C   LIG d   1       1.907  -2.584 -10.307  0.00  0.00    -0.020 A 
ATOM     30  C   LIG d   1       2.851  -2.843  -9.332  0.00  0.00    -0.058 A 
ATOM     31  H   LIG d   1       1.567  -3.378 -10.955  0.00  0.00     0.065 H 
ATOM     32  C   LIG d   1       3.288  -1.827  -8.503  0.00  0.00    -0.053 A 
ATOM     33  H   LIG d   1       3.250  -3.841  -9.218  0.00  0.00     0.062 H 
ATOM     34  H   LIG d   1       4.027  -2.031  -7.743  0.00  0.00     0.062 H 
BRANCH  27  35
ATOM     35  O   LIG d   1       0.476  -1.043 -11.419  0.00  0.00    -0.507 OA
ATOM     36  H   LIG d   1       0.371  -0.103 -11.620  0.00  0.00     0.292 HD
ENDBRANCH  27  35
ENDBRANCH  11  25
BRANCH  13  37
ATOM     37  C   LIG d   1       6.695   0.885  -9.191  0.00  0.00     0.090 C 
ATOM     38  O   LIG d   1       7.482   0.158  -9.750  0.00  0.00    -0.544 OA
ATOM     39  OXT LIG d   1       6.796   2.216  -9.330  0.00  0.00    -0.544 OA
ENDBRANCH  13  37
TORSDOF 3
ENDMDL
MODEL 2
REMARK VINA RESULT:      -7.0      2.791      3.735
REMARK  3 active torsions:
REMARK  status: ('A' for Active; 'I' for Inactive)
REMARK    1  A    between atoms: C_11  and  C_18 
REMARK    2  A    between atoms: CA_13  and  C_16 
REMARK    3  A    between atoms: C_22  and  O_24 
ROOT
ATOM      1  C   LIG d   1       4.293  -0.683  -1.562  0.00  0.00    -0.061 A 
ATOM      2  C   LIG d   1       4.798   0.596  -1.727  0.00  0.00    -0.060 A 
ATOM      3  C   LIG d   1       5.292   1.044  -2.941  0.00  0.00    -0.038 A 
ATOM      4  C   LIG d   1       5.261   0.144  -4.005  0.00  0.00     0.047 A 
ATOM      5  C   LIG d   1       4.741  -1.165  -3.830  0.00  0.00     0.004 A 
ATOM      6  C   LIG d   1       4.250  -1.589  -2.592  0.00  0.00    -0.052 A 
ATOM      7  C   LIG d   1       4.861  -1.814  -5.116  0.00  0.00    -0.008 A 
ATOM      8  C   LIG d   1       5.417  -0.921  -5.965  0.00  0.00     0.074 A 
ATOM      9  N   LIG d   1       5.658   0.254  -5.307  0.00  0.00    -0.353 N 
ATOM     10  H   LIG d   1       6.051   1.047  -5.705  0.00  0.00     0.166 HD
ATOM     11  C   LIG d   1       5.706  -1.232  -7.415  0.00  0.00     0.045 C 
ATOM     12  H   LIG d   1       6.692  -0.852  -7.685  0.00  0.00     0.097 H 
ATOM     13  CA  LIG d   1       4.434  -3.270  -7.055  0.00  0.00     0.023 C 
ATOM     14  HA  LIG d   1       3.579  -2.702  -7.421  0.00  0.00     0.092 H 
ATOM     15  C   LIG d   1       4.467  -3.212  -5.521  0.00  0.00     0.023 C 
ATOM     16  H   LIG d   1       3.921  -0.976  -0.591  0.00  0.00     0.062 H 
ATOM     17  H   LIG d   1       4.807   1.268  -0.882  0.00  0.00     0.062 H 
ATOM     18  H   LIG d   1       5.684   2.043  -3.057  0.00  0.00     0.064 H 
ATOM     19  H   LIG d   1       3.854  -2.585  -2.452  0.00  0.00     0.062 H 
ATOM     20  H   LIG d   1       3.481  -3.448  -5.122  0.00  0.00     0.037 H 
ATOM     21  H   LIG d   1       5.199  -3.925  -5.142  0.00  0.00     0.037 H 
ATOM     22  N   LIG d   1       5.683  -2.700  -7.599  0.00  0.00     0.243 N 
ATOM     23  H1  LIG d   1       6.485  -3.115  -7.111  0.00  0.00     0.203 HD
ATOM     24  H2  LIG d   1       5.743  -2.915  -8.602  0.00  0.00     0.203 HD
ENDROOT
BRANCH  11  25
ATOM     25  C   LIG d   1       4.660  -0.591  -8.289  0.00  0.00     0.010 A 
ATOM     26  C   LIG d   1       4.965  -0.250  -9.593  0.00  0.00    -0.011 A 
ATOM     27  C   LIG d   1       3.998   0.335 -10.399  0.00  0.00     0.117 A 
ATOM     28  H   LIG d   1       5.952  -0.443  -9.985  0.00  0.00     0.066 H 
ATOM     29  C   LIG d   1       2.734   0.588  -9.890  0.00  0.00    -0.020 A 
ATOM     30  C   LIG d   1       2.435   0.246  -8.585  0.00  0.00    -0.058 A 
ATOM     31  H   LIG d   1       1.982   1.047 -10.514  0.00  0.00     0.065 H 
ATOM     32  C   LIG d   1       3.396  -0.342  -7.785  0.00  0.00    -0.053 A 
ATOM     33  H   LIG d   1       1.447   0.439  -8.189  0.00  0.00     0.062 H 
ATOM     34  H   LIG d   1       3.160  -0.609  -6.766  0.00  0.00     0.062 H 
BRANCH  27  35
ATOM     35  O   LIG d   1       4.293   0.665 -11.684  0.00  0.00    -0.507 OA
ATOM     36  H   LIG d   1       5.045   0.179 -12.052  0.00  0.00     0.292 HD
ENDBRANCH  27  35
ENDBRANCH  11  25
BRANCH  13  37
ATOM     37  C   LIG d   1       4.312  -4.705  -7.501  0.00  0.00     0.090 C 
ATOM     38  O   LIG d   1       3.543  -5.448  -6.939  0.00  0.00    -0.544 OA
ATOM     39  OXT LIG d   1       5.057  -5.156  -8.522  0.00  0.00    -0.544 OA
ENDBRANCH  13  37
TORSDOF 3
ENDMDL
MODEL 3
REMARK VINA RESULT:      -7.0      2.989      5.892
REMARK  3 active torsions:
REMARK  status: ('A' for Active; 'I' for Inactive)
REMARK    1  A    between atoms: C_11  and  C_18 
REMARK    2  A    between atoms: CA_13  and  C_16 
REMARK    3  A    between atoms: C_22  and  O_24 
ROOT
ATOM      1  C   LIG d   1       4.342   1.386 -10.363  0.00  0.00    -0.061 A 
ATOM      2  C   LIG d   1       2.979   1.256 -10.155  0.00  0.00    -0.060 A 
ATOM      3  C   LIG d   1       2.460   0.502  -9.116  0.00  0.00    -0.038 A 
ATOM      4  C   LIG d   1       3.375  -0.130  -8.276  0.00  0.00     0.047 A 
ATOM      5  C   LIG d   1       4.771   0.008  -8.495  0.00  0.00     0.004 A 
ATOM      6  C   LIG d   1       5.266   0.774  -9.553  0.00  0.00    -0.052 A 
ATOM      7  C   LIG d   1       5.412  -0.766  -7.455  0.00  0.00    -0.008 A 
ATOM      8  C   LIG d   1       4.432  -1.308  -6.697  0.00  0.00     0.074 A 
ATOM      9  N   LIG d   1       3.210  -0.930  -7.182  0.00  0.00    -0.353 N 
ATOM     10  H   LIG d   1       2.355  -1.191  -6.805  0.00  0.00     0.166 HD
ATOM     11  C   LIG d   1       4.708  -2.193  -5.504  0.00  0.00     0.045 C 
ATOM     12  H   LIG d   1       4.033  -3.050  -5.515  0.00  0.00     0.097 H 
ATOM     13  CA  LIG d   1       7.032  -1.539  -5.770  0.00  0.00     0.023 C 
ATOM     14  HA  LIG d   1       6.808  -0.754  -5.048  0.00  0.00     0.092 H 
ATOM     15  C   LIG d   1       6.881  -0.982  -7.192  0.00  0.00     0.023 C 
ATOM     16  H   LIG d   1       4.689   1.987 -11.191  0.00  0.00     0.062 H 
ATOM     17  H   LIG d   1       2.297   1.760 -10.824  0.00  0.00     0.062 H 
ATOM     18  H   LIG d   1       1.394   0.408  -8.964  0.00  0.00     0.064 H 
ATOM     19  H   LIG d   1       6.328   0.882  -9.724  0.00  0.00     0.062 H 
ATOM     20  H   LIG d   1       7.413  -0.035  -7.276  0.00  0.00     0.037 H 
ATOM     21  H   LIG d   1       7.283  -1.695  -7.911  0.00  0.00     0.037 H 
ATOM     22  N   LIG d   1       6.105  -2.673  -5.581  0.00  0.00     0.243 N 
ATOM     23  H1  LIG d   1       6.197  -3.320  -6.372  0.00  0.00     0.203 HD
ATOM     24  H2  LIG d   1       6.342  -3.161  -4.709  0.00  0.00     0.203 HD
ENDROOT
BRANCH  11  25
ATOM     25  C   LIG d   1       4.507  -1.407  -4.234  0.00  0.00     0.010 A 
ATOM     26  C   LIG d   1       4.247  -0.051  -4.296  0.00  0.00    -0.011 A 
ATOM     27  C   LIG d   1       4.055   0.671  -3.126  0.00  0.00     0.117 A 
ATOM     28  H   LIG d   1       4.187   0.445  -5.253  0.00  0.00     0.066 H 
ATOM     29  C   LIG d   1       4.138   0.032  -1.898  0.00  0.00    -0.020 A 
ATOM     30  C   LIG d   1       4.400  -1.324  -1.842  0.00  0.00    -0.058 A 
ATOM     31  H   LIG d   1       3.994   0.593  -0.986  0.00  0.00     0.065 H 
ATOM     32  C   LIG d   1       4.584  -2.043  -3.008  0.00  0.00    -0.053 A 
ATOM     33  H   LIG d   1       4.460  -1.823  -0.885  0.00  0.00     0.062 H 
ATOM     34  H   LIG d   1       4.787  -3.102  -2.962  0.00  0.00     0.062 H 
BRANCH  27  35
ATOM     35  O   LIG d   1       3.793   2.003  -3.184  0.00  0.00    -0.507 OA
ATOM     36  H   LIG d   1       4.096   2.428  -3.998  0.00  0.00     0.292 HD
ENDBRANCH  27  35
ENDBRANCH  11  25
BRANCH  13  37
ATOM     37  C   LIG d   1       8.446  -2.019  -5.566  0.00  0.00     0.090 C 
ATOM     38  O   LIG d   1       9.342  -1.219  -5.430  0.00  0.00    -0.544 OA
ATOM     39  OXT LIG d   1       8.710  -3.335  -5.535  0.00  0.00    -0.544 OA
ENDBRANCH  13  37
TORSDOF 3
ENDMDL
MODEL 4
REMARK VINA RESULT:      -7.0      4.369      6.555
REMARK  3 active torsions:
REMARK  status: ('A' for Active; 'I' for Inactive)
REMARK    1  A    between atoms: C_11  and  C_18 
REMARK    2  A    between atoms: CA_13  and  C_16 
REMARK    3  A    between atoms: C_22  and  O_24 
ROOT
ATOM      1  C   LIG d   1      10.078  -6.353  -3.269  0.00  0.00    -0.061 A 
ATOM      2  C   LIG d   1      10.847  -5.306  -2.788  0.00  0.00    -0.060 A 
ATOM      3  C   LIG d   1      10.488  -3.982  -2.970  0.00  0.00    -0.038 A 
ATOM      4  C   LIG d   1       9.305  -3.738  -3.667  0.00  0.00     0.047 A 
ATOM      5  C   LIG d   1       8.521  -4.815  -4.156  0.00  0.00     0.004 A 
ATOM      6  C   LIG d   1       8.910  -6.143  -3.959  0.00  0.00    -0.052 A 
ATOM      7  C   LIG d   1       7.386  -4.210  -4.816  0.00  0.00    -0.008 A 
ATOM      8  C   LIG d   1       7.525  -2.870  -4.703  0.00  0.00     0.074 A 
ATOM      9  N   LIG d   1       8.672  -2.580  -4.015  0.00  0.00    -0.353 N 
ATOM     10  H   LIG d   1       8.986  -1.687  -3.806  0.00  0.00     0.166 HD
ATOM     11  C   LIG d   1       6.530  -1.888  -5.275  0.00  0.00     0.045 C 
ATOM     12  H   LIG d   1       7.058  -1.068  -5.763  0.00  0.00     0.097 H 
ATOM     13  CA  LIG d   1       5.117  -3.820  -5.691  0.00  0.00     0.023 C 
ATOM     14  HA  LIG d   1       4.672  -3.600  -4.721  0.00  0.00     0.092 H 
ATOM     15  C   LIG d   1       6.225  -4.869  -5.517  0.00  0.00     0.023 C 
ATOM     16  H   LIG d   1      10.409  -7.367  -3.097  0.00  0.00     0.062 H 
ATOM     17  H   LIG d   1      11.758  -5.530  -2.253  0.00  0.00     0.062 H 
ATOM     18  H   LIG d   1      11.097  -3.174  -2.591  0.00  0.00     0.064 H 
ATOM     19  H   LIG d   1       8.317  -6.967  -4.330  0.00  0.00     0.062 H 
ATOM     20  H   LIG d   1       5.855  -5.700  -4.918  0.00  0.00     0.037 H 
ATOM     21  H   LIG d   1       6.543  -5.232  -6.494  0.00  0.00     0.037 H 
ATOM     22  N   LIG d   1       5.689  -2.588  -6.270  0.00  0.00     0.243 N 
ATOM     23  H1  LIG d   1       6.263  -2.832  -7.085  0.00  0.00     0.203 HD
ATOM     24  H2  LIG d   1       4.925  -1.967  -6.563  0.00  0.00     0.203 HD
ENDROOT
BRANCH  11  25
ATOM     25  C   LIG d   1       5.664  -1.343  -4.168  0.00  0.00     0.010 A 
ATOM     26  C   LIG d   1       5.281  -0.015  -4.181  0.00  0.00    -0.011 A 
ATOM     27  C   LIG d   1       4.478   0.484  -3.164  0.00  0.00     0.117 A 
ATOM     28  H   LIG d   1       5.602   0.632  -4.984  0.00  0.00     0.066 H 
ATOM     29  C   LIG d   1       4.074  -0.348  -2.132  0.00  0.00    -0.020 A 
ATOM     30  C   LIG d   1       4.461  -1.675  -2.123  0.00  0.00    -0.058 A 
ATOM     31  H   LIG d   1       3.453   0.039  -1.338  0.00  0.00     0.065 H 
ATOM     32  C   LIG d   1       5.254  -2.172  -3.139  0.00  0.00    -0.053 A 
ATOM     33  H   LIG d   1       4.141  -2.325  -1.320  0.00  0.00     0.062 H 
ATOM     34  H   LIG d   1       5.555  -3.209  -3.130  0.00  0.00     0.062 H 
BRANCH  27  35
ATOM     35  O   LIG d   1       4.095   1.787  -3.179  0.00  0.00    -0.507 OA
ATOM     36  H   LIG d   1       3.978   2.153  -4.067  0.00  0.00     0.292 HD
ENDBRANCH  27  35
ENDBRANCH  11  25
BRANCH  13  37
ATOM     37  C   LIG d   1       4.058  -4.356  -6.619  0.00  0.00     0.090 C 
ATOM     38  O   LIG d   1       3.380  -5.298  -6.282  0.00  0.00    -0.544 OA
ATOM     39  OXT LIG d   1       3.868  -3.787  -7.820  0.00  0.00    -0.544 OA
ENDBRANCH  13  37
TORSDOF 3
ENDMDL
MODEL 5
REMARK VINA RESULT:      -6.6      3.853      6.001
REMARK  3 active torsions:
REMARK  status: ('A' for Active; 'I' for Inactive)
REMARK    1  A    between atoms: C_11  and  C_18 
REMARK    2  A    between atoms: CA_13  and  C_16 
REMARK    3  A    between atoms: C_22  and  O_24 
ROOT
ATOM      1  C   LIG d   1       8.807  -6.172  -5.515  0.00  0.00    -0.061 A 
ATOM      2  C   LIG d   1       9.264  -6.192  -4.207  0.00  0.00    -0.060 A 
ATOM      3  C   LIG d   1       9.206  -5.078  -3.388  0.00  0.00    -0.038 A 
ATOM      4  C   LIG d   1       8.663  -3.918  -3.938  0.00  0.00     0.047 A 
ATOM      5  C   LIG d   1       8.196  -3.904  -5.279  0.00  0.00     0.004 A 
ATOM      6  C   LIG d   1       8.269  -5.045  -6.083  0.00  0.00    -0.052 A 
ATOM      7  C   LIG d   1       7.707  -2.564  -5.513  0.00  0.00    -0.008 A 
ATOM      8  C   LIG d   1       7.889  -1.865  -4.370  0.00  0.00     0.074 A 
ATOM      9  N   LIG d   1       8.460  -2.670  -3.423  0.00  0.00    -0.353 N 
ATOM     10  H   LIG d   1       8.686  -2.396  -2.520  0.00  0.00     0.166 HD
ATOM     11  C   LIG d   1       7.501  -0.413  -4.222  0.00  0.00     0.045 C 
ATOM     12  H   LIG d   1       8.292   0.130  -3.703  0.00  0.00     0.097 H 
ATOM     13  CA  LIG d   1       6.396  -0.664  -6.371  0.00  0.00     0.023 C 
ATOM     14  HA  LIG d   1       5.501  -0.890  -5.791  0.00  0.00     0.092 H 
ATOM     15  C   LIG d   1       7.096  -1.974  -6.760  0.00  0.00     0.023 C 
ATOM     16  H   LIG d   1       8.879  -7.073  -6.107  0.00  0.00     0.062 H 
ATOM     17  H   LIG d   1       9.679  -7.108  -3.812  0.00  0.00     0.062 H 
ATOM     18  H   LIG d   1       9.565  -5.106  -2.370  0.00  0.00     0.064 H 
ATOM     19  H   LIG d   1       7.916  -5.040  -7.104  0.00  0.00     0.062 H 
ATOM     20  H   LIG d   1       6.370  -2.670  -7.179  0.00  0.00     0.037 H 
ATOM     21  H   LIG d   1       7.877  -1.770  -7.492  0.00  0.00     0.037 H 
ATOM     22  N   LIG d   1       7.315   0.169  -5.570  0.00  0.00     0.243 N 
ATOM     23  H1  LIG d   1       8.223   0.222  -6.044  0.00  0.00     0.203 HD
ATOM     24  H2  LIG d   1       6.920   1.113  -5.478  0.00  0.00     0.203 HD
ENDROOT
BRANCH  11  25
ATOM     25  C   LIG d   1       6.218  -0.309  -3.439  0.00  0.00     0.010 A 
ATOM     26  C   LIG d   1       5.459  -1.440  -3.206  0.00  0.00    -0.011 A 
ATOM     27  C   LIG d   1       4.280  -1.345  -2.479  0.00  0.00     0.117 A 
ATOM     28  H   LIG d   1       5.785  -2.398  -3.584  0.00  0.00     0.066 H 
ATOM     29  C   LIG d   1       3.862  -0.114  -2.000  0.00  0.00    -0.020 A 
ATOM     30  C   LIG d   1       4.624   1.015  -2.237  0.00  0.00    -0.058 A 
ATOM     31  H   LIG d   1       2.942  -0.037  -1.438  0.00  0.00     0.065 H 
ATOM     32  C   LIG d   1       5.800   0.917  -2.956  0.00  0.00    -0.053 A 
ATOM     33  H   LIG d   1       4.300   1.974  -1.859  0.00  0.00     0.062 H 
ATOM     34  H   LIG d   1       6.394   1.800  -3.139  0.00  0.00     0.062 H 
BRANCH  27  35
ATOM     35  O   LIG d   1       3.536  -2.457  -2.242  0.00  0.00    -0.507 OA
ATOM     36  H   LIG d   1       2.623  -2.270  -1.980  0.00  0.00     0.292 HD
ENDBRANCH  27  35
ENDBRANCH  11  25
BRANCH  13  37
ATOM     37  C   LIG d   1       6.009   0.088  -7.618  0.00  0.00     0.090 C 
ATOM     38  O   LIG d   1       5.412  -0.478  -8.504  0.00  0.00    -0.544 OA
ATOM     39  OXT LIG d   1       6.327   1.386  -7.746  0.00  0.00    -0.544 OA
ENDBRANCH  13  37
TORSDOF 3
ENDMDL
MODEL 6
REMARK VINA RESULT:      -6.6      1.811      2.226
REMARK  3 active torsions:
REMARK  status: ('A' for Active; 'I' for Inactive)
REMARK    1  A    between atoms: C_11  and  C_18 
REMARK    2  A    between atoms: CA_13  and  C_16 
REMARK    3  A    between atoms: C_22  and  O_24 
ROOT
ATOM      1  C   LIG d   1       3.739  -1.960  -2.778  0.00  0.00    -0.061 A 
ATOM      2  C   LIG d   1       2.823  -0.926  -2.687  0.00  0.00    -0.060 A 
ATOM      3  C   LIG d   1       2.606  -0.038  -3.727  0.00  0.00    -0.038 A 
ATOM      4  C   LIG d   1       3.358  -0.227  -4.885  0.00  0.00     0.047 A 
ATOM      5  C   LIG d   1       4.295  -1.290  -4.972  0.00  0.00     0.004 A 
ATOM      6  C   LIG d   1       4.493  -2.170  -3.905  0.00  0.00    -0.052 A 
ATOM      7  C   LIG d   1       4.884  -1.191  -6.289  0.00  0.00    -0.008 A 
ATOM      8  C   LIG d   1       4.310  -0.132  -6.906  0.00  0.00     0.074 A 
ATOM      9  N   LIG d   1       3.395   0.448  -6.071  0.00  0.00    -0.353 N 
ATOM     10  H   LIG d   1       2.853   1.223  -6.290  0.00  0.00     0.166 HD
ATOM     11  C   LIG d   1       4.670   0.297  -8.308  0.00  0.00     0.045 C 
ATOM     12  H   LIG d   1       4.769   1.383  -8.349  0.00  0.00     0.097 H 
ATOM     13  CA  LIG d   1       5.923  -1.780  -8.442  0.00  0.00     0.023 C 
ATOM     14  HA  LIG d   1       5.017  -2.201  -8.879  0.00  0.00     0.092 H 
ATOM     15  C   LIG d   1       5.938  -2.056  -6.932  0.00  0.00     0.023 C 
ATOM     16  H   LIG d   1       3.865  -2.622  -1.933  0.00  0.00     0.062 H 
ATOM     17  H   LIG d   1       2.257  -0.807  -1.775  0.00  0.00     0.062 H 
ATOM     18  H   LIG d   1       1.889   0.766  -3.643  0.00  0.00     0.064 H 
ATOM     19  H   LIG d   1       5.206  -2.980  -3.966  0.00  0.00     0.062 H 
ATOM     20  H   LIG d   1       5.715  -3.107  -6.747  0.00  0.00     0.037 H 
ATOM     21  H   LIG d   1       6.917  -1.809  -6.523  0.00  0.00     0.037 H 
ATOM     22  N   LIG d   1       5.961  -0.323  -8.679  0.00  0.00     0.243 N 
ATOM     23  H1  LIG d   1       6.710   0.092  -8.114  0.00  0.00     0.203 HD
ATOM     24  H2  LIG d   1       6.146  -0.147  -9.675  0.00  0.00     0.203 HD
ENDROOT
BRANCH  11  25
ATOM     25  C   LIG d   1       3.595  -0.149  -9.265  0.00  0.00     0.010 A 
ATOM     26  C   LIG d   1       3.881  -0.281 -10.611  0.00  0.00    -0.011 A 
ATOM     27  C   LIG d   1       2.892  -0.698 -11.491  0.00  0.00     0.117 A 
ATOM     28  H   LIG d   1       4.873  -0.064 -10.977  0.00  0.00     0.066 H 
ATOM     29  C   LIG d   1       1.617  -0.970 -11.019  0.00  0.00    -0.020 A 
ATOM     30  C   LIG d   1       1.336  -0.835  -9.672  0.00  0.00    -0.058 A 
ATOM     31  H   LIG d   1       0.844  -1.290 -11.702  0.00  0.00     0.065 H 
ATOM     32  C   LIG d   1       2.323  -0.425  -8.796  0.00  0.00    -0.053 A 
ATOM     33  H   LIG d   1       0.343  -1.052  -9.304  0.00  0.00     0.062 H 
ATOM     34  H   LIG d   1       2.103  -0.322  -7.745  0.00  0.00     0.062 H 
BRANCH  27  35
ATOM     35  O   LIG d   1       3.171  -0.835 -12.813  0.00  0.00    -0.507 OA
ATOM     36  H   LIG d   1       3.973  -0.374 -13.096  0.00  0.00     0.292 HD
ENDBRANCH  27  35
ENDBRANCH  11  25
BRANCH  13  37
ATOM     37  C   LIG d   1       7.130  -2.415  -9.082  0.00  0.00     0.090 C 
ATOM     38  O   LIG d   1       7.527  -2.016 -10.152  0.00  0.00    -0.544 OA
ATOM     39  OXT LIG d   1       7.767  -3.422  -8.463  0.00  0.00    -0.544 OA
ENDBRANCH  13  37
TORSDOF 3
ENDMDL
MODEL 7
REMARK VINA RESULT:      -6.5      3.120      6.510
REMARK  3 active torsions:
REMARK  status: ('A' for Active; 'I' for Inactive)
REMARK    1  A    between atoms: C_11  and  C_18 
REMARK    2  A    between atoms: CA_13  and  C_16 
REMARK    3  A    between atoms: C_22  and  O_24 
ROOT
ATOM      1  C   LIG d   1       3.602   0.490 -10.993  0.00  0.00    -0.061 A 
ATOM      2  C   LIG d   1       3.936   1.696 -10.401  0.00  0.00    -0.060 A 
ATOM      3  C   LIG d   1       4.288   1.790  -9.065  0.00  0.00    -0.038 A 
ATOM      4  C   LIG d   1       4.293   0.606  -8.329  0.00  0.00     0.047 A 
ATOM      5  C   LIG d   1       3.950  -0.627  -8.942  0.00  0.00     0.004 A 
ATOM      6  C   LIG d   1       3.597  -0.691 -10.293  0.00  0.00    -0.052 A 
ATOM      7  C   LIG d   1       4.059  -1.629  -7.905  0.00  0.00    -0.008 A 
ATOM      8  C   LIG d   1       4.441  -0.993  -6.774  0.00  0.00     0.074 A 
ATOM      9  N   LIG d   1       4.584   0.345  -7.021  0.00  0.00    -0.353 N 
ATOM     10  H   LIG d   1       4.853   1.007  -6.366  0.00  0.00     0.166 HD
ATOM     11  C   LIG d   1       4.660  -1.709  -5.462  0.00  0.00     0.045 C 
ATOM     12  H   LIG d   1       4.217  -1.133  -4.648  0.00  0.00     0.097 H 
ATOM     13  CA  LIG d   1       4.441  -3.764  -6.740  0.00  0.00     0.023 C 
ATOM     14  HA  LIG d   1       5.528  -3.730  -6.822  0.00  0.00     0.092 H 
ATOM     15  C   LIG d   1       3.815  -3.115  -7.982  0.00  0.00     0.023 C 
ATOM     16  H   LIG d   1       3.335   0.478 -12.040  0.00  0.00     0.062 H 
ATOM     17  H   LIG d   1       3.922   2.595 -11.000  0.00  0.00     0.062 H 
ATOM     18  H   LIG d   1       4.547   2.737  -8.614  0.00  0.00     0.064 H 
ATOM     19  H   LIG d   1       3.334  -1.627 -10.765  0.00  0.00     0.062 H 
ATOM     20  H   LIG d   1       4.277  -3.518  -8.882  0.00  0.00     0.037 H 
ATOM     21  H   LIG d   1       2.743  -3.311  -7.998  0.00  0.00     0.037 H 
ATOM     22  N   LIG d   1       4.009  -3.036  -5.530  0.00  0.00     0.243 N 
ATOM     23  H1  LIG d   1       2.991  -2.912  -5.556  0.00  0.00     0.203 HD
ATOM     24  H2  LIG d   1       4.266  -3.581  -4.698  0.00  0.00     0.203 HD
ENDROOT
BRANCH  11  25
ATOM     25  C   LIG d   1       6.137  -1.877  -5.218  0.00  0.00     0.010 A 
ATOM     26  C   LIG d   1       7.049  -1.274  -6.063  0.00  0.00    -0.011 A 
ATOM     27  C   LIG d   1       8.410  -1.424  -5.833  0.00  0.00     0.117 A 
ATOM     28  H   LIG d   1       6.704  -0.683  -6.898  0.00  0.00     0.066 H 
ATOM     29  C   LIG d   1       8.850  -2.188  -4.764  0.00  0.00    -0.020 A 
ATOM     30  C   LIG d   1       7.934  -2.790  -3.922  0.00  0.00    -0.058 A 
ATOM     31  H   LIG d   1       9.909  -2.310  -4.586  0.00  0.00     0.065 H 
ATOM     32  C   LIG d   1       6.579  -2.635  -4.148  0.00  0.00    -0.053 A 
ATOM     33  H   LIG d   1       8.277  -3.382  -3.086  0.00  0.00     0.062 H 
ATOM     34  H   LIG d   1       5.865  -3.105  -3.490  0.00  0.00     0.062 H 
BRANCH  27  35
ATOM     35  O   LIG d   1       9.309  -0.826  -6.659  0.00  0.00    -0.507 OA
ATOM     36  H   LIG d   1       8.940  -0.556  -7.511  0.00  0.00     0.292 HD
ENDBRANCH  27  35
ENDBRANCH  11  25
BRANCH  13  37
ATOM     37  C   LIG d   1       3.989  -5.198  -6.640  0.00  0.00     0.090 C 
ATOM     38  O   LIG d   1       3.996  -5.760  -5.570  0.00  0.00    -0.544 OA
ATOM     39  OXT LIG d   1       3.578  -5.851  -7.738  0.00  0.00    -0.544 OA
ENDBRANCH  13  37
TORSDOF 3
ENDMDL
MODEL 8
REMARK VINA RESULT:      -6.4      3.227      5.930
REMARK  3 active torsions:
REMARK  status: ('A' for Active; 'I' for Inactive)
REMARK    1  A    between atoms: C_11  and  C_18 
REMARK    2  A    between atoms: CA_13  and  C_16 
REMARK    3  A    between atoms: C_22  and  O_24 
ROOT
ATOM      1  C   LIG d   1       3.606  -6.522  -8.589  0.00  0.00    -0.061 A 
ATOM      2  C   LIG d   1       4.560  -7.154  -7.809  0.00  0.00    -0.060 A 
ATOM      3  C   LIG d   1       5.404  -6.455  -6.963  0.00  0.00    -0.038 A 
ATOM      4  C   LIG d   1       5.254  -5.069  -6.927  0.00  0.00     0.047 A 
ATOM      5  C   LIG d   1       4.273  -4.428  -7.728  0.00  0.00     0.004 A 
ATOM      6  C   LIG d   1       3.436  -5.160  -8.574  0.00  0.00    -0.052 A 
ATOM      7  C   LIG d   1       4.394  -3.015  -7.444  0.00  0.00    -0.008 A 
ATOM      8  C   LIG d   1       5.385  -2.872  -6.536  0.00  0.00     0.074 A 
ATOM      9  N   LIG d   1       5.904  -4.098  -6.221  0.00  0.00    -0.353 N 
ATOM     10  H   LIG d   1       6.624  -4.254  -5.590  0.00  0.00     0.166 HD
ATOM     11  C   LIG d   1       5.813  -1.530  -5.989  0.00  0.00     0.045 C 
ATOM     12  H   LIG d   1       6.902  -1.475  -5.957  0.00  0.00     0.097 H 
ATOM     13  CA  LIG d   1       3.848  -0.638  -7.104  0.00  0.00     0.023 C 
ATOM     14  HA  LIG d   1       3.341  -0.787  -6.151  0.00  0.00     0.092 H 
ATOM     15  C   LIG d   1       3.607  -1.857  -8.006  0.00  0.00     0.023 C 
ATOM     16  H   LIG d   1       2.976  -7.121  -9.231  0.00  0.00     0.062 H 
ATOM     17  H   LIG d   1       4.650  -8.229  -7.862  0.00  0.00     0.062 H 
ATOM     18  H   LIG d   1       6.144  -6.959  -6.360  0.00  0.00     0.064 H 
ATOM     19  H   LIG d   1       2.689  -4.677  -9.187  0.00  0.00     0.062 H 
ATOM     20  H   LIG d   1       2.546  -2.104  -8.017  0.00  0.00     0.037 H 
ATOM     21  H   LIG d   1       3.946  -1.638  -9.018  0.00  0.00     0.037 H 
ATOM     22  N   LIG d   1       5.297  -0.467  -6.879  0.00  0.00     0.243 N 
ATOM     23  H1  LIG d   1       5.787  -0.514  -7.780  0.00  0.00     0.203 HD
ATOM     24  H2  LIG d   1       5.466   0.448  -6.445  0.00  0.00     0.203 HD
ENDROOT
BRANCH  11  25
ATOM     25  C   LIG d   1       5.255  -1.349  -4.601  0.00  0.00     0.010 A 
ATOM     26  C   LIG d   1       5.489  -0.174  -3.912  0.00  0.00    -0.011 A 
ATOM     27  C   LIG d   1       4.969  -0.005  -2.636  0.00  0.00     0.117 A 
ATOM     28  H   LIG d   1       6.069   0.614  -4.368  0.00  0.00     0.066 H 
ATOM     29  C   LIG d   1       4.228  -1.022  -2.051  0.00  0.00    -0.020 A 
ATOM     30  C   LIG d   1       4.000  -2.195  -2.744  0.00  0.00    -0.058 A 
ATOM     31  H   LIG d   1       3.827  -0.894  -1.057  0.00  0.00     0.065 H 
ATOM     32  C   LIG d   1       4.512  -2.359  -4.017  0.00  0.00    -0.053 A 
ATOM     33  H   LIG d   1       3.418  -2.985  -2.290  0.00  0.00     0.062 H 
ATOM     34  H   LIG d   1       4.332  -3.276  -4.557  0.00  0.00     0.062 H 
BRANCH  27  35
ATOM     35  O   LIG d   1       5.191   1.151  -1.959  0.00  0.00    -0.507 OA
ATOM     36  H   LIG d   1       6.063   1.538  -2.116  0.00  0.00     0.292 HD
ENDBRANCH  27  35
ENDBRANCH  11  25
BRANCH  13  37
ATOM     37  C   LIG d   1       3.304   0.598  -7.774  0.00  0.00     0.090 C 
ATOM     38  O   LIG d   1       3.053   1.580  -7.116  0.00  0.00    -0.544 OA
ATOM     39  OXT LIG d   1       3.101   0.608  -9.101  0.00  0.00    -0.544 OA
ENDBRANCH  13  37
TORSDOF 3
ENDMDL
MODEL 9
REMARK VINA RESULT:      -6.3      3.323      4.627
REMARK  3 active torsions:
REMARK  status: ('A' for Active; 'I' for Inactive)
REMARK    1  A    between atoms: C_11  and  C_18 
REMARK    2  A    between atoms: CA_13  and  C_16 
REMARK    3  A    between atoms: C_22  and  O_24 
ROOT
ATOM      1  C   LIG d   1       8.390  -5.517  -4.793  0.00  0.00    -0.061 A 
ATOM      2  C   LIG d   1       7.457  -6.292  -5.461  0.00  0.00    -0.060 A 
ATOM      3  C   LIG d   1       6.192  -5.822  -5.770  0.00  0.00    -0.038 A 
ATOM      4  C   LIG d   1       5.889  -4.520  -5.376  0.00  0.00     0.047 A 
ATOM      5  C   LIG d   1       6.851  -3.730  -4.692  0.00  0.00     0.004 A 
ATOM      6  C   LIG d   1       8.120  -4.232  -4.393  0.00  0.00    -0.052 A 
ATOM      7  C   LIG d   1       6.211  -2.458  -4.442  0.00  0.00    -0.008 A 
ATOM      8  C   LIG d   1       4.962  -2.529  -4.955  0.00  0.00     0.074 A 
ATOM      9  N   LIG d   1       4.763  -3.761  -5.517  0.00  0.00    -0.353 N 
ATOM     10  H   LIG d   1       3.945  -4.051  -5.951  0.00  0.00     0.166 HD
ATOM     11  C   LIG d   1       3.977  -1.386  -4.886  0.00  0.00     0.045 C 
ATOM     12  H   LIG d   1       2.992  -1.763  -4.612  0.00  0.00     0.097 H 
ATOM     13  CA  LIG d   1       5.844  -0.048  -4.093  0.00  0.00     0.023 C 
ATOM     14  HA  LIG d   1       5.983   0.227  -5.139  0.00  0.00     0.092 H 
ATOM     15  C   LIG d   1       6.757  -1.233  -3.751  0.00  0.00     0.023 C 
ATOM     16  H   LIG d   1       9.362  -5.938  -4.579  0.00  0.00     0.062 H 
ATOM     17  H   LIG d   1       7.724  -7.298  -5.752  0.00  0.00     0.062 H 
ATOM     18  H   LIG d   1       5.472  -6.437  -6.291  0.00  0.00     0.064 H 
ATOM     19  H   LIG d   1       8.855  -3.636  -3.872  0.00  0.00     0.062 H 
ATOM     20  H   LIG d   1       7.769  -1.032  -4.102  0.00  0.00     0.037 H 
ATOM     21  H   LIG d   1       6.766  -1.392  -2.673  0.00  0.00     0.037 H 
ATOM     22  N   LIG d   1       4.435  -0.425  -3.859  0.00  0.00     0.243 N 
ATOM     23  H1  LIG d   1       4.350  -0.856  -2.932  0.00  0.00     0.203 HD
ATOM     24  H2  LIG d   1       3.849   0.417  -3.900  0.00  0.00     0.203 HD
ENDROOT
BRANCH  11  25
ATOM     25  C   LIG d   1       3.901  -0.702  -6.227  0.00  0.00     0.010 A 
ATOM     26  C   LIG d   1       4.723  -1.114  -7.259  0.00  0.00    -0.011 A 
ATOM     27  C   LIG d   1       4.648  -0.488  -8.496  0.00  0.00     0.117 A 
ATOM     28  H   LIG d   1       5.419  -1.926  -7.105  0.00  0.00     0.066 H 
ATOM     29  C   LIG d   1       3.758   0.557  -8.688  0.00  0.00    -0.020 A 
ATOM     30  C   LIG d   1       2.939   0.966  -7.653  0.00  0.00    -0.058 A 
ATOM     31  H   LIG d   1       3.701   1.048  -9.648  0.00  0.00     0.065 H 
ATOM     32  C   LIG d   1       3.010   0.337  -6.424  0.00  0.00    -0.053 A 
ATOM     33  H   LIG d   1       2.242   1.777  -7.804  0.00  0.00     0.062 H 
ATOM     34  H   LIG d   1       2.370   0.657  -5.616  0.00  0.00     0.062 H 
BRANCH  27  35
ATOM     35  O   LIG d   1       5.450  -0.896  -9.514  0.00  0.00    -0.507 OA
ATOM     36  H   LIG d   1       6.382  -0.982  -9.270  0.00  0.00     0.292 HD
ENDBRANCH  27  35
ENDBRANCH  11  25
BRANCH  13  37
ATOM     37  C   LIG d   1       6.192   1.125  -3.214  0.00  0.00     0.090 C 
ATOM     38  O   LIG d   1       7.181   1.781  -3.446  0.00  0.00    -0.544 OA
ATOM     39  OXT LIG d   1       5.405   1.443  -2.174  0.00  0.00    -0.544 OA
ENDBRANCH  13  37
TORSDOF 3
ENDMDL
MODEL 10
REMARK VINA RESULT:      -6.2      3.442      4.995
REMARK  3 active torsions:
REMARK  status: ('A' for Active; 'I' for Inactive)
REMARK    1  A    between atoms: C_11  and  C_18 
REMARK    2  A    between atoms: CA_13  and  C_16 
REMARK    3  A    between atoms: C_22  and  O_24 
ROOT
ATOM      1  C   LIG d   1       9.024   2.929  -4.252  0.00  0.00    -0.061 A 
ATOM      2  C   LIG d   1       9.546   3.025  -5.532  0.00  0.00    -0.060 A 
ATOM      3  C   LIG d   1       9.115   2.213  -6.568  0.00  0.00    -0.038 A 
ATOM      4  C   LIG d   1       8.122   1.282  -6.269  0.00  0.00     0.047 A 
ATOM      5  C   LIG d   1       7.590   1.190  -4.956  0.00  0.00     0.004 A 
ATOM      6  C   LIG d   1       8.046   2.022  -3.930  0.00  0.00    -0.052 A 
ATOM      7  C   LIG d   1       6.598   0.139  -5.005  0.00  0.00    -0.008 A 
ATOM      8  C   LIG d   1       6.574  -0.331  -6.272  0.00  0.00     0.074 A 
ATOM      9  N   LIG d   1       7.483   0.350  -7.035  0.00  0.00    -0.353 N 
ATOM     10  H   LIG d   1       7.649   0.194  -7.978  0.00  0.00     0.166 HD
ATOM     11  C   LIG d   1       5.659  -1.446  -6.719  0.00  0.00     0.045 C 
ATOM     12  H   LIG d   1       6.208  -2.145  -7.352  0.00  0.00     0.097 H 
ATOM     13  CA  LIG d   1       4.586  -1.207  -4.552  0.00  0.00     0.023 C 
ATOM     14  HA  LIG d   1       3.898  -0.533  -5.061  0.00  0.00     0.092 H 
ATOM     15  C   LIG d   1       5.714  -0.392  -3.904  0.00  0.00     0.023 C 
ATOM     16  H   LIG d   1       9.400   3.589  -3.484  0.00  0.00     0.062 H 
ATOM     17  H   LIG d   1      10.315   3.757  -5.729  0.00  0.00     0.062 H 
ATOM     18  H   LIG d   1       9.531   2.297  -7.561  0.00  0.00     0.064 H 
ATOM     19  H   LIG d   1       7.645   1.955  -2.928  0.00  0.00     0.062 H 
ATOM     20  H   LIG d   1       5.291   0.437  -3.338  0.00  0.00     0.037 H 
ATOM     21  H   LIG d   1       6.296  -1.032  -3.241  0.00  0.00     0.037 H 
ATOM     22  N   LIG d   1       5.160  -2.161  -5.524  0.00  0.00     0.243 N 
ATOM     23  H1  LIG d   1       5.937  -2.665  -5.083  0.00  0.00     0.203 HD
ATOM     24  H2  LIG d   1       4.435  -2.830  -5.809  0.00  0.00     0.203 HD
ENDROOT
BRANCH  11  25
ATOM     25  C   LIG d   1       4.499  -0.870  -7.491  0.00  0.00     0.010 A 
ATOM     26  C   LIG d   1       4.270   0.492  -7.476  0.00  0.00    -0.011 A 
ATOM     27  C   LIG d   1       3.205   1.023  -8.192  0.00  0.00     0.117 A 
ATOM     28  H   LIG d   1       4.921   1.144  -6.912  0.00  0.00     0.066 H 
ATOM     29  C   LIG d   1       2.368   0.182  -8.910  0.00  0.00    -0.020 A 
ATOM     30  C   LIG d   1       2.602  -1.180  -8.920  0.00  0.00    -0.058 A 
ATOM     31  H   LIG d   1       1.537   0.592  -9.464  0.00  0.00     0.065 H 
ATOM     32  C   LIG d   1       3.666  -1.706  -8.212  0.00  0.00    -0.053 A 
ATOM     33  H   LIG d   1       1.952  -1.834  -9.484  0.00  0.00     0.062 H 
ATOM     34  H   LIG d   1       3.847  -2.770  -8.222  0.00  0.00     0.062 H 
BRANCH  27  35
ATOM     35  O   LIG d   1       2.982   2.363  -8.185  0.00  0.00    -0.507 OA
ATOM     36  H   LIG d   1       2.242   2.635  -7.623  0.00  0.00     0.292 HD
ENDBRANCH  27  35
ENDBRANCH  11  25
BRANCH  13  37
ATOM     37  C   LIG d   1       3.845  -1.975  -3.488  0.00  0.00     0.090 C 
ATOM     38  O   LIG d   1       3.037  -1.410  -2.789  0.00  0.00    -0.544 OA
ATOM     39  OXT LIG d   1       4.081  -3.285  -3.317  0.00  0.00    -0.544 OA
ENDBRANCH  13  37
TORSDOF 3
ENDMDL
