MODEL 1
REMARK VINA RESULT:      -7.7      0.000      0.000
REMARK  9 active torsions:
REMARK  status: ('A' for Active; 'I' for Inactive)
REMARK    1  A    between atoms: C_1  and  C_2 
REMARK    2  A    between atoms: N_10  and  C_12 
REMARK    3  A    between atoms: C_12  and  C_13 
REMARK    4  A    between atoms: C_15  and  O_23 
REMARK    5  A    between atoms: C_16  and  O_21 
REMARK    6  A    between atoms: C_17  and  O_19 
REMARK    7  A    between atoms: O_19  and  C_20 
REMARK    8  A    between atoms: O_21  and  C_22 
REMARK    9  A    between atoms: O_23  and  C_24 
ROOT
ATOM      1  C   LIG d   1       9.162   0.562  -5.664  0.00  0.00     0.035 A 
ATOM      2  C   LIG d   1       8.100  -0.019  -4.990  0.00  0.00     0.146 A 
ATOM      3  C   LIG d   1       7.399   0.733  -4.033  0.00  0.00     0.026 A 
ATOM      4  C   LIG d   1       7.765   2.050  -3.775  0.00  0.00    -0.043 A 
ATOM      5  C   LIG d   1       8.823   2.617  -4.454  0.00  0.00     0.009 A 
ATOM      6  C   LIG d   1       9.528   1.872  -5.392  0.00  0.00     0.133 A 
ATOM      7  O   LIG d   1      10.584   2.413  -6.056  0.00  0.00    -0.476 OA
ATOM      8  C   LIG d   1      10.710   3.837  -6.032  0.00  0.00     0.144 C 
ATOM      9  N   LIG d   1      10.575   4.297  -4.640  0.00  0.00    -0.262 N 
ATOM     10  C   LIG d   1       9.204   4.047  -4.161  0.00  0.00     0.031 C 
ATOM     11  C   LIG d   1       6.285   0.091  -3.308  0.00  0.00    -0.000 A 
ATOM     12  C   LIG d   1       5.383   0.803  -2.529  0.00  0.00    -0.053 A 
ATOM     13  C   LIG d   1       4.370   0.129  -1.877  0.00  0.00    -0.061 A 
ATOM     14  C   LIG d   1       4.244  -1.248  -1.992  0.00  0.00    -0.061 A 
ATOM     15  C   LIG d   1       5.129  -1.973  -2.763  0.00  0.00    -0.047 A 
ATOM     16  C   LIG d   1       6.155  -1.311  -3.428  0.00  0.00     0.067 A 
ATOM     17  C   LIG d   1       7.138  -2.011  -4.275  0.00  0.00     0.345 C 
ATOM     18  O   LIG d   1       7.397  -3.186  -4.099  0.00  0.00    -0.244 OA
ATOM     19  O   LIG d   1       7.738  -1.299  -5.257  0.00  0.00    -0.421 OA
ATOM     20  H   LIG d   1       7.220   2.629  -3.043  0.00  0.00     0.063 H 
ATOM     21  H   LIG d   1      11.688   4.125  -6.418  0.00  0.00     0.087 H 
ATOM     22  H   LIG d   1       9.926   4.284  -6.643  0.00  0.00     0.087 H 
ATOM     23  H   LIG d   1       8.505   4.718  -4.659  0.00  0.00     0.048 H 
ATOM     24  H   LIG d   1       9.167   4.219  -3.085  0.00  0.00     0.048 H 
ATOM     25  H   LIG d   1       5.474   1.875  -2.433  0.00  0.00     0.062 H 
ATOM     26  H   LIG d   1       3.667   0.680  -1.270  0.00  0.00     0.062 H 
ATOM     27  H   LIG d   1       3.446  -1.757  -1.473  0.00  0.00     0.062 H 
ATOM     28  H   LIG d   1       5.026  -3.044  -2.849  0.00  0.00     0.063 H 
ENDROOT
BRANCH   9  29
ATOM     29  C   LIG d   1      10.919   5.720  -4.520  0.00  0.00     0.028 C 
ATOM     30  H   LIG d   1      11.924   5.885  -4.910  0.00  0.00     0.048 H 
ATOM     31  H   LIG d   1      10.206   6.316  -5.090  0.00  0.00     0.048 H 
BRANCH  29  32
ATOM     32  C   LIG d   1      10.870   6.128  -3.070  0.00  0.00    -0.026 A 
ATOM     33  C   LIG d   1       9.788   6.840  -2.591  0.00  0.00    -0.012 A 
ATOM     34  C   LIG d   1       9.737   7.212  -1.255  0.00  0.00     0.166 A 
ATOM     35  H   LIG d   1       8.978   7.104  -3.255  0.00  0.00     0.066 H 
ATOM     36  C   LIG d   1      10.782   6.878  -0.402  0.00  0.00     0.203 A 
ATOM     37  C   LIG d   1      11.871   6.166  -0.890  0.00  0.00     0.166 A 
ATOM     38  C   LIG d   1      11.912   5.794  -2.224  0.00  0.00    -0.012 A 
ATOM     39  H   LIG d   1      12.759   5.240  -2.605  0.00  0.00     0.066 H 
BRANCH  34  40
ATOM     40  O   LIG d   1       8.669   7.909  -0.783  0.00  0.00    -0.491 OA
BRANCH  40  41
ATOM     41  C   LIG d   1       8.703   9.330  -0.933  0.00  0.00     0.079 C 
ATOM     42  H   LIG d   1       8.993   9.580  -1.954  0.00  0.00     0.066 H 
ATOM     43  H   LIG d   1       7.716   9.741  -0.725  0.00  0.00     0.066 H 
ATOM     44  H   LIG d   1       9.427   9.752  -0.236  0.00  0.00     0.066 H 
ENDBRANCH  40  41
ENDBRANCH  34  40
BRANCH  36  45
ATOM     45  O   LIG d   1      10.738   7.246   0.908  0.00  0.00    -0.488 OA
BRANCH  45  46
ATOM     46  C   LIG d   1      11.468   8.417   1.278  0.00  0.00     0.079 C 
ATOM     47  H   LIG d   1      11.090   8.795   2.228  0.00  0.00     0.066 H 
ATOM     48  H   LIG d   1      12.525   8.170   1.379  0.00  0.00     0.066 H 
ATOM     49  H   LIG d   1      11.346   9.180   0.509  0.00  0.00     0.066 H 
ENDBRANCH  45  46
ENDBRANCH  36  45
BRANCH  37  50
ATOM     50  O   LIG d   1      12.896   5.836  -0.059  0.00  0.00    -0.491 OA
BRANCH  50  51
ATOM     51  C   LIG d   1      14.222   6.055  -0.545  0.00  0.00     0.079 C 
ATOM     52  H   LIG d   1      14.428   7.125  -0.570  0.00  0.00     0.066 H 
ATOM     53  H   LIG d   1      14.936   5.563   0.115  0.00  0.00     0.066 H 
ATOM     54  H   LIG d   1      14.313   5.642  -1.550  0.00  0.00     0.066 H 
ENDBRANCH  50  51
ENDBRANCH  37  50
ENDBRANCH  29  32
ENDBRANCH   9  29
BRANCH   1  55
ATOM     55  C   LIG d   1       9.925  -0.234  -6.691  0.00  0.00    -0.033 C 
ATOM     56  H   LIG d   1      10.192  -1.204  -6.273  0.00  0.00     0.028 H 
ATOM     57  H   LIG d   1       9.303  -0.377  -7.575  0.00  0.00     0.028 H 
ATOM     58  H   LIG d   1      10.831   0.305  -6.968  0.00  0.00     0.028 H 
ENDBRANCH   1  55
TORSDOF 9
ENDMDL
MODEL 2
REMARK VINA RESULT:      -7.7      0.148      2.144
REMARK  9 active torsions:
REMARK  status: ('A' for Active; 'I' for Inactive)
REMARK    1  A    between atoms: C_1  and  C_2 
REMARK    2  A    between atoms: N_10  and  C_12 
REMARK    3  A    between atoms: C_12  and  C_13 
REMARK    4  A    between atoms: C_15  and  O_23 
REMARK    5  A    between atoms: C_16  and  O_21 
REMARK    6  A    between atoms: C_17  and  O_19 
REMARK    7  A    between atoms: O_19  and  C_20 
REMARK    8  A    between atoms: O_21  and  C_22 
REMARK    9  A    between atoms: O_23  and  C_24 
ROOT
ATOM      1  C   LIG d   1       9.212   0.595  -5.608  0.00  0.00     0.035 A 
ATOM      2  C   LIG d   1       8.131   0.043  -4.939  0.00  0.00     0.146 A 
ATOM      3  C   LIG d   1       7.437   0.818  -3.997  0.00  0.00     0.026 A 
ATOM      4  C   LIG d   1       7.827   2.131  -3.747  0.00  0.00    -0.043 A 
ATOM      5  C   LIG d   1       8.905   2.669  -4.421  0.00  0.00     0.009 A 
ATOM      6  C   LIG d   1       9.603   1.900  -5.344  0.00  0.00     0.133 A 
ATOM      7  O   LIG d   1      10.677   2.412  -6.003  0.00  0.00    -0.476 OA
ATOM      8  C   LIG d   1      10.833   3.833  -5.991  0.00  0.00     0.144 C 
ATOM      9  N   LIG d   1      10.693   4.310  -4.606  0.00  0.00    -0.262 N 
ATOM     10  C   LIG d   1       9.312   4.093  -4.138  0.00  0.00     0.031 C 
ATOM     11  C   LIG d   1       6.303   0.207  -3.277  0.00  0.00    -0.000 A 
ATOM     12  C   LIG d   1       5.408   0.945  -2.514  0.00  0.00    -0.053 A 
ATOM     13  C   LIG d   1       4.374   0.299  -1.867  0.00  0.00    -0.061 A 
ATOM     14  C   LIG d   1       4.221  -1.076  -1.970  0.00  0.00    -0.061 A 
ATOM     15  C   LIG d   1       5.098  -1.827  -2.725  0.00  0.00    -0.047 A 
ATOM     16  C   LIG d   1       6.144  -1.193  -3.385  0.00  0.00     0.067 A 
ATOM     17  C   LIG d   1       7.121  -1.922  -4.216  0.00  0.00     0.345 C 
ATOM     18  O   LIG d   1       7.354  -3.100  -4.025  0.00  0.00    -0.244 OA
ATOM     19  O   LIG d   1       7.745  -1.231  -5.198  0.00  0.00    -0.421 OA
ATOM     20  H   LIG d   1       7.288   2.728  -3.027  0.00  0.00     0.063 H 
ATOM     21  H   LIG d   1      11.820   4.097  -6.370  0.00  0.00     0.087 H 
ATOM     22  H   LIG d   1      10.064   4.290  -6.615  0.00  0.00     0.087 H 
ATOM     23  H   LIG d   1       8.633   4.773  -4.650  0.00  0.00     0.048 H 
ATOM     24  H   LIG d   1       9.268   4.276  -3.064  0.00  0.00     0.048 H 
ATOM     25  H   LIG d   1       5.521   2.016  -2.428  0.00  0.00     0.062 H 
ATOM     26  H   LIG d   1       3.677   0.871  -1.272  0.00  0.00     0.062 H 
ATOM     27  H   LIG d   1       3.407  -1.563  -1.454  0.00  0.00     0.062 H 
ATOM     28  H   LIG d   1       4.974  -2.897  -2.801  0.00  0.00     0.063 H 
ENDROOT
BRANCH   9  29
ATOM     29  C   LIG d   1      11.066   5.726  -4.495  0.00  0.00     0.028 C 
ATOM     30  H   LIG d   1      12.072   5.870  -4.891  0.00  0.00     0.048 H 
ATOM     31  H   LIG d   1      10.361   6.333  -5.065  0.00  0.00     0.048 H 
BRANCH  29  32
ATOM     32  C   LIG d   1      11.032   6.143  -3.047  0.00  0.00    -0.026 A 
ATOM     33  C   LIG d   1      12.090   5.831  -2.215  0.00  0.00    -0.012 A 
ATOM     34  C   LIG d   1      12.064   6.219  -0.884  0.00  0.00     0.166 A 
ATOM     35  H   LIG d   1      12.940   5.291  -2.604  0.00  0.00     0.066 H 
ATOM     36  C   LIG d   1      10.967   6.910  -0.383  0.00  0.00     0.203 A 
ATOM     37  C   LIG d   1       9.903   7.215  -1.222  0.00  0.00     0.166 A 
ATOM     38  C   LIG d   1       9.938   6.830  -2.553  0.00  0.00    -0.012 A 
ATOM     39  H   LIG d   1       9.110   7.067  -3.206  0.00  0.00     0.066 H 
BRANCH  34  40
ATOM     40  O   LIG d   1      13.109   5.917  -0.067  0.00  0.00    -0.491 OA
BRANCH  40  41
ATOM     41  C   LIG d   1      14.419   6.224  -0.549  0.00  0.00     0.079 C 
ATOM     42  H   LIG d   1      14.377   7.117  -1.172  0.00  0.00     0.066 H 
ATOM     43  H   LIG d   1      15.085   6.401   0.296  0.00  0.00     0.066 H 
ATOM     44  H   LIG d   1      14.795   5.387  -1.138  0.00  0.00     0.066 H 
ENDBRANCH  40  41
ENDBRANCH  34  40
BRANCH  36  45
ATOM     45  O   LIG d   1      10.937   7.286   0.924  0.00  0.00    -0.488 OA
BRANCH  45  46
ATOM     46  C   LIG d   1      11.584   8.514   1.261  0.00  0.00     0.079 C 
ATOM     47  H   LIG d   1      12.663   8.398   1.151  0.00  0.00     0.066 H 
ATOM     48  H   LIG d   1      11.234   9.304   0.596  0.00  0.00     0.066 H 
ATOM     49  H   LIG d   1      11.351   8.778   2.292  0.00  0.00     0.066 H 
ENDBRANCH  45  46
ENDBRANCH  36  45
BRANCH  37  50
ATOM     50  O   LIG d   1       8.827   7.892  -0.738  0.00  0.00    -0.491 OA
BRANCH  50  51
ATOM     51  C   LIG d   1       8.799   9.305  -0.949  0.00  0.00     0.079 C 
ATOM     52  H   LIG d   1       8.821   9.512  -2.019  0.00  0.00     0.066 H 
ATOM     53  H   LIG d   1       7.888   9.719  -0.518  0.00  0.00     0.066 H 
ATOM     54  H   LIG d   1       9.667   9.761  -0.472  0.00  0.00     0.066 H 
ENDBRANCH  50  51
ENDBRANCH  37  50
ENDBRANCH  29  32
ENDBRANCH   9  29
BRANCH   1  55
ATOM     55  C   LIG d   1       9.969  -0.227  -6.619  0.00  0.00    -0.033 C 
ATOM     56  H   LIG d   1       9.354  -1.069  -6.936  0.00  0.00     0.028 H 
ATOM     57  H   LIG d   1      10.211   0.393  -7.483  0.00  0.00     0.028 H 
ATOM     58  H   LIG d   1      10.890  -0.598  -6.169  0.00  0.00     0.028 H 
ENDBRANCH   1  55
TORSDOF 9
ENDMDL
MODEL 3
REMARK VINA RESULT:      -7.2      2.153      8.988
REMARK  9 active torsions:
REMARK  status: ('A' for Active; 'I' for Inactive)
REMARK    1  A    between atoms: C_1  and  C_2 
REMARK    2  A    between atoms: N_10  and  C_12 
REMARK    3  A    between atoms: C_12  and  C_13 
REMARK    4  A    between atoms: C_15  and  O_23 
REMARK    5  A    between atoms: C_16  and  O_21 
REMARK    6  A    between atoms: C_17  and  O_19 
REMARK    7  A    between atoms: O_19  and  C_20 
REMARK    8  A    between atoms: O_21  and  C_22 
REMARK    9  A    between atoms: O_23  and  C_24 
ROOT
ATOM      1  C   LIG d   1       9.781   6.349  -4.519  0.00  0.00     0.035 A 
ATOM      2  C   LIG d   1      10.114   6.968  -3.325  0.00  0.00     0.146 A 
ATOM      3  C   LIG d   1      10.293   6.187  -2.172  0.00  0.00     0.026 A 
ATOM      4  C   LIG d   1      10.147   4.805  -2.235  0.00  0.00    -0.043 A 
ATOM      5  C   LIG d   1       9.816   4.200  -3.431  0.00  0.00     0.009 A 
ATOM      6  C   LIG d   1       9.625   4.972  -4.571  0.00  0.00     0.133 A 
ATOM      7  O   LIG d   1       9.282   4.392  -5.752  0.00  0.00    -0.476 OA
ATOM      8  C   LIG d   1       9.482   2.981  -5.868  0.00  0.00     0.144 C 
ATOM      9  N   LIG d   1       8.902   2.325  -4.684  0.00  0.00    -0.262 N 
ATOM     10  C   LIG d   1       9.663   2.701  -3.480  0.00  0.00     0.031 C 
ATOM     11  C   LIG d   1      10.625   6.865  -0.904  0.00  0.00    -0.000 A 
ATOM     12  C   LIG d   1      11.056   6.182   0.226  0.00  0.00    -0.053 A 
ATOM     13  C   LIG d   1      11.341   6.888   1.377  0.00  0.00    -0.061 A 
ATOM     14  C   LIG d   1      11.203   8.268   1.417  0.00  0.00    -0.061 A 
ATOM     15  C   LIG d   1      10.779   8.964   0.305  0.00  0.00    -0.047 A 
ATOM     16  C   LIG d   1      10.487   8.271  -0.864  0.00  0.00     0.067 A 
ATOM     17  C   LIG d   1      10.034   8.941  -2.097  0.00  0.00     0.345 C 
ATOM     18  O   LIG d   1       9.469  10.017  -2.057  0.00  0.00    -0.244 OA
ATOM     19  O   LIG d   1      10.271   8.315  -3.273  0.00  0.00    -0.421 OA
ATOM     20  H   LIG d   1      10.292   4.204  -1.349  0.00  0.00     0.063 H 
ATOM     21  H   LIG d   1       8.989   2.613  -6.768  0.00  0.00     0.087 H 
ATOM     22  H   LIG d   1      10.550   2.766  -5.919  0.00  0.00     0.087 H 
ATOM     23  H   LIG d   1      10.648   2.236  -3.499  0.00  0.00     0.048 H 
ATOM     24  H   LIG d   1       9.120   2.363  -2.597  0.00  0.00     0.048 H 
ATOM     25  H   LIG d   1      11.165   5.107   0.203  0.00  0.00     0.062 H 
ATOM     26  H   LIG d   1      11.677   6.359   2.258  0.00  0.00     0.062 H 
ATOM     27  H   LIG d   1      11.431   8.801   2.328  0.00  0.00     0.062 H 
ATOM     28  H   LIG d   1      10.673  10.039   0.342  0.00  0.00     0.063 H 
ENDROOT
BRANCH   9  29
ATOM     29  C   LIG d   1       8.874   0.866  -4.851  0.00  0.00     0.028 C 
ATOM     30  H   LIG d   1       9.288   0.603  -5.825  0.00  0.00     0.048 H 
ATOM     31  H   LIG d   1       9.468   0.399  -4.065  0.00  0.00     0.048 H 
BRANCH  29  32
ATOM     32  C   LIG d   1       7.450   0.378  -4.763  0.00  0.00    -0.026 A 
ATOM     33  C   LIG d   1       6.823   0.303  -3.534  0.00  0.00    -0.012 A 
ATOM     34  C   LIG d   1       5.511  -0.141  -3.450  0.00  0.00     0.166 A 
ATOM     35  H   LIG d   1       7.352   0.594  -2.639  0.00  0.00     0.066 H 
ATOM     36  C   LIG d   1       4.832  -0.521  -4.602  0.00  0.00     0.203 A 
ATOM     37  C   LIG d   1       5.470  -0.449  -5.834  0.00  0.00     0.166 A 
ATOM     38  C   LIG d   1       6.779  -0.000  -5.911  0.00  0.00    -0.012 A 
ATOM     39  H   LIG d   1       7.275   0.056  -6.869  0.00  0.00     0.066 H 
BRANCH  34  40
ATOM     40  O   LIG d   1       4.892  -0.209  -2.241  0.00  0.00    -0.491 OA
BRANCH  40  41
ATOM     41  C   LIG d   1       4.523   1.029  -1.630  0.00  0.00     0.079 C 
ATOM     42  H   LIG d   1       3.680   0.866  -0.958  0.00  0.00     0.066 H 
ATOM     43  H   LIG d   1       5.368   1.421  -1.064  0.00  0.00     0.066 H 
ATOM     44  H   LIG d   1       4.239   1.745  -2.401  0.00  0.00     0.066 H 
ENDBRANCH  40  41
ENDBRANCH  34  40
BRANCH  36  45
ATOM     45  O   LIG d   1       3.547  -0.962  -4.522  0.00  0.00    -0.488 OA
BRANCH  45  46
ATOM     46  C   LIG d   1       2.518   0.028  -4.576  0.00  0.00     0.079 C 
ATOM     47  H   LIG d   1       1.552  -0.442  -4.391  0.00  0.00     0.066 H 
ATOM     48  H   LIG d   1       2.704   0.787  -3.816  0.00  0.00     0.066 H 
ATOM     49  H   LIG d   1       2.512   0.494  -5.561  0.00  0.00     0.066 H 
ENDBRANCH  45  46
ENDBRANCH  36  45
BRANCH  37  50
ATOM     50  O   LIG d   1       4.810  -0.820  -6.965  0.00  0.00    -0.491 OA
BRANCH  50  51
ATOM     51  C   LIG d   1       4.438   0.221  -7.870  0.00  0.00     0.079 C 
ATOM     52  H   LIG d   1       3.377   0.442  -7.753  0.00  0.00     0.066 H 
ATOM     53  H   LIG d   1       5.021   1.116  -7.653  0.00  0.00     0.066 H 
ATOM     54  H   LIG d   1       4.633  -0.100  -8.893  0.00  0.00     0.066 H 
ENDBRANCH  50  51
ENDBRANCH  37  50
ENDBRANCH  29  32
ENDBRANCH   9  29
BRANCH   1  55
ATOM     55  C   LIG d   1       9.583   7.176  -5.763  0.00  0.00    -0.033 C 
ATOM     56  H   LIG d   1       9.773   8.225  -5.537  0.00  0.00     0.028 H 
ATOM     57  H   LIG d   1      10.272   6.840  -6.537  0.00  0.00     0.028 H 
ATOM     58  H   LIG d   1       8.557   7.061  -6.115  0.00  0.00     0.028 H 
ENDBRANCH   1  55
TORSDOF 9
ENDMDL
MODEL 4
REMARK VINA RESULT:      -7.2      2.151      8.974
REMARK  9 active torsions:
REMARK  status: ('A' for Active; 'I' for Inactive)
REMARK    1  A    between atoms: C_1  and  C_2 
REMARK    2  A    between atoms: N_10  and  C_12 
REMARK    3  A    between atoms: C_12  and  C_13 
REMARK    4  A    between atoms: C_15  and  O_23 
REMARK    5  A    between atoms: C_16  and  O_21 
REMARK    6  A    between atoms: C_17  and  O_19 
REMARK    7  A    between atoms: O_19  and  C_20 
REMARK    8  A    between atoms: O_21  and  C_22 
REMARK    9  A    between atoms: O_23  and  C_24 
ROOT
ATOM      1  C   LIG d   1       9.788   6.347  -4.523  0.00  0.00     0.035 A 
ATOM      2  C   LIG d   1      10.118   6.967  -3.329  0.00  0.00     0.146 A 
ATOM      3  C   LIG d   1      10.295   6.188  -2.175  0.00  0.00     0.026 A 
ATOM      4  C   LIG d   1      10.147   4.805  -2.236  0.00  0.00    -0.043 A 
ATOM      5  C   LIG d   1       9.818   4.200  -3.432  0.00  0.00     0.009 A 
ATOM      6  C   LIG d   1       9.629   4.969  -4.574  0.00  0.00     0.133 A 
ATOM      7  O   LIG d   1       9.289   4.387  -5.754  0.00  0.00    -0.476 OA
ATOM      8  C   LIG d   1       9.487   2.976  -5.867  0.00  0.00     0.144 C 
ATOM      9  N   LIG d   1       8.904   2.323  -4.684  0.00  0.00    -0.262 N 
ATOM     10  C   LIG d   1       9.663   2.700  -3.478  0.00  0.00     0.031 C 
ATOM     11  C   LIG d   1      10.624   6.867  -0.907  0.00  0.00    -0.000 A 
ATOM     12  C   LIG d   1      11.052   6.186   0.224  0.00  0.00    -0.053 A 
ATOM     13  C   LIG d   1      11.336   6.893   1.375  0.00  0.00    -0.061 A 
ATOM     14  C   LIG d   1      11.200   8.274   1.412  0.00  0.00    -0.061 A 
ATOM     15  C   LIG d   1      10.778   8.969   0.298  0.00  0.00    -0.047 A 
ATOM     16  C   LIG d   1      10.488   8.274  -0.870  0.00  0.00     0.067 A 
ATOM     17  C   LIG d   1      10.038   8.942  -2.105  0.00  0.00     0.345 C 
ATOM     18  O   LIG d   1       9.474  10.019  -2.068  0.00  0.00    -0.244 OA
ATOM     19  O   LIG d   1      10.277   8.314  -3.279  0.00  0.00    -0.421 OA
ATOM     20  H   LIG d   1      10.289   4.207  -1.349  0.00  0.00     0.063 H 
ATOM     21  H   LIG d   1       8.995   2.608  -6.767  0.00  0.00     0.087 H 
ATOM     22  H   LIG d   1      10.555   2.760  -5.916  0.00  0.00     0.087 H 
ATOM     23  H   LIG d   1      10.648   2.234  -3.495  0.00  0.00     0.048 H 
ATOM     24  H   LIG d   1       9.118   2.364  -2.596  0.00  0.00     0.048 H 
ATOM     25  H   LIG d   1      11.161   5.111   0.204  0.00  0.00     0.062 H 
ATOM     26  H   LIG d   1      11.670   6.366   2.257  0.00  0.00     0.062 H 
ATOM     27  H   LIG d   1      11.426   8.808   2.323  0.00  0.00     0.062 H 
ATOM     28  H   LIG d   1      10.673  10.043   0.333  0.00  0.00     0.063 H 
ENDROOT
BRANCH   9  29
ATOM     29  C   LIG d   1       8.875   0.864  -4.848  0.00  0.00     0.028 C 
ATOM     30  H   LIG d   1       9.291   0.598  -5.820  0.00  0.00     0.048 H 
ATOM     31  H   LIG d   1       9.466   0.397  -4.060  0.00  0.00     0.048 H 
BRANCH  29  32
ATOM     32  C   LIG d   1       7.451   0.377  -4.763  0.00  0.00    -0.026 A 
ATOM     33  C   LIG d   1       6.777   0.013  -5.913  0.00  0.00    -0.012 A 
ATOM     34  C   LIG d   1       5.468  -0.440  -5.837  0.00  0.00     0.166 A 
ATOM     35  H   LIG d   1       7.271   0.076  -6.871  0.00  0.00     0.066 H 
ATOM     36  C   LIG d   1       4.830  -0.516  -4.604  0.00  0.00     0.203 A 
ATOM     37  C   LIG d   1       5.511  -0.142  -3.451  0.00  0.00     0.166 A 
ATOM     38  C   LIG d   1       6.820   0.304  -3.534  0.00  0.00    -0.012 A 
ATOM     39  H   LIG d   1       7.349   0.595  -2.638  0.00  0.00     0.066 H 
BRANCH  34  40
ATOM     40  O   LIG d   1       4.808  -0.804  -6.968  0.00  0.00    -0.491 OA
BRANCH  40  41
ATOM     41  C   LIG d   1       4.575   0.217  -7.941  0.00  0.00     0.079 C 
ATOM     42  H   LIG d   1       3.512   0.461  -7.963  0.00  0.00     0.066 H 
ATOM     43  H   LIG d   1       5.145   1.107  -7.676  0.00  0.00     0.066 H 
ATOM     44  H   LIG d   1       4.887  -0.137  -8.922  0.00  0.00     0.066 H 
ENDBRANCH  40  41
ENDBRANCH  34  40
BRANCH  36  45
ATOM     45  O   LIG d   1       3.545  -0.955  -4.527  0.00  0.00    -0.488 OA
BRANCH  45  46
ATOM     46  C   LIG d   1       2.516   0.034  -4.592  0.00  0.00     0.079 C 
ATOM     47  H   LIG d   1       2.538   0.641  -3.686  0.00  0.00     0.066 H 
ATOM     48  H   LIG d   1       2.679   0.672  -5.461  0.00  0.00     0.066 H 
ATOM     49  H   LIG d   1       1.546  -0.455  -4.677  0.00  0.00     0.066 H 
ENDBRANCH  45  46
ENDBRANCH  36  45
BRANCH  37  50
ATOM     50  O   LIG d   1       4.891  -0.215  -2.242  0.00  0.00    -0.491 OA
BRANCH  50  51
ATOM     51  C   LIG d   1       4.520   1.020  -1.628  0.00  0.00     0.079 C 
ATOM     52  H   LIG d   1       3.565   0.899  -1.116  0.00  0.00     0.066 H 
ATOM     53  H   LIG d   1       5.284   1.311  -0.907  0.00  0.00     0.066 H 
ATOM     54  H   LIG d   1       4.428   1.793  -2.391  0.00  0.00     0.066 H 
ENDBRANCH  50  51
ENDBRANCH  37  50
ENDBRANCH  29  32
ENDBRANCH   9  29
BRANCH   1  55
ATOM     55  C   LIG d   1       9.592   7.172  -5.769  0.00  0.00    -0.033 C 
ATOM     56  H   LIG d   1      10.417   6.992  -6.457  0.00  0.00     0.028 H 
ATOM     57  H   LIG d   1       8.653   6.892  -6.247  0.00  0.00     0.028 H 
ATOM     58  H   LIG d   1       9.564   8.229  -5.504  0.00  0.00     0.028 H 
ENDBRANCH   1  55
TORSDOF 9
ENDMDL
MODEL 5
REMARK VINA RESULT:      -6.6      7.150     11.483
REMARK  9 active torsions:
REMARK  status: ('A' for Active; 'I' for Inactive)
REMARK    1  A    between atoms: C_1  and  C_2 
REMARK    2  A    between atoms: N_10  and  C_12 
REMARK    3  A    between atoms: C_12  and  C_13 
REMARK    4  A    between atoms: C_15  and  O_23 
REMARK    5  A    between atoms: C_16  and  O_21 
REMARK    6  A    between atoms: C_17  and  O_19 
REMARK    7  A    between atoms: O_19  and  C_20 
REMARK    8  A    between atoms: O_21  and  C_22 
REMARK    9  A    between atoms: O_23  and  C_24 
ROOT
ATOM      1  C   LIG d   1       6.011  -2.484  -6.813  0.00  0.00     0.035 A 
ATOM      2  C   LIG d   1       5.394  -1.547  -5.999  0.00  0.00     0.146 A 
ATOM      3  C   LIG d   1       5.640  -1.568  -4.617  0.00  0.00     0.026 A 
ATOM      4  C   LIG d   1       6.504  -2.516  -4.076  0.00  0.00    -0.043 A 
ATOM      5  C   LIG d   1       7.112  -3.443  -4.897  0.00  0.00     0.009 A 
ATOM      6  C   LIG d   1       6.861  -3.434  -6.264  0.00  0.00     0.133 A 
ATOM      7  O   LIG d   1       7.441  -4.351  -7.083  0.00  0.00    -0.476 OA
ATOM      8  C   LIG d   1       8.566  -5.066  -6.567  0.00  0.00     0.144 C 
ATOM      9  N   LIG d   1       8.224  -5.582  -5.232  0.00  0.00    -0.262 N 
ATOM     10  C   LIG d   1       8.045  -4.461  -4.292  0.00  0.00     0.031 C 
ATOM     11  C   LIG d   1       4.957  -0.578  -3.763  0.00  0.00    -0.000 A 
ATOM     12  C   LIG d   1       5.308  -0.355  -2.438  0.00  0.00    -0.053 A 
ATOM     13  C   LIG d   1       4.616   0.586  -1.702  0.00  0.00    -0.061 A 
ATOM     14  C   LIG d   1       3.578   1.309  -2.271  0.00  0.00    -0.061 A 
ATOM     15  C   LIG d   1       3.216   1.104  -3.586  0.00  0.00    -0.047 A 
ATOM     16  C   LIG d   1       3.901   0.162  -4.343  0.00  0.00     0.067 A 
ATOM     17  C   LIG d   1       3.580  -0.113  -5.756  0.00  0.00     0.345 C 
ATOM     18  O   LIG d   1       2.471   0.106  -6.203  0.00  0.00    -0.244 OA
ATOM     19  O   LIG d   1       4.566  -0.616  -6.535  0.00  0.00    -0.421 OA
ATOM     20  H   LIG d   1       6.697  -2.527  -3.013  0.00  0.00     0.063 H 
ATOM     21  H   LIG d   1       8.806  -5.898  -7.229  0.00  0.00     0.087 H 
ATOM     22  H   LIG d   1       9.422  -4.395  -6.492  0.00  0.00     0.087 H 
ATOM     23  H   LIG d   1       9.007  -3.993  -4.082  0.00  0.00     0.048 H 
ATOM     24  H   LIG d   1       7.616  -4.840  -3.364  0.00  0.00     0.048 H 
ATOM     25  H   LIG d   1       6.114  -0.915  -1.987  0.00  0.00     0.062 H 
ATOM     26  H   LIG d   1       4.887   0.761  -0.671  0.00  0.00     0.062 H 
ATOM     27  H   LIG d   1       3.049   2.040  -1.678  0.00  0.00     0.062 H 
ATOM     28  H   LIG d   1       2.407   1.671  -4.023  0.00  0.00     0.063 H 
ENDROOT
BRANCH   9  29
ATOM     29  C   LIG d   1       9.251  -6.512  -4.747  0.00  0.00     0.028 C 
ATOM     30  H   LIG d   1       9.802  -6.921  -5.595  0.00  0.00     0.048 H 
ATOM     31  H   LIG d   1       9.939  -5.983  -4.087  0.00  0.00     0.048 H 
BRANCH  29  32
ATOM     32  C   LIG d   1       8.593  -7.637  -3.988  0.00  0.00    -0.026 A 
ATOM     33  C   LIG d   1       9.162  -8.105  -2.819  0.00  0.00    -0.012 A 
ATOM     34  C   LIG d   1       8.555  -9.136  -2.116  0.00  0.00     0.166 A 
ATOM     35  H   LIG d   1      10.076  -7.665  -2.450  0.00  0.00     0.066 H 
ATOM     36  C   LIG d   1       7.382  -9.706  -2.595  0.00  0.00     0.203 A 
ATOM     37  C   LIG d   1       6.818  -9.236  -3.775  0.00  0.00     0.166 A 
ATOM     38  C   LIG d   1       7.426  -8.202  -4.469  0.00  0.00    -0.012 A 
ATOM     39  H   LIG d   1       6.988  -7.836  -5.386  0.00  0.00     0.066 H 
BRANCH  34  40
ATOM     40  O   LIG d   1       9.112  -9.592  -0.962  0.00  0.00    -0.491 OA
BRANCH  40  41
ATOM     41  C   LIG d   1      10.287 -10.398  -1.084  0.00  0.00     0.079 C 
ATOM     42  H   LIG d   1      11.019  -9.881  -1.704  0.00  0.00     0.066 H 
ATOM     43  H   LIG d   1      10.710 -10.574  -0.095  0.00  0.00     0.066 H 
ATOM     44  H   LIG d   1      10.028 -11.351  -1.544  0.00  0.00     0.066 H 
ENDBRANCH  40  41
ENDBRANCH  34  40
BRANCH  36  45
ATOM     45  O   LIG d   1       6.788 -10.721  -1.911  0.00  0.00    -0.488 OA
BRANCH  45  46
ATOM     46  C   LIG d   1       7.135 -12.053  -2.294  0.00  0.00     0.079 C 
ATOM     47  H   LIG d   1       7.703 -12.525  -1.493  0.00  0.00     0.066 H 
ATOM     48  H   LIG d   1       6.226 -12.626  -2.482  0.00  0.00     0.066 H 
ATOM     49  H   LIG d   1       7.740 -12.025  -3.200  0.00  0.00     0.066 H 
ENDBRANCH  45  46
ENDBRANCH  36  45
BRANCH  37  50
ATOM     50  O   LIG d   1       5.669  -9.790  -4.248  0.00  0.00    -0.491 OA
BRANCH  50  51
ATOM     51  C   LIG d   1       4.775  -8.928  -4.954  0.00  0.00     0.079 C 
ATOM     52  H   LIG d   1       4.615  -8.018  -4.376  0.00  0.00     0.066 H 
ATOM     53  H   LIG d   1       5.207  -8.672  -5.922  0.00  0.00     0.066 H 
ATOM     54  H   LIG d   1       3.822  -9.436  -5.105  0.00  0.00     0.066 H 
ENDBRANCH  50  51
ENDBRANCH  37  50
ENDBRANCH  29  32
ENDBRANCH   9  29
BRANCH   1  55
ATOM     55  C   LIG d   1       5.753  -2.475  -8.298  0.00  0.00    -0.033 C 
ATOM     56  H   LIG d   1       5.191  -3.366  -8.574  0.00  0.00     0.028 H 
ATOM     57  H   LIG d   1       5.179  -1.587  -8.562  0.00  0.00     0.028 H 
ATOM     58  H   LIG d   1       6.704  -2.464  -8.831  0.00  0.00     0.028 H 
ENDBRANCH   1  55
TORSDOF 9
ENDMDL
MODEL 6
REMARK VINA RESULT:      -6.6      7.118     11.320
REMARK  9 active torsions:
REMARK  status: ('A' for Active; 'I' for Inactive)
REMARK    1  A    between atoms: C_1  and  C_2 
REMARK    2  A    between atoms: N_10  and  C_12 
REMARK    3  A    between atoms: C_12  and  C_13 
REMARK    4  A    between atoms: C_15  and  O_23 
REMARK    5  A    between atoms: C_16  and  O_21 
REMARK    6  A    between atoms: C_17  and  O_19 
REMARK    7  A    between atoms: O_19  and  C_20 
REMARK    8  A    between atoms: O_21  and  C_22 
REMARK    9  A    between atoms: O_23  and  C_24 
ROOT
ATOM      1  C   LIG d   1       6.000  -2.464  -6.768  0.00  0.00     0.035 A 
ATOM      2  C   LIG d   1       5.377  -1.513  -5.976  0.00  0.00     0.146 A 
ATOM      3  C   LIG d   1       5.623  -1.502  -4.593  0.00  0.00     0.026 A 
ATOM      4  C   LIG d   1       6.492  -2.432  -4.031  0.00  0.00    -0.043 A 
ATOM      5  C   LIG d   1       7.107  -3.373  -4.831  0.00  0.00     0.009 A 
ATOM      6  C   LIG d   1       6.855  -3.396  -6.198  0.00  0.00     0.133 A 
ATOM      7  O   LIG d   1       7.441  -4.328  -6.996  0.00  0.00    -0.476 OA
ATOM      8  C   LIG d   1       8.570  -5.024  -6.464  0.00  0.00     0.144 C 
ATOM      9  N   LIG d   1       8.231  -5.512  -5.118  0.00  0.00    -0.262 N 
ATOM     10  C   LIG d   1       8.046  -4.371  -4.203  0.00  0.00     0.031 C 
ATOM     11  C   LIG d   1       4.933  -0.497  -3.761  0.00  0.00    -0.000 A 
ATOM     12  C   LIG d   1       5.283  -0.243  -2.442  0.00  0.00    -0.053 A 
ATOM     13  C   LIG d   1       4.585   0.710  -1.727  0.00  0.00    -0.061 A 
ATOM     14  C   LIG d   1       3.543   1.415  -2.312  0.00  0.00    -0.061 A 
ATOM     15  C   LIG d   1       3.182   1.178  -3.622  0.00  0.00    -0.047 A 
ATOM     16  C   LIG d   1       3.873   0.223  -4.358  0.00  0.00     0.067 A 
ATOM     17  C   LIG d   1       3.554  -0.085  -5.764  0.00  0.00     0.345 C 
ATOM     18  O   LIG d   1       2.443   0.117  -6.216  0.00  0.00    -0.244 OA
ATOM     19  O   LIG d   1       4.543  -0.599  -6.532  0.00  0.00    -0.421 OA
ATOM     20  H   LIG d   1       6.686  -2.417  -2.968  0.00  0.00     0.063 H 
ATOM     21  H   LIG d   1       8.816  -5.869  -7.108  0.00  0.00     0.087 H 
ATOM     22  H   LIG d   1       9.423  -4.346  -6.404  0.00  0.00     0.087 H 
ATOM     23  H   LIG d   1       9.004  -3.893  -4.004  0.00  0.00     0.048 H 
ATOM     24  H   LIG d   1       7.619  -4.732  -3.267  0.00  0.00     0.048 H 
ATOM     25  H   LIG d   1       6.093  -0.787  -1.979  0.00  0.00     0.062 H 
ATOM     26  H   LIG d   1       4.855   0.911  -0.700  0.00  0.00     0.062 H 
ATOM     27  H   LIG d   1       3.009   2.155  -1.735  0.00  0.00     0.062 H 
ATOM     28  H   LIG d   1       2.370   1.730  -4.072  0.00  0.00     0.063 H 
ENDROOT
BRANCH   9  29
ATOM     29  C   LIG d   1       9.265  -6.425  -4.612  0.00  0.00     0.028 C 
ATOM     30  H   LIG d   1       9.865  -6.793  -5.445  0.00  0.00     0.048 H 
ATOM     31  H   LIG d   1       9.906  -5.894  -3.909  0.00  0.00     0.048 H 
BRANCH  29  32
ATOM     32  C   LIG d   1       8.609  -7.589  -3.915  0.00  0.00    -0.026 A 
ATOM     33  C   LIG d   1       7.546  -8.241  -4.512  0.00  0.00    -0.012 A 
ATOM     34  C   LIG d   1       6.944  -9.316  -3.875  0.00  0.00     0.166 A 
ATOM     35  H   LIG d   1       7.188  -7.916  -5.477  0.00  0.00     0.066 H 
ATOM     36  C   LIG d   1       7.402  -9.730  -2.630  0.00  0.00     0.203 A 
ATOM     37  C   LIG d   1       8.466  -9.067  -2.031  0.00  0.00     0.166 A 
ATOM     38  C   LIG d   1       9.067  -7.997  -2.675  0.00  0.00    -0.012 A 
ATOM     39  H   LIG d   1       9.894  -7.482  -2.210  0.00  0.00     0.066 H 
BRANCH  34  40
ATOM     40  O   LIG d   1       5.902  -9.960  -4.466  0.00  0.00    -0.491 OA
BRANCH  40  41
ATOM     41  C   LIG d   1       4.668  -9.245  -4.562  0.00  0.00     0.079 C 
ATOM     42  H   LIG d   1       4.694  -8.384  -3.894  0.00  0.00     0.066 H 
ATOM     43  H   LIG d   1       4.524  -8.905  -5.588  0.00  0.00     0.066 H 
ATOM     44  H   LIG d   1       3.845  -9.901  -4.278  0.00  0.00     0.066 H 
ENDBRANCH  40  41
ENDBRANCH  34  40
BRANCH  36  45
ATOM     45  O   LIG d   1       6.810 -10.780  -2.000  0.00  0.00    -0.488 OA
BRANCH  45  46
ATOM     46  C   LIG d   1       7.294 -12.086  -2.321  0.00  0.00     0.079 C 
ATOM     47  H   LIG d   1       8.179 -12.000  -2.952  0.00  0.00     0.066 H 
ATOM     48  H   LIG d   1       7.551 -12.614  -1.403  0.00  0.00     0.066 H 
ATOM     49  H   LIG d   1       6.521 -12.639  -2.855  0.00  0.00     0.066 H 
ENDBRANCH  45  46
ENDBRANCH  36  45
BRANCH  37  50
ATOM     50  O   LIG d   1       8.919  -9.468  -0.812  0.00  0.00    -0.491 OA
BRANCH  50  51
ATOM     51  C   LIG d   1      10.163 -10.169  -0.780  0.00  0.00     0.079 C 
ATOM     52  H   LIG d   1      10.984  -9.456  -0.857  0.00  0.00     0.066 H 
ATOM     53  H   LIG d   1      10.246 -10.719   0.157  0.00  0.00     0.066 H 
ATOM     54  H   LIG d   1      10.208 -10.868  -1.616  0.00  0.00     0.066 H 
ENDBRANCH  50  51
ENDBRANCH  37  50
ENDBRANCH  29  32
ENDBRANCH   9  29
BRANCH   1  55
ATOM     55  C   LIG d   1       5.742  -2.490  -8.253  0.00  0.00    -0.033 C 
ATOM     56  H   LIG d   1       6.690  -2.450  -8.787  0.00  0.00     0.028 H 
ATOM     57  H   LIG d   1       5.216  -3.407  -8.514  0.00  0.00     0.028 H 
ATOM     58  H   LIG d   1       5.132  -1.629  -8.530  0.00  0.00     0.028 H 
ENDBRANCH   1  55
TORSDOF 9
ENDMDL
MODEL 7
REMARK VINA RESULT:      -6.5      8.100     14.052
REMARK  9 active torsions:
REMARK  status: ('A' for Active; 'I' for Inactive)
REMARK    1  A    between atoms: C_1  and  C_2 
REMARK    2  A    between atoms: N_10  and  C_12 
REMARK    3  A    between atoms: C_12  and  C_13 
REMARK    4  A    between atoms: C_15  and  O_23 
REMARK    5  A    between atoms: C_16  and  O_21 
REMARK    6  A    between atoms: C_17  and  O_19 
REMARK    7  A    between atoms: O_19  and  C_20 
REMARK    8  A    between atoms: O_21  and  C_22 
REMARK    9  A    between atoms: O_23  and  C_24 
ROOT
ATOM      1  C   LIG d   1       3.293  -0.249  -7.809  0.00  0.00     0.035 A 
ATOM      2  C   LIG d   1       4.247  -0.622  -6.876  0.00  0.00     0.146 A 
ATOM      3  C   LIG d   1       4.703  -1.950  -6.851  0.00  0.00     0.026 A 
ATOM      4  C   LIG d   1       4.205  -2.876  -7.763  0.00  0.00    -0.043 A 
ATOM      5  C   LIG d   1       3.256  -2.492  -8.688  0.00  0.00     0.009 A 
ATOM      6  C   LIG d   1       2.793  -1.182  -8.707  0.00  0.00     0.133 A 
ATOM      7  O   LIG d   1       1.845  -0.793  -9.601  0.00  0.00    -0.476 OA
ATOM      8  C   LIG d   1       1.619  -1.648 -10.724  0.00  0.00     0.144 C 
ATOM      9  N   LIG d   1       1.460  -3.029 -10.239  0.00  0.00    -0.262 N 
ATOM     10  C   LIG d   1       2.730  -3.510  -9.668  0.00  0.00     0.031 C 
ATOM     11  C   LIG d   1       5.702  -2.335  -5.836  0.00  0.00    -0.000 A 
ATOM     12  C   LIG d   1       6.391  -3.540  -5.876  0.00  0.00    -0.053 A 
ATOM     13  C   LIG d   1       7.308  -3.830  -4.885  0.00  0.00    -0.061 A 
ATOM     14  C   LIG d   1       7.548  -2.932  -3.855  0.00  0.00    -0.061 A 
ATOM     15  C   LIG d   1       6.875  -1.729  -3.799  0.00  0.00    -0.047 A 
ATOM     16  C   LIG d   1       5.949  -1.419  -4.788  0.00  0.00     0.067 A 
ATOM     17  C   LIG d   1       5.193  -0.153  -4.804  0.00  0.00     0.345 C 
ATOM     18  O   LIG d   1       4.986   0.470  -3.781  0.00  0.00    -0.244 OA
ATOM     19  O   LIG d   1       4.740   0.289  -6.000  0.00  0.00    -0.421 OA
ATOM     20  H   LIG d   1       4.562  -3.895  -7.747  0.00  0.00     0.063 H 
ATOM     21  H   LIG d   1       0.714  -1.337 -11.245  0.00  0.00     0.087 H 
ATOM     22  H   LIG d   1       2.472  -1.595 -11.402  0.00  0.00     0.087 H 
ATOM     23  H   LIG d   1       3.462  -3.663 -10.460  0.00  0.00     0.048 H 
ATOM     24  H   LIG d   1       2.552  -4.453  -9.151  0.00  0.00     0.048 H 
ATOM     25  H   LIG d   1       6.210  -4.244  -6.674  0.00  0.00     0.062 H 
ATOM     26  H   LIG d   1       7.845  -4.766  -4.913  0.00  0.00     0.062 H 
ATOM     27  H   LIG d   1       8.268  -3.179  -3.089  0.00  0.00     0.062 H 
ATOM     28  H   LIG d   1       7.066  -1.035  -2.994  0.00  0.00     0.063 H 
ENDROOT
BRANCH   9  29
ATOM     29  C   LIG d   1       1.002  -3.916 -11.316  0.00  0.00     0.028 C 
ATOM     30  H   LIG d   1       0.416  -3.343 -12.036  0.00  0.00     0.048 H 
ATOM     31  H   LIG d   1       1.864  -4.355 -11.817  0.00  0.00     0.048 H 
BRANCH  29  32
ATOM     32  C   LIG d   1       0.147  -5.013 -10.734  0.00  0.00    -0.026 A 
ATOM     33  C   LIG d   1       0.596  -6.320 -10.753  0.00  0.00    -0.012 A 
ATOM     34  C   LIG d   1      -0.186  -7.330 -10.213  0.00  0.00     0.166 A 
ATOM     35  H   LIG d   1       1.558  -6.554 -11.183  0.00  0.00     0.066 H 
ATOM     36  C   LIG d   1      -1.427  -7.030  -9.665  0.00  0.00     0.203 A 
ATOM     37  C   LIG d   1      -1.877  -5.714  -9.654  0.00  0.00     0.166 A 
ATOM     38  C   LIG d   1      -1.088  -4.709 -10.190  0.00  0.00    -0.012 A 
ATOM     39  H   LIG d   1      -1.437  -3.687 -10.182  0.00  0.00     0.066 H 
BRANCH  34  40
ATOM     40  O   LIG d   1       0.258  -8.616 -10.227  0.00  0.00    -0.491 OA
BRANCH  40  41
ATOM     41  C   LIG d   1       0.344  -9.259 -11.500  0.00  0.00     0.079 C 
ATOM     42  H   LIG d   1       0.368  -8.505 -12.287  0.00  0.00     0.066 H 
ATOM     43  H   LIG d   1       1.254  -9.858 -11.544  0.00  0.00     0.066 H 
ATOM     44  H   LIG d   1      -0.523  -9.904 -11.641  0.00  0.00     0.066 H 
ENDBRANCH  40  41
ENDBRANCH  34  40
BRANCH  36  45
ATOM     45  O   LIG d   1      -2.199  -8.020  -9.139  0.00  0.00    -0.488 OA
BRANCH  45  46
ATOM     46  C   LIG d   1      -3.054  -8.724 -10.041  0.00  0.00     0.079 C 
ATOM     47  H   LIG d   1      -2.478  -9.054 -10.905  0.00  0.00     0.066 H 
ATOM     48  H   LIG d   1      -3.481  -9.590  -9.536  0.00  0.00     0.066 H 
ATOM     49  H   LIG d   1      -3.857  -8.064 -10.371  0.00  0.00     0.066 H 
ENDBRANCH  45  46
ENDBRANCH  36  45
BRANCH  37  50
ATOM     50  O   LIG d   1      -3.090  -5.415  -9.117  0.00  0.00    -0.491 OA
BRANCH  50  51
ATOM     51  C   LIG d   1      -3.957  -4.587  -9.896  0.00  0.00     0.079 C 
ATOM     52  H   LIG d   1      -4.883  -4.414  -9.347  0.00  0.00     0.066 H 
ATOM     53  H   LIG d   1      -3.468  -3.634 -10.093  0.00  0.00     0.066 H 
ATOM     54  H   LIG d   1      -4.181  -5.082 -10.841  0.00  0.00     0.066 H 
ENDBRANCH  50  51
ENDBRANCH  37  50
ENDBRANCH  29  32
ENDBRANCH   9  29
BRANCH   1  55
ATOM     55  C   LIG d   1       2.793   1.172  -7.845  0.00  0.00    -0.033 C 
ATOM     56  H   LIG d   1       3.211   1.726  -7.005  0.00  0.00     0.028 H 
ATOM     57  H   LIG d   1       3.099   1.642  -8.779  0.00  0.00     0.028 H 
ATOM     58  H   LIG d   1       1.704   1.175  -7.776  0.00  0.00     0.028 H 
ENDBRANCH   1  55
TORSDOF 9
ENDMDL
MODEL 8
REMARK VINA RESULT:      -6.4      7.662     12.474
REMARK  9 active torsions:
REMARK  status: ('A' for Active; 'I' for Inactive)
REMARK    1  A    between atoms: C_1  and  C_2 
REMARK    2  A    between atoms: N_10  and  C_12 
REMARK    3  A    between atoms: C_12  and  C_13 
REMARK    4  A    between atoms: C_15  and  O_23 
REMARK    5  A    between atoms: C_16  and  O_21 
REMARK    6  A    between atoms: C_17  and  O_19 
REMARK    7  A    between atoms: O_19  and  C_20 
REMARK    8  A    between atoms: O_21  and  C_22 
REMARK    9  A    between atoms: O_23  and  C_24 
ROOT
ATOM      1  C   LIG d   1       5.787  -2.637  -7.426  0.00  0.00     0.035 A 
ATOM      2  C   LIG d   1       5.260  -1.793  -6.461  0.00  0.00     0.146 A 
ATOM      3  C   LIG d   1       5.299  -2.182  -5.113  0.00  0.00     0.026 A 
ATOM      4  C   LIG d   1       5.870  -3.399  -4.752  0.00  0.00    -0.043 A 
ATOM      5  C   LIG d   1       6.392  -4.229  -5.722  0.00  0.00     0.009 A 
ATOM      6  C   LIG d   1       6.344  -3.854  -7.060  0.00  0.00     0.133 A 
ATOM      7  O   LIG d   1       6.839  -4.670  -8.028  0.00  0.00    -0.476 OA
ATOM      8  C   LIG d   1       7.715  -5.720  -7.610  0.00  0.00     0.144 C 
ATOM      9  N   LIG d   1       7.091  -6.433  -6.484  0.00  0.00    -0.262 N 
ATOM     10  C   LIG d   1       7.008  -5.543  -5.312  0.00  0.00     0.031 C 
ATOM     11  C   LIG d   1       4.712  -1.282  -4.101  0.00  0.00    -0.000 A 
ATOM     12  C   LIG d   1       4.909  -1.450  -2.737  0.00  0.00    -0.053 A 
ATOM     13  C   LIG d   1       4.322  -0.568  -1.853  0.00  0.00    -0.061 A 
ATOM     14  C   LIG d   1       3.541   0.483  -2.312  0.00  0.00    -0.061 A 
ATOM     15  C   LIG d   1       3.335   0.669  -3.663  0.00  0.00    -0.047 A 
ATOM     16  C   LIG d   1       3.919  -0.209  -4.569  0.00  0.00     0.067 A 
ATOM     17  C   LIG d   1       3.753  -0.077  -6.028  0.00  0.00     0.345 C 
ATOM     18  O   LIG d   1       2.785   0.484  -6.503  0.00  0.00    -0.244 OA
ATOM     19  O   LIG d   1       4.719  -0.601  -6.817  0.00  0.00    -0.421 OA
ATOM     20  H   LIG d   1       5.905  -3.693  -3.714  0.00  0.00     0.063 H 
ATOM     21  H   LIG d   1       7.876  -6.413  -8.436  0.00  0.00     0.087 H 
ATOM     22  H   LIG d   1       8.668  -5.297  -7.292  0.00  0.00     0.087 H 
ATOM     23  H   LIG d   1       8.003  -5.366  -4.906  0.00  0.00     0.048 H 
ATOM     24  H   LIG d   1       6.385  -6.014  -4.552  0.00  0.00     0.048 H 
ATOM     25  H   LIG d   1       5.516  -2.266  -2.372  0.00  0.00     0.062 H 
ATOM     26  H   LIG d   1       4.473  -0.696  -0.791  0.00  0.00     0.062 H 
ATOM     27  H   LIG d   1       3.088   1.162  -1.604  0.00  0.00     0.062 H 
ATOM     28  H   LIG d   1       2.725   1.488  -4.014  0.00  0.00     0.063 H 
ENDROOT
BRANCH   9  29
ATOM     29  C   LIG d   1       7.833  -7.658  -6.159  0.00  0.00     0.028 C 
ATOM     30  H   LIG d   1       8.216  -8.106  -7.076  0.00  0.00     0.048 H 
ATOM     31  H   LIG d   1       8.665  -7.414  -5.498  0.00  0.00     0.048 H 
BRANCH  29  32
ATOM     32  C   LIG d   1       6.913  -8.634  -5.470  0.00  0.00    -0.026 A 
ATOM     33  C   LIG d   1       7.143  -8.985  -4.153  0.00  0.00    -0.012 A 
ATOM     34  C   LIG d   1       6.295  -9.879  -3.515  0.00  0.00     0.166 A 
ATOM     35  H   LIG d   1       7.979  -8.559  -3.619  0.00  0.00     0.066 H 
ATOM     36  C   LIG d   1       5.222 -10.431  -4.205  0.00  0.00     0.203 A 
ATOM     37  C   LIG d   1       5.000 -10.079  -5.531  0.00  0.00     0.166 A 
ATOM     38  C   LIG d   1       5.848  -9.182  -6.160  0.00  0.00    -0.012 A 
ATOM     39  H   LIG d   1       5.675  -8.908  -7.192  0.00  0.00     0.066 H 
BRANCH  34  40
ATOM     40  O   LIG d   1       6.518 -10.220  -2.218  0.00  0.00    -0.491 OA
BRANCH  40  41
ATOM     41  C   LIG d   1       7.561 -11.163  -1.964  0.00  0.00     0.079 C 
ATOM     42  H   LIG d   1       8.516 -10.639  -1.899  0.00  0.00     0.066 H 
ATOM     43  H   LIG d   1       7.365 -11.678  -1.024  0.00  0.00     0.066 H 
ATOM     44  H   LIG d   1       7.600 -11.889  -2.776  0.00  0.00     0.066 H 
ENDBRANCH  40  41
ENDBRANCH  34  40
BRANCH  36  45
ATOM     45  O   LIG d   1       4.392 -11.312  -3.584  0.00  0.00    -0.488 OA
BRANCH  45  46
ATOM     46  C   LIG d   1       3.168 -10.793  -3.062  0.00  0.00     0.079 C 
ATOM     47  H   LIG d   1       2.365 -11.510  -3.235  0.00  0.00     0.066 H 
ATOM     48  H   LIG d   1       3.274 -10.618  -1.991  0.00  0.00     0.066 H 
ATOM     49  H   LIG d   1       2.929  -9.854  -3.561  0.00  0.00     0.066 H 
ENDBRANCH  45  46
ENDBRANCH  36  45
BRANCH  37  50
ATOM     50  O   LIG d   1       3.951 -10.617  -6.211  0.00  0.00    -0.491 OA
BRANCH  50  51
ATOM     51  C   LIG d   1       4.244 -11.673  -7.127  0.00  0.00     0.079 C 
ATOM     52  H   LIG d   1       5.189 -11.466  -7.630  0.00  0.00     0.066 H 
ATOM     53  H   LIG d   1       4.321 -12.614  -6.583  0.00  0.00     0.066 H 
ATOM     54  H   LIG d   1       3.446 -11.745  -7.866  0.00  0.00     0.066 H 
ENDBRANCH  50  51
ENDBRANCH  37  50
ENDBRANCH  29  32
ENDBRANCH   9  29
BRANCH   1  55
ATOM     55  C   LIG d   1       5.750  -2.234  -8.878  0.00  0.00    -0.033 C 
ATOM     56  H   LIG d   1       6.562  -2.725  -9.412  0.00  0.00     0.028 H 
ATOM     57  H   LIG d   1       4.796  -2.532  -9.313  0.00  0.00     0.028 H 
ATOM     58  H   LIG d   1       5.863  -1.152  -8.957  0.00  0.00     0.028 H 
ENDBRANCH   1  55
TORSDOF 9
ENDMDL
MODEL 9
REMARK VINA RESULT:      -6.3      8.789     14.220
REMARK  9 active torsions:
REMARK  status: ('A' for Active; 'I' for Inactive)
REMARK    1  A    between atoms: C_1  and  C_2 
REMARK    2  A    between atoms: N_10  and  C_12 
REMARK    3  A    between atoms: C_12  and  C_13 
REMARK    4  A    between atoms: C_15  and  O_23 
REMARK    5  A    between atoms: C_16  and  O_21 
REMARK    6  A    between atoms: C_17  and  O_19 
REMARK    7  A    between atoms: O_19  and  C_20 
REMARK    8  A    between atoms: O_21  and  C_22 
REMARK    9  A    between atoms: O_23  and  C_24 
ROOT
ATOM      1  C   LIG d   1       3.246  -0.282  -8.159  0.00  0.00     0.035 A 
ATOM      2  C   LIG d   1       4.157  -0.667  -7.188  0.00  0.00     0.146 A 
ATOM      3  C   LIG d   1       4.556  -2.011  -7.113  0.00  0.00     0.026 A 
ATOM      4  C   LIG d   1       4.047  -2.942  -8.013  0.00  0.00    -0.043 A 
ATOM      5  C   LIG d   1       3.141  -2.546  -8.976  0.00  0.00     0.009 A 
ATOM      6  C   LIG d   1       2.733  -1.219  -9.044  0.00  0.00     0.133 A 
ATOM      7  O   LIG d   1       1.829  -0.818  -9.977  0.00  0.00    -0.476 OA
ATOM      8  C   LIG d   1       1.599  -1.696 -11.082  0.00  0.00     0.144 C 
ATOM      9  N   LIG d   1       1.369  -3.054 -10.564  0.00  0.00    -0.262 N 
ATOM     10  C   LIG d   1       2.601  -3.570  -9.942  0.00  0.00     0.031 C 
ATOM     11  C   LIG d   1       5.509  -2.407  -6.058  0.00  0.00    -0.000 A 
ATOM     12  C   LIG d   1       6.148  -3.639  -6.044  0.00  0.00    -0.053 A 
ATOM     13  C   LIG d   1       7.023  -3.938  -5.019  0.00  0.00    -0.061 A 
ATOM     14  C   LIG d   1       7.271  -3.022  -4.007  0.00  0.00    -0.061 A 
ATOM     15  C   LIG d   1       6.648  -1.791  -4.005  0.00  0.00    -0.047 A 
ATOM     16  C   LIG d   1       5.764  -1.472  -5.029  0.00  0.00     0.067 A 
ATOM     17  C   LIG d   1       5.062  -0.178  -5.103  0.00  0.00     0.345 C 
ATOM     18  O   LIG d   1       4.852   0.482  -4.103  0.00  0.00    -0.244 OA
ATOM     19  O   LIG d   1       4.662   0.249  -6.323  0.00  0.00    -0.421 OA
ATOM     20  H   LIG d   1       4.360  -3.974  -7.958  0.00  0.00     0.063 H 
ATOM     21  H   LIG d   1       0.723  -1.363 -11.638  0.00  0.00     0.087 H 
ATOM     22  H   LIG d   1       2.473  -1.697 -11.736  0.00  0.00     0.087 H 
ATOM     23  H   LIG d   1       3.348  -3.775 -10.708  0.00  0.00     0.048 H 
ATOM     24  H   LIG d   1       2.370  -4.490  -9.406  0.00  0.00     0.048 H 
ATOM     25  H   LIG d   1       5.961  -4.359  -6.828  0.00  0.00     0.062 H 
ATOM     26  H   LIG d   1       7.522  -4.896  -5.005  0.00  0.00     0.062 H 
ATOM     27  H   LIG d   1       7.958  -3.275  -3.213  0.00  0.00     0.062 H 
ATOM     28  H   LIG d   1       6.844  -1.082  -3.214  0.00  0.00     0.063 H 
ENDROOT
BRANCH   9  29
ATOM     29  C   LIG d   1       0.905  -3.952 -11.630  0.00  0.00     0.028 C 
ATOM     30  H   LIG d   1       1.077  -3.486 -12.600  0.00  0.00     0.048 H 
ATOM     31  H   LIG d   1       1.454  -4.893 -11.577  0.00  0.00     0.048 H 
BRANCH  29  32
ATOM     32  C   LIG d   1      -0.568  -4.220 -11.456  0.00  0.00    -0.026 A 
ATOM     33  C   LIG d   1      -1.019  -4.887 -10.333  0.00  0.00    -0.012 A 
ATOM     34  C   LIG d   1      -2.375  -5.130 -10.168  0.00  0.00     0.166 A 
ATOM     35  H   LIG d   1      -0.317  -5.216  -9.582  0.00  0.00     0.066 H 
ATOM     36  C   LIG d   1      -3.279  -4.712 -11.138  0.00  0.00     0.203 A 
ATOM     37  C   LIG d   1      -2.819  -4.046 -12.267  0.00  0.00     0.166 A 
ATOM     38  C   LIG d   1      -1.464  -3.802 -12.424  0.00  0.00    -0.012 A 
ATOM     39  H   LIG d   1      -1.105  -3.285 -13.302  0.00  0.00     0.066 H 
BRANCH  34  40
ATOM     40  O   LIG d   1      -2.819  -5.782  -9.060  0.00  0.00    -0.491 OA
BRANCH  40  41
ATOM     41  C   LIG d   1      -2.524  -7.177  -8.966  0.00  0.00     0.079 C 
ATOM     42  H   LIG d   1      -1.823  -7.346  -8.148  0.00  0.00     0.066 H 
ATOM     43  H   LIG d   1      -3.443  -7.731  -8.777  0.00  0.00     0.066 H 
ATOM     44  H   LIG d   1      -2.080  -7.518  -9.902  0.00  0.00     0.066 H 
ENDBRANCH  40  41
ENDBRANCH  34  40
BRANCH  36  45
ATOM     45  O   LIG d   1      -4.609  -4.952 -10.981  0.00  0.00    -0.488 OA
BRANCH  45  46
ATOM     46  C   LIG d   1      -5.384  -3.929 -10.355  0.00  0.00     0.079 C 
ATOM     47  H   LIG d   1      -5.158  -2.968 -10.817  0.00  0.00     0.066 H 
ATOM     48  H   LIG d   1      -6.444  -4.150 -10.475  0.00  0.00     0.066 H 
ATOM     49  H   LIG d   1      -5.141  -3.886  -9.293  0.00  0.00     0.066 H 
ENDBRANCH  45  46
ENDBRANCH  36  45
BRANCH  37  50
ATOM     50  O   LIG d   1      -3.699  -3.634 -13.220  0.00  0.00    -0.491 OA
BRANCH  50  51
ATOM     51  C   LIG d   1      -3.775  -4.414 -14.414  0.00  0.00     0.079 C 
ATOM     52  H   LIG d   1      -4.485  -5.228 -14.271  0.00  0.00     0.066 H 
ATOM     53  H   LIG d   1      -4.106  -3.784 -15.239  0.00  0.00     0.066 H 
ATOM     54  H   LIG d   1      -2.791  -4.825 -14.644  0.00  0.00     0.066 H 
ENDBRANCH  50  51
ENDBRANCH  37  50
ENDBRANCH  29  32
ENDBRANCH   9  29
BRANCH   1  55
ATOM     55  C   LIG d   1       2.806   1.156  -8.248  0.00  0.00    -0.033 C 
ATOM     56  H   LIG d   1       2.609   1.539  -7.247  0.00  0.00     0.028 H 
ATOM     57  H   LIG d   1       3.593   1.748  -8.716  0.00  0.00     0.028 H 
ATOM     58  H   LIG d   1       1.898   1.221  -8.848  0.00  0.00     0.028 H 
ENDBRANCH   1  55
TORSDOF 9
ENDMDL
