MODEL 1
REMARK VINA RESULT:      -8.2      0.000      0.000
REMARK  6 active torsions:
REMARK  status: ('A' for Active; 'I' for Inactive)
REMARK    1  A    between atoms: C_1  and  N_2 
REMARK    2  A    between atoms: C_15  and  C_17 
REMARK    3  A    between atoms: C_17  and  C_18 
REMARK    4  A    between atoms: C_18  and  C_20 
REMARK    5  A    between atoms: C_20  and  C_21 
REMARK    6  A    between atoms: N_35  and  C_36 
ROOT
ATOM      1  C   LIG d   1       4.429  -5.125  -6.336  0.00  0.00     0.141 C 
ATOM      2  O   LIG d   1       4.123  -5.791  -5.376  0.00  0.00    -0.297 OA
ENDROOT
BRANCH   1   3
ATOM      3  C   LIG d   1       3.453  -4.946  -7.470  0.00  0.00     0.055 C 
ATOM      4  H   LIG d   1       2.605  -4.353  -7.130  0.00  0.00     0.040 H 
ATOM      5  H   LIG d   1       3.104  -5.922  -7.805  0.00  0.00     0.040 H 
BRANCH   3   6
ATOM      6  C   LIG d   1       4.146  -4.228  -8.630  0.00  0.00     0.027 C 
ATOM      7  N   LIG d   1       3.698  -4.807  -9.907  0.00  0.00     0.240 N 
ATOM      8  C   LIG d   1       4.215  -4.017 -11.031  0.00  0.00    -0.027 C 
ATOM      9  H   LIG d   1       2.690  -4.807  -9.937  0.00  0.00     0.204 HD
ATOM     10  C   LIG d   1       3.464  -2.679 -11.107  0.00  0.00     0.015 C 
ATOM     11  H   LIG d   1       5.279  -3.828 -10.884  0.00  0.00     0.082 H 
ATOM     12  H   LIG d   1       4.070  -4.568 -11.960  0.00  0.00     0.082 H 
ATOM     13  C   LIG d   1       3.472  -2.068  -9.729  0.00  0.00    -0.009 A 
ATOM     14  H   LIG d   1       3.965  -2.014 -11.810  0.00  0.00     0.037 H 
ATOM     15  H   LIG d   1       2.437  -2.851 -11.429  0.00  0.00     0.037 H 
ATOM     16  C   LIG d   1       3.782  -2.763  -8.610  0.00  0.00     0.069 A 
ATOM     17  C   LIG d   1       3.177  -0.713  -9.322  0.00  0.00     0.004 A 
ATOM     18  N   LIG d   1       3.705  -1.941  -7.520  0.00  0.00    -0.353 N 
ATOM     19  C   LIG d   1       3.340  -0.685  -7.912  0.00  0.00     0.047 A 
ATOM     20  H   LIG d   1       3.883  -2.210  -6.605  0.00  0.00     0.166 HD
ATOM     21  C   LIG d   1       3.127   0.492  -7.197  0.00  0.00    -0.038 A 
ATOM     22  C   LIG d   1       2.758   1.610  -7.925  0.00  0.00    -0.060 A 
ATOM     23  H   LIG d   1       3.246   0.530  -6.125  0.00  0.00     0.064 H 
ATOM     24  C   LIG d   1       2.601   1.579  -9.300  0.00  0.00    -0.061 A 
ATOM     25  H   LIG d   1       2.586   2.539  -7.401  0.00  0.00     0.062 H 
ATOM     26  C   LIG d   1       2.802   0.434 -10.031  0.00  0.00    -0.052 A 
ATOM     27  H   LIG d   1       2.312   2.482  -9.815  0.00  0.00     0.062 H 
ATOM     28  H   LIG d   1       2.677   0.418 -11.104  0.00  0.00     0.062 H 
ATOM     29  H   LIG d   1       5.227  -4.338  -8.538  0.00  0.00     0.092 H 
BRANCH   7  30
ATOM     30  C   LIG d   1       4.190  -6.187 -10.015  0.00  0.00    -0.042 C 
ATOM     31  H   LIG d   1       5.057  -6.213 -10.676  0.00  0.00     0.078 H 
ATOM     32  H   LIG d   1       4.475  -6.549  -9.028  0.00  0.00     0.078 H 
ATOM     33  H   LIG d   1       3.404  -6.822 -10.422  0.00  0.00     0.078 H 
ENDBRANCH   7  30
ENDBRANCH   3   6
ENDBRANCH   1   3
BRANCH   1  34
ATOM     34  C   LIG d   1       5.786  -4.474  -6.398  0.00  0.00     0.027 C 
ATOM     35  H   LIG d   1       6.473  -5.117  -6.950  0.00  0.00     0.036 H 
ATOM     36  H   LIG d   1       5.705  -3.512  -6.904  0.00  0.00     0.036 H 
BRANCH  34  37
ATOM     37  C   LIG d   1       6.316  -4.261  -4.980  0.00  0.00     0.057 C 
ATOM     38  H   LIG d   1       6.135  -5.156  -4.383  0.00  0.00     0.053 H 
ATOM     39  N   LIG d   1       7.761  -3.982  -5.028  0.00  0.00    -0.296 N 
ATOM     40  C   LIG d   1       8.269  -3.567  -3.712  0.00  0.00     0.003 C 
ATOM     41  C   LIG d   1       7.755  -2.160  -3.380  0.00  0.00    -0.013 C 
ATOM     42  H   LIG d   1       9.359  -3.560  -3.730  0.00  0.00     0.043 H 
ATOM     43  H   LIG d   1       7.924  -4.269  -2.953  0.00  0.00     0.043 H 
ATOM     44  C   LIG d   1       6.268  -2.136  -3.631  0.00  0.00    -0.016 A 
ATOM     45  H   LIG d   1       8.248  -1.427  -4.020  0.00  0.00     0.033 H 
ATOM     46  H   LIG d   1       7.956  -1.931  -2.334  0.00  0.00     0.033 H 
ATOM     47  C   LIG d   1       5.617  -3.080  -4.348  0.00  0.00     0.038 A 
ATOM     48  C   LIG d   1       5.280  -1.175  -3.194  0.00  0.00     0.003 A 
ATOM     49  N   LIG d   1       4.281  -2.787  -4.395  0.00  0.00    -0.356 N 
ATOM     50  C   LIG d   1       4.038  -1.633  -3.705  0.00  0.00     0.047 A 
ATOM     51  H   LIG d   1       3.610  -3.317  -4.850  0.00  0.00     0.166 HD
ATOM     52  C   LIG d   1       2.864  -0.923  -3.461  0.00  0.00    -0.038 A 
ATOM     53  C   LIG d   1       2.976   0.232  -2.707  0.00  0.00    -0.060 A 
ATOM     54  H   LIG d   1       1.911  -1.258  -3.842  0.00  0.00     0.064 H 
ATOM     55  C   LIG d   1       4.190   0.675  -2.210  0.00  0.00    -0.061 A 
ATOM     56  H   LIG d   1       2.086   0.808  -2.500  0.00  0.00     0.062 H 
ATOM     57  C   LIG d   1       5.362  -0.004  -2.434  0.00  0.00    -0.052 A 
ATOM     58  H   LIG d   1       4.216   1.584  -1.627  0.00  0.00     0.062 H 
ATOM     59  H   LIG d   1       6.305   0.350  -2.042  0.00  0.00     0.062 H 
BRANCH  39  60
ATOM     60  C   LIG d   1       8.503  -5.140  -5.543  0.00  0.00    -0.012 C 
ATOM     61  H   LIG d   1       8.025  -5.504  -6.452  0.00  0.00     0.039 H 
ATOM     62  H   LIG d   1       9.529  -4.844  -5.765  0.00  0.00     0.039 H 
ATOM     63  H   LIG d   1       8.508  -5.932  -4.794  0.00  0.00     0.039 H 
ENDBRANCH  39  60
ENDBRANCH  34  37
ENDBRANCH   1  34
TORSDOF 6
ENDMDL
MODEL 2
REMARK VINA RESULT:      -8.1      0.075      5.898
REMARK  6 active torsions:
REMARK  status: ('A' for Active; 'I' for Inactive)
REMARK    1  A    between atoms: C_1  and  N_2 
REMARK    2  A    between atoms: C_15  and  C_17 
REMARK    3  A    between atoms: C_17  and  C_18 
REMARK    4  A    between atoms: C_18  and  C_20 
REMARK    5  A    between atoms: C_20  and  C_21 
REMARK    6  A    between atoms: N_35  and  C_36 
ROOT
ATOM      1  C   LIG d   1       4.409  -5.162  -6.317  0.00  0.00     0.141 C 
ATOM      2  O   LIG d   1       4.124  -5.830  -5.352  0.00  0.00    -0.297 OA
ENDROOT
BRANCH   1   3
ATOM      3  C   LIG d   1       5.762  -4.503  -6.402  0.00  0.00     0.055 C 
ATOM      4  H   LIG d   1       5.669  -3.547  -6.918  0.00  0.00     0.040 H 
ATOM      5  H   LIG d   1       6.445  -5.148  -6.954  0.00  0.00     0.040 H 
BRANCH   3   6
ATOM      6  C   LIG d   1       6.307  -4.271  -4.992  0.00  0.00     0.027 C 
ATOM      7  N   LIG d   1       7.747  -3.978  -5.061  0.00  0.00     0.240 N 
ATOM      8  C   LIG d   1       8.248  -3.581  -3.739  0.00  0.00    -0.027 C 
ATOM      9  H   LIG d   1       7.903  -3.226  -5.715  0.00  0.00     0.204 HD
ATOM     10  C   LIG d   1       7.741  -2.172  -3.400  0.00  0.00     0.015 C 
ATOM     11  H   LIG d   1       7.891  -4.287  -2.989  0.00  0.00     0.082 H 
ATOM     12  H   LIG d   1       9.338  -3.583  -3.748  0.00  0.00     0.082 H 
ATOM     13  C   LIG d   1       6.254  -2.146  -3.647  0.00  0.00    -0.009 A 
ATOM     14  H   LIG d   1       7.946  -1.949  -2.353  0.00  0.00     0.037 H 
ATOM     15  H   LIG d   1       8.234  -1.439  -4.038  0.00  0.00     0.037 H 
ATOM     16  C   LIG d   1       5.604  -3.093  -4.363  0.00  0.00     0.069 A 
ATOM     17  C   LIG d   1       5.266  -1.186  -3.212  0.00  0.00     0.004 A 
ATOM     18  N   LIG d   1       4.269  -2.800  -4.411  0.00  0.00    -0.353 N 
ATOM     19  C   LIG d   1       4.023  -1.646  -3.723  0.00  0.00     0.047 A 
ATOM     20  H   LIG d   1       3.597  -3.331  -4.867  0.00  0.00     0.166 HD
ATOM     21  C   LIG d   1       2.850  -0.935  -3.479  0.00  0.00    -0.038 A 
ATOM     22  C   LIG d   1       2.961   0.220  -2.726  0.00  0.00    -0.060 A 
ATOM     23  H   LIG d   1       1.897  -1.272  -3.860  0.00  0.00     0.064 H 
ATOM     24  C   LIG d   1       4.175   0.666  -2.229  0.00  0.00    -0.061 A 
ATOM     25  H   LIG d   1       2.070   0.794  -2.517  0.00  0.00     0.062 H 
ATOM     26  C   LIG d   1       5.347  -0.013  -2.454  0.00  0.00    -0.052 A 
ATOM     27  H   LIG d   1       4.201   1.574  -1.647  0.00  0.00     0.062 H 
ATOM     28  H   LIG d   1       6.290   0.343  -2.063  0.00  0.00     0.062 H 
ATOM     29  H   LIG d   1       6.144  -5.162  -4.384  0.00  0.00     0.092 H 
BRANCH   7  30
ATOM     30  C   LIG d   1       8.467  -5.176  -5.515  0.00  0.00    -0.042 C 
ATOM     31  H   LIG d   1       7.786  -5.819  -6.074  0.00  0.00     0.078 H 
ATOM     32  H   LIG d   1       9.296  -4.880  -6.157  0.00  0.00     0.078 H 
ATOM     33  H   LIG d   1       8.851  -5.717  -4.652  0.00  0.00     0.078 H 
ENDBRANCH   7  30
ENDBRANCH   3   6
ENDBRANCH   1   3
BRANCH   1  34
ATOM     34  C   LIG d   1       3.413  -4.988  -7.434  0.00  0.00     0.027 C 
ATOM     35  H   LIG d   1       3.050  -5.966  -7.752  0.00  0.00     0.036 H 
ATOM     36  H   LIG d   1       2.575  -4.386  -7.083  0.00  0.00     0.036 H 
BRANCH  34  37
ATOM     37  C   LIG d   1       4.087  -4.286  -8.614  0.00  0.00     0.057 C 
ATOM     38  H   LIG d   1       5.168  -4.404  -8.542  0.00  0.00     0.053 H 
ATOM     39  N   LIG d   1       3.607  -4.871  -9.877  0.00  0.00    -0.296 N 
ATOM     40  C   LIG d   1       4.067  -4.092 -11.035  0.00  0.00     0.003 C 
ATOM     41  C   LIG d   1       3.323  -2.752 -11.085  0.00  0.00    -0.013 C 
ATOM     42  H   LIG d   1       3.869  -4.651 -11.950  0.00  0.00     0.043 H 
ATOM     43  H   LIG d   1       5.138  -3.910 -10.947  0.00  0.00     0.043 H 
ATOM     44  C   LIG d   1       3.391  -2.130  -9.712  0.00  0.00    -0.016 A 
ATOM     45  H   LIG d   1       2.282  -2.918 -11.362  0.00  0.00     0.033 H 
ATOM     46  H   LIG d   1       3.797  -2.092 -11.811  0.00  0.00     0.033 H 
ATOM     47  C   LIG d   1       3.735  -2.817  -8.599  0.00  0.00     0.038 A 
ATOM     48  C   LIG d   1       3.125  -0.768  -9.309  0.00  0.00     0.003 A 
ATOM     49  N   LIG d   1       3.709  -1.983  -7.514  0.00  0.00    -0.356 N 
ATOM     50  C   LIG d   1       3.341  -0.728  -7.907  0.00  0.00     0.047 A 
ATOM     51  H   LIG d   1       3.920  -2.244  -6.605  0.00  0.00     0.166 HD
ATOM     52  C   LIG d   1       3.167   0.458  -7.195  0.00  0.00    -0.038 A 
ATOM     53  C   LIG d   1       2.779   1.572  -7.919  0.00  0.00    -0.060 A 
ATOM     54  H   LIG d   1       3.327   0.506  -6.128  0.00  0.00     0.064 H 
ATOM     55  C   LIG d   1       2.569   1.528  -9.287  0.00  0.00    -0.061 A 
ATOM     56  H   LIG d   1       2.634   2.508  -7.398  0.00  0.00     0.062 H 
ATOM     57  C   LIG d   1       2.733   0.375 -10.014  0.00  0.00    -0.052 A 
ATOM     58  H   LIG d   1       2.268   2.430  -9.799  0.00  0.00     0.062 H 
ATOM     59  H   LIG d   1       2.568   0.351 -11.081  0.00  0.00     0.062 H 
BRANCH  39  60
ATOM     60  C   LIG d   1       4.010  -6.280  -9.990  0.00  0.00    -0.012 C 
ATOM     61  H   LIG d   1       5.016  -6.403  -9.592  0.00  0.00     0.039 H 
ATOM     62  H   LIG d   1       3.316  -6.902  -9.424  0.00  0.00     0.039 H 
ATOM     63  H   LIG d   1       3.994  -6.579 -11.037  0.00  0.00     0.039 H 
ENDBRANCH  39  60
ENDBRANCH  34  37
ENDBRANCH   1  34
TORSDOF 6
ENDMDL
MODEL 3
REMARK VINA RESULT:      -8.0      6.929      9.409
REMARK  6 active torsions:
REMARK  status: ('A' for Active; 'I' for Inactive)
REMARK    1  A    between atoms: C_1  and  N_2 
REMARK    2  A    between atoms: C_15  and  C_17 
REMARK    3  A    between atoms: C_17  and  C_18 
REMARK    4  A    between atoms: C_18  and  C_20 
REMARK    5  A    between atoms: C_20  and  C_21 
REMARK    6  A    between atoms: N_35  and  C_36 
ROOT
ATOM      1  C   LIG d   1       9.892   3.239  -4.985  0.00  0.00     0.141 C 
ATOM      2  O   LIG d   1      10.463   3.204  -6.049  0.00  0.00    -0.297 OA
ENDROOT
BRANCH   1   3
ATOM      3  C   LIG d   1       9.848   2.011  -4.113  0.00  0.00     0.055 C 
ATOM      4  H   LIG d   1       9.329   2.243  -3.184  0.00  0.00     0.040 H 
ATOM      5  H   LIG d   1      10.865   1.689  -3.891  0.00  0.00     0.040 H 
BRANCH   3   6
ATOM      6  C   LIG d   1       9.108   0.891  -4.846  0.00  0.00     0.027 C 
ATOM      7  N   LIG d   1       9.918  -0.337  -4.817  0.00  0.00     0.240 N 
ATOM      8  C   LIG d   1       9.149  -1.465  -5.360  0.00  0.00    -0.027 C 
ATOM      9  H   LIG d   1      10.181  -0.541  -3.866  0.00  0.00     0.204 HD
ATOM     10  C   LIG d   1       8.067  -1.879  -4.352  0.00  0.00     0.015 C 
ATOM     11  H   LIG d   1       8.679  -1.166  -6.297  0.00  0.00     0.082 H 
ATOM     12  H   LIG d   1       9.818  -2.306  -5.542  0.00  0.00     0.082 H 
ATOM     13  C   LIG d   1       7.327  -0.634  -3.934  0.00  0.00    -0.009 A 
ATOM     14  H   LIG d   1       7.376  -2.580  -4.821  0.00  0.00     0.037 H 
ATOM     15  H   LIG d   1       8.531  -2.343  -3.482  0.00  0.00     0.037 H 
ATOM     16  C   LIG d   1       7.793   0.617  -4.157  0.00  0.00     0.069 A 
ATOM     17  C   LIG d   1       6.057  -0.503  -3.256  0.00  0.00     0.004 A 
ATOM     18  N   LIG d   1       6.904   1.534  -3.668  0.00  0.00    -0.353 N 
ATOM     19  C   LIG d   1       5.834   0.892  -3.112  0.00  0.00     0.047 A 
ATOM     20  H   LIG d   1       7.017   2.497  -3.710  0.00  0.00     0.166 HD
ATOM     21  C   LIG d   1       4.681   1.365  -2.490  0.00  0.00    -0.038 A 
ATOM     22  C   LIG d   1       3.782   0.419  -2.031  0.00  0.00    -0.060 A 
ATOM     23  H   LIG d   1       4.497   2.422  -2.373  0.00  0.00     0.064 H 
ATOM     24  C   LIG d   1       4.003  -0.941  -2.174  0.00  0.00    -0.061 A 
ATOM     25  H   LIG d   1       2.877   0.751  -1.546  0.00  0.00     0.062 H 
ATOM     26  C   LIG d   1       5.130  -1.436  -2.782  0.00  0.00    -0.052 A 
ATOM     27  H   LIG d   1       3.266  -1.633  -1.797  0.00  0.00     0.062 H 
ATOM     28  H   LIG d   1       5.294  -2.499  -2.889  0.00  0.00     0.062 H 
ATOM     29  H   LIG d   1       8.925   1.186  -5.880  0.00  0.00     0.092 H 
BRANCH   7  30
ATOM     30  C   LIG d   1      11.129  -0.140  -5.627  0.00  0.00    -0.042 C 
ATOM     31  H   LIG d   1      11.958   0.144  -4.977  0.00  0.00     0.078 H 
ATOM     32  H   LIG d   1      11.375  -1.067  -6.144  0.00  0.00     0.078 H 
ATOM     33  H   LIG d   1      10.953   0.649  -6.357  0.00  0.00     0.078 H 
ENDBRANCH   7  30
ENDBRANCH   3   6
ENDBRANCH   1   3
BRANCH   1  34
ATOM     34  C   LIG d   1       9.223   4.511  -4.532  0.00  0.00     0.027 C 
ATOM     35  H   LIG d   1       8.453   4.793  -5.251  0.00  0.00     0.036 H 
ATOM     36  H   LIG d   1       8.767   4.353  -3.555  0.00  0.00     0.036 H 
BRANCH  34  37
ATOM     37  C   LIG d   1      10.263   5.628  -4.435  0.00  0.00     0.057 C 
ATOM     38  H   LIG d   1      11.202   5.295  -4.879  0.00  0.00     0.053 H 
ATOM     39  N   LIG d   1       9.776   6.821  -5.145  0.00  0.00    -0.296 N 
ATOM     40  C   LIG d   1      10.646   7.981  -4.902  0.00  0.00     0.003 C 
ATOM     41  C   LIG d   1      10.471   8.464  -3.456  0.00  0.00    -0.013 C 
ATOM     42  H   LIG d   1      10.379   8.785  -5.588  0.00  0.00     0.043 H 
ATOM     43  H   LIG d   1      11.685   7.695  -5.067  0.00  0.00     0.043 H 
ATOM     44  C   LIG d   1      10.579   7.265  -2.548  0.00  0.00    -0.016 A 
ATOM     45  H   LIG d   1       9.491   8.927  -3.339  0.00  0.00     0.033 H 
ATOM     46  H   LIG d   1      11.251   9.184  -3.211  0.00  0.00     0.033 H 
ATOM     47  C   LIG d   1      10.488   5.988  -2.985  0.00  0.00     0.038 A 
ATOM     48  C   LIG d   1      10.790   7.214  -1.119  0.00  0.00     0.003 A 
ATOM     49  N   LIG d   1      10.629   5.127  -1.930  0.00  0.00    -0.356 N 
ATOM     50  C   LIG d   1      10.813   5.836  -0.778  0.00  0.00     0.047 A 
ATOM     51  H   LIG d   1      10.602   4.160  -1.993  0.00  0.00     0.166 HD
ATOM     52  C   LIG d   1      11.000   5.435   0.543  0.00  0.00    -0.038 A 
ATOM     53  C   LIG d   1      11.159   6.436   1.486  0.00  0.00    -0.060 A 
ATOM     54  H   LIG d   1      11.021   4.391   0.820  0.00  0.00     0.064 H 
ATOM     55  C   LIG d   1      11.136   7.779   1.148  0.00  0.00    -0.061 A 
ATOM     56  H   LIG d   1      11.305   6.161   2.521  0.00  0.00     0.062 H 
ATOM     57  C   LIG d   1      10.953   8.204  -0.145  0.00  0.00    -0.052 A 
ATOM     58  H   LIG d   1      11.265   8.516   1.927  0.00  0.00     0.062 H 
ATOM     59  H   LIG d   1      10.937   9.253  -0.398  0.00  0.00     0.062 H 
BRANCH  39  60
ATOM     60  C   LIG d   1       9.634   6.556  -6.583  0.00  0.00    -0.012 C 
ATOM     61  H   LIG d   1       8.741   5.956  -6.756  0.00  0.00     0.039 H 
ATOM     62  H   LIG d   1       9.547   7.501  -7.120  0.00  0.00     0.039 H 
ATOM     63  H   LIG d   1      10.509   6.014  -6.941  0.00  0.00     0.039 H 
ENDBRANCH  39  60
ENDBRANCH  34  37
ENDBRANCH   1  34
TORSDOF 6
ENDMDL
MODEL 4
REMARK VINA RESULT:      -7.9      7.298     10.424
REMARK  6 active torsions:
REMARK  status: ('A' for Active; 'I' for Inactive)
REMARK    1  A    between atoms: C_1  and  N_2 
REMARK    2  A    between atoms: C_15  and  C_17 
REMARK    3  A    between atoms: C_17  and  C_18 
REMARK    4  A    between atoms: C_18  and  C_20 
REMARK    5  A    between atoms: C_20  and  C_21 
REMARK    6  A    between atoms: N_35  and  C_36 
ROOT
ATOM      1  C   LIG d   1       9.454   4.204  -5.067  0.00  0.00     0.141 C 
ATOM      2  O   LIG d   1       9.819   4.287  -6.215  0.00  0.00    -0.297 OA
ENDROOT
BRANCH   1   3
ATOM      3  C   LIG d   1       8.845   5.401  -4.383  0.00  0.00     0.055 C 
ATOM      4  H   LIG d   1       8.459   5.106  -3.407  0.00  0.00     0.040 H 
ATOM      5  H   LIG d   1       8.031   5.792  -4.993  0.00  0.00     0.040 H 
BRANCH   3   6
ATOM      6  C   LIG d   1       9.912   6.483  -4.204  0.00  0.00     0.027 C 
ATOM      7  N   LIG d   1       9.398   7.769  -4.701  0.00  0.00     0.240 N 
ATOM      8  C   LIG d   1      10.339   8.851  -4.377  0.00  0.00    -0.027 C 
ATOM      9  H   LIG d   1       8.508   7.963  -4.269  0.00  0.00     0.204 HD
ATOM     10  C   LIG d   1      10.281   9.145  -2.871  0.00  0.00     0.015 C 
ATOM     11  H   LIG d   1      11.349   8.546  -4.650  0.00  0.00     0.082 H 
ATOM     12  H   LIG d   1      10.067   9.747  -4.934  0.00  0.00     0.082 H 
ATOM     13  C   LIG d   1      10.408   7.833  -2.140  0.00  0.00    -0.009 A 
ATOM     14  H   LIG d   1      11.103   9.805  -2.593  0.00  0.00     0.037 H 
ATOM     15  H   LIG d   1       9.330   9.616  -2.624  0.00  0.00     0.037 H 
ATOM     16  C   LIG d   1      10.244   6.631  -2.739  0.00  0.00     0.069 A 
ATOM     17  C   LIG d   1      10.709   7.581  -0.749  0.00  0.00     0.004 A 
ATOM     18  N   LIG d   1      10.423   5.631  -1.823  0.00  0.00    -0.353 N 
ATOM     19  C   LIG d   1      10.707   6.169  -0.600  0.00  0.00     0.047 A 
ATOM     20  H   LIG d   1      10.356   4.682  -2.013  0.00  0.00     0.166 HD
ATOM     21  C   LIG d   1      10.966   5.587   0.640  0.00  0.00    -0.038 A 
ATOM     22  C   LIG d   1      11.222   6.445   1.694  0.00  0.00    -0.060 A 
ATOM     23  H   LIG d   1      10.968   4.515   0.769  0.00  0.00     0.064 H 
ATOM     24  C   LIG d   1      11.224   7.822   1.544  0.00  0.00    -0.061 A 
ATOM     25  H   LIG d   1      11.429   6.026   2.668  0.00  0.00     0.062 H 
ATOM     26  C   LIG d   1      10.971   8.423   0.336  0.00  0.00    -0.052 A 
ATOM     27  H   LIG d   1      11.431   8.441   2.403  0.00  0.00     0.062 H 
ATOM     28  H   LIG d   1      10.974   9.499   0.229  0.00  0.00     0.062 H 
ATOM     29  H   LIG d   1      10.811   6.209  -4.758  0.00  0.00     0.092 H 
BRANCH   7  30
ATOM     30  C   LIG d   1       9.227   7.694  -6.159  0.00  0.00    -0.042 C 
ATOM     31  H   LIG d   1       8.225   8.032  -6.425  0.00  0.00     0.078 H 
ATOM     32  H   LIG d   1       9.965   8.332  -6.644  0.00  0.00     0.078 H 
ATOM     33  H   LIG d   1       9.363   6.665  -6.488  0.00  0.00     0.078 H 
ENDBRANCH   7  30
ENDBRANCH   3   6
ENDBRANCH   1   3
BRANCH   1  34
ATOM     34  C   LIG d   1       9.607   2.905  -4.319  0.00  0.00     0.027 C 
ATOM     35  H   LIG d   1      10.667   2.701  -4.160  0.00  0.00     0.036 H 
ATOM     36  H   LIG d   1       9.104   2.979  -3.355  0.00  0.00     0.036 H 
BRANCH  34  37
ATOM     37  C   LIG d   1       8.985   1.771  -5.134  0.00  0.00     0.057 C 
ATOM     38  H   LIG d   1       8.626   2.158  -6.088  0.00  0.00     0.053 H 
ATOM     39  N   LIG d   1       9.992   0.724  -5.373  0.00  0.00    -0.296 N 
ATOM     40  C   LIG d   1       9.386  -0.475  -5.970  0.00  0.00     0.003 C 
ATOM     41  C   LIG d   1       8.525  -1.194  -4.923  0.00  0.00    -0.013 C 
ATOM     42  H   LIG d   1      10.173  -1.146  -6.315  0.00  0.00     0.043 H 
ATOM     43  H   LIG d   1       8.763  -0.183  -6.815  0.00  0.00     0.043 H 
ATOM     44  C   LIG d   1       7.631  -0.168  -4.272  0.00  0.00    -0.016 A 
ATOM     45  H   LIG d   1       9.166  -1.653  -4.170  0.00  0.00     0.033 H 
ATOM     46  H   LIG d   1       7.917  -1.958  -5.406  0.00  0.00     0.033 H 
ATOM     47  C   LIG d   1       7.833   1.165  -4.366  0.00  0.00     0.038 A 
ATOM     48  C   LIG d   1       6.447  -0.364  -3.466  0.00  0.00     0.003 A 
ATOM     49  N   LIG d   1       6.858   1.832  -3.676  0.00  0.00    -0.356 N 
ATOM     50  C   LIG d   1       5.996   0.934  -3.113  0.00  0.00     0.047 A 
ATOM     51  H   LIG d   1       6.789   2.796  -3.598  0.00  0.00     0.166 HD
ATOM     52  C   LIG d   1       4.859   1.102  -2.325  0.00  0.00    -0.038 A 
ATOM     53  C   LIG d   1       4.207  -0.048  -1.914  0.00  0.00    -0.060 A 
ATOM     54  H   LIG d   1       4.502   2.083  -2.049  0.00  0.00     0.064 H 
ATOM     55  C   LIG d   1       4.650  -1.313  -2.260  0.00  0.00    -0.061 A 
ATOM     56  H   LIG d   1       3.322   0.046  -1.301  0.00  0.00     0.062 H 
ATOM     57  C   LIG d   1       5.767  -1.508  -3.035  0.00  0.00    -0.052 A 
ATOM     58  H   LIG d   1       4.100  -2.174  -1.911  0.00  0.00     0.062 H 
ATOM     59  H   LIG d   1       6.104  -2.499  -3.301  0.00  0.00     0.062 H 
BRANCH  39  60
ATOM     60  C   LIG d   1      11.092   1.232  -6.204  0.00  0.00    -0.012 C 
ATOM     61  H   LIG d   1      11.584   0.400  -6.706  0.00  0.00     0.039 H 
ATOM     62  H   LIG d   1      10.696   1.924  -6.948  0.00  0.00     0.039 H 
ATOM     63  H   LIG d   1      11.813   1.752  -5.573  0.00  0.00     0.039 H 
ENDBRANCH  39  60
ENDBRANCH  34  37
ENDBRANCH   1  34
TORSDOF 6
ENDMDL
MODEL 5
REMARK VINA RESULT:      -7.7      7.229      9.772
REMARK  6 active torsions:
REMARK  status: ('A' for Active; 'I' for Inactive)
REMARK    1  A    between atoms: C_1  and  N_2 
REMARK    2  A    between atoms: C_15  and  C_17 
REMARK    3  A    between atoms: C_17  and  C_18 
REMARK    4  A    between atoms: C_18  and  C_20 
REMARK    5  A    between atoms: C_20  and  C_21 
REMARK    6  A    between atoms: N_35  and  C_36 
ROOT
ATOM      1  C   LIG d   1       9.568   3.556  -4.165  0.00  0.00     0.141 C 
ATOM      2  O   LIG d   1       8.796   3.825  -5.055  0.00  0.00    -0.297 OA
ENDROOT
BRANCH   1   3
ATOM      3  C   LIG d   1       9.496   2.212  -3.488  0.00  0.00     0.055 C 
ATOM      4  H   LIG d   1       8.872   2.286  -2.598  0.00  0.00     0.040 H 
ATOM      5  H   LIG d   1      10.500   1.896  -3.203  0.00  0.00     0.040 H 
BRANCH   3   6
ATOM      6  C   LIG d   1       8.894   1.187  -4.450  0.00  0.00     0.027 C 
ATOM      7  N   LIG d   1       9.778   0.014  -4.539  0.00  0.00     0.240 N 
ATOM      8  C   LIG d   1       9.133  -1.051  -5.318  0.00  0.00    -0.027 C 
ATOM      9  H   LIG d   1       9.975  -0.327  -3.611  0.00  0.00     0.204 HD
ATOM     10  C   LIG d   1       8.001  -1.677  -4.491  0.00  0.00     0.015 C 
ATOM     11  H   LIG d   1       8.722  -0.630  -6.237  0.00  0.00     0.082 H 
ATOM     12  H   LIG d   1       9.868  -1.815  -5.566  0.00  0.00     0.082 H 
ATOM     13  C   LIG d   1       7.148  -0.555  -3.954  0.00  0.00    -0.009 A 
ATOM     14  H   LIG d   1       7.398  -2.328  -5.124  0.00  0.00     0.037 H 
ATOM     15  H   LIG d   1       8.421  -2.249  -3.665  0.00  0.00     0.037 H 
ATOM     16  C   LIG d   1       7.548   0.738  -3.936  0.00  0.00     0.069 A 
ATOM     17  C   LIG d   1       5.821  -0.600  -3.384  0.00  0.00     0.004 A 
ATOM     18  N   LIG d   1       6.563   1.517  -3.395  0.00  0.00    -0.353 N 
ATOM     19  C   LIG d   1       5.496   0.740  -3.045  0.00  0.00     0.047 A 
ATOM     20  H   LIG d   1       6.615   2.479  -3.276  0.00  0.00     0.166 HD
ATOM     21  C   LIG d   1       4.266   1.046  -2.466  0.00  0.00    -0.038 A 
ATOM     22  C   LIG d   1       3.398  -0.007  -2.244  0.00  0.00    -0.060 A 
ATOM     23  H   LIG d   1       4.005   2.060  -2.203  0.00  0.00     0.064 H 
ATOM     24  C   LIG d   1       3.718  -1.313  -2.576  0.00  0.00    -0.061 A 
ATOM     25  H   LIG d   1       2.435   0.196  -1.798  0.00  0.00     0.062 H 
ATOM     26  C   LIG d   1       4.922  -1.645  -3.147  0.00  0.00    -0.052 A 
ATOM     27  H   LIG d   1       3.000  -2.094  -2.380  0.00  0.00     0.062 H 
ATOM     28  H   LIG d   1       5.164  -2.667  -3.402  0.00  0.00     0.062 H 
ATOM     29  H   LIG d   1       8.779   1.634  -5.439  0.00  0.00     0.092 H 
BRANCH   7  30
ATOM     30  C   LIG d   1      11.036   0.401  -5.193  0.00  0.00    -0.042 C 
ATOM     31  H   LIG d   1      10.845   1.212  -5.897  0.00  0.00     0.078 H 
ATOM     32  H   LIG d   1      11.749   0.735  -4.440  0.00  0.00     0.078 H 
ATOM     33  H   LIG d   1      11.446  -0.455  -5.728  0.00  0.00     0.078 H 
ENDBRANCH   7  30
ENDBRANCH   3   6
ENDBRANCH   1   3
BRANCH   1  34
ATOM     34  C   LIG d   1      10.600   4.565  -3.733  0.00  0.00     0.027 C 
ATOM     35  H   LIG d   1      11.208   4.142  -2.933  0.00  0.00     0.036 H 
ATOM     36  H   LIG d   1      11.239   4.817  -4.580  0.00  0.00     0.036 H 
BRANCH  34  37
ATOM     37  C   LIG d   1       9.900   5.828  -3.229  0.00  0.00     0.057 C 
ATOM     38  H   LIG d   1       8.888   5.582  -2.906  0.00  0.00     0.053 H 
ATOM     39  N   LIG d   1      10.656   6.395  -2.101  0.00  0.00    -0.296 N 
ATOM     40  C   LIG d   1      10.137   7.717  -1.721  0.00  0.00     0.003 C 
ATOM     41  C   LIG d   1      10.499   8.744  -2.803  0.00  0.00    -0.013 C 
ATOM     42  H   LIG d   1      10.579   8.021  -0.771  0.00  0.00     0.043 H 
ATOM     43  H   LIG d   1       9.054   7.665  -1.617  0.00  0.00     0.043 H 
ATOM     44  C   LIG d   1      10.115   8.164  -4.141  0.00  0.00    -0.016 A 
ATOM     45  H   LIG d   1      11.571   8.941  -2.781  0.00  0.00     0.033 H 
ATOM     46  H   LIG d   1       9.950   9.669  -2.631  0.00  0.00     0.033 H 
ATOM     47  C   LIG d   1       9.843   6.854  -4.336  0.00  0.00     0.038 A 
ATOM     48  C   LIG d   1       9.961   8.827  -5.417  0.00  0.00     0.003 A 
ATOM     49  N   LIG d   1       9.525   6.637  -5.650  0.00  0.00    -0.356 N 
ATOM     50  C   LIG d   1       9.587   7.815  -6.339  0.00  0.00     0.047 A 
ATOM     51  H   LIG d   1       9.291   5.778  -6.033  0.00  0.00     0.166 HD
ATOM     52  C   LIG d   1       9.359   8.124  -7.678  0.00  0.00    -0.038 A 
ATOM     53  C   LIG d   1       9.514   9.448  -8.051  0.00  0.00    -0.060 A 
ATOM     54  H   LIG d   1       9.073   7.366  -8.393  0.00  0.00     0.064 H 
ATOM     55  C   LIG d   1       9.879  10.432  -7.148  0.00  0.00    -0.061 A 
ATOM     56  H   LIG d   1       9.346   9.722  -9.083  0.00  0.00     0.062 H 
ATOM     57  C   LIG d   1      10.111  10.157  -5.823  0.00  0.00    -0.052 A 
ATOM     58  H   LIG d   1       9.985  11.449  -7.497  0.00  0.00     0.062 H 
ATOM     59  H   LIG d   1      10.395  10.931  -5.126  0.00  0.00     0.062 H 
BRANCH  39  60
ATOM     60  C   LIG d   1      10.658   5.476  -0.954  0.00  0.00    -0.012 C 
ATOM     61  H   LIG d   1      10.429   6.029  -0.044  0.00  0.00     0.039 H 
ATOM     62  H   LIG d   1       9.907   4.701  -1.109  0.00  0.00     0.039 H 
ATOM     63  H   LIG d   1      11.641   5.015  -0.860  0.00  0.00     0.039 H 
ENDBRANCH  39  60
ENDBRANCH  34  37
ENDBRANCH   1  34
TORSDOF 6
ENDMDL
MODEL 6
REMARK VINA RESULT:      -7.6      5.986      8.453
REMARK  6 active torsions:
REMARK  status: ('A' for Active; 'I' for Inactive)
REMARK    1  A    between atoms: C_1  and  N_2 
REMARK    2  A    between atoms: C_15  and  C_17 
REMARK    3  A    between atoms: C_17  and  C_18 
REMARK    4  A    between atoms: C_18  and  C_20 
REMARK    5  A    between atoms: C_20  and  C_21 
REMARK    6  A    between atoms: N_35  and  C_36 
ROOT
ATOM      1  C   LIG d   1      10.299   1.226  -5.997  0.00  0.00     0.141 C 
ATOM      2  O   LIG d   1       9.784   1.195  -7.089  0.00  0.00    -0.297 OA
ENDROOT
BRANCH   1   3
ATOM      3  C   LIG d   1      10.195   0.034  -5.081  0.00  0.00     0.055 C 
ATOM      4  H   LIG d   1      10.025   0.374  -4.060  0.00  0.00     0.040 H 
ATOM      5  H   LIG d   1      11.121  -0.538  -5.125  0.00  0.00     0.040 H 
BRANCH   3   6
ATOM      6  C   LIG d   1       9.029  -0.850  -5.526  0.00  0.00     0.027 C 
ATOM      7  N   LIG d   1       9.428  -2.265  -5.457  0.00  0.00     0.240 N 
ATOM      8  C   LIG d   1       8.270  -3.132  -5.710  0.00  0.00    -0.027 C 
ATOM      9  H   LIG d   1       9.796  -2.463  -4.539  0.00  0.00     0.204 HD
ATOM     10  C   LIG d   1       7.328  -3.097  -4.497  0.00  0.00     0.015 C 
ATOM     11  H   LIG d   1       7.738  -2.778  -6.594  0.00  0.00     0.082 H 
ATOM     12  H   LIG d   1       8.610  -4.153  -5.877  0.00  0.00     0.082 H 
ATOM     13  C   LIG d   1       7.086  -1.651  -4.144  0.00  0.00    -0.009 A 
ATOM     14  H   LIG d   1       6.384  -3.579  -4.750  0.00  0.00     0.037 H 
ATOM     15  H   LIG d   1       7.792  -3.610  -3.655  0.00  0.00     0.037 H 
ATOM     16  C   LIG d   1       7.850  -0.636  -4.608  0.00  0.00     0.069 A 
ATOM     17  C   LIG d   1       6.068  -1.069  -3.300  0.00  0.00     0.004 A 
ATOM     18  N   LIG d   1       7.385   0.553  -4.117  0.00  0.00    -0.353 N 
ATOM     19  C   LIG d   1       6.301   0.331  -3.316  0.00  0.00     0.047 A 
ATOM     20  H   LIG d   1       7.768   1.424  -4.309  0.00  0.00     0.166 HD
ATOM     21  C   LIG d   1       5.482   1.195  -2.592  0.00  0.00    -0.038 A 
ATOM     22  C   LIG d   1       4.449   0.623  -1.871  0.00  0.00    -0.060 A 
ATOM     23  H   LIG d   1       5.647   2.262  -2.594  0.00  0.00     0.064 H 
ATOM     24  C   LIG d   1       4.224  -0.744  -1.858  0.00  0.00    -0.061 A 
ATOM     25  H   LIG d   1       3.794   1.265  -1.299  0.00  0.00     0.062 H 
ATOM     26  C   LIG d   1       5.015  -1.619  -2.561  0.00  0.00    -0.052 A 
ATOM     27  H   LIG d   1       3.403  -1.133  -1.277  0.00  0.00     0.062 H 
ATOM     28  H   LIG d   1       4.832  -2.684  -2.544  0.00  0.00     0.062 H 
ATOM     29  H   LIG d   1       8.746  -0.599  -6.550  0.00  0.00     0.092 H 
BRANCH   7  30
ATOM     30  C   LIG d   1      10.463  -2.529  -6.466  0.00  0.00    -0.042 C 
ATOM     31  H   LIG d   1      10.549  -3.605  -6.624  0.00  0.00     0.078 H 
ATOM     32  H   LIG d   1      10.189  -2.045  -7.402  0.00  0.00     0.078 H 
ATOM     33  H   LIG d   1      11.417  -2.135  -6.118  0.00  0.00     0.078 H 
ENDBRANCH   7  30
ENDBRANCH   3   6
ENDBRANCH   1   3
BRANCH   1  34
ATOM     34  C   LIG d   1      11.045   2.458  -5.551  0.00  0.00     0.027 C 
ATOM     35  H   LIG d   1      11.791   2.180  -4.805  0.00  0.00     0.036 H 
ATOM     36  H   LIG d   1      11.541   2.912  -6.408  0.00  0.00     0.036 H 
BRANCH  34  37
ATOM     37  C   LIG d   1      10.061   3.457  -4.941  0.00  0.00     0.057 C 
ATOM     38  H   LIG d   1       9.102   2.969  -4.768  0.00  0.00     0.053 H 
ATOM     39  N   LIG d   1      10.597   3.964  -3.667  0.00  0.00    -0.296 N 
ATOM     40  C   LIG d   1       9.787   5.077  -3.152  0.00  0.00     0.003 C 
ATOM     41  C   LIG d   1      10.004   6.320  -4.024  0.00  0.00    -0.013 C 
ATOM     42  H   LIG d   1      10.084   5.297  -2.126  0.00  0.00     0.043 H 
ATOM     43  H   LIG d   1       8.733   4.798  -3.172  0.00  0.00     0.043 H 
ATOM     44  C   LIG d   1       9.850   5.910  -5.467  0.00  0.00    -0.016 A 
ATOM     45  H   LIG d   1      11.007   6.716  -3.859  0.00  0.00     0.033 H 
ATOM     46  H   LIG d   1       9.263   7.080  -3.775  0.00  0.00     0.033 H 
ATOM     47  C   LIG d   1       9.873   4.624  -5.883  0.00  0.00     0.038 A 
ATOM     48  C   LIG d   1       9.655   6.735  -6.638  0.00  0.00     0.003 A 
ATOM     49  N   LIG d   1       9.705   4.573  -7.240  0.00  0.00    -0.356 N 
ATOM     50  C   LIG d   1       9.570   5.839  -7.735  0.00  0.00     0.047 A 
ATOM     51  H   LIG d   1       9.684   3.761  -7.770  0.00  0.00     0.166 HD
ATOM     52  C   LIG d   1       9.381   6.317  -9.031  0.00  0.00    -0.038 A 
ATOM     53  C   LIG d   1       9.284   7.690  -9.183  0.00  0.00    -0.060 A 
ATOM     54  H   LIG d   1       9.313   5.649  -9.876  0.00  0.00     0.064 H 
ATOM     55  C   LIG d   1       9.367   8.560  -8.110  0.00  0.00    -0.061 A 
ATOM     56  H   LIG d   1       9.138   8.095 -10.174  0.00  0.00     0.062 H 
ATOM     57  C   LIG d   1       9.553   8.117  -6.823  0.00  0.00    -0.052 A 
ATOM     58  H   LIG d   1       9.284   9.622  -8.290  0.00  0.00     0.062 H 
ATOM     59  H   LIG d   1       9.617   8.804  -5.992  0.00  0.00     0.062 H 
BRANCH  39  60
ATOM     60  C   LIG d   1      10.707   2.884  -2.677  0.00  0.00    -0.012 C 
ATOM     61  H   LIG d   1       9.793   2.291  -2.682  0.00  0.00     0.039 H 
ATOM     62  H   LIG d   1      11.555   2.246  -2.928  0.00  0.00     0.039 H 
ATOM     63  H   LIG d   1      10.856   3.313  -1.686  0.00  0.00     0.039 H 
ENDBRANCH  39  60
ENDBRANCH  34  37
ENDBRANCH   1  34
TORSDOF 6
ENDMDL
MODEL 7
REMARK VINA RESULT:      -7.5      2.715      6.156
REMARK  6 active torsions:
REMARK  status: ('A' for Active; 'I' for Inactive)
REMARK    1  A    between atoms: C_1  and  N_2 
REMARK    2  A    between atoms: C_15  and  C_17 
REMARK    3  A    between atoms: C_17  and  C_18 
REMARK    4  A    between atoms: C_18  and  C_20 
REMARK    5  A    between atoms: C_20  and  C_21 
REMARK    6  A    between atoms: N_35  and  C_36 
ROOT
ATOM      1  C   LIG d   1       4.681  -3.271  -7.511  0.00  0.00     0.141 C 
ATOM      2  O   LIG d   1       5.512  -3.546  -8.344  0.00  0.00    -0.297 OA
ENDROOT
BRANCH   1   3
ATOM      3  C   LIG d   1       4.283  -4.295  -6.480  0.00  0.00     0.055 C 
ATOM      4  H   LIG d   1       4.354  -5.293  -6.911  0.00  0.00     0.040 H 
ATOM      5  H   LIG d   1       3.257  -4.109  -6.162  0.00  0.00     0.040 H 
BRANCH   3   6
ATOM      6  C   LIG d   1       5.216  -4.193  -5.272  0.00  0.00     0.027 C 
ATOM      7  N   LIG d   1       6.614  -4.158  -5.730  0.00  0.00     0.240 N 
ATOM      8  C   LIG d   1       7.511  -3.883  -4.600  0.00  0.00    -0.027 C 
ATOM      9  H   LIG d   1       6.720  -3.433  -6.422  0.00  0.00     0.204 HD
ATOM     10  C   LIG d   1       7.369  -2.414  -4.179  0.00  0.00     0.015 C 
ATOM     11  H   LIG d   1       7.248  -4.529  -3.762  0.00  0.00     0.082 H 
ATOM     12  H   LIG d   1       8.541  -4.078  -4.899  0.00  0.00     0.082 H 
ATOM     13  C   LIG d   1       5.899  -2.119  -4.022  0.00  0.00    -0.009 A 
ATOM     14  H   LIG d   1       7.882  -2.251  -3.230  0.00  0.00     0.037 H 
ATOM     15  H   LIG d   1       7.796  -1.767  -4.945  0.00  0.00     0.037 H 
ATOM     16  C   LIG d   1       4.925  -2.922  -4.512  0.00  0.00     0.069 A 
ATOM     17  C   LIG d   1       5.248  -1.008  -3.368  0.00  0.00     0.004 A 
ATOM     18  N   LIG d   1       3.699  -2.395  -4.212  0.00  0.00    -0.353 N 
ATOM     19  C   LIG d   1       3.853  -1.230  -3.516  0.00  0.00     0.047 A 
ATOM     20  H   LIG d   1       2.847  -2.790  -4.457  0.00  0.00     0.166 HD
ATOM     21  C   LIG d   1       2.932  -0.327  -2.989  0.00  0.00    -0.038 A 
ATOM     22  C   LIG d   1       3.442   0.774  -2.326  0.00  0.00    -0.060 A 
ATOM     23  H   LIG d   1       1.868  -0.482  -3.094  0.00  0.00     0.064 H 
ATOM     24  C   LIG d   1       4.803   0.988  -2.183  0.00  0.00    -0.061 A 
ATOM     25  H   LIG d   1       2.754   1.493  -1.904  0.00  0.00     0.062 H 
ATOM     26  C   LIG d   1       5.734   0.116  -2.692  0.00  0.00    -0.052 A 
ATOM     27  H   LIG d   1       5.142   1.865  -1.655  0.00  0.00     0.062 H 
ATOM     28  H   LIG d   1       6.794   0.291  -2.576  0.00  0.00     0.062 H 
ATOM     29  H   LIG d   1       5.066  -5.053  -4.617  0.00  0.00     0.092 H 
BRANCH   7  30
ATOM     30  C   LIG d   1       6.964  -5.456  -6.325  0.00  0.00    -0.042 C 
ATOM     31  H   LIG d   1       6.783  -5.423  -7.400  0.00  0.00     0.078 H 
ATOM     32  H   LIG d   1       8.016  -5.667  -6.140  0.00  0.00     0.078 H 
ATOM     33  H   LIG d   1       6.351  -6.237  -5.877  0.00  0.00     0.078 H 
ENDBRANCH   7  30
ENDBRANCH   3   6
ENDBRANCH   1   3
BRANCH   1  34
ATOM     34  C   LIG d   1       4.044  -1.906  -7.504  0.00  0.00     0.027 C 
ATOM     35  H   LIG d   1       2.962  -2.011  -7.415  0.00  0.00     0.036 H 
ATOM     36  H   LIG d   1       4.423  -1.332  -6.658  0.00  0.00     0.036 H 
BRANCH  34  37
ATOM     37  C   LIG d   1       4.381  -1.179  -8.806  0.00  0.00     0.057 C 
ATOM     38  H   LIG d   1       4.595  -1.908  -9.589  0.00  0.00     0.053 H 
ATOM     39  N   LIG d   1       3.244  -0.336  -9.211  0.00  0.00    -0.296 N 
ATOM     40  C   LIG d   1       3.601   0.537 -10.338  0.00  0.00     0.003 C 
ATOM     41  C   LIG d   1       4.563   1.632  -9.860  0.00  0.00    -0.013 C 
ATOM     42  H   LIG d   1       2.698   0.998 -10.740  0.00  0.00     0.043 H 
ATOM     43  H   LIG d   1       4.082  -0.055 -11.117  0.00  0.00     0.043 H 
ATOM     44  C   LIG d   1       5.665   0.971  -9.070  0.00  0.00    -0.016 A 
ATOM     45  H   LIG d   1       4.030   2.340  -9.225  0.00  0.00     0.033 H 
ATOM     46  H   LIG d   1       4.987   2.152 -10.718  0.00  0.00     0.033 H 
ATOM     47  C   LIG d   1       5.587  -0.293  -8.596  0.00  0.00     0.038 A 
ATOM     48  C   LIG d   1       6.951   1.498  -8.673  0.00  0.00     0.003 A 
ATOM     49  N   LIG d   1       6.739  -0.608  -7.926  0.00  0.00    -0.356 N 
ATOM     50  C   LIG d   1       7.592   0.458  -7.951  0.00  0.00     0.047 A 
ATOM     51  H   LIG d   1       6.920  -1.459  -7.499  0.00  0.00     0.166 HD
ATOM     52  C   LIG d   1       8.868   0.642  -7.421  0.00  0.00    -0.038 A 
ATOM     53  C   LIG d   1       9.462   1.874  -7.635  0.00  0.00    -0.060 A 
ATOM     54  H   LIG d   1       9.370  -0.139  -6.870  0.00  0.00     0.064 H 
ATOM     55  C   LIG d   1       8.833   2.886  -8.341  0.00  0.00    -0.061 A 
ATOM     56  H   LIG d   1      10.452   2.052  -7.237  0.00  0.00     0.062 H 
ATOM     57  C   LIG d   1       7.577   2.732  -8.874  0.00  0.00    -0.052 A 
ATOM     58  H   LIG d   1       9.347   3.826  -8.476  0.00  0.00     0.062 H 
ATOM     59  H   LIG d   1       7.095   3.527  -9.423  0.00  0.00     0.062 H 
BRANCH  39  60
ATOM     60  C   LIG d   1       2.067  -1.157  -9.526  0.00  0.00    -0.012 C 
ATOM     61  H   LIG d   1       1.387  -1.159  -8.675  0.00  0.00     0.039 H 
ATOM     62  H   LIG d   1       1.559  -0.743 -10.397  0.00  0.00     0.039 H 
ATOM     63  H   LIG d   1       2.383  -2.178  -9.740  0.00  0.00     0.039 H 
ENDBRANCH  39  60
ENDBRANCH  34  37
ENDBRANCH   1  34
TORSDOF 6
ENDMDL
MODEL 8
REMARK VINA RESULT:      -7.4      5.969      8.107
REMARK  6 active torsions:
REMARK  status: ('A' for Active; 'I' for Inactive)
REMARK    1  A    between atoms: C_1  and  N_2 
REMARK    2  A    between atoms: C_15  and  C_17 
REMARK    3  A    between atoms: C_17  and  C_18 
REMARK    4  A    between atoms: C_18  and  C_20 
REMARK    5  A    between atoms: C_20  and  C_21 
REMARK    6  A    between atoms: N_35  and  C_36 
ROOT
ATOM      1  C   LIG d   1      10.040   1.303  -6.546  0.00  0.00     0.141 C 
ATOM      2  O   LIG d   1      10.850   1.068  -7.411  0.00  0.00    -0.297 OA
ENDROOT
BRANCH   1   3
ATOM      3  C   LIG d   1       9.150   2.514  -6.656  0.00  0.00     0.055 C 
ATOM      4  H   LIG d   1       8.545   2.604  -5.755  0.00  0.00     0.040 H 
ATOM      5  H   LIG d   1       8.499   2.406  -7.523  0.00  0.00     0.040 H 
BRANCH   3   6
ATOM      6  C   LIG d   1      10.013   3.767  -6.820  0.00  0.00     0.027 C 
ATOM      7  N   LIG d   1       9.427   4.637  -7.852  0.00  0.00     0.240 N 
ATOM      8  C   LIG d   1      10.140   5.921  -7.897  0.00  0.00    -0.027 C 
ATOM      9  H   LIG d   1       8.456   4.804  -7.636  0.00  0.00     0.204 HD
ATOM     10  C   LIG d   1       9.777   6.753  -6.659  0.00  0.00     0.015 C 
ATOM     11  H   LIG d   1      11.215   5.738  -7.911  0.00  0.00     0.082 H 
ATOM     12  H   LIG d   1       9.853   6.463  -8.798  0.00  0.00     0.082 H 
ATOM     13  C   LIG d   1       9.948   5.874  -5.446  0.00  0.00    -0.009 A 
ATOM     14  H   LIG d   1      10.440   7.615  -6.587  0.00  0.00     0.037 H 
ATOM     15  H   LIG d   1       8.742   7.087  -6.730  0.00  0.00     0.037 H 
ATOM     16  C   LIG d   1      10.057   4.527  -5.516  0.00  0.00     0.069 A 
ATOM     17  C   LIG d   1      10.028   6.238  -4.051  0.00  0.00     0.004 A 
ATOM     18  N   LIG d   1      10.202   4.010  -4.258  0.00  0.00    -0.353 N 
ATOM     19  C   LIG d   1      10.190   5.020  -3.339  0.00  0.00     0.047 A 
ATOM     20  H   LIG d   1      10.300   3.067  -4.050  0.00  0.00     0.166 HD
ATOM     21  C   LIG d   1      10.301   5.020  -1.950  0.00  0.00    -0.038 A 
ATOM     22  C   LIG d   1      10.247   6.249  -1.316  0.00  0.00    -0.060 A 
ATOM     23  H   LIG d   1      10.424   4.102  -1.394  0.00  0.00     0.064 H 
ATOM     24  C   LIG d   1      10.090   7.435  -2.014  0.00  0.00    -0.061 A 
ATOM     25  H   LIG d   1      10.332   6.284  -0.240  0.00  0.00     0.062 H 
ATOM     26  C   LIG d   1       9.977   7.465  -3.382  0.00  0.00    -0.052 A 
ATOM     27  H   LIG d   1      10.056   8.363  -1.467  0.00  0.00     0.062 H 
ATOM     28  H   LIG d   1       9.854   8.395  -3.918  0.00  0.00     0.062 H 
ATOM     29  H   LIG d   1      11.024   3.482  -7.112  0.00  0.00     0.092 H 
BRANCH   7  30
ATOM     30  C   LIG d   1       9.529   3.977  -9.161  0.00  0.00    -0.042 C 
ATOM     31  H   LIG d   1       8.711   3.266  -9.274  0.00  0.00     0.078 H 
ATOM     32  H   LIG d   1       9.470   4.726  -9.950  0.00  0.00     0.078 H 
ATOM     33  H   LIG d   1      10.480   3.451  -9.229  0.00  0.00     0.078 H 
ENDBRANCH   7  30
ENDBRANCH   3   6
ENDBRANCH   1   3
BRANCH   1  34
ATOM     34  C   LIG d   1       9.921   0.385  -5.356  0.00  0.00     0.027 C 
ATOM     35  H   LIG d   1      10.874  -0.119  -5.191  0.00  0.00     0.036 H 
ATOM     36  H   LIG d   1       9.661   0.968  -4.473  0.00  0.00     0.036 H 
BRANCH  34  37
ATOM     37  C   LIG d   1       8.832  -0.655  -5.621  0.00  0.00     0.057 C 
ATOM     38  H   LIG d   1       8.481  -0.565  -6.649  0.00  0.00     0.053 H 
ATOM     39  N   LIG d   1       9.374  -2.006  -5.399  0.00  0.00    -0.296 N 
ATOM     40  C   LIG d   1       8.312  -3.021  -5.439  0.00  0.00     0.003 C 
ATOM     41  C   LIG d   1       7.433  -2.898  -4.187  0.00  0.00    -0.013 C 
ATOM     42  H   LIG d   1       8.760  -4.015  -5.471  0.00  0.00     0.043 H 
ATOM     43  H   LIG d   1       7.701  -2.871  -6.329  0.00  0.00     0.043 H 
ATOM     44  C   LIG d   1       7.053  -1.447  -4.026  0.00  0.00    -0.016 A 
ATOM     45  H   LIG d   1       7.990  -3.232  -3.311  0.00  0.00     0.033 H 
ATOM     46  H   LIG d   1       6.535  -3.503  -4.306  0.00  0.00     0.033 H 
ATOM     47  C   LIG d   1       7.679  -0.436  -4.670  0.00  0.00     0.038 A 
ATOM     48  C   LIG d   1       6.015  -0.857  -3.212  0.00  0.00     0.003 A 
ATOM     49  N   LIG d   1       7.108   0.758  -4.323  0.00  0.00    -0.356 N 
ATOM     50  C   LIG d   1       6.092   0.542  -3.436  0.00  0.00     0.047 A 
ATOM     51  H   LIG d   1       7.383   1.626  -4.657  0.00  0.00     0.166 HD
ATOM     52  C   LIG d   1       5.217   1.415  -2.791  0.00  0.00    -0.038 A 
ATOM     53  C   LIG d   1       4.287   0.849  -1.936  0.00  0.00    -0.060 A 
ATOM     54  H   LIG d   1       5.262   2.482  -2.950  0.00  0.00     0.064 H 
ATOM     55  C   LIG d   1       4.215  -0.516  -1.720  0.00  0.00    -0.061 A 
ATOM     56  H   LIG d   1       3.593   1.497  -1.418  0.00  0.00     0.062 H 
ATOM     57  C   LIG d   1       5.063  -1.399  -2.341  0.00  0.00    -0.052 A 
ATOM     58  H   LIG d   1       3.467  -0.900  -1.042  0.00  0.00     0.062 H 
ATOM     59  H   LIG d   1       4.999  -2.463  -2.167  0.00  0.00     0.062 H 
BRANCH  39  60
ATOM     60  C   LIG d   1      10.437  -2.311  -6.367  0.00  0.00    -0.012 C 
ATOM     61  H   LIG d   1       9.993  -2.544  -7.334  0.00  0.00     0.039 H 
ATOM     62  H   LIG d   1      11.096  -1.448  -6.466  0.00  0.00     0.039 H 
ATOM     63  H   LIG d   1      11.012  -3.168  -6.016  0.00  0.00     0.039 H 
ENDBRANCH  39  60
ENDBRANCH  34  37
ENDBRANCH   1  34
TORSDOF 6
ENDMDL
MODEL 9
REMARK VINA RESULT:      -7.4      6.650      8.880
REMARK  6 active torsions:
REMARK  status: ('A' for Active; 'I' for Inactive)
REMARK    1  A    between atoms: C_1  and  N_2 
REMARK    2  A    between atoms: C_15  and  C_17 
REMARK    3  A    between atoms: C_17  and  C_18 
REMARK    4  A    between atoms: C_18  and  C_20 
REMARK    5  A    between atoms: C_20  and  C_21 
REMARK    6  A    between atoms: N_35  and  C_36 
ROOT
ATOM      1  C   LIG d   1       9.873   2.759  -5.573  0.00  0.00     0.141 C 
ATOM      2  O   LIG d   1       9.072   2.758  -6.477  0.00  0.00    -0.297 OA
ENDROOT
BRANCH   1   3
ATOM      3  C   LIG d   1       9.878   1.634  -4.571  0.00  0.00     0.055 C 
ATOM      4  H   LIG d   1       9.433   1.976  -3.637  0.00  0.00     0.040 H 
ATOM      5  H   LIG d   1      10.904   1.316  -4.389  0.00  0.00     0.040 H 
BRANCH   3   6
ATOM      6  C   LIG d   1       9.070   0.457  -5.121  0.00  0.00     0.027 C 
ATOM      7  N   LIG d   1       9.849  -0.784  -4.982  0.00  0.00     0.240 N 
ATOM      8  C   LIG d   1       9.023  -1.944  -5.342  0.00  0.00    -0.027 C 
ATOM      9  H   LIG d   1      10.158  -0.879  -4.028  0.00  0.00     0.204 HD
ATOM     10  C   LIG d   1       7.987  -2.197  -4.237  0.00  0.00     0.015 C 
ATOM     11  H   LIG d   1       8.510  -1.747  -6.283  0.00  0.00     0.082 H 
ATOM     12  H   LIG d   1       9.659  -2.822  -5.452  0.00  0.00     0.082 H 
ATOM     13  C   LIG d   1       7.303  -0.887  -3.938  0.00  0.00    -0.009 A 
ATOM     14  H   LIG d   1       7.254  -2.927  -4.579  0.00  0.00     0.037 H 
ATOM     15  H   LIG d   1       8.486  -2.566  -3.341  0.00  0.00     0.037 H 
ATOM     16  C   LIG d   1       7.788   0.312  -4.337  0.00  0.00     0.069 A 
ATOM     17  C   LIG d   1       6.076  -0.633  -3.218  0.00  0.00     0.004 A 
ATOM     18  N   LIG d   1       6.951   1.310  -3.921  0.00  0.00    -0.353 N 
ATOM     19  C   LIG d   1       5.897   0.775  -3.236  0.00  0.00     0.047 A 
ATOM     20  H   LIG d   1       7.086   2.257  -4.087  0.00  0.00     0.166 HD
ATOM     21  C   LIG d   1       4.792   1.358  -2.619  0.00  0.00    -0.038 A 
ATOM     22  C   LIG d   1       3.896   0.503  -2.002  0.00  0.00    -0.060 A 
ATOM     23  H   LIG d   1       4.642   2.426  -2.623  0.00  0.00     0.064 H 
ATOM     24  C   LIG d   1       4.073  -0.871  -1.987  0.00  0.00    -0.061 A 
ATOM     25  H   LIG d   1       3.027   0.922  -1.515  0.00  0.00     0.062 H 
ATOM     26  C   LIG d   1       5.153  -1.472  -2.585  0.00  0.00    -0.052 A 
ATOM     27  H   LIG d   1       3.341  -1.487  -1.490  0.00  0.00     0.062 H 
ATOM     28  H   LIG d   1       5.283  -2.545  -2.568  0.00  0.00     0.062 H 
ATOM     29  H   LIG d   1       8.839   0.629  -6.173  0.00  0.00     0.092 H 
BRANCH   7  30
ATOM     30  C   LIG d   1      11.019  -0.726  -5.871  0.00  0.00    -0.042 C 
ATOM     31  H   LIG d   1      11.461  -1.719  -5.954  0.00  0.00     0.078 H 
ATOM     32  H   LIG d   1      10.709  -0.383  -6.857  0.00  0.00     0.078 H 
ATOM     33  H   LIG d   1      11.753  -0.035  -5.459  0.00  0.00     0.078 H 
ENDBRANCH   7  30
ENDBRANCH   3   6
ENDBRANCH   1   3
BRANCH   1  34
ATOM     34  C   LIG d   1      10.866   3.886  -5.448  0.00  0.00     0.027 C 
ATOM     35  H   LIG d   1      11.557   3.855  -6.291  0.00  0.00     0.036 H 
ATOM     36  H   LIG d   1      10.337   4.838  -5.447  0.00  0.00     0.036 H 
BRANCH  34  37
ATOM     37  C   LIG d   1      11.648   3.734  -4.142  0.00  0.00     0.057 C 
ATOM     38  H   LIG d   1      11.374   2.796  -3.658  0.00  0.00     0.053 H 
ATOM     39  N   LIG d   1      13.092   3.743  -4.426  0.00  0.00    -0.296 N 
ATOM     40  C   LIG d   1      13.880   3.809  -3.187  0.00  0.00     0.003 C 
ATOM     41  C   LIG d   1      13.742   5.204  -2.563  0.00  0.00    -0.013 C 
ATOM     42  H   LIG d   1      14.929   3.615  -3.414  0.00  0.00     0.043 H 
ATOM     43  H   LIG d   1      13.516   3.059  -2.486  0.00  0.00     0.043 H 
ATOM     44  C   LIG d   1      12.275   5.551  -2.516  0.00  0.00    -0.016 A 
ATOM     45  H   LIG d   1      14.274   5.935  -3.172  0.00  0.00     0.033 H 
ATOM     46  H   LIG d   1      14.152   5.198  -1.553  0.00  0.00     0.033 H 
ATOM     47  C   LIG d   1      11.330   4.891  -3.223  0.00  0.00     0.038 A 
ATOM     48  C   LIG d   1      11.601   6.584  -1.762  0.00  0.00     0.003 A 
ATOM     49  N   LIG d   1      10.099   5.433  -2.970  0.00  0.00    -0.356 N 
ATOM     50  C   LIG d   1      10.225   6.467  -2.086  0.00  0.00     0.047 A 
ATOM     51  H   LIG d   1       9.265   5.129  -3.359  0.00  0.00     0.166 HD
ATOM     52  C   LIG d   1       9.286   7.328  -1.521  0.00  0.00    -0.038 A 
ATOM     53  C   LIG d   1       9.764   8.286  -0.643  0.00  0.00    -0.060 A 
ATOM     54  H   LIG d   1       8.235   7.252  -1.755  0.00  0.00     0.064 H 
ATOM     55  C   LIG d   1      11.108   8.396  -0.330  0.00  0.00    -0.061 A 
ATOM     56  H   LIG d   1       9.063   8.971  -0.187  0.00  0.00     0.062 H 
ATOM     57  C   LIG d   1      12.055   7.562  -0.871  0.00  0.00    -0.052 A 
ATOM     58  H   LIG d   1      11.422   9.163   0.363  0.00  0.00     0.062 H 
ATOM     59  H   LIG d   1      13.101   7.656  -0.621  0.00  0.00     0.062 H 
BRANCH  39  60
ATOM     60  C   LIG d   1      13.475   2.579  -5.238  0.00  0.00    -0.012 C 
ATOM     61  H   LIG d   1      13.908   1.814  -4.594  0.00  0.00     0.039 H 
ATOM     62  H   LIG d   1      12.592   2.178  -5.736  0.00  0.00     0.039 H 
ATOM     63  H   LIG d   1      14.207   2.882  -5.985  0.00  0.00     0.039 H 
ENDBRANCH  39  60
ENDBRANCH  34  37
ENDBRANCH   1  34
TORSDOF 6
ENDMDL
