MODEL 1
REMARK VINA RESULT:      -7.8      0.000      0.000
REMARK  7 active torsions:
REMARK  status: ('A' for Active; 'I' for Inactive)
REMARK    1  A    between atoms: C_1  and  O_2 
REMARK    2  A    between atoms: O_2  and  C_3 
REMARK    3  A    between atoms: C_6  and  C_9 
REMARK    4  A    between atoms: C_9  and  C_10 
REMARK       I    between atoms: C_10  and  N_12 
REMARK    5  A    between atoms: N_12  and  C_13 
REMARK    6  A    between atoms: C_28  and  C_29 
REMARK    7  A    between atoms: C_28  and  N_68 
ROOT
ATOM      1  C   LIG d   1       3.711  -0.704  -7.229  0.00  0.00     0.099 C 
ATOM      2  C   LIG d   1       4.353  -1.909  -7.150  0.00  0.00    -0.034 C 
ATOM      3  C   LIG d   1       4.673  -2.424  -5.888  0.00  0.00    -0.040 C 
ATOM      4  C   LIG d   1       4.334  -1.745  -4.761  0.00  0.00     0.030 C 
ATOM      5  N   LIG d   1       3.615  -0.600  -4.833  0.00  0.00    -0.310 N 
ATOM      6  C   LIG d   1       3.374  -0.029  -6.039  0.00  0.00     0.273 C 
ATOM      7  O   LIG d   1       2.858   1.076  -6.095  0.00  0.00    -0.266 OA
ATOM      8  C   LIG d   1       3.025   0.047  -3.659  0.00  0.00     0.034 C 
ATOM      9  C   LIG d   1       3.718  -0.360  -2.370  0.00  0.00     0.018 C 
ATOM     10  H   LIG d   1       3.095  -0.051  -1.530  0.00  0.00     0.037 H 
ATOM     11  C   LIG d   1       3.864  -1.884  -2.328  0.00  0.00    -0.031 C 
ATOM     12  C   LIG d   1       4.837  -2.288  -3.442  0.00  0.00     0.040 C 
ATOM     13  H   LIG d   1       4.936  -3.373  -3.488  0.00  0.00     0.042 H 
ATOM     14  C   LIG d   1       6.193  -1.623  -3.155  0.00  0.00    -0.024 C 
ATOM     15  C   LIG d   1       5.075   0.314  -2.222  0.00  0.00    -0.027 C 
ATOM     16  H   LIG d   1       4.609  -2.454  -8.047  0.00  0.00     0.064 H 
ATOM     17  H   LIG d   1       5.194  -3.366  -5.811  0.00  0.00     0.064 H 
ATOM     18  H   LIG d   1       3.102   1.129  -3.776  0.00  0.00     0.050 H 
ATOM     19  H   LIG d   1       1.973  -0.227  -3.596  0.00  0.00     0.050 H 
ATOM     20  H   LIG d   1       4.262  -2.190  -1.361  0.00  0.00     0.028 H 
ATOM     21  H   LIG d   1       2.895  -2.353  -2.495  0.00  0.00     0.028 H 
ATOM     22  H   LIG d   1       6.531  -1.894  -2.154  0.00  0.00     0.082 H 
ATOM     23  H   LIG d   1       6.927  -1.950  -3.891  0.00  0.00     0.082 H 
ATOM     24  H   LIG d   1       4.952   1.392  -2.328  0.00  0.00     0.082 H 
ATOM     25  H   LIG d   1       5.478   0.095  -1.234  0.00  0.00     0.082 H 
ATOM     26  N   LIG d   1       6.004  -0.159  -3.269  0.00  0.00     0.236 N 
ATOM     27  H   LIG d   1       5.604   0.054  -4.191  0.00  0.00     0.203 HD
ENDROOT
BRANCH   1  28
ATOM     28  N   LIG d   1       3.397  -0.145  -8.476  0.00  0.00    -0.281 N 
ATOM     29  C   LIG d   1       4.338   0.523  -9.171  0.00  0.00     0.222 C 
ATOM     30  O   LIG d   1       5.473   0.588  -8.748  0.00  0.00    -0.275 OA
ATOM     31  H   LIG d   1       2.503  -0.243  -8.840  0.00  0.00     0.155 HD
BRANCH  29  32
ATOM     32  C   LIG d   1       3.981   1.189 -10.474  0.00  0.00     0.049 C 
ATOM     33  H   LIG d   1       3.154   1.881 -10.314  0.00  0.00     0.041 H 
ATOM     34  H   LIG d   1       4.845   1.737 -10.851  0.00  0.00     0.041 H 
BRANCH  32  35
ATOM     35  C   LIG d   1       3.573   0.142 -11.478  0.00  0.00    -0.038 A 
ATOM     36  C   LIG d   1       4.423  -0.187 -12.518  0.00  0.00    -0.055 A 
ATOM     37  C   LIG d   1       4.051  -1.146 -13.439  0.00  0.00    -0.020 A 
ATOM     38  H   LIG d   1       5.378   0.308 -12.611  0.00  0.00     0.062 H 
ATOM     39  C   LIG d   1       2.823  -1.781 -13.320  0.00  0.00     0.120 A 
ATOM     40  H   LIG d   1       4.716  -1.403 -14.251  0.00  0.00     0.065 H 
ATOM     41  C   LIG d   1       1.972  -1.451 -12.276  0.00  0.00    -0.020 A 
ATOM     42  C   LIG d   1       2.351  -0.494 -11.354  0.00  0.00    -0.055 A 
ATOM     43  H   LIG d   1       1.016  -1.944 -12.181  0.00  0.00     0.065 H 
ATOM     44  H   LIG d   1       1.691  -0.240 -10.538  0.00  0.00     0.062 H 
BRANCH  39  45
ATOM     45  O   LIG d   1       2.455  -2.727 -14.224  0.00  0.00    -0.495 OA
BRANCH  45  46
ATOM     46  C   LIG d   1       1.060  -3.019 -14.327  0.00  0.00     0.079 C 
ATOM     47  H   LIG d   1       0.484  -2.126 -14.085  0.00  0.00     0.066 H 
ATOM     48  H   LIG d   1       0.829  -3.335 -15.344  0.00  0.00     0.066 H 
ATOM     49  H   LIG d   1       0.803  -3.817 -13.631  0.00  0.00     0.066 H 
ENDBRANCH  45  46
ENDBRANCH  39  45
ENDBRANCH  32  35
ENDBRANCH  29  32
ENDBRANCH   1  28
BRANCH  26  50
ATOM     50  C   LIG d   1       7.304   0.530  -3.138  0.00  0.00    -0.029 C 
ATOM     51  H   LIG d   1       7.315   1.089  -2.202  0.00  0.00     0.082 H 
ATOM     52  H   LIG d   1       8.099  -0.215  -3.126  0.00  0.00     0.082 H 
BRANCH  50  53
ATOM     53  C   LIG d   1       7.522   1.491  -4.308  0.00  0.00    -0.001 C 
ATOM     54  C   LIG d   1       8.691   2.426  -3.989  0.00  0.00    -0.045 C 
ATOM     55  C   LIG d   1       8.909   3.386  -5.160  0.00  0.00    -0.053 C 
ATOM     56  H   LIG d   1       8.465   2.996  -3.089  0.00  0.00     0.027 H 
ATOM     57  H   LIG d   1       9.594   1.836  -3.829  0.00  0.00     0.027 H 
ATOM     58  C   LIG d   1       9.228   2.586  -6.424  0.00  0.00    -0.053 C 
ATOM     59  H   LIG d   1       8.006   3.975  -5.320  0.00  0.00     0.026 H 
ATOM     60  H   LIG d   1       9.742   4.052  -4.932  0.00  0.00     0.026 H 
ATOM     61  C   LIG d   1       8.060   1.651  -6.743  0.00  0.00    -0.053 C 
ATOM     62  H   LIG d   1       9.384   3.270  -7.258  0.00  0.00     0.026 H 
ATOM     63  H   LIG d   1      10.131   1.997  -6.263  0.00  0.00     0.026 H 
ATOM     64  C   LIG d   1       7.841   0.690  -5.573  0.00  0.00    -0.045 C 
ATOM     65  H   LIG d   1       7.157   2.240  -6.903  0.00  0.00     0.026 H 
ATOM     66  H   LIG d   1       8.286   1.080  -7.644  0.00  0.00     0.026 H 
ATOM     67  H   LIG d   1       8.743   0.101  -5.413  0.00  0.00     0.027 H 
ATOM     68  H   LIG d   1       7.009   0.024  -5.800  0.00  0.00     0.027 H 
ATOM     69  H   LIG d   1       6.619   2.080  -4.469  0.00  0.00     0.035 H 
ENDBRANCH  50  53
ENDBRANCH  26  50
TORSDOF 7
ENDMDL
MODEL 2
REMARK VINA RESULT:      -7.7      3.463      8.577
REMARK  7 active torsions:
REMARK  status: ('A' for Active; 'I' for Inactive)
REMARK    1  A    between atoms: C_1  and  O_2 
REMARK    2  A    between atoms: O_2  and  C_3 
REMARK    3  A    between atoms: C_6  and  C_9 
REMARK    4  A    between atoms: C_9  and  C_10 
REMARK       I    between atoms: C_10  and  N_12 
REMARK    5  A    between atoms: N_12  and  C_13 
REMARK    6  A    between atoms: C_28  and  C_29 
REMARK    7  A    between atoms: C_28  and  N_68 
ROOT
ATOM      1  C   LIG d   1       7.558   0.769  -3.757  0.00  0.00     0.099 C 
ATOM      2  C   LIG d   1       6.389   1.280  -3.262  0.00  0.00    -0.034 C 
ATOM      3  C   LIG d   1       5.248   0.471  -3.251  0.00  0.00    -0.040 C 
ATOM      4  C   LIG d   1       5.305  -0.808  -3.707  0.00  0.00     0.030 C 
ATOM      5  N   LIG d   1       6.481  -1.347  -4.108  0.00  0.00    -0.310 N 
ATOM      6  C   LIG d   1       7.581  -0.561  -4.220  0.00  0.00     0.273 C 
ATOM      7  O   LIG d   1       8.599  -1.010  -4.722  0.00  0.00    -0.266 OA
ATOM      8  C   LIG d   1       6.651  -2.774  -4.387  0.00  0.00     0.034 C 
ATOM      9  C   LIG d   1       5.331  -3.460  -4.698  0.00  0.00     0.018 C 
ATOM     10  H   LIG d   1       5.483  -4.538  -4.653  0.00  0.00     0.037 H 
ATOM     11  C   LIG d   1       4.293  -3.073  -3.641  0.00  0.00    -0.031 C 
ATOM     12  C   LIG d   1       4.005  -1.576  -3.798  0.00  0.00     0.040 C 
ATOM     13  H   LIG d   1       3.307  -1.238  -3.032  0.00  0.00     0.042 H 
ATOM     14  C   LIG d   1       3.431  -1.346  -5.206  0.00  0.00    -0.024 C 
ATOM     15  C   LIG d   1       4.832  -3.113  -6.093  0.00  0.00    -0.027 C 
ATOM     16  H   LIG d   1       6.348   2.293  -2.887  0.00  0.00     0.064 H 
ATOM     17  H   LIG d   1       4.315   0.865  -2.878  0.00  0.00     0.064 H 
ATOM     18  H   LIG d   1       7.320  -2.890  -5.240  0.00  0.00     0.050 H 
ATOM     19  H   LIG d   1       7.100  -3.253  -3.517  0.00  0.00     0.050 H 
ATOM     20  H   LIG d   1       3.378  -3.644  -3.796  0.00  0.00     0.028 H 
ATOM     21  H   LIG d   1       4.689  -3.271  -2.645  0.00  0.00     0.028 H 
ATOM     22  H   LIG d   1       2.558  -1.982  -5.355  0.00  0.00     0.082 H 
ATOM     23  H   LIG d   1       3.148  -0.300  -5.323  0.00  0.00     0.082 H 
ATOM     24  H   LIG d   1       5.617  -3.330  -6.818  0.00  0.00     0.082 H 
ATOM     25  H   LIG d   1       3.956  -3.720  -6.322  0.00  0.00     0.082 H 
ATOM     26  N   LIG d   1       4.495  -1.677  -6.180  0.00  0.00     0.236 N 
ATOM     27  H   LIG d   1       5.332  -1.125  -5.959  0.00  0.00     0.203 HD
ENDROOT
BRANCH   1  28
ATOM     28  N   LIG d   1       8.715   1.559  -3.807  0.00  0.00    -0.281 N 
ATOM     29  C   LIG d   1       8.905   2.411  -4.834  0.00  0.00     0.222 C 
ATOM     30  O   LIG d   1       8.047   2.540  -5.682  0.00  0.00    -0.275 OA
ATOM     31  H   LIG d   1       9.376   1.495  -3.101  0.00  0.00     0.155 HD
BRANCH  29  32
ATOM     32  C   LIG d   1      10.183   3.203  -4.929  0.00  0.00     0.049 C 
ATOM     33  H   LIG d   1      11.015   2.595  -4.573  0.00  0.00     0.041 H 
ATOM     34  H   LIG d   1      10.359   3.486  -5.966  0.00  0.00     0.041 H 
BRANCH  32  35
ATOM     35  C   LIG d   1      10.069   4.444  -4.081  0.00  0.00    -0.038 A 
ATOM     36  C   LIG d   1       9.625   5.626  -4.645  0.00  0.00    -0.055 A 
ATOM     37  C   LIG d   1       9.519   6.765  -3.870  0.00  0.00    -0.020 A 
ATOM     38  H   LIG d   1       9.361   5.660  -5.691  0.00  0.00     0.062 H 
ATOM     39  C   LIG d   1       9.859   6.721  -2.525  0.00  0.00     0.120 A 
ATOM     40  H   LIG d   1       9.172   7.688  -4.310  0.00  0.00     0.065 H 
ATOM     41  C   LIG d   1      10.303   5.534  -1.962  0.00  0.00    -0.020 A 
ATOM     42  C   LIG d   1      10.402   4.397  -2.740  0.00  0.00    -0.055 A 
ATOM     43  H   LIG d   1      10.568   5.497  -0.916  0.00  0.00     0.065 H 
ATOM     44  H   LIG d   1      10.743   3.470  -2.301  0.00  0.00     0.062 H 
BRANCH  39  45
ATOM     45  O   LIG d   1       9.754   7.840  -1.760  0.00  0.00    -0.495 OA
BRANCH  45  46
ATOM     46  C   LIG d   1      10.293   7.774  -0.438  0.00  0.00     0.079 C 
ATOM     47  H   LIG d   1       9.479   7.760   0.286  0.00  0.00     0.066 H 
ATOM     48  H   LIG d   1      10.887   6.866  -0.333  0.00  0.00     0.066 H 
ATOM     49  H   LIG d   1      10.924   8.644  -0.259  0.00  0.00     0.066 H 
ENDBRANCH  45  46
ENDBRANCH  39  45
ENDBRANCH  32  35
ENDBRANCH  29  32
ENDBRANCH   1  28
BRANCH  26  50
ATOM     50  C   LIG d   1       4.049  -1.346  -7.549  0.00  0.00    -0.029 C 
ATOM     51  H   LIG d   1       4.701  -1.847  -8.264  0.00  0.00     0.082 H 
ATOM     52  H   LIG d   1       3.026  -1.698  -7.681  0.00  0.00     0.082 H 
BRANCH  50  53
ATOM     53  C   LIG d   1       4.103   0.165  -7.781  0.00  0.00    -0.001 C 
ATOM     54  C   LIG d   1       5.170   0.482  -8.830  0.00  0.00    -0.045 C 
ATOM     55  C   LIG d   1       5.223   1.994  -9.062  0.00  0.00    -0.053 C 
ATOM     56  H   LIG d   1       6.140   0.135  -8.478  0.00  0.00     0.027 H 
ATOM     57  H   LIG d   1       4.921  -0.020  -9.765  0.00  0.00     0.027 H 
ATOM     58  C   LIG d   1       3.860   2.482  -9.557  0.00  0.00    -0.053 C 
ATOM     59  H   LIG d   1       5.472   2.496  -8.127  0.00  0.00     0.026 H 
ATOM     60  H   LIG d   1       5.984   2.220  -9.809  0.00  0.00     0.026 H 
ATOM     61  C   LIG d   1       2.793   2.165  -8.508  0.00  0.00    -0.053 C 
ATOM     62  H   LIG d   1       3.898   3.559  -9.723  0.00  0.00     0.026 H 
ATOM     63  H   LIG d   1       3.612   1.979 -10.492  0.00  0.00     0.026 H 
ATOM     64  C   LIG d   1       2.739   0.654  -8.276  0.00  0.00    -0.045 C 
ATOM     65  H   LIG d   1       3.042   2.667  -7.574  0.00  0.00     0.026 H 
ATOM     66  H   LIG d   1       1.822   2.513  -8.861  0.00  0.00     0.026 H 
ATOM     67  H   LIG d   1       2.491   0.151  -9.210  0.00  0.00     0.027 H 
ATOM     68  H   LIG d   1       1.979   0.427  -7.529  0.00  0.00     0.027 H 
ATOM     69  H   LIG d   1       4.351   0.668  -6.846  0.00  0.00     0.035 H 
ENDBRANCH  50  53
ENDBRANCH  26  50
TORSDOF 7
ENDMDL
MODEL 3
REMARK VINA RESULT:      -7.7      3.430      7.847
REMARK  7 active torsions:
REMARK  status: ('A' for Active; 'I' for Inactive)
REMARK    1  A    between atoms: C_1  and  O_2 
REMARK    2  A    between atoms: O_2  and  C_3 
REMARK    3  A    between atoms: C_6  and  C_9 
REMARK    4  A    between atoms: C_9  and  C_10 
REMARK       I    between atoms: C_10  and  N_12 
REMARK    5  A    between atoms: N_12  and  C_13 
REMARK    6  A    between atoms: C_28  and  C_29 
REMARK    7  A    between atoms: C_28  and  N_68 
ROOT
ATOM      1  C   LIG d   1       7.621   0.994  -3.832  0.00  0.00     0.099 C 
ATOM      2  C   LIG d   1       6.500   1.553  -3.284  0.00  0.00    -0.034 C 
ATOM      3  C   LIG d   1       5.348   0.770  -3.150  0.00  0.00    -0.040 C 
ATOM      4  C   LIG d   1       5.351  -0.531  -3.541  0.00  0.00     0.030 C 
ATOM      5  N   LIG d   1       6.485  -1.115  -3.996  0.00  0.00    -0.310 N 
ATOM      6  C   LIG d   1       7.587  -0.358  -4.226  0.00  0.00     0.273 C 
ATOM      7  O   LIG d   1       8.559  -0.854  -4.774  0.00  0.00    -0.266 OA
ATOM      8  C   LIG d   1       6.610  -2.558  -4.211  0.00  0.00     0.034 C 
ATOM      9  C   LIG d   1       5.259  -3.230  -4.392  0.00  0.00     0.018 C 
ATOM     10  H   LIG d   1       5.396  -4.308  -4.302  0.00  0.00     0.037 H 
ATOM     11  C   LIG d   1       4.307  -2.768  -3.286  0.00  0.00    -0.031 C 
ATOM     12  C   LIG d   1       4.034  -1.275  -3.501  0.00  0.00     0.040 C 
ATOM     13  H   LIG d   1       3.399  -0.884  -2.706  0.00  0.00     0.042 H 
ATOM     14  C   LIG d   1       3.364  -1.105  -4.874  0.00  0.00    -0.024 C 
ATOM     15  C   LIG d   1       4.668  -2.944  -5.765  0.00  0.00    -0.027 C 
ATOM     16  H   LIG d   1       6.503   2.585  -2.960  0.00  0.00     0.064 H 
ATOM     17  H   LIG d   1       4.451   1.202  -2.734  0.00  0.00     0.064 H 
ATOM     18  H   LIG d   1       7.214  -2.731  -5.102  0.00  0.00     0.050 H 
ATOM     19  H   LIG d   1       7.112  -3.001  -3.351  0.00  0.00     0.050 H 
ATOM     20  H   LIG d   1       3.373  -3.327  -3.346  0.00  0.00     0.028 H 
ATOM     21  H   LIG d   1       4.769  -2.924  -2.312  0.00  0.00     0.028 H 
ATOM     22  H   LIG d   1       2.472  -1.730  -4.928  0.00  0.00     0.082 H 
ATOM     23  H   LIG d   1       3.093  -0.061  -5.026  0.00  0.00     0.082 H 
ATOM     24  H   LIG d   1       5.395  -3.214  -6.531  0.00  0.00     0.082 H 
ATOM     25  H   LIG d   1       3.768  -3.543  -5.899  0.00  0.00     0.082 H 
ATOM     26  N   LIG d   1       4.351  -1.508  -5.903  0.00  0.00     0.236 N 
ATOM     27  H   LIG d   1       5.211  -0.963  -5.770  0.00  0.00     0.203 HD
ENDROOT
BRANCH   1  28
ATOM     28  N   LIG d   1       8.785   1.756  -4.006  0.00  0.00    -0.281 N 
ATOM     29  C   LIG d   1       8.991   2.419  -5.161  0.00  0.00     0.222 C 
ATOM     30  O   LIG d   1       8.140   2.408  -6.026  0.00  0.00    -0.275 OA
ATOM     31  H   LIG d   1       9.440   1.809  -3.293  0.00  0.00     0.155 HD
BRANCH  29  32
ATOM     32  C   LIG d   1      10.276   3.175  -5.377  0.00  0.00     0.049 C 
ATOM     33  H   LIG d   1      10.919   3.054  -4.505  0.00  0.00     0.041 H 
ATOM     34  H   LIG d   1      10.783   2.784  -6.259  0.00  0.00     0.041 H 
BRANCH  32  35
ATOM     35  C   LIG d   1       9.971   4.637  -5.578  0.00  0.00    -0.038 A 
ATOM     36  C   LIG d   1       9.457   5.385  -4.535  0.00  0.00    -0.055 A 
ATOM     37  C   LIG d   1       9.177   6.725  -4.718  0.00  0.00    -0.020 A 
ATOM     38  H   LIG d   1       9.273   4.922  -3.577  0.00  0.00     0.062 H 
ATOM     39  C   LIG d   1       9.412   7.320  -5.949  0.00  0.00     0.120 A 
ATOM     40  H   LIG d   1       8.776   7.310  -3.902  0.00  0.00     0.065 H 
ATOM     41  C   LIG d   1       9.928   6.568  -6.993  0.00  0.00    -0.020 A 
ATOM     42  C   LIG d   1      10.212   5.230  -6.804  0.00  0.00    -0.055 A 
ATOM     43  H   LIG d   1      10.112   7.029  -7.952  0.00  0.00     0.065 H 
ATOM     44  H   LIG d   1      10.618   4.644  -7.616  0.00  0.00     0.062 H 
BRANCH  39  45
ATOM     45  O   LIG d   1       9.139   8.640  -6.130  0.00  0.00    -0.495 OA
BRANCH  45  46
ATOM     46  C   LIG d   1       9.664   9.550  -5.163  0.00  0.00     0.079 C 
ATOM     47  H   LIG d   1       8.934  10.335  -4.968  0.00  0.00     0.066 H 
ATOM     48  H   LIG d   1       9.877   9.014  -4.238  0.00  0.00     0.066 H 
ATOM     49  H   LIG d   1      10.583   9.996  -5.544  0.00  0.00     0.066 H 
ENDBRANCH  45  46
ENDBRANCH  39  45
ENDBRANCH  32  35
ENDBRANCH  29  32
ENDBRANCH   1  28
BRANCH  26  50
ATOM     50  C   LIG d   1       3.813  -1.237  -7.252  0.00  0.00    -0.029 C 
ATOM     51  H   LIG d   1       4.339  -1.864  -7.973  0.00  0.00     0.082 H 
ATOM     52  H   LIG d   1       2.751  -1.482  -7.264  0.00  0.00     0.082 H 
BRANCH  50  53
ATOM     53  C   LIG d   1       4.003   0.235  -7.621  0.00  0.00    -0.001 C 
ATOM     54  C   LIG d   1       5.126   0.362  -8.652  0.00  0.00    -0.045 C 
ATOM     55  C   LIG d   1       5.314   1.835  -9.021  0.00  0.00    -0.053 C 
ATOM     56  H   LIG d   1       6.051  -0.029  -8.232  0.00  0.00     0.027 H 
ATOM     57  H   LIG d   1       4.864  -0.206  -9.545  0.00  0.00     0.027 H 
ATOM     58  C   LIG d   1       4.014   2.383  -9.613  0.00  0.00    -0.053 C 
ATOM     59  H   LIG d   1       5.576   2.402  -8.128  0.00  0.00     0.026 H 
ATOM     60  H   LIG d   1       6.115   1.925  -9.756  0.00  0.00     0.026 H 
ATOM     61  C   LIG d   1       2.892   2.257  -8.581  0.00  0.00    -0.053 C 
ATOM     62  H   LIG d   1       4.149   3.432  -9.876  0.00  0.00     0.026 H 
ATOM     63  H   LIG d   1       3.754   1.815 -10.506  0.00  0.00     0.026 H 
ATOM     64  C   LIG d   1       2.702   0.784  -8.212  0.00  0.00    -0.045 C 
ATOM     65  H   LIG d   1       3.154   2.824  -7.688  0.00  0.00     0.026 H 
ATOM     66  H   LIG d   1       1.965   2.648  -9.002  0.00  0.00     0.026 H 
ATOM     67  H   LIG d   1       2.441   0.216  -9.104  0.00  0.00     0.027 H 
ATOM     68  H   LIG d   1       1.903   0.693  -7.477  0.00  0.00     0.027 H 
ATOM     69  H   LIG d   1       4.264   0.803  -6.728  0.00  0.00     0.035 H 
ENDBRANCH  50  53
ENDBRANCH  26  50
TORSDOF 7
ENDMDL
MODEL 4
REMARK VINA RESULT:      -7.5      3.644      6.189
REMARK  7 active torsions:
REMARK  status: ('A' for Active; 'I' for Inactive)
REMARK    1  A    between atoms: C_1  and  O_2 
REMARK    2  A    between atoms: O_2  and  C_3 
REMARK    3  A    between atoms: C_6  and  C_9 
REMARK    4  A    between atoms: C_9  and  C_10 
REMARK       I    between atoms: C_10  and  N_12 
REMARK    5  A    between atoms: N_12  and  C_13 
REMARK    6  A    between atoms: C_28  and  C_29 
REMARK    7  A    between atoms: C_28  and  N_68 
ROOT
ATOM      1  C   LIG d   1       1.643  -2.575  -9.984  0.00  0.00     0.099 C 
ATOM      2  C   LIG d   1       1.126  -1.370 -10.373  0.00  0.00    -0.034 C 
ATOM      3  C   LIG d   1       1.822  -0.199 -10.054  0.00  0.00    -0.040 C 
ATOM      4  C   LIG d   1       3.003  -0.260  -9.385  0.00  0.00     0.030 C 
ATOM      5  N   LIG d   1       3.565  -1.454  -9.082  0.00  0.00    -0.310 N 
ATOM      6  C   LIG d   1       2.870  -2.600  -9.292  0.00  0.00     0.273 C 
ATOM      7  O   LIG d   1       3.313  -3.662  -8.883  0.00  0.00    -0.266 OA
ATOM      8  C   LIG d   1       4.932  -1.588  -8.574  0.00  0.00     0.034 C 
ATOM      9  C   LIG d   1       5.436  -0.303  -7.937  0.00  0.00     0.018 C 
ATOM     10  H   LIG d   1       6.515  -0.383  -7.805  0.00  0.00     0.037 H 
ATOM     11  C   LIG d   1       5.148   0.876  -8.870  0.00  0.00    -0.031 C 
ATOM     12  C   LIG d   1       3.627   1.047  -8.949  0.00  0.00     0.040 C 
ATOM     13  H   LIG d   1       3.367   1.845  -9.645  0.00  0.00     0.042 H 
ATOM     14  C   LIG d   1       3.108   1.358  -7.535  0.00  0.00    -0.024 C 
ATOM     15  C   LIG d   1       4.810  -0.070  -6.569  0.00  0.00    -0.027 C 
ATOM     16  H   LIG d   1       0.194  -1.323 -10.918  0.00  0.00     0.064 H 
ATOM     17  H   LIG d   1       1.418   0.760 -10.342  0.00  0.00     0.064 H 
ATOM     18  H   LIG d   1       4.956  -2.385  -7.831  0.00  0.00     0.050 H 
ATOM     19  H   LIG d   1       5.591  -1.854  -9.400  0.00  0.00     0.050 H 
ATOM     20  H   LIG d   1       5.602   1.783  -8.470  0.00  0.00     0.028 H 
ATOM     21  H   LIG d   1       5.549   0.669  -9.862  0.00  0.00     0.028 H 
ATOM     22  H   LIG d   1       3.630   2.228  -7.136  0.00  0.00     0.082 H 
ATOM     23  H   LIG d   1       2.037   1.556  -7.571  0.00  0.00     0.082 H 
ATOM     24  H   LIG d   1       4.966  -0.954  -5.949  0.00  0.00     0.082 H 
ATOM     25  H   LIG d   1       5.290   0.787  -6.097  0.00  0.00     0.082 H 
ATOM     26  N   LIG d   1       3.357   0.164  -6.697  0.00  0.00     0.236 N 
ATOM     27  H   LIG d   1       2.926  -0.654  -7.146  0.00  0.00     0.203 HD
ENDROOT
BRANCH   1  28
ATOM     28  N   LIG d   1       0.960  -3.767 -10.264  0.00  0.00    -0.281 N 
ATOM     29  C   LIG d   1       1.081  -4.344 -11.475  0.00  0.00     0.222 C 
ATOM     30  O   LIG d   1       1.828  -3.867 -12.303  0.00  0.00    -0.275 OA
ATOM     31  H   LIG d   1       0.405  -4.178  -9.584  0.00  0.00     0.155 HD
BRANCH  29  32
ATOM     32  C   LIG d   1       0.288  -5.582 -11.802  0.00  0.00     0.049 C 
ATOM     33  H   LIG d   1       0.359  -5.789 -12.870  0.00  0.00     0.041 H 
ATOM     34  H   LIG d   1       0.687  -6.428 -11.242  0.00  0.00     0.041 H 
BRANCH  32  35
ATOM     35  C   LIG d   1      -1.156  -5.368 -11.427  0.00  0.00    -0.038 A 
ATOM     36  C   LIG d   1      -1.941  -4.504 -12.168  0.00  0.00    -0.055 A 
ATOM     37  C   LIG d   1      -3.265  -4.305 -11.826  0.00  0.00    -0.020 A 
ATOM     38  H   LIG d   1      -1.519  -3.983 -13.015  0.00  0.00     0.062 H 
ATOM     39  C   LIG d   1      -3.806  -4.974 -10.738  0.00  0.00     0.120 A 
ATOM     40  H   LIG d   1      -3.878  -3.631 -12.406  0.00  0.00     0.065 H 
ATOM     41  C   LIG d   1      -3.017  -5.841  -9.996  0.00  0.00    -0.020 A 
ATOM     42  C   LIG d   1      -1.696  -6.040 -10.345  0.00  0.00    -0.055 A 
ATOM     43  H   LIG d   1      -3.436  -6.363  -9.148  0.00  0.00     0.065 H 
ATOM     44  H   LIG d   1      -1.082  -6.718  -9.771  0.00  0.00     0.062 H 
BRANCH  39  45
ATOM     45  O   LIG d   1      -5.109  -4.782 -10.400  0.00  0.00    -0.495 OA
BRANCH  45  46
ATOM     46  C   LIG d   1      -5.490  -3.461 -10.010  0.00  0.00     0.079 C 
ATOM     47  H   LIG d   1      -6.473  -3.231 -10.420  0.00  0.00     0.066 H 
ATOM     48  H   LIG d   1      -5.527  -3.400  -8.922  0.00  0.00     0.066 H 
ATOM     49  H   LIG d   1      -4.761  -2.746 -10.390  0.00  0.00     0.066 H 
ENDBRANCH  45  46
ENDBRANCH  39  45
ENDBRANCH  32  35
ENDBRANCH  29  32
ENDBRANCH   1  28
BRANCH  26  50
ATOM     50  C   LIG d   1       2.757   0.350  -5.361  0.00  0.00    -0.029 C 
ATOM     51  H   LIG d   1       2.410   1.380  -5.269  0.00  0.00     0.082 H 
ATOM     52  H   LIG d   1       1.910  -0.328  -5.257  0.00  0.00     0.082 H 
BRANCH  50  53
ATOM     53  C   LIG d   1       3.783   0.057  -4.264  0.00  0.00    -0.001 C 
ATOM     54  C   LIG d   1       3.710   1.147  -3.194  0.00  0.00    -0.045 C 
ATOM     55  C   LIG d   1       4.736   0.854  -2.097  0.00  0.00    -0.053 C 
ATOM     56  H   LIG d   1       3.927   2.115  -3.644  0.00  0.00     0.027 H 
ATOM     57  H   LIG d   1       2.710   1.164  -2.760  0.00  0.00     0.027 H 
ATOM     58  C   LIG d   1       4.430  -0.505  -1.463  0.00  0.00    -0.053 C 
ATOM     59  H   LIG d   1       5.736   0.837  -2.530  0.00  0.00     0.026 H 
ATOM     60  H   LIG d   1       4.684   1.631  -1.334  0.00  0.00     0.026 H 
ATOM     61  C   LIG d   1       4.503  -1.595  -2.534  0.00  0.00    -0.053 C 
ATOM     62  H   LIG d   1       5.161  -0.714  -0.682  0.00  0.00     0.026 H 
ATOM     63  H   LIG d   1       3.430  -0.487  -1.030  0.00  0.00     0.026 H 
ATOM     64  C   LIG d   1       3.477  -1.302  -3.630  0.00  0.00    -0.045 C 
ATOM     65  H   LIG d   1       5.503  -1.612  -2.967  0.00  0.00     0.026 H 
ATOM     66  H   LIG d   1       4.286  -2.563  -2.083  0.00  0.00     0.026 H 
ATOM     67  H   LIG d   1       2.478  -1.285  -3.198  0.00  0.00     0.027 H 
ATOM     68  H   LIG d   1       3.529  -2.078  -4.393  0.00  0.00     0.027 H 
ATOM     69  H   LIG d   1       4.783   0.039  -4.698  0.00  0.00     0.035 H 
ENDBRANCH  50  53
ENDBRANCH  26  50
TORSDOF 7
ENDMDL
MODEL 5
REMARK VINA RESULT:      -7.3      4.435      9.617
REMARK  7 active torsions:
REMARK  status: ('A' for Active; 'I' for Inactive)
REMARK    1  A    between atoms: C_1  and  O_2 
REMARK    2  A    between atoms: O_2  and  C_3 
REMARK    3  A    between atoms: C_6  and  C_9 
REMARK    4  A    between atoms: C_9  and  C_10 
REMARK       I    between atoms: C_10  and  N_12 
REMARK    5  A    between atoms: N_12  and  C_13 
REMARK    6  A    between atoms: C_28  and  C_29 
REMARK    7  A    between atoms: C_28  and  N_68 
ROOT
ATOM      1  C   LIG d   1       9.787   1.651  -5.596  0.00  0.00     0.099 C 
ATOM      2  C   LIG d   1      10.731   0.805  -5.081  0.00  0.00    -0.034 C 
ATOM      3  C   LIG d   1      10.596  -0.571  -5.294  0.00  0.00    -0.040 C 
ATOM      4  C   LIG d   1       9.553  -1.057  -6.017  0.00  0.00     0.030 C 
ATOM      5  N   LIG d   1       8.671  -0.218  -6.608  0.00  0.00    -0.310 N 
ATOM      6  C   LIG d   1       8.720   1.111  -6.341  0.00  0.00     0.273 C 
ATOM      7  O   LIG d   1       7.837   1.846  -6.753  0.00  0.00    -0.266 OA
ATOM      8  C   LIG d   1       7.672  -0.665  -7.582  0.00  0.00     0.034 C 
ATOM      9  C   LIG d   1       7.375  -2.150  -7.459  0.00  0.00     0.018 C 
ATOM     10  H   LIG d   1       6.827  -2.467  -8.346  0.00  0.00     0.037 H 
ATOM     11  C   LIG d   1       8.691  -2.931  -7.398  0.00  0.00    -0.031 C 
ATOM     12  C   LIG d   1       9.392  -2.560  -6.086  0.00  0.00     0.040 C 
ATOM     13  H   LIG d   1      10.362  -3.052  -6.018  0.00  0.00     0.042 H 
ATOM     14  C   LIG d   1       8.479  -2.980  -4.923  0.00  0.00    -0.024 C 
ATOM     15  C   LIG d   1       6.514  -2.453  -6.240  0.00  0.00    -0.027 C 
ATOM     16  H   LIG d   1      11.568   1.194  -4.518  0.00  0.00     0.064 H 
ATOM     17  H   LIG d   1      11.325  -1.251  -4.881  0.00  0.00     0.064 H 
ATOM     18  H   LIG d   1       6.750  -0.105  -7.424  0.00  0.00     0.050 H 
ATOM     19  H   LIG d   1       8.042  -0.462  -8.586  0.00  0.00     0.050 H 
ATOM     20  H   LIG d   1       8.487  -4.001  -7.419  0.00  0.00     0.028 H 
ATOM     21  H   LIG d   1       9.321  -2.658  -8.244  0.00  0.00     0.028 H 
ATOM     22  H   LIG d   1       8.236  -4.040  -5.010  0.00  0.00     0.082 H 
ATOM     23  H   LIG d   1       8.981  -2.795  -3.974  0.00  0.00     0.082 H 
ATOM     24  H   LIG d   1       5.619  -1.831  -6.271  0.00  0.00     0.082 H 
ATOM     25  H   LIG d   1       6.222  -3.502  -6.260  0.00  0.00     0.082 H 
ATOM     26  N   LIG d   1       7.253  -2.152  -4.997  0.00  0.00     0.236 N 
ATOM     27  H   LIG d   1       7.522  -1.161  -5.000  0.00  0.00     0.203 HD
ENDROOT
BRANCH   1  28
ATOM     28  N   LIG d   1       9.876   3.033  -5.381  0.00  0.00    -0.281 N 
ATOM     29  C   LIG d   1       9.319   3.582  -4.283  0.00  0.00     0.222 C 
ATOM     30  O   LIG d   1       8.795   2.872  -3.450  0.00  0.00    -0.275 OA
ATOM     31  H   LIG d   1      10.342   3.594  -6.020  0.00  0.00     0.155 HD
BRANCH  29  32
ATOM     32  C   LIG d   1       9.348   5.075  -4.090  0.00  0.00     0.049 C 
ATOM     33  H   LIG d   1       9.926   5.534  -4.892  0.00  0.00     0.041 H 
ATOM     34  H   LIG d   1       8.330   5.463  -4.109  0.00  0.00     0.041 H 
BRANCH  32  35
ATOM     35  C   LIG d   1       9.984   5.398  -2.763  0.00  0.00    -0.038 A 
ATOM     36  C   LIG d   1       9.557   6.498  -2.041  0.00  0.00    -0.055 A 
ATOM     37  C   LIG d   1      10.139   6.796  -0.825  0.00  0.00    -0.020 A 
ATOM     38  H   LIG d   1       8.769   7.126  -2.430  0.00  0.00     0.062 H 
ATOM     39  C   LIG d   1      11.151   5.989  -0.326  0.00  0.00     0.120 A 
ATOM     40  H   LIG d   1       9.804   7.655  -0.262  0.00  0.00     0.065 H 
ATOM     41  C   LIG d   1      11.577   4.886  -1.050  0.00  0.00    -0.020 A 
ATOM     42  C   LIG d   1      10.989   4.589  -2.264  0.00  0.00    -0.055 A 
ATOM     43  H   LIG d   1      12.366   4.257  -0.664  0.00  0.00     0.065 H 
ATOM     44  H   LIG d   1      11.317   3.728  -2.827  0.00  0.00     0.062 H 
BRANCH  39  45
ATOM     45  O   LIG d   1      11.724   6.280   0.873  0.00  0.00    -0.495 OA
BRANCH  45  46
ATOM     46  C   LIG d   1      11.005   5.896   2.046  0.00  0.00     0.079 C 
ATOM     47  H   LIG d   1      11.266   6.562   2.867  0.00  0.00     0.066 H 
ATOM     48  H   LIG d   1       9.934   5.961   1.852  0.00  0.00     0.066 H 
ATOM     49  H   LIG d   1      11.263   4.871   2.312  0.00  0.00     0.066 H 
ENDBRANCH  45  46
ENDBRANCH  39  45
ENDBRANCH  32  35
ENDBRANCH  29  32
ENDBRANCH   1  28
BRANCH  26  50
ATOM     50  C   LIG d   1       6.395  -2.414  -3.824  0.00  0.00    -0.029 C 
ATOM     51  H   LIG d   1       5.772  -3.285  -4.029  0.00  0.00     0.082 H 
ATOM     52  H   LIG d   1       7.028  -2.615  -2.961  0.00  0.00     0.082 H 
BRANCH  50  53
ATOM     53  C   LIG d   1       5.502  -1.206  -3.532  0.00  0.00    -0.001 C 
ATOM     54  C   LIG d   1       4.589  -1.523  -2.346  0.00  0.00    -0.045 C 
ATOM     55  C   LIG d   1       3.697  -0.315  -2.053  0.00  0.00    -0.053 C 
ATOM     56  H   LIG d   1       3.967  -2.384  -2.585  0.00  0.00     0.027 H 
ATOM     57  H   LIG d   1       5.197  -1.746  -1.469  0.00  0.00     0.027 H 
ATOM     58  C   LIG d   1       4.570   0.895  -1.715  0.00  0.00    -0.053 C 
ATOM     59  H   LIG d   1       3.089  -0.092  -2.930  0.00  0.00     0.026 H 
ATOM     60  H   LIG d   1       3.046  -0.541  -1.208  0.00  0.00     0.026 H 
ATOM     61  C   LIG d   1       5.483   1.211  -2.901  0.00  0.00    -0.053 C 
ATOM     62  H   LIG d   1       3.934   1.755  -1.506  0.00  0.00     0.026 H 
ATOM     63  H   LIG d   1       5.178   0.671  -0.838  0.00  0.00     0.026 H 
ATOM     64  C   LIG d   1       6.376   0.004  -3.194  0.00  0.00    -0.045 C 
ATOM     65  H   LIG d   1       4.875   1.434  -3.778  0.00  0.00     0.026 H 
ATOM     66  H   LIG d   1       6.106   2.073  -2.661  0.00  0.00     0.026 H 
ATOM     67  H   LIG d   1       6.984  -0.220  -2.318  0.00  0.00     0.027 H 
ATOM     68  H   LIG d   1       7.027   0.229  -4.039  0.00  0.00     0.027 H 
ATOM     69  H   LIG d   1       4.895  -0.982  -4.408  0.00  0.00     0.035 H 
ENDBRANCH  50  53
ENDBRANCH  26  50
TORSDOF 7
ENDMDL
MODEL 6
REMARK VINA RESULT:      -6.9      4.274      7.911
REMARK  7 active torsions:
REMARK  status: ('A' for Active; 'I' for Inactive)
REMARK    1  A    between atoms: C_1  and  O_2 
REMARK    2  A    between atoms: O_2  and  C_3 
REMARK    3  A    between atoms: C_6  and  C_9 
REMARK    4  A    between atoms: C_9  and  C_10 
REMARK       I    between atoms: C_10  and  N_12 
REMARK    5  A    between atoms: N_12  and  C_13 
REMARK    6  A    between atoms: C_28  and  C_29 
REMARK    7  A    between atoms: C_28  and  N_68 
ROOT
ATOM      1  C   LIG d   1       4.332  -4.725  -8.372  0.00  0.00     0.099 C 
ATOM      2  C   LIG d   1       3.156  -4.481  -9.026  0.00  0.00    -0.034 C 
ATOM      3  C   LIG d   1       2.826  -3.162  -9.358  0.00  0.00    -0.040 C 
ATOM      4  C   LIG d   1       3.671  -2.143  -9.051  0.00  0.00     0.030 C 
ATOM      5  N   LIG d   1       4.878  -2.390  -8.490  0.00  0.00    -0.310 N 
ATOM      6  C   LIG d   1       5.183  -3.644  -8.070  0.00  0.00     0.273 C 
ATOM      7  O   LIG d   1       6.205  -3.837  -7.431  0.00  0.00    -0.266 OA
ATOM      8  C   LIG d   1       5.918  -1.369  -8.350  0.00  0.00     0.034 C 
ATOM      9  C   LIG d   1       5.349   0.040  -8.390  0.00  0.00     0.018 C 
ATOM     10  H   LIG d   1       6.172   0.741  -8.528  0.00  0.00     0.037 H 
ATOM     11  C   LIG d   1       4.395   0.172  -9.580  0.00  0.00    -0.031 C 
ATOM     12  C   LIG d   1       3.187  -0.733  -9.310  0.00  0.00     0.040 C 
ATOM     13  H   LIG d   1       2.499  -0.714 -10.156  0.00  0.00     0.042 H 
ATOM     14  C   LIG d   1       2.497  -0.238  -8.028  0.00  0.00    -0.024 C 
ATOM     15  C   LIG d   1       4.640   0.397  -7.091  0.00  0.00    -0.027 C 
ATOM     16  H   LIG d   1       2.491  -5.294  -9.282  0.00  0.00     0.064 H 
ATOM     17  H   LIG d   1       1.895  -2.953  -9.861  0.00  0.00     0.064 H 
ATOM     18  H   LIG d   1       6.433  -1.516  -7.400  0.00  0.00     0.050 H 
ATOM     19  H   LIG d   1       6.636  -1.482  -9.162  0.00  0.00     0.050 H 
ATOM     20  H   LIG d   1       4.067   1.206  -9.678  0.00  0.00     0.028 H 
ATOM     21  H   LIG d   1       4.898  -0.145 -10.493  0.00  0.00     0.028 H 
ATOM     22  H   LIG d   1       2.245   0.818  -8.131  0.00  0.00     0.082 H 
ATOM     23  H   LIG d   1       1.592  -0.818  -7.849  0.00  0.00     0.082 H 
ATOM     24  H   LIG d   1       5.317   0.225  -6.254  0.00  0.00     0.082 H 
ATOM     25  H   LIG d   1       4.360   1.450  -7.113  0.00  0.00     0.082 H 
ATOM     26  N   LIG d   1       3.441  -0.446  -6.907  0.00  0.00     0.236 N 
ATOM     27  H   LIG d   1       3.727  -1.433  -6.891  0.00  0.00     0.203 HD
ENDROOT
BRANCH   1  28
ATOM     28  N   LIG d   1       4.683  -6.030  -8.000  0.00  0.00    -0.281 N 
ATOM     29  C   LIG d   1       4.376  -6.487  -6.770  0.00  0.00     0.222 C 
ATOM     30  O   LIG d   1       3.741  -5.790  -6.005  0.00  0.00    -0.275 OA
ATOM     31  H   LIG d   1       5.143  -6.606  -8.630  0.00  0.00     0.155 HD
BRANCH  29  32
ATOM     32  C   LIG d   1       4.820  -7.861  -6.344  0.00  0.00     0.049 C 
ATOM     33  H   LIG d   1       4.040  -8.325  -5.740  0.00  0.00     0.041 H 
ATOM     34  H   LIG d   1       5.006  -8.473  -7.227  0.00  0.00     0.041 H 
BRANCH  32  35
ATOM     35  C   LIG d   1       6.085  -7.751  -5.533  0.00  0.00    -0.038 A 
ATOM     36  C   LIG d   1       6.373  -8.702  -4.570  0.00  0.00    -0.055 A 
ATOM     37  C   LIG d   1       7.533  -8.603  -3.826  0.00  0.00    -0.020 A 
ATOM     38  H   LIG d   1       5.691  -9.521  -4.400  0.00  0.00     0.062 H 
ATOM     39  C   LIG d   1       8.408  -7.550  -4.045  0.00  0.00     0.120 A 
ATOM     40  H   LIG d   1       7.757  -9.346  -3.075  0.00  0.00     0.065 H 
ATOM     41  C   LIG d   1       8.118  -6.598  -5.011  0.00  0.00    -0.020 A 
ATOM     42  C   LIG d   1       6.960  -6.704  -5.757  0.00  0.00    -0.055 A 
ATOM     43  H   LIG d   1       8.798  -5.777  -5.183  0.00  0.00     0.065 H 
ATOM     44  H   LIG d   1       6.735  -5.966  -6.513  0.00  0.00     0.062 H 
BRANCH  39  45
ATOM     45  O   LIG d   1       9.551  -7.451  -3.314  0.00  0.00    -0.495 OA
BRANCH  45  46
ATOM     46  C   LIG d   1       9.552  -8.070  -2.026  0.00  0.00     0.079 C 
ATOM     47  H   LIG d   1      10.579  -8.195  -1.685  0.00  0.00     0.066 H 
ATOM     48  H   LIG d   1       9.010  -7.440  -1.320  0.00  0.00     0.066 H 
ATOM     49  H   LIG d   1       9.069  -9.044  -2.090  0.00  0.00     0.066 H 
ENDBRANCH  45  46
ENDBRANCH  39  45
ENDBRANCH  32  35
ENDBRANCH  29  32
ENDBRANCH   1  28
BRANCH  26  50
ATOM     50  C   LIG d   1       2.784  -0.117  -5.626  0.00  0.00    -0.029 C 
ATOM     51  H   LIG d   1       2.359   0.885  -5.694  0.00  0.00     0.082 H 
ATOM     52  H   LIG d   1       1.988  -0.838  -5.442  0.00  0.00     0.082 H 
BRANCH  50  53
ATOM     53  C   LIG d   1       3.793  -0.165  -4.476  0.00  0.00    -0.001 C 
ATOM     54  C   LIG d   1       3.349   0.792  -3.368  0.00  0.00    -0.045 C 
ATOM     55  C   LIG d   1       4.358   0.743  -2.219  0.00  0.00    -0.053 C 
ATOM     56  H   LIG d   1       3.298   1.806  -3.763  0.00  0.00     0.027 H 
ATOM     57  H   LIG d   1       2.367   0.494  -3.002  0.00  0.00     0.027 H 
ATOM     58  C   LIG d   1       4.429  -0.681  -1.664  0.00  0.00    -0.053 C 
ATOM     59  H   LIG d   1       5.340   1.041  -2.585  0.00  0.00     0.026 H 
ATOM     60  H   LIG d   1       4.042   1.425  -1.429  0.00  0.00     0.026 H 
ATOM     61  C   LIG d   1       4.873  -1.638  -2.771  0.00  0.00    -0.053 C 
ATOM     62  H   LIG d   1       5.148  -0.716  -0.844  0.00  0.00     0.026 H 
ATOM     63  H   LIG d   1       3.447  -0.979  -1.298  0.00  0.00     0.026 H 
ATOM     64  C   LIG d   1       3.864  -1.590  -3.921  0.00  0.00    -0.045 C 
ATOM     65  H   LIG d   1       5.855  -1.340  -3.137  0.00  0.00     0.026 H 
ATOM     66  H   LIG d   1       4.924  -2.653  -2.377  0.00  0.00     0.026 H 
ATOM     67  H   LIG d   1       2.882  -1.888  -3.556  0.00  0.00     0.027 H 
ATOM     68  H   LIG d   1       4.180  -2.271  -4.711  0.00  0.00     0.027 H 
ATOM     69  H   LIG d   1       4.775   0.132  -4.842  0.00  0.00     0.035 H 
ENDBRANCH  50  53
ENDBRANCH  26  50
TORSDOF 7
ENDMDL
MODEL 7
REMARK VINA RESULT:      -6.8      2.524      4.445
REMARK  7 active torsions:
REMARK  status: ('A' for Active; 'I' for Inactive)
REMARK    1  A    between atoms: C_1  and  O_2 
REMARK    2  A    between atoms: O_2  and  C_3 
REMARK    3  A    between atoms: C_6  and  C_9 
REMARK    4  A    between atoms: C_9  and  C_10 
REMARK       I    between atoms: C_10  and  N_12 
REMARK    5  A    between atoms: N_12  and  C_13 
REMARK    6  A    between atoms: C_28  and  C_29 
REMARK    7  A    between atoms: C_28  and  N_68 
ROOT
ATOM      1  C   LIG d   1       7.113  -0.529  -8.756  0.00  0.00     0.099 C 
ATOM      2  C   LIG d   1       8.229   0.130  -8.320  0.00  0.00    -0.034 C 
ATOM      3  C   LIG d   1       9.079  -0.508  -7.409  0.00  0.00    -0.040 C 
ATOM      4  C   LIG d   1       8.808  -1.768  -6.980  0.00  0.00     0.030 C 
ATOM      5  N   LIG d   1       7.757  -2.458  -7.481  0.00  0.00    -0.310 N 
ATOM      6  C   LIG d   1       6.864  -1.835  -8.289  0.00  0.00     0.273 C 
ATOM      7  O   LIG d   1       5.840  -2.411  -8.620  0.00  0.00    -0.266 OA
ATOM      8  C   LIG d   1       7.549  -3.887  -7.235  0.00  0.00     0.034 C 
ATOM      9  C   LIG d   1       8.277  -4.367  -5.990  0.00  0.00     0.018 C 
ATOM     10  H   LIG d   1       8.289  -5.457  -5.996  0.00  0.00     0.037 H 
ATOM     11  C   LIG d   1       9.723  -3.865  -6.018  0.00  0.00    -0.031 C 
ATOM     12  C   LIG d   1       9.688  -2.338  -5.889  0.00  0.00     0.040 C 
ATOM     13  H   LIG d   1      10.695  -1.926  -5.956  0.00  0.00     0.042 H 
ATOM     14  C   LIG d   1       9.039  -1.988  -4.540  0.00  0.00    -0.024 C 
ATOM     15  C   LIG d   1       7.575  -3.912  -4.717  0.00  0.00    -0.027 C 
ATOM     16  H   LIG d   1       8.451   1.127  -8.673  0.00  0.00     0.064 H 
ATOM     17  H   LIG d   1       9.956   0.006  -7.045  0.00  0.00     0.064 H 
ATOM     18  H   LIG d   1       6.482  -4.073  -7.115  0.00  0.00     0.050 H 
ATOM     19  H   LIG d   1       7.912  -4.450  -8.094  0.00  0.00     0.050 H 
ATOM     20  H   LIG d   1      10.279  -4.294  -5.185  0.00  0.00     0.028 H 
ATOM     21  H   LIG d   1      10.193  -4.146  -6.961  0.00  0.00     0.028 H 
ATOM     22  H   LIG d   1       9.576  -2.488  -3.733  0.00  0.00     0.082 H 
ATOM     23  H   LIG d   1       9.064  -0.910  -4.387  0.00  0.00     0.082 H 
ATOM     24  H   LIG d   1       6.530  -4.219  -4.756  0.00  0.00     0.082 H 
ATOM     25  H   LIG d   1       8.054  -4.380  -3.858  0.00  0.00     0.082 H 
ATOM     26  N   LIG d   1       7.630  -2.441  -4.594  0.00  0.00     0.236 N 
ATOM     27  H   LIG d   1       7.177  -2.021  -5.415  0.00  0.00     0.203 HD
ENDROOT
BRANCH   1  28
ATOM     28  N   LIG d   1       6.225   0.087  -9.649  0.00  0.00    -0.281 N 
ATOM     29  C   LIG d   1       5.279   0.928  -9.186  0.00  0.00     0.222 C 
ATOM     30  O   LIG d   1       5.234   1.199  -8.004  0.00  0.00    -0.275 OA
ATOM     31  H   LIG d   1       6.295  -0.087 -10.600  0.00  0.00     0.155 HD
BRANCH  29  32
ATOM     32  C   LIG d   1       4.277   1.530 -10.135  0.00  0.00     0.049 C 
ATOM     33  H   LIG d   1       3.736   2.332  -9.632  0.00  0.00     0.041 H 
ATOM     34  H   LIG d   1       4.796   1.933 -11.004  0.00  0.00     0.041 H 
BRANCH  32  35
ATOM     35  C   LIG d   1       3.303   0.469 -10.579  0.00  0.00    -0.038 A 
ATOM     36  C   LIG d   1       3.452  -0.131 -11.817  0.00  0.00    -0.055 A 
ATOM     37  C   LIG d   1       2.561  -1.104 -12.225  0.00  0.00    -0.020 A 
ATOM     38  H   LIG d   1       4.264   0.163 -12.464  0.00  0.00     0.062 H 
ATOM     39  C   LIG d   1       1.518  -1.481 -11.392  0.00  0.00     0.120 A 
ATOM     40  H   LIG d   1       2.678  -1.572 -13.191  0.00  0.00     0.065 H 
ATOM     41  C   LIG d   1       1.371  -0.879 -10.151  0.00  0.00    -0.020 A 
ATOM     42  C   LIG d   1       2.267   0.090  -9.745  0.00  0.00    -0.055 A 
ATOM     43  H   LIG d   1       0.559  -1.171  -9.502  0.00  0.00     0.065 H 
ATOM     44  H   LIG d   1       2.157   0.556  -8.777  0.00  0.00     0.062 H 
BRANCH  39  45
ATOM     45  O   LIG d   1       0.640  -2.440 -11.792  0.00  0.00    -0.495 OA
BRANCH  45  46
ATOM     46  C   LIG d   1       0.564  -3.622 -10.993  0.00  0.00     0.079 C 
ATOM     47  H   LIG d   1       0.700  -4.498 -11.626  0.00  0.00     0.066 H 
ATOM     48  H   LIG d   1       1.346  -3.598 -10.234  0.00  0.00     0.066 H 
ATOM     49  H   LIG d   1      -0.411  -3.671 -10.509  0.00  0.00     0.066 H 
ENDBRANCH  45  46
ENDBRANCH  39  45
ENDBRANCH  32  35
ENDBRANCH  29  32
ENDBRANCH   1  28
BRANCH  26  50
ATOM     50  C   LIG d   1       6.914  -2.010  -3.377  0.00  0.00    -0.029 C 
ATOM     51  H   LIG d   1       7.039  -2.770  -2.605  0.00  0.00     0.082 H 
ATOM     52  H   LIG d   1       7.340  -1.068  -3.031  0.00  0.00     0.082 H 
BRANCH  50  53
ATOM     53  C   LIG d   1       5.424  -1.820  -3.668  0.00  0.00    -0.001 C 
ATOM     54  C   LIG d   1       4.678  -1.557  -2.359  0.00  0.00    -0.045 C 
ATOM     55  C   LIG d   1       3.188  -1.366  -2.652  0.00  0.00    -0.053 C 
ATOM     56  H   LIG d   1       4.810  -2.405  -1.689  0.00  0.00     0.027 H 
ATOM     57  H   LIG d   1       5.074  -0.657  -1.890  0.00  0.00     0.027 H 
ATOM     58  C   LIG d   1       3.001  -0.174  -3.593  0.00  0.00    -0.053 C 
ATOM     59  H   LIG d   1       2.792  -2.267  -3.121  0.00  0.00     0.026 H 
ATOM     60  H   LIG d   1       2.656  -1.179  -1.718  0.00  0.00     0.026 H 
ATOM     61  C   LIG d   1       3.747  -0.437  -4.902  0.00  0.00    -0.053 C 
ATOM     62  H   LIG d   1       1.940  -0.038  -3.800  0.00  0.00     0.026 H 
ATOM     63  H   LIG d   1       3.397   0.725  -3.122  0.00  0.00     0.026 H 
ATOM     64  C   LIG d   1       5.237  -0.627  -4.610  0.00  0.00    -0.045 C 
ATOM     65  H   LIG d   1       3.351  -1.338  -5.371  0.00  0.00     0.026 H 
ATOM     66  H   LIG d   1       3.615   0.412  -5.573  0.00  0.00     0.026 H 
ATOM     67  H   LIG d   1       5.634   0.272  -4.141  0.00  0.00     0.027 H 
ATOM     68  H   LIG d   1       5.769  -0.815  -5.543  0.00  0.00     0.027 H 
ATOM     69  H   LIG d   1       5.028  -2.720  -4.139  0.00  0.00     0.035 H 
ENDBRANCH  50  53
ENDBRANCH  26  50
TORSDOF 7
ENDMDL
MODEL 8
REMARK VINA RESULT:      -6.5      2.138      3.860
REMARK  7 active torsions:
REMARK  status: ('A' for Active; 'I' for Inactive)
REMARK    1  A    between atoms: C_1  and  O_2 
REMARK    2  A    between atoms: O_2  and  C_3 
REMARK    3  A    between atoms: C_6  and  C_9 
REMARK    4  A    between atoms: C_9  and  C_10 
REMARK       I    between atoms: C_10  and  N_12 
REMARK    5  A    between atoms: N_12  and  C_13 
REMARK    6  A    between atoms: C_28  and  C_29 
REMARK    7  A    between atoms: C_28  and  N_68 
ROOT
ATOM      1  C   LIG d   1       5.145  -2.096  -8.210  0.00  0.00     0.099 C 
ATOM      2  C   LIG d   1       6.249  -1.459  -8.705  0.00  0.00    -0.034 C 
ATOM      3  C   LIG d   1       7.448  -1.526  -7.986  0.00  0.00    -0.040 C 
ATOM      4  C   LIG d   1       7.517  -2.228  -6.826  0.00  0.00     0.030 C 
ATOM      5  N   LIG d   1       6.453  -2.938  -6.382  0.00  0.00    -0.310 N 
ATOM      6  C   LIG d   1       5.253  -2.815  -7.004  0.00  0.00     0.273 C 
ATOM      7  O   LIG d   1       4.262  -3.336  -6.517  0.00  0.00    -0.266 OA
ATOM      8  C   LIG d   1       6.535  -3.891  -5.274  0.00  0.00     0.034 C 
ATOM      9  C   LIG d   1       7.724  -3.618  -4.367  0.00  0.00     0.018 C 
ATOM     10  H   LIG d   1       7.872  -4.484  -3.722  0.00  0.00     0.037 H 
ATOM     11  C   LIG d   1       8.982  -3.426  -5.219  0.00  0.00    -0.031 C 
ATOM     12  C   LIG d   1       8.802  -2.138  -6.031  0.00  0.00     0.040 C 
ATOM     13  H   LIG d   1       9.652  -1.983  -6.695  0.00  0.00     0.042 H 
ATOM     14  C   LIG d   1       8.654  -0.969  -5.044  0.00  0.00    -0.024 C 
ATOM     15  C   LIG d   1       7.487  -2.405  -3.479  0.00  0.00    -0.027 C 
ATOM     16  H   LIG d   1       6.197  -0.913  -9.636  0.00  0.00     0.064 H 
ATOM     17  H   LIG d   1       8.324  -1.016  -8.357  0.00  0.00     0.064 H 
ATOM     18  H   LIG d   1       5.619  -3.828  -4.685  0.00  0.00     0.050 H 
ATOM     19  H   LIG d   1       6.626  -4.898  -5.680  0.00  0.00     0.050 H 
ATOM     20  H   LIG d   1       9.855  -3.337  -4.573  0.00  0.00     0.028 H 
ATOM     21  H   LIG d   1       9.104  -4.274  -5.892  0.00  0.00     0.028 H 
ATOM     22  H   LIG d   1       9.509  -0.949  -4.367  0.00  0.00     0.082 H 
ATOM     23  H   LIG d   1       8.596  -0.029  -5.592  0.00  0.00     0.082 H 
ATOM     24  H   LIG d   1       6.549  -2.535  -2.939  0.00  0.00     0.082 H 
ATOM     25  H   LIG d   1       8.303  -2.321  -2.762  0.00  0.00     0.082 H 
ATOM     26  N   LIG d   1       7.394  -1.176  -4.294  0.00  0.00     0.236 N 
ATOM     27  H   LIG d   1       6.621  -1.278  -4.963  0.00  0.00     0.203 HD
ENDROOT
BRANCH   1  28
ATOM     28  N   LIG d   1       3.920  -2.030  -8.889  0.00  0.00    -0.281 N 
ATOM     29  C   LIG d   1       3.159  -0.922  -8.800  0.00  0.00     0.222 C 
ATOM     30  O   LIG d   1       3.561   0.042  -8.182  0.00  0.00    -0.275 OA
ATOM     31  H   LIG d   1       3.623  -2.780  -9.427  0.00  0.00     0.155 HD
BRANCH  29  32
ATOM     32  C   LIG d   1       1.809  -0.879  -9.466  0.00  0.00     0.049 C 
ATOM     33  H   LIG d   1       1.130  -1.565  -8.958  0.00  0.00     0.041 H 
ATOM     34  H   LIG d   1       1.409   0.133  -9.413  0.00  0.00     0.041 H 
BRANCH  32  35
ATOM     35  C   LIG d   1       1.948  -1.289 -10.910  0.00  0.00    -0.038 A 
ATOM     36  C   LIG d   1       1.089  -2.230 -11.447  0.00  0.00    -0.055 A 
ATOM     37  C   LIG d   1       1.215  -2.607 -12.770  0.00  0.00    -0.020 A 
ATOM     38  H   LIG d   1       0.319  -2.671 -10.832  0.00  0.00     0.062 H 
ATOM     39  C   LIG d   1       2.204  -2.040 -13.560  0.00  0.00     0.120 A 
ATOM     40  H   LIG d   1       0.543  -3.341 -13.189  0.00  0.00     0.065 H 
ATOM     41  C   LIG d   1       3.065  -1.096 -13.019  0.00  0.00    -0.020 A 
ATOM     42  C   LIG d   1       2.932  -0.718 -11.698  0.00  0.00    -0.055 A 
ATOM     43  H   LIG d   1       3.836  -0.654 -13.632  0.00  0.00     0.065 H 
ATOM     44  H   LIG d   1       3.598   0.020 -11.277  0.00  0.00     0.062 H 
BRANCH  39  45
ATOM     45  O   LIG d   1       2.330  -2.408 -14.863  0.00  0.00    -0.495 OA
BRANCH  45  46
ATOM     46  C   LIG d   1       3.082  -1.540 -15.712  0.00  0.00     0.079 C 
ATOM     47  H   LIG d   1       2.426  -0.769 -16.116  0.00  0.00     0.066 H 
ATOM     48  H   LIG d   1       3.881  -1.072 -15.137  0.00  0.00     0.066 H 
ATOM     49  H   LIG d   1       3.513  -2.116 -16.531  0.00  0.00     0.066 H 
ENDBRANCH  45  46
ENDBRANCH  39  45
ENDBRANCH  32  35
ENDBRANCH  29  32
ENDBRANCH   1  28
BRANCH  26  50
ATOM     50  C   LIG d   1       7.126  -0.013  -3.425  0.00  0.00    -0.029 C 
ATOM     51  H   LIG d   1       7.315  -0.295  -2.388  0.00  0.00     0.082 H 
ATOM     52  H   LIG d   1       7.795   0.800  -3.707  0.00  0.00     0.082 H 
BRANCH  50  53
ATOM     53  C   LIG d   1       5.674   0.446  -3.572  0.00  0.00    -0.001 C 
ATOM     54  C   LIG d   1       4.922  -0.528  -4.481  0.00  0.00    -0.045 C 
ATOM     55  C   LIG d   1       3.469  -0.069  -4.628  0.00  0.00    -0.053 C 
ATOM     56  H   LIG d   1       5.396  -0.550  -5.462  0.00  0.00     0.027 H 
ATOM     57  H   LIG d   1       4.945  -1.526  -4.043  0.00  0.00     0.027 H 
ATOM     58  C   LIG d   1       2.803  -0.039  -3.251  0.00  0.00    -0.053 C 
ATOM     59  H   LIG d   1       3.446   0.929  -5.066  0.00  0.00     0.026 H 
ATOM     60  H   LIG d   1       2.933  -0.763  -5.276  0.00  0.00     0.026 H 
ATOM     61  C   LIG d   1       3.555   0.934  -2.342  0.00  0.00    -0.053 C 
ATOM     62  H   LIG d   1       1.768   0.288  -3.356  0.00  0.00     0.026 H 
ATOM     63  H   LIG d   1       2.826  -1.037  -2.814  0.00  0.00     0.026 H 
ATOM     64  C   LIG d   1       5.007   0.476  -2.195  0.00  0.00    -0.045 C 
ATOM     65  H   LIG d   1       3.532   1.932  -2.780  0.00  0.00     0.026 H 
ATOM     66  H   LIG d   1       3.080   0.957  -1.361  0.00  0.00     0.026 H 
ATOM     67  H   LIG d   1       5.031  -0.521  -1.757  0.00  0.00     0.027 H 
ATOM     68  H   LIG d   1       5.543   1.169  -1.547  0.00  0.00     0.027 H 
ATOM     69  H   LIG d   1       5.651   1.444  -4.009  0.00  0.00     0.035 H 
ENDBRANCH  50  53
ENDBRANCH  26  50
TORSDOF 7
ENDMDL
MODEL 9
REMARK VINA RESULT:      -6.5      7.314     10.347
REMARK  7 active torsions:
REMARK  status: ('A' for Active; 'I' for Inactive)
REMARK    1  A    between atoms: C_1  and  O_2 
REMARK    2  A    between atoms: O_2  and  C_3 
REMARK    3  A    between atoms: C_6  and  C_9 
REMARK    4  A    between atoms: C_9  and  C_10 
REMARK       I    between atoms: C_10  and  N_12 
REMARK    5  A    between atoms: N_12  and  C_13 
REMARK    6  A    between atoms: C_28  and  C_29 
REMARK    7  A    between atoms: C_28  and  N_68 
ROOT
ATOM      1  C   LIG d   1       6.315  -6.966  -6.203  0.00  0.00     0.099 C 
ATOM      2  C   LIG d   1       7.437  -7.633  -6.611  0.00  0.00    -0.034 C 
ATOM      3  C   LIG d   1       7.613  -8.966  -6.221  0.00  0.00    -0.040 C 
ATOM      4  C   LIG d   1       6.674  -9.592  -5.465  0.00  0.00     0.030 C 
ATOM      5  N   LIG d   1       5.518  -8.966  -5.139  0.00  0.00    -0.310 N 
ATOM      6  C   LIG d   1       5.362  -7.648  -5.420  0.00  0.00     0.273 C 
ATOM      7  O   LIG d   1       4.387  -7.049  -4.995  0.00  0.00    -0.266 OA
ATOM      8  C   LIG d   1       4.380  -9.657  -4.531  0.00  0.00     0.034 C 
ATOM      9  C   LIG d   1       4.794 -10.945  -3.838  0.00  0.00     0.018 C 
ATOM     10  H   LIG d   1       3.896 -11.526  -3.625  0.00  0.00     0.037 H 
ATOM     11  C   LIG d   1       5.691 -11.762  -4.771  0.00  0.00    -0.031 C 
ATOM     12  C   LIG d   1       6.996 -10.982  -4.963  0.00  0.00     0.040 C 
ATOM     13  H   LIG d   1       7.652 -11.499  -5.663  0.00  0.00     0.042 H 
ATOM     14  C   LIG d   1       7.668 -10.832  -3.588  0.00  0.00    -0.024 C 
ATOM     15  C   LIG d   1       5.500 -10.671  -2.517  0.00  0.00    -0.027 C 
ATOM     16  H   LIG d   1       8.177  -7.138  -7.225  0.00  0.00     0.064 H 
ATOM     17  H   LIG d   1       8.501  -9.499  -6.524  0.00  0.00     0.064 H 
ATOM     18  H   LIG d   1       3.914  -8.996  -3.801  0.00  0.00     0.050 H 
ATOM     19  H   LIG d   1       3.654  -9.894  -5.309  0.00  0.00     0.050 H 
ATOM     20  H   LIG d   1       5.902 -12.733  -4.323  0.00  0.00     0.028 H 
ATOM     21  H   LIG d   1       5.197 -11.898  -5.733  0.00  0.00     0.028 H 
ATOM     22  H   LIG d   1       7.803 -11.815  -3.136  0.00  0.00     0.082 H 
ATOM     23  H   LIG d   1       8.635 -10.343  -3.701  0.00  0.00     0.082 H 
ATOM     24  H   LIG d   1       4.871 -10.027  -1.902  0.00  0.00     0.082 H 
ATOM     25  H   LIG d   1       5.665 -11.614  -1.997  0.00  0.00     0.082 H 
ATOM     26  N   LIG d   1       6.787  -9.985  -2.752  0.00  0.00     0.236 N 
ATOM     27  H   LIG d   1       6.609  -9.102  -3.245  0.00  0.00     0.203 HD
ENDROOT
BRANCH   1  28
ATOM     28  N   LIG d   1       6.117  -5.624  -6.552  0.00  0.00    -0.281 N 
ATOM     29  C   LIG d   1       6.702  -4.646  -5.831  0.00  0.00     0.222 C 
ATOM     30  O   LIG d   1       7.449  -4.930  -4.918  0.00  0.00    -0.275 OA
ATOM     31  H   LIG d   1       5.563  -5.398  -7.315  0.00  0.00     0.155 HD
BRANCH  29  32
ATOM     32  C   LIG d   1       6.428  -3.202  -6.159  0.00  0.00     0.049 C 
ATOM     33  H   LIG d   1       7.350  -2.723  -6.488  0.00  0.00     0.041 H 
ATOM     34  H   LIG d   1       5.685  -3.144  -6.954  0.00  0.00     0.041 H 
BRANCH  32  35
ATOM     35  C   LIG d   1       5.907  -2.498  -4.933  0.00  0.00    -0.038 A 
ATOM     36  C   LIG d   1       4.716  -2.905  -4.357  0.00  0.00    -0.055 A 
ATOM     37  C   LIG d   1       4.236  -2.261  -3.233  0.00  0.00    -0.020 A 
ATOM     38  H   LIG d   1       4.161  -3.725  -4.787  0.00  0.00     0.062 H 
ATOM     39  C   LIG d   1       4.950  -1.207  -2.681  0.00  0.00     0.120 A 
ATOM     40  H   LIG d   1       3.307  -2.579  -2.784  0.00  0.00     0.065 H 
ATOM     41  C   LIG d   1       6.144  -0.802  -3.259  0.00  0.00    -0.020 A 
ATOM     42  C   LIG d   1       6.622  -1.452  -4.380  0.00  0.00    -0.055 A 
ATOM     43  H   LIG d   1       6.701   0.018  -2.831  0.00  0.00     0.065 H 
ATOM     44  H   LIG d   1       7.554  -1.140  -4.829  0.00  0.00     0.062 H 
BRANCH  39  45
ATOM     45  O   LIG d   1       4.481  -0.574  -1.573  0.00  0.00    -0.495 OA
BRANCH  45  46
ATOM     46  C   LIG d   1       4.500   0.855  -1.587  0.00  0.00     0.079 C 
ATOM     47  H   LIG d   1       3.482   1.232  -1.673  0.00  0.00     0.066 H 
ATOM     48  H   LIG d   1       4.945   1.221  -0.661  0.00  0.00     0.066 H 
ATOM     49  H   LIG d   1       5.090   1.203  -2.434  0.00  0.00     0.066 H 
ENDBRANCH  45  46
ENDBRANCH  39  45
ENDBRANCH  32  35
ENDBRANCH  29  32
ENDBRANCH   1  28
BRANCH  26  50
ATOM     50  C   LIG d   1       7.444  -9.691  -1.462  0.00  0.00    -0.029 C 
ATOM     51  H   LIG d   1       7.788  -8.656  -1.469  0.00  0.00     0.082 H 
ATOM     52  H   LIG d   1       6.721  -9.828  -0.658  0.00  0.00     0.082 H 
BRANCH  50  53
ATOM     53  C   LIG d   1       8.637 -10.623  -1.241  0.00  0.00    -0.001 C 
ATOM     54  C   LIG d   1       9.753  -9.862  -0.525  0.00  0.00    -0.045 C 
ATOM     55  C   LIG d   1      10.946 -10.795  -0.303  0.00  0.00    -0.053 C 
ATOM     56  H   LIG d   1      10.064  -9.014  -1.134  0.00  0.00     0.027 H 
ATOM     57  H   LIG d   1       9.389  -9.503   0.438  0.00  0.00     0.027 H 
ATOM     58  C   LIG d   1      10.509 -11.985   0.554  0.00  0.00    -0.053 C 
ATOM     59  H   LIG d   1      11.310 -11.153  -1.266  0.00  0.00     0.026 H 
ATOM     60  H   LIG d   1      11.742 -10.252   0.207  0.00  0.00     0.026 H 
ATOM     61  C   LIG d   1       9.393 -12.746  -0.162  0.00  0.00    -0.053 C 
ATOM     62  H   LIG d   1      11.359 -12.649   0.712  0.00  0.00     0.026 H 
ATOM     63  H   LIG d   1      10.145 -11.626   1.516  0.00  0.00     0.026 H 
ATOM     64  C   LIG d   1       8.200 -11.814  -0.384  0.00  0.00    -0.045 C 
ATOM     65  H   LIG d   1       9.757 -13.105  -1.125  0.00  0.00     0.026 H 
ATOM     66  H   LIG d   1       9.082 -13.595   0.447  0.00  0.00     0.026 H 
ATOM     67  H   LIG d   1       7.835 -11.455   0.578  0.00  0.00     0.027 H 
ATOM     68  H   LIG d   1       7.404 -12.356  -0.894  0.00  0.00     0.027 H 
ATOM     69  H   LIG d   1       9.001 -10.982  -2.203  0.00  0.00     0.035 H 
ENDBRANCH  50  53
ENDBRANCH  26  50
TORSDOF 7
ENDMDL
MODEL 10
REMARK VINA RESULT:      -6.4      2.178      4.502
REMARK  7 active torsions:
REMARK  status: ('A' for Active; 'I' for Inactive)
REMARK    1  A    between atoms: C_1  and  O_2 
REMARK    2  A    between atoms: O_2  and  C_3 
REMARK    3  A    between atoms: C_6  and  C_9 
REMARK    4  A    between atoms: C_9  and  C_10 
REMARK       I    between atoms: C_10  and  N_12 
REMARK    5  A    between atoms: N_12  and  C_13 
REMARK    6  A    between atoms: C_28  and  C_29 
REMARK    7  A    between atoms: C_28  and  N_68 
ROOT
ATOM      1  C   LIG d   1       3.965  -0.710  -6.905  0.00  0.00     0.099 C 
ATOM      2  C   LIG d   1       3.486  -0.631  -5.626  0.00  0.00    -0.034 C 
ATOM      3  C   LIG d   1       4.385  -0.392  -4.580  0.00  0.00    -0.040 C 
ATOM      4  C   LIG d   1       5.708  -0.224  -4.834  0.00  0.00     0.030 C 
ATOM      5  N   LIG d   1       6.172  -0.207  -6.106  0.00  0.00    -0.310 N 
ATOM      6  C   LIG d   1       5.343  -0.530  -7.131  0.00  0.00     0.273 C 
ATOM      7  O   LIG d   1       5.795  -0.659  -8.258  0.00  0.00    -0.266 OA
ATOM      8  C   LIG d   1       7.535   0.198  -6.454  0.00  0.00     0.034 C 
ATOM      9  C   LIG d   1       8.489   0.075  -5.277  0.00  0.00     0.018 C 
ATOM     10  H   LIG d   1       9.407   0.610  -5.519  0.00  0.00     0.037 H 
ATOM     11  C   LIG d   1       7.861   0.724  -4.041  0.00  0.00    -0.031 C 
ATOM     12  C   LIG d   1       6.639  -0.113  -3.646  0.00  0.00     0.040 C 
ATOM     13  H   LIG d   1       6.123   0.338  -2.798  0.00  0.00     0.042 H 
ATOM     14  C   LIG d   1       7.123  -1.532  -3.305  0.00  0.00    -0.024 C 
ATOM     15  C   LIG d   1       8.851  -1.377  -4.996  0.00  0.00    -0.027 C 
ATOM     16  H   LIG d   1       2.430  -0.751  -5.427  0.00  0.00     0.064 H 
ATOM     17  H   LIG d   1       4.023  -0.343  -3.565  0.00  0.00     0.064 H 
ATOM     18  H   LIG d   1       7.894  -0.432  -7.268  0.00  0.00     0.050 H 
ATOM     19  H   LIG d   1       7.522   1.235  -6.789  0.00  0.00     0.050 H 
ATOM     20  H   LIG d   1       8.581   0.735  -3.223  0.00  0.00     0.028 H 
ATOM     21  H   LIG d   1       7.552   1.742  -4.275  0.00  0.00     0.028 H 
ATOM     22  H   LIG d   1       7.892  -1.482  -2.533  0.00  0.00     0.082 H 
ATOM     23  H   LIG d   1       6.285  -2.132  -2.951  0.00  0.00     0.082 H 
ATOM     24  H   LIG d   1       9.227  -1.835  -5.911  0.00  0.00     0.082 H 
ATOM     25  H   LIG d   1       9.628  -1.411  -4.233  0.00  0.00     0.082 H 
ATOM     26  N   LIG d   1       7.662  -2.130  -4.547  0.00  0.00     0.236 N 
ATOM     27  H   LIG d   1       6.942  -2.082  -5.279  0.00  0.00     0.203 HD
ENDROOT
BRANCH   1  28
ATOM     28  N   LIG d   1       3.098  -0.973  -7.975  0.00  0.00    -0.281 N 
ATOM     29  C   LIG d   1       2.497   0.045  -8.621  0.00  0.00     0.222 C 
ATOM     30  O   LIG d   1       2.753   1.192  -8.318  0.00  0.00    -0.275 OA
ATOM     31  H   LIG d   1       2.934  -1.887  -8.252  0.00  0.00     0.155 HD
BRANCH  29  32
ATOM     32  C   LIG d   1       1.507  -0.240  -9.720  0.00  0.00     0.049 C 
ATOM     33  H   LIG d   1       0.884  -1.088  -9.437  0.00  0.00     0.041 H 
ATOM     34  H   LIG d   1       0.877   0.636  -9.878  0.00  0.00     0.041 H 
BRANCH  32  35
ATOM     35  C   LIG d   1       2.247  -0.562 -10.992  0.00  0.00    -0.038 A 
ATOM     36  C   LIG d   1       1.734  -1.497 -11.872  0.00  0.00    -0.055 A 
ATOM     37  C   LIG d   1       2.411  -1.794 -13.039  0.00  0.00    -0.020 A 
ATOM     38  H   LIG d   1       0.804  -1.997 -11.647  0.00  0.00     0.062 H 
ATOM     39  C   LIG d   1       3.607  -1.152 -13.328  0.00  0.00     0.120 A 
ATOM     40  H   LIG d   1       2.010  -2.524 -13.726  0.00  0.00     0.065 H 
ATOM     41  C   LIG d   1       4.119  -0.214 -12.444  0.00  0.00    -0.020 A 
ATOM     42  C   LIG d   1       3.436   0.084 -11.281  0.00  0.00    -0.055 A 
ATOM     43  H   LIG d   1       5.050   0.287 -12.667  0.00  0.00     0.065 H 
ATOM     44  H   LIG d   1       3.832   0.817 -10.595  0.00  0.00     0.062 H 
BRANCH  39  45
ATOM     45  O   LIG d   1       4.275  -1.441 -14.476  0.00  0.00    -0.495 OA
BRANCH  45  46
ATOM     46  C   LIG d   1       5.576  -0.872 -14.631  0.00  0.00     0.079 C 
ATOM     47  H   LIG d   1       5.901  -0.446 -13.682  0.00  0.00     0.066 H 
ATOM     48  H   LIG d   1       6.277  -1.647 -14.940  0.00  0.00     0.066 H 
ATOM     49  H   LIG d   1       5.543  -0.089 -15.388  0.00  0.00     0.066 H 
ENDBRANCH  45  46
ENDBRANCH  39  45
ENDBRANCH  32  35
ENDBRANCH  29  32
ENDBRANCH   1  28
BRANCH  26  50
ATOM     50  C   LIG d   1       8.018  -3.544  -4.315  0.00  0.00    -0.029 C 
ATOM     51  H   LIG d   1       9.089  -3.670  -4.477  0.00  0.00     0.082 H 
ATOM     52  H   LIG d   1       7.774  -3.805  -3.286  0.00  0.00     0.082 H 
BRANCH  50  53
ATOM     53  C   LIG d   1       7.246  -4.457  -5.270  0.00  0.00    -0.001 C 
ATOM     54  C   LIG d   1       7.572  -5.917  -4.954  0.00  0.00    -0.045 C 
ATOM     55  C   LIG d   1       6.799  -6.830  -5.909  0.00  0.00    -0.053 C 
ATOM     56  H   LIG d   1       8.641  -6.086  -5.075  0.00  0.00     0.027 H 
ATOM     57  H   LIG d   1       7.283  -6.139  -3.926  0.00  0.00     0.027 H 
ATOM     58  C   LIG d   1       5.298  -6.593  -5.737  0.00  0.00    -0.053 C 
ATOM     59  H   LIG d   1       7.088  -6.608  -6.936  0.00  0.00     0.026 H 
ATOM     60  H   LIG d   1       7.032  -7.871  -5.683  0.00  0.00     0.026 H 
ATOM     61  C   LIG d   1       4.972  -5.133  -6.054  0.00  0.00    -0.053 C 
ATOM     62  H   LIG d   1       4.748  -7.244  -6.418  0.00  0.00     0.026 H 
ATOM     63  H   LIG d   1       5.010  -6.816  -4.710  0.00  0.00     0.026 H 
ATOM     64  C   LIG d   1       5.744  -4.220  -5.099  0.00  0.00    -0.045 C 
ATOM     65  H   LIG d   1       5.261  -4.911  -7.081  0.00  0.00     0.026 H 
ATOM     66  H   LIG d   1       3.902  -4.964  -5.932  0.00  0.00     0.026 H 
ATOM     67  H   LIG d   1       5.456  -4.441  -4.072  0.00  0.00     0.027 H 
ATOM     68  H   LIG d   1       5.512  -3.179  -5.324  0.00  0.00     0.027 H 
ATOM     69  H   LIG d   1       7.534  -4.234  -6.298  0.00  0.00     0.035 H 
ENDBRANCH  50  53
ENDBRANCH  26  50
TORSDOF 7
ENDMDL
