MODEL 1
REMARK VINA RESULT:      -5.7      0.000      0.000
REMARK  6 active torsions:
REMARK  status: ('A' for Active; 'I' for Inactive)
REMARK    1  A    between atoms: C_3  and  C_6 
REMARK    2  A    between atoms: C_6  and  N_7 
REMARK    3  A    between atoms: N_7  and  C_8 
REMARK    4  A    between atoms: C_11  and  S_17 
REMARK    5  A    between atoms: C_13  and  C_14 
REMARK    6  A    between atoms: S_17  and  N_20 
ROOT
ATOM      1  C   LIG d   1       3.415  -0.035  -6.812  0.00  0.00     0.038 A 
ATOM      2  C   LIG d   1       2.436  -0.082  -7.796  0.00  0.00    -0.020 A 
ATOM      3  C   LIG d   1       2.618  -0.869  -8.916  0.00  0.00     0.069 A 
ATOM      4  C   LIG d   1       3.778  -1.617  -9.070  0.00  0.00     0.124 A 
ATOM      5  C   LIG d   1       4.759  -1.584  -8.105  0.00  0.00    -0.023 A 
ATOM      6  C   LIG d   1       4.593  -0.787  -6.966  0.00  0.00     0.020 A 
ATOM      7 CL   LIG d   1       1.390  -0.922 -10.142  0.00  0.00    -0.082 Cl
ATOM      8  H   LIG d   1       1.531   0.497  -7.686  0.00  0.00     0.065 H 
ATOM      9  H   LIG d   1       5.658  -2.168  -8.229  0.00  0.00     0.064 H 
ENDROOT
BRANCH   1  10
ATOM     10  N   LIG d   1       3.234   0.754  -5.686  0.00  0.00    -0.336 N 
ATOM     11  H   LIG d   1       3.719   1.590  -5.596  0.00  0.00     0.146 HD
BRANCH  10  12
ATOM     12  C   LIG d   1       2.311   0.326  -4.632  0.00  0.00     0.067 C 
ATOM     13  H   LIG d   1       1.541  -0.315  -5.061  0.00  0.00     0.054 H 
ATOM     14  H   LIG d   1       1.845   1.201  -4.180  0.00  0.00     0.054 H 
BRANCH  12  15
ATOM     15  C   LIG d   1       3.072  -0.438  -3.579  0.00  0.00     0.122 A 
ATOM     16  C   LIG d   1       3.759   0.102  -2.557  0.00  0.00    -0.019 A 
ATOM     17  C   LIG d   1       4.311  -0.971  -1.821  0.00  0.00    -0.024 A 
ATOM     18  H   LIG d   1       3.867   1.154  -2.340  0.00  0.00     0.065 H 
ATOM     19  C   LIG d   1       3.928  -2.104  -2.437  0.00  0.00     0.092 A 
ATOM     20  H   LIG d   1       4.926  -0.896  -0.936  0.00  0.00     0.065 H 
ATOM     21  O   LIG d   1       3.178  -1.776  -3.501  0.00  0.00    -0.466 OA
ATOM     22  H   LIG d   1       4.182  -3.107  -2.129  0.00  0.00     0.103 H 
ENDBRANCH  12  15
ENDBRANCH  10  12
ENDBRANCH   1  10
BRANCH   6  23
ATOM     23  C   LIG d   1       5.639  -0.742  -5.936  0.00  0.00     0.073 C 
ATOM     24  O   LIG d   1       6.155   0.326  -5.634  0.00  0.00    -0.545 OA
ATOM     25  O   LIG d   1       5.995  -1.771  -5.379  0.00  0.00    -0.545 OA
ENDBRANCH   6  23
BRANCH   4  26
ATOM     26  S   LIG d   1       3.994  -2.616 -10.505  0.00  0.00     0.057 S 
ATOM     27  O   LIG d   1       3.014  -3.642 -10.436  0.00  0.00    -0.153 OA
ATOM     28  O   LIG d   1       4.088  -1.725 -11.608  0.00  0.00    -0.153 OA
BRANCH  26  29
ATOM     29  N   LIG d   1       5.467  -3.359 -10.368  0.00  0.00    -0.203 N 
ATOM     30  H   LIG d   1       6.060  -3.131  -9.635  0.00  0.00     0.144 HD
ATOM     31  H   LIG d   1       5.736  -4.025 -11.021  0.00  0.00     0.144 HD
ENDBRANCH  26  29
ENDBRANCH   4  26
TORSDOF 6
ENDMDL
MODEL 2
REMARK VINA RESULT:      -5.6      2.474      3.137
REMARK  6 active torsions:
REMARK  status: ('A' for Active; 'I' for Inactive)
REMARK    1  A    between atoms: C_3  and  C_6 
REMARK    2  A    between atoms: C_6  and  N_7 
REMARK    3  A    between atoms: N_7  and  C_8 
REMARK    4  A    between atoms: C_11  and  S_17 
REMARK    5  A    between atoms: C_13  and  C_14 
REMARK    6  A    between atoms: S_17  and  N_20 
ROOT
ATOM      1  C   LIG d   1       3.974  -0.502  -7.439  0.00  0.00     0.038 A 
ATOM      2  C   LIG d   1       4.029  -1.867  -7.684  0.00  0.00    -0.020 A 
ATOM      3  C   LIG d   1       3.310  -2.412  -8.729  0.00  0.00     0.069 A 
ATOM      4  C   LIG d   1       2.527  -1.603  -9.542  0.00  0.00     0.124 A 
ATOM      5  C   LIG d   1       2.460  -0.248  -9.315  0.00  0.00    -0.023 A 
ATOM      6  C   LIG d   1       3.178   0.321  -8.255  0.00  0.00     0.020 A 
ATOM      7 CL   LIG d   1       3.384  -4.120  -9.030  0.00  0.00    -0.082 Cl
ATOM      8  H   LIG d   1       4.636  -2.505  -7.057  0.00  0.00     0.065 H 
ATOM      9  H   LIG d   1       1.850   0.378  -9.949  0.00  0.00     0.064 H 
ENDROOT
BRANCH   1  10
ATOM     10  N   LIG d   1       4.696   0.048  -6.389  0.00  0.00    -0.336 N 
ATOM     11  H   LIG d   1       5.018   0.961  -6.447  0.00  0.00     0.146 HD
BRANCH  10  12
ATOM     12  C   LIG d   1       4.973  -0.751  -5.193  0.00  0.00     0.067 C 
ATOM     13  H   LIG d   1       6.031  -1.012  -5.167  0.00  0.00     0.054 H 
ATOM     14  H   LIG d   1       4.375  -1.661  -5.218  0.00  0.00     0.054 H 
BRANCH  12  15
ATOM     15  C   LIG d   1       4.623   0.048  -3.964  0.00  0.00     0.122 A 
ATOM     16  C   LIG d   1       5.228  -0.047  -2.766  0.00  0.00    -0.019 A 
ATOM     17  C   LIG d   1       4.587   0.877  -1.909  0.00  0.00    -0.024 A 
ATOM     18  H   LIG d   1       6.047  -0.702  -2.509  0.00  0.00     0.065 H 
ATOM     19  C   LIG d   1       3.629   1.481  -2.634  0.00  0.00     0.092 A 
ATOM     20  H   LIG d   1       4.820   1.060  -0.870  0.00  0.00     0.065 H 
ATOM     21  O   LIG d   1       3.655   0.975  -3.878  0.00  0.00    -0.466 OA
ATOM     22  H   LIG d   1       2.952   2.244  -2.277  0.00  0.00     0.103 H 
ENDBRANCH  12  15
ENDBRANCH  10  12
ENDBRANCH   1  10
BRANCH   6  23
ATOM     23  C   LIG d   1       3.106   1.766  -8.003  0.00  0.00     0.073 C 
ATOM     24  O   LIG d   1       2.503   2.187  -7.025  0.00  0.00    -0.545 OA
ATOM     25  O   LIG d   1       3.647   2.550  -8.771  0.00  0.00    -0.545 OA
ENDBRANCH   6  23
BRANCH   4  26
ATOM     26  S   LIG d   1       1.616  -2.314 -10.872  0.00  0.00     0.057 S 
ATOM     27  O   LIG d   1       2.562  -2.647 -11.879  0.00  0.00    -0.153 OA
ATOM     28  O   LIG d   1       0.745  -3.278 -10.296  0.00  0.00    -0.153 OA
BRANCH  26  29
ATOM     29  N   LIG d   1       0.655  -1.122 -11.501  0.00  0.00    -0.203 N 
ATOM     30  H   LIG d   1      -0.011  -0.690 -10.944  0.00  0.00     0.144 HD
ATOM     31  H   LIG d   1       0.760  -0.855 -12.428  0.00  0.00     0.144 HD
ENDBRANCH  26  29
ENDBRANCH   4  26
TORSDOF 6
ENDMDL
MODEL 3
REMARK VINA RESULT:      -5.5      3.801      5.932
REMARK  6 active torsions:
REMARK  status: ('A' for Active; 'I' for Inactive)
REMARK    1  A    between atoms: C_3  and  C_6 
REMARK    2  A    between atoms: C_6  and  N_7 
REMARK    3  A    between atoms: N_7  and  C_8 
REMARK    4  A    between atoms: C_11  and  S_17 
REMARK    5  A    between atoms: C_13  and  C_14 
REMARK    6  A    between atoms: S_17  and  N_20 
ROOT
ATOM      1  C   LIG d   1       5.457  -0.564  -4.883  0.00  0.00     0.038 A 
ATOM      2  C   LIG d   1       6.059  -1.297  -5.897  0.00  0.00    -0.020 A 
ATOM      3  C   LIG d   1       7.080  -2.178  -5.602  0.00  0.00     0.069 A 
ATOM      4  C   LIG d   1       7.515  -2.338  -4.293  0.00  0.00     0.124 A 
ATOM      5  C   LIG d   1       6.930  -1.622  -3.275  0.00  0.00    -0.023 A 
ATOM      6  C   LIG d   1       5.897  -0.720  -3.557  0.00  0.00     0.020 A 
ATOM      7 CL   LIG d   1       7.828  -3.090  -6.876  0.00  0.00    -0.082 Cl
ATOM      8  H   LIG d   1       5.728  -1.179  -6.919  0.00  0.00     0.065 H 
ATOM      9  H   LIG d   1       7.271  -1.751  -2.258  0.00  0.00     0.064 H 
ENDROOT
BRANCH   1  10
ATOM     10  N   LIG d   1       4.430   0.321  -5.177  0.00  0.00    -0.336 N 
ATOM     11  H   LIG d   1       4.553   1.272  -5.032  0.00  0.00     0.146 HD
BRANCH  10  12
ATOM     12  C   LIG d   1       3.160  -0.180  -5.707  0.00  0.00     0.067 C 
ATOM     13  H   LIG d   1       2.346   0.121  -5.046  0.00  0.00     0.054 H 
ATOM     14  H   LIG d   1       3.195  -1.268  -5.767  0.00  0.00     0.054 H 
BRANCH  12  15
ATOM     15  C   LIG d   1       2.927   0.392  -7.081  0.00  0.00     0.122 A 
ATOM     16  C   LIG d   1       2.548  -0.303  -8.168  0.00  0.00    -0.019 A 
ATOM     17  C   LIG d   1       2.450   0.623  -9.232  0.00  0.00    -0.024 A 
ATOM     18  H   LIG d   1       2.354  -1.364  -8.219  0.00  0.00     0.065 H 
ATOM     19  C   LIG d   1       2.775   1.828  -8.732  0.00  0.00     0.092 A 
ATOM     20  H   LIG d   1       2.171   0.404 -10.253  0.00  0.00     0.065 H 
ATOM     21  O   LIG d   1       3.064   1.683  -7.429  0.00  0.00    -0.466 OA
ATOM     22  H   LIG d   1       2.801   2.756  -9.285  0.00  0.00     0.103 H 
ENDBRANCH  12  15
ENDBRANCH  10  12
ENDBRANCH   1  10
BRANCH   6  23
ATOM     23  C   LIG d   1       5.273   0.053  -2.475  0.00  0.00     0.073 C 
ATOM     24  O   LIG d   1       4.479  -0.486  -1.716  0.00  0.00    -0.545 OA
ATOM     25  O   LIG d   1       5.546   1.237  -2.332  0.00  0.00    -0.545 OA
ENDBRANCH   6  23
BRANCH   4  26
ATOM     26  S   LIG d   1       8.819  -3.467  -3.934  0.00  0.00     0.057 S 
ATOM     27  O   LIG d   1       8.330  -4.765  -4.245  0.00  0.00    -0.153 OA
ATOM     28  O   LIG d   1       9.993  -2.933  -4.530  0.00  0.00    -0.153 OA
BRANCH  26  29
ATOM     29  N   LIG d   1       9.060  -3.433  -2.296  0.00  0.00    -0.203 N 
ATOM     30  H   LIG d   1       8.317  -3.255  -1.700  0.00  0.00     0.144 HD
ATOM     31  H   LIG d   1       9.946  -3.594  -1.934  0.00  0.00     0.144 HD
ENDBRANCH  26  29
ENDBRANCH   4  26
TORSDOF 6
ENDMDL
MODEL 4
REMARK VINA RESULT:      -5.4      5.022      6.789
REMARK  6 active torsions:
REMARK  status: ('A' for Active; 'I' for Inactive)
REMARK    1  A    between atoms: C_3  and  C_6 
REMARK    2  A    between atoms: C_6  and  N_7 
REMARK    3  A    between atoms: N_7  and  C_8 
REMARK    4  A    between atoms: C_11  and  S_17 
REMARK    5  A    between atoms: C_13  and  C_14 
REMARK    6  A    between atoms: S_17  and  N_20 
ROOT
ATOM      1  C   LIG d   1       7.434   1.076  -4.361  0.00  0.00     0.038 A 
ATOM      2  C   LIG d   1       6.625   1.371  -3.272  0.00  0.00    -0.020 A 
ATOM      3  C   LIG d   1       5.533   0.575  -2.985  0.00  0.00     0.069 A 
ATOM      4  C   LIG d   1       5.234  -0.522  -3.782  0.00  0.00     0.124 A 
ATOM      5  C   LIG d   1       6.024  -0.830  -4.865  0.00  0.00    -0.023 A 
ATOM      6  C   LIG d   1       7.132  -0.031  -5.173  0.00  0.00     0.020 A 
ATOM      7 CL   LIG d   1       4.527   0.950  -1.621  0.00  0.00    -0.082 Cl
ATOM      8  H   LIG d   1       6.850   2.222  -2.646  0.00  0.00     0.065 H 
ATOM      9  H   LIG d   1       5.787  -1.685  -5.481  0.00  0.00     0.064 H 
ENDROOT
BRANCH   1  10
ATOM     10  N   LIG d   1       8.532   1.874  -4.650  0.00  0.00    -0.336 N 
ATOM     11  H   LIG d   1       8.684   2.178  -5.559  0.00  0.00     0.146 HD
BRANCH  10  12
ATOM     12  C   LIG d   1       9.461   2.255  -3.584  0.00  0.00     0.067 C 
ATOM     13  H   LIG d   1      10.440   1.818  -3.782  0.00  0.00     0.054 H 
ATOM     14  H   LIG d   1       9.087   1.890  -2.629  0.00  0.00     0.054 H 
BRANCH  12  15
ATOM     15  C   LIG d   1       9.582   3.757  -3.537  0.00  0.00     0.122 A 
ATOM     16  C   LIG d   1       9.340   4.597  -4.559  0.00  0.00    -0.019 A 
ATOM     17  C   LIG d   1       9.575   5.905  -4.077  0.00  0.00    -0.024 A 
ATOM     18  H   LIG d   1       9.025   4.325  -5.555  0.00  0.00     0.065 H 
ATOM     19  C   LIG d   1       9.946   5.786  -2.790  0.00  0.00     0.092 A 
ATOM     20  H   LIG d   1       9.478   6.825  -4.637  0.00  0.00     0.065 H 
ATOM     21  O   LIG d   1       9.950   4.483  -2.468  0.00  0.00    -0.466 OA
ATOM     22  H   LIG d   1      10.201   6.601  -2.128  0.00  0.00     0.103 H 
ENDBRANCH  12  15
ENDBRANCH  10  12
ENDBRANCH   1  10
BRANCH   6  23
ATOM     23  C   LIG d   1       7.975  -0.350  -6.332  0.00  0.00     0.073 C 
ATOM     24  O   LIG d   1       9.178  -0.523  -6.186  0.00  0.00    -0.545 OA
ATOM     25  O   LIG d   1       7.476  -0.443  -7.446  0.00  0.00    -0.545 OA
ENDBRANCH   6  23
BRANCH   4  26
ATOM     26  S   LIG d   1       3.837  -1.526  -3.402  0.00  0.00     0.057 S 
ATOM     27  O   LIG d   1       4.090  -2.109  -2.131  0.00  0.00    -0.153 OA
ATOM     28  O   LIG d   1       2.686  -0.735  -3.661  0.00  0.00    -0.153 OA
BRANCH  26  29
ATOM     29  N   LIG d   1       3.815  -2.770  -4.496  0.00  0.00    -0.203 N 
ATOM     30  H   LIG d   1       3.001  -2.974  -4.981  0.00  0.00     0.144 HD
ATOM     31  H   LIG d   1       4.618  -3.292  -4.651  0.00  0.00     0.144 HD
ENDBRANCH  26  29
ENDBRANCH   4  26
TORSDOF 6
ENDMDL
MODEL 5
REMARK VINA RESULT:      -5.3      2.130      2.804
REMARK  6 active torsions:
REMARK  status: ('A' for Active; 'I' for Inactive)
REMARK    1  A    between atoms: C_3  and  C_6 
REMARK    2  A    between atoms: C_6  and  N_7 
REMARK    3  A    between atoms: N_7  and  C_8 
REMARK    4  A    between atoms: C_11  and  S_17 
REMARK    5  A    between atoms: C_13  and  C_14 
REMARK    6  A    between atoms: S_17  and  N_20 
ROOT
ATOM      1  C   LIG d   1       4.718  -0.120  -6.843  0.00  0.00     0.038 A 
ATOM      2  C   LIG d   1       5.352  -0.588  -7.986  0.00  0.00    -0.020 A 
ATOM      3  C   LIG d   1       4.611  -0.919  -9.103  0.00  0.00     0.069 A 
ATOM      4  C   LIG d   1       3.228  -0.789  -9.093  0.00  0.00     0.124 A 
ATOM      5  C   LIG d   1       2.582  -0.327  -7.970  0.00  0.00    -0.023 A 
ATOM      6  C   LIG d   1       3.318   0.008  -6.827  0.00  0.00     0.020 A 
ATOM      7 CL   LIG d   1       5.411  -1.502 -10.529  0.00  0.00    -0.082 Cl
ATOM      8  H   LIG d   1       6.427  -0.692  -8.003  0.00  0.00     0.065 H 
ATOM      9  H   LIG d   1       1.506  -0.227  -7.968  0.00  0.00     0.064 H 
ENDROOT
BRANCH   1  10
ATOM     10  N   LIG d   1       5.461   0.213  -5.720  0.00  0.00    -0.336 N 
ATOM     11  H   LIG d   1       5.548   1.142  -5.454  0.00  0.00     0.146 HD
BRANCH  10  12
ATOM     12  C   LIG d   1       6.114  -0.837  -4.935  0.00  0.00     0.067 C 
ATOM     13  H   LIG d   1       7.092  -0.486  -4.602  0.00  0.00     0.054 H 
ATOM     14  H   LIG d   1       6.239  -1.726  -5.552  0.00  0.00     0.054 H 
BRANCH  12  15
ATOM     15  C   LIG d   1       5.264  -1.170  -3.736  0.00  0.00     0.122 A 
ATOM     16  C   LIG d   1       5.121  -0.407  -2.638  0.00  0.00    -0.019 A 
ATOM     17  C   LIG d   1       4.240  -1.096  -1.773  0.00  0.00    -0.024 A 
ATOM     18  H   LIG d   1       5.587   0.549  -2.453  0.00  0.00     0.065 H 
ATOM     19  C   LIG d   1       3.898  -2.239  -2.394  0.00  0.00     0.092 A 
ATOM     20  H   LIG d   1       3.908  -0.770  -0.798  0.00  0.00     0.065 H 
ATOM     21  O   LIG d   1       4.522  -2.279  -3.583  0.00  0.00    -0.466 OA
ATOM     22  H   LIG d   1       3.235  -2.997  -2.003  0.00  0.00     0.103 H 
ENDBRANCH  12  15
ENDBRANCH  10  12
ENDBRANCH   1  10
BRANCH   6  23
ATOM     23  C   LIG d   1       2.633   0.495  -5.622  0.00  0.00     0.073 C 
ATOM     24  O   LIG d   1       2.626   1.691  -5.364  0.00  0.00    -0.545 OA
ATOM     25  O   LIG d   1       2.070  -0.294  -4.876  0.00  0.00    -0.545 OA
ENDBRANCH   6  23
BRANCH   4  26
ATOM     26  S   LIG d   1       2.297  -1.216 -10.527  0.00  0.00     0.057 S 
ATOM     27  O   LIG d   1       2.705  -0.324 -11.556  0.00  0.00    -0.153 OA
ATOM     28  O   LIG d   1       2.386  -2.627 -10.663  0.00  0.00    -0.153 OA
BRANCH  26  29
ATOM     29  N   LIG d   1       0.711  -0.869 -10.203  0.00  0.00    -0.203 N 
ATOM     30  H   LIG d   1       0.347  -0.001 -10.434  0.00  0.00     0.144 HD
ATOM     31  H   LIG d   1       0.145  -1.536  -9.783  0.00  0.00     0.144 HD
ENDBRANCH  26  29
ENDBRANCH   4  26
TORSDOF 6
ENDMDL
MODEL 6
REMARK VINA RESULT:      -5.2      2.185      2.573
REMARK  6 active torsions:
REMARK  status: ('A' for Active; 'I' for Inactive)
REMARK    1  A    between atoms: C_3  and  C_6 
REMARK    2  A    between atoms: C_6  and  N_7 
REMARK    3  A    between atoms: N_7  and  C_8 
REMARK    4  A    between atoms: C_11  and  S_17 
REMARK    5  A    between atoms: C_13  and  C_14 
REMARK    6  A    between atoms: S_17  and  N_20 
ROOT
ATOM      1  C   LIG d   1       3.506   0.172  -8.121  0.00  0.00     0.038 A 
ATOM      2  C   LIG d   1       2.568  -0.792  -8.466  0.00  0.00    -0.020 A 
ATOM      3  C   LIG d   1       2.546  -1.309  -9.746  0.00  0.00     0.069 A 
ATOM      4  C   LIG d   1       3.458  -0.872 -10.697  0.00  0.00     0.124 A 
ATOM      5  C   LIG d   1       4.396   0.082 -10.374  0.00  0.00    -0.023 A 
ATOM      6  C   LIG d   1       4.428   0.621  -9.082  0.00  0.00     0.020 A 
ATOM      7 CL   LIG d   1       1.370  -2.514 -10.170  0.00  0.00    -0.082 Cl
ATOM      8  H   LIG d   1       1.854  -1.139  -7.733  0.00  0.00     0.065 H 
ATOM      9  H   LIG d   1       5.103   0.418 -11.117  0.00  0.00     0.064 H 
ENDROOT
BRANCH   1  10
ATOM     10  N   LIG d   1       3.530   0.693  -6.835  0.00  0.00    -0.336 N 
ATOM     11  H   LIG d   1       4.256   1.275  -6.561  0.00  0.00     0.146 HD
BRANCH  10  12
ATOM     12  C   LIG d   1       2.459   0.364  -5.891  0.00  0.00     0.067 C 
ATOM     13  H   LIG d   1       2.139  -0.667  -6.049  0.00  0.00     0.054 H 
ATOM     14  H   LIG d   1       1.615   1.034  -6.051  0.00  0.00     0.054 H 
BRANCH  12  15
ATOM     15  C   LIG d   1       2.966   0.521  -4.481  0.00  0.00     0.122 A 
ATOM     16  C   LIG d   1       2.992  -0.442  -3.543  0.00  0.00    -0.019 A 
ATOM     17  C   LIG d   1       3.544   0.136  -2.377  0.00  0.00    -0.024 A 
ATOM     18  H   LIG d   1       2.657  -1.462  -3.658  0.00  0.00     0.065 H 
ATOM     19  C   LIG d   1       3.822   1.418  -2.672  0.00  0.00     0.092 A 
ATOM     20  H   LIG d   1       3.707  -0.356  -1.429  0.00  0.00     0.065 H 
ATOM     21  O   LIG d   1       3.470   1.647  -3.948  0.00  0.00    -0.466 OA
ATOM     22  H   LIG d   1       4.255   2.143  -1.997  0.00  0.00     0.103 H 
ENDBRANCH  12  15
ENDBRANCH  10  12
ENDBRANCH   1  10
BRANCH   6  23
ATOM     23  C   LIG d   1       5.422   1.645  -8.732  0.00  0.00     0.073 C 
ATOM     24  O   LIG d   1       5.431   2.716  -9.323  0.00  0.00    -0.545 OA
ATOM     25  O   LIG d   1       6.241   1.427  -7.850  0.00  0.00    -0.545 OA
ENDBRANCH   6  23
BRANCH   4  26
ATOM     26  S   LIG d   1       3.417  -1.543 -12.326  0.00  0.00     0.057 S 
ATOM     27  O   LIG d   1       3.979  -2.846 -12.242  0.00  0.00    -0.153 OA
ATOM     28  O   LIG d   1       2.108  -1.310 -12.827  0.00  0.00    -0.153 OA
BRANCH  26  29
ATOM     29  N   LIG d   1       4.449  -0.641 -13.255  0.00  0.00    -0.203 N 
ATOM     30  H   LIG d   1       4.198  -0.393 -14.157  0.00  0.00     0.144 HD
ATOM     31  H   LIG d   1       5.305  -0.360 -12.894  0.00  0.00     0.144 HD
ENDBRANCH  26  29
ENDBRANCH   4  26
TORSDOF 6
ENDMDL
MODEL 7
REMARK VINA RESULT:      -5.0      3.689      6.522
REMARK  6 active torsions:
REMARK  status: ('A' for Active; 'I' for Inactive)
REMARK    1  A    between atoms: C_3  and  C_6 
REMARK    2  A    between atoms: C_6  and  N_7 
REMARK    3  A    between atoms: N_7  and  C_8 
REMARK    4  A    between atoms: C_11  and  S_17 
REMARK    5  A    between atoms: C_13  and  C_14 
REMARK    6  A    between atoms: S_17  and  N_20 
ROOT
ATOM      1  C   LIG d   1       5.740  -0.603  -6.813  0.00  0.00     0.038 A 
ATOM      2  C   LIG d   1       6.429  -0.119  -5.709  0.00  0.00    -0.020 A 
ATOM      3  C   LIG d   1       5.781   0.026  -4.498  0.00  0.00     0.069 A 
ATOM      4  C   LIG d   1       4.439  -0.309  -4.374  0.00  0.00     0.124 A 
ATOM      5  C   LIG d   1       3.740  -0.791  -5.456  0.00  0.00    -0.023 A 
ATOM      6  C   LIG d   1       4.381  -0.938  -6.693  0.00  0.00     0.020 A 
ATOM      7 CL   LIG d   1       6.649   0.631  -3.122  0.00  0.00    -0.082 Cl
ATOM      8  H   LIG d   1       7.473   0.144  -5.795  0.00  0.00     0.065 H 
ATOM      9  H   LIG d   1       2.697  -1.050  -5.354  0.00  0.00     0.064 H 
ENDROOT
BRANCH   1  10
ATOM     10  N   LIG d   1       6.390  -0.750  -8.030  0.00  0.00    -0.336 N 
ATOM     11  H   LIG d   1       6.578  -1.637  -8.376  0.00  0.00     0.146 HD
BRANCH  10  12
ATOM     12  C   LIG d   1       6.792   0.434  -8.793  0.00  0.00     0.067 C 
ATOM     13  H   LIG d   1       7.422   0.130  -9.630  0.00  0.00     0.054 H 
ATOM     14  H   LIG d   1       7.349   1.111  -8.146  0.00  0.00     0.054 H 
BRANCH  12  15
ATOM     15  C   LIG d   1       5.565   1.135  -9.317  0.00  0.00     0.122 A 
ATOM     16  C   LIG d   1       4.898   0.817 -10.441  0.00  0.00    -0.019 A 
ATOM     17  C   LIG d   1       3.820   1.725 -10.548  0.00  0.00    -0.024 A 
ATOM     18  H   LIG d   1       5.140   0.021 -11.130  0.00  0.00     0.065 H 
ATOM     19  C   LIG d   1       3.892   2.543  -9.483  0.00  0.00     0.092 A 
ATOM     20  H   LIG d   1       3.082   1.759 -11.337  0.00  0.00     0.065 H 
ATOM     21  O   LIG d   1       4.951   2.181  -8.741  0.00  0.00    -0.466 OA
ATOM     22  H   LIG d   1       3.214   3.355  -9.262  0.00  0.00     0.103 H 
ENDBRANCH  12  15
ENDBRANCH  10  12
ENDBRANCH   1  10
BRANCH   6  23
ATOM     23  C   LIG d   1       3.638  -1.446  -7.855  0.00  0.00     0.073 C 
ATOM     24  O   LIG d   1       3.992  -2.481  -8.403  0.00  0.00    -0.545 OA
ATOM     25  O   LIG d   1       2.666  -0.833  -8.275  0.00  0.00    -0.545 OA
ENDBRANCH   6  23
BRANCH   4  26
ATOM     26  S   LIG d   1       3.628  -0.118  -2.821  0.00  0.00     0.057 S 
ATOM     27  O   LIG d   1       3.814   1.235  -2.429  0.00  0.00    -0.153 OA
ATOM     28  O   LIG d   1       2.339  -0.700  -2.963  0.00  0.00    -0.153 OA
BRANCH  26  29
ATOM     29  N   LIG d   1       4.449  -1.046  -1.722  0.00  0.00    -0.203 N 
ATOM     30  H   LIG d   1       5.349  -0.802  -1.457  0.00  0.00     0.144 HD
ATOM     31  H   LIG d   1       4.028  -1.833  -1.343  0.00  0.00     0.144 HD
ENDBRANCH  26  29
ENDBRANCH   4  26
TORSDOF 6
ENDMDL
MODEL 8
REMARK VINA RESULT:      -5.0     10.577     12.256
REMARK  6 active torsions:
REMARK  status: ('A' for Active; 'I' for Inactive)
REMARK    1  A    between atoms: C_3  and  C_6 
REMARK    2  A    between atoms: C_6  and  N_7 
REMARK    3  A    between atoms: N_7  and  C_8 
REMARK    4  A    between atoms: C_11  and  S_17 
REMARK    5  A    between atoms: C_13  and  C_14 
REMARK    6  A    between atoms: S_17  and  N_20 
ROOT
ATOM      1  C   LIG d   1      10.046   7.437  -1.093  0.00  0.00     0.038 A 
ATOM      2  C   LIG d   1       9.545   7.341  -2.384  0.00  0.00    -0.020 A 
ATOM      3  C   LIG d   1       9.628   6.146  -3.072  0.00  0.00     0.069 A 
ATOM      4  C   LIG d   1      10.212   5.034  -2.481  0.00  0.00     0.124 A 
ATOM      5  C   LIG d   1      10.714   5.109  -1.202  0.00  0.00    -0.023 A 
ATOM      6  C   LIG d   1      10.643   6.314  -0.493  0.00  0.00     0.020 A 
ATOM      7 CL   LIG d   1       8.999   6.034  -4.686  0.00  0.00    -0.082 Cl
ATOM      8  H   LIG d   1       9.088   8.201  -2.852  0.00  0.00     0.065 H 
ATOM      9  H   LIG d   1      11.166   4.241  -0.747  0.00  0.00     0.064 H 
ENDROOT
BRANCH   1  10
ATOM     10  N   LIG d   1       9.963   8.636  -0.400  0.00  0.00    -0.336 N 
ATOM     11  H   LIG d   1      10.600   8.835   0.304  0.00  0.00     0.146 HD
BRANCH  10  12
ATOM     12  C   LIG d   1       8.913   9.602  -0.731  0.00  0.00     0.067 C 
ATOM     13  H   LIG d   1       8.397   9.904   0.181  0.00  0.00     0.054 H 
ATOM     14  H   LIG d   1       8.201   9.144  -1.417  0.00  0.00     0.054 H 
BRANCH  12  15
ATOM     15  C   LIG d   1       9.531  10.812  -1.382  0.00  0.00     0.122 A 
ATOM     16  C   LIG d   1       9.377  11.179  -2.667  0.00  0.00    -0.019 A 
ATOM     17  C   LIG d   1      10.125  12.364  -2.848  0.00  0.00    -0.024 A 
ATOM     18  H   LIG d   1       8.793  10.666  -3.417  0.00  0.00     0.065 H 
ATOM     19  C   LIG d   1      10.692  12.652  -1.662  0.00  0.00     0.092 A 
ATOM     20  H   LIG d   1      10.226  12.929  -3.763  0.00  0.00     0.065 H 
ATOM     21  O   LIG d   1      10.329  11.709  -0.778  0.00  0.00    -0.466 OA
ATOM     22  H   LIG d   1      11.332  13.498  -1.456  0.00  0.00     0.103 H 
ENDBRANCH  12  15
ENDBRANCH  10  12
ENDBRANCH   1  10
BRANCH   6  23
ATOM     23  C   LIG d   1      11.182   6.404   0.870  0.00  0.00     0.073 C 
ATOM     24  O   LIG d   1      10.718   5.703   1.760  0.00  0.00    -0.545 OA
ATOM     25  O   LIG d   1      12.096   7.179   1.118  0.00  0.00    -0.545 OA
ENDBRANCH   6  23
BRANCH   4  26
ATOM     26  S   LIG d   1      10.310   3.517  -3.373  0.00  0.00     0.057 S 
ATOM     27  O   LIG d   1       9.017   2.929  -3.316  0.00  0.00    -0.153 OA
ATOM     28  O   LIG d   1      10.959   3.810  -4.602  0.00  0.00    -0.153 OA
BRANCH  26  29
ATOM     29  N   LIG d   1      11.322   2.516  -2.528  0.00  0.00    -0.203 N 
ATOM     30  H   LIG d   1      11.446   1.598  -2.814  0.00  0.00     0.144 HD
ATOM     31  H   LIG d   1      11.792   2.849  -1.747  0.00  0.00     0.144 HD
ENDBRANCH  26  29
ENDBRANCH   4  26
TORSDOF 6
ENDMDL
MODEL 9
REMARK VINA RESULT:      -4.9      4.860      5.897
REMARK  6 active torsions:
REMARK  status: ('A' for Active; 'I' for Inactive)
REMARK    1  A    between atoms: C_3  and  C_6 
REMARK    2  A    between atoms: C_6  and  N_7 
REMARK    3  A    between atoms: N_7  and  C_8 
REMARK    4  A    between atoms: C_11  and  S_17 
REMARK    5  A    between atoms: C_13  and  C_14 
REMARK    6  A    between atoms: S_17  and  N_20 
ROOT
ATOM      1  C   LIG d   1       5.831  -3.094  -4.977  0.00  0.00     0.038 A 
ATOM      2  C   LIG d   1       7.045  -2.931  -4.323  0.00  0.00    -0.020 A 
ATOM      3  C   LIG d   1       7.981  -3.946  -4.337  0.00  0.00     0.069 A 
ATOM      4  C   LIG d   1       7.718  -5.136  -5.002  0.00  0.00     0.124 A 
ATOM      5  C   LIG d   1       6.522  -5.316  -5.656  0.00  0.00    -0.023 A 
ATOM      6  C   LIG d   1       5.559  -4.299  -5.647  0.00  0.00     0.020 A 
ATOM      7 CL   LIG d   1       9.497  -3.734  -3.516  0.00  0.00    -0.082 Cl
ATOM      8  H   LIG d   1       7.259  -2.008  -3.802  0.00  0.00     0.065 H 
ATOM      9  H   LIG d   1       6.323  -6.243  -6.173  0.00  0.00     0.064 H 
ENDROOT
BRANCH   1  10
ATOM     10  N   LIG d   1       4.890  -2.075  -4.964  0.00  0.00    -0.336 N 
ATOM     11  H   LIG d   1       3.945  -2.289  -4.917  0.00  0.00     0.146 HD
BRANCH  10  12
ATOM     12  C   LIG d   1       5.322  -0.677  -5.024  0.00  0.00     0.067 C 
ATOM     13  H   LIG d   1       4.923  -0.211  -5.925  0.00  0.00     0.054 H 
ATOM     14  H   LIG d   1       6.411  -0.635  -5.044  0.00  0.00     0.054 H 
BRANCH  12  15
ATOM     15  C   LIG d   1       4.812   0.058  -3.811  0.00  0.00     0.122 A 
ATOM     16  C   LIG d   1       5.281  -0.073  -2.557  0.00  0.00    -0.019 A 
ATOM     17  C   LIG d   1       4.520   0.796  -1.743  0.00  0.00    -0.024 A 
ATOM     18  H   LIG d   1       6.084  -0.718  -2.235  0.00  0.00     0.065 H 
ATOM     19  C   LIG d   1       3.632   1.407  -2.547  0.00  0.00     0.092 A 
ATOM     20  H   LIG d   1       4.628   0.940  -0.677  0.00  0.00     0.065 H 
ATOM     21  O   LIG d   1       3.813   0.956  -3.799  0.00  0.00    -0.466 OA
ATOM     22  H   LIG d   1       2.897   2.136  -2.239  0.00  0.00     0.103 H 
ENDBRANCH  12  15
ENDBRANCH  10  12
ENDBRANCH   1  10
BRANCH   6  23
ATOM     23  C   LIG d   1       4.277  -4.488  -6.338  0.00  0.00     0.073 C 
ATOM     24  O   LIG d   1       4.000  -3.803  -7.314  0.00  0.00    -0.545 OA
ATOM     25  O   LIG d   1       3.484  -5.330  -5.938  0.00  0.00    -0.545 OA
ENDBRANCH   6  23
BRANCH   4  26
ATOM     26  S   LIG d   1       8.924  -6.420  -5.010  0.00  0.00     0.057 S 
ATOM     27  O   LIG d   1       8.318  -7.542  -5.637  0.00  0.00    -0.153 OA
ATOM     28  O   LIG d   1      10.131  -5.841  -5.488  0.00  0.00    -0.153 OA
BRANCH  26  29
ATOM     29  N   LIG d   1       9.195  -6.849  -3.434  0.00  0.00    -0.203 N 
ATOM     30  H   LIG d   1       8.462  -7.166  -2.884  0.00  0.00     0.144 HD
ATOM     31  H   LIG d   1      10.088  -6.784  -3.061  0.00  0.00     0.144 HD
ENDBRANCH  26  29
ENDBRANCH   4  26
TORSDOF 6
ENDMDL
MODEL 10
REMARK VINA RESULT:      -4.7     11.646     13.916
REMARK  6 active torsions:
REMARK  status: ('A' for Active; 'I' for Inactive)
REMARK    1  A    between atoms: C_3  and  C_6 
REMARK    2  A    between atoms: C_6  and  N_7 
REMARK    3  A    between atoms: N_7  and  C_8 
REMARK    4  A    between atoms: C_11  and  S_17 
REMARK    5  A    between atoms: C_13  and  C_14 
REMARK    6  A    between atoms: S_17  and  N_20 
ROOT
ATOM      1  C   LIG d   1      10.153   7.521  -0.775  0.00  0.00     0.038 A 
ATOM      2  C   LIG d   1       9.861   8.745  -1.363  0.00  0.00    -0.020 A 
ATOM      3  C   LIG d   1      10.321   9.915  -0.792  0.00  0.00     0.069 A 
ATOM      4  C   LIG d   1      11.077   9.879   0.373  0.00  0.00     0.124 A 
ATOM      5  C   LIG d   1      11.377   8.676   0.970  0.00  0.00    -0.023 A 
ATOM      6  C   LIG d   1      10.913   7.481   0.407  0.00  0.00     0.020 A 
ATOM      7 CL   LIG d   1       9.953  11.441  -1.533  0.00  0.00    -0.082 Cl
ATOM      8  H   LIG d   1       9.274   8.783  -2.269  0.00  0.00     0.065 H 
ATOM      9  H   LIG d   1      11.965   8.654   1.875  0.00  0.00     0.064 H 
ENDROOT
BRANCH   1  10
ATOM     10  N   LIG d   1       9.691   6.345  -1.347  0.00  0.00    -0.336 N 
ATOM     11  H   LIG d   1       9.199   5.704  -0.810  0.00  0.00     0.146 HD
BRANCH  10  12
ATOM     12  C   LIG d   1       9.948   6.069  -2.763  0.00  0.00     0.067 C 
ATOM     13  H   LIG d   1      10.832   6.620  -3.086  0.00  0.00     0.054 H 
ATOM     14  H   LIG d   1       9.089   6.382  -3.355  0.00  0.00     0.054 H 
BRANCH  12  15
ATOM     15  C   LIG d   1      10.179   4.592  -2.953  0.00  0.00     0.122 A 
ATOM     16  C   LIG d   1      11.375   3.977  -2.950  0.00  0.00    -0.019 A 
ATOM     17  C   LIG d   1      11.128   2.601  -3.161  0.00  0.00    -0.024 A 
ATOM     18  H   LIG d   1      12.339   4.444  -2.811  0.00  0.00     0.065 H 
ATOM     19  C   LIG d   1       9.797   2.458  -3.281  0.00  0.00     0.092 A 
ATOM     20  H   LIG d   1      11.868   1.816  -3.219  0.00  0.00     0.065 H 
ATOM     21  O   LIG d   1       9.226   3.667  -3.155  0.00  0.00    -0.466 OA
ATOM     22  H   LIG d   1       9.274   1.528  -3.451  0.00  0.00     0.103 H 
ENDBRANCH  12  15
ENDBRANCH  10  12
ENDBRANCH   1  10
BRANCH   6  23
ATOM     23  C   LIG d   1      11.223   6.194   1.043  0.00  0.00     0.073 C 
ATOM     24  O   LIG d   1      11.627   5.258   0.366  0.00  0.00    -0.545 OA
ATOM     25  O   LIG d   1      11.078   6.056   2.250  0.00  0.00    -0.545 OA
ENDBRANCH   6  23
BRANCH   4  26
ATOM     26  S   LIG d   1      11.657  11.381   1.088  0.00  0.00     0.057 S 
ATOM     27  O   LIG d   1      12.687  11.864   0.237  0.00  0.00    -0.153 OA
ATOM     28  O   LIG d   1      10.505  12.152   1.403  0.00  0.00    -0.153 OA
BRANCH  26  29
ATOM     29  N   LIG d   1      12.376  10.993   2.528  0.00  0.00    -0.203 N 
ATOM     30  H   LIG d   1      11.885  10.489   3.196  0.00  0.00     0.144 HD
ATOM     31  H   LIG d   1      13.290  11.268   2.703  0.00  0.00     0.144 HD
ENDBRANCH  26  29
ENDBRANCH   4  26
TORSDOF 6
ENDMDL
