MODEL 1
REMARK VINA RESULT:      -5.5      0.000      0.000
REMARK  6 active torsions:
REMARK  status: ('A' for Active; 'I' for Inactive)
REMARK    1  A    between atoms: C_1  and  C_2 
REMARK    2  A    between atoms: C_2  and  C_4 
REMARK    3  A    between atoms: C_2  and  N_7 
REMARK    4  A    between atoms: N_7  and  S_8 
REMARK    5  A    between atoms: S_8  and  C_11 
REMARK    6  A    between atoms: C_14  and  N_17 
ROOT
ATOM      1  C   LIG d   1       4.209  -1.163  -1.975  0.00  0.00     0.051 C 
ATOM      2  C   LIG d   1       4.629   0.244  -1.883  0.00  0.00     0.064 C 
ATOM      3  N   LIG d   1       4.953   1.331  -1.812  0.00  0.00    -0.197 NA
ATOM      4  H   LIG d   1       3.398  -1.347  -1.272  0.00  0.00     0.043 H 
ATOM      5  H   LIG d   1       5.052  -1.810  -1.734  0.00  0.00     0.043 H 
ENDROOT
BRANCH   1   6
ATOM      6  C   LIG d   1       3.729  -1.460  -3.398  0.00  0.00     0.039 C 
ATOM      7  H   LIG d   1       2.664  -1.693  -3.380  0.00  0.00     0.048 H 
BRANCH   6   8
ATOM      8  C   LIG d   1       4.503  -2.656  -3.957  0.00  0.00    -0.047 C 
ATOM      9  H   LIG d   1       3.848  -3.526  -3.996  0.00  0.00     0.025 H 
ATOM     10  H   LIG d   1       4.857  -2.422  -4.962  0.00  0.00     0.025 H 
ATOM     11  H   LIG d   1       5.355  -2.871  -3.312  0.00  0.00     0.025 H 
ENDBRANCH   6   8
BRANCH   6  12
ATOM     12  N   LIG d   1       3.960  -0.289  -4.246  0.00  0.00    -0.186 N 
ATOM     13  H   LIG d   1       4.864   0.024  -4.405  0.00  0.00     0.148 HD
BRANCH  12  14
ATOM     14  S   LIG d   1       2.678   0.497  -4.939  0.00  0.00     0.059 S 
ATOM     15  O   LIG d   1       1.521  -0.272  -4.643  0.00  0.00    -0.153 OA
ATOM     16  O   LIG d   1       2.796   1.865  -4.574  0.00  0.00    -0.153 OA
BRANCH  14  17
ATOM     17  C   LIG d   1       2.901   0.420  -6.685  0.00  0.00     0.106 A 
ATOM     18  C   LIG d   1       3.251  -0.776  -7.284  0.00  0.00    -0.029 A 
ATOM     19  C   LIG d   1       3.427  -0.837  -8.654  0.00  0.00     0.017 A 
ATOM     20  H   LIG d   1       3.389  -1.662  -6.682  0.00  0.00     0.064 H 
ATOM     21  C   LIG d   1       3.250   0.298  -9.424  0.00  0.00     0.273 A 
ATOM     22  H   LIG d   1       3.701  -1.771  -9.123  0.00  0.00     0.069 H 
ATOM     23  C   LIG d   1       2.898   1.492  -8.825  0.00  0.00     0.017 A 
ATOM     24  C   LIG d   1       2.720   1.553  -7.456  0.00  0.00    -0.029 A 
ATOM     25  H   LIG d   1       2.762   2.379  -9.427  0.00  0.00     0.069 H 
ATOM     26  H   LIG d   1       2.441   2.485  -6.988  0.00  0.00     0.064 H 
BRANCH  21  27
ATOM     27  N   LIG d   1       3.437   0.233 -10.891  0.00  0.00     0.080 N 
ATOM     28  O   LIG d   1       3.054  -0.744 -11.511  0.00  0.00     0.041 OA
ATOM     29  O   LIG d   1       3.974   1.154 -11.478  0.00  0.00    -0.576 OA
ENDBRANCH  21  27
ENDBRANCH  14  17
ENDBRANCH  12  14
ENDBRANCH   6  12
ENDBRANCH   1   6
TORSDOF 6
ENDMDL
MODEL 2
REMARK VINA RESULT:      -5.2      2.748      3.235
REMARK  6 active torsions:
REMARK  status: ('A' for Active; 'I' for Inactive)
REMARK    1  A    between atoms: C_1  and  C_2 
REMARK    2  A    between atoms: C_2  and  C_4 
REMARK    3  A    between atoms: C_2  and  N_7 
REMARK    4  A    between atoms: N_7  and  S_8 
REMARK    5  A    between atoms: S_8  and  C_11 
REMARK    6  A    between atoms: C_14  and  N_17 
ROOT
ATOM      1  C   LIG d   1       4.249  -1.115  -2.246  0.00  0.00     0.051 C 
ATOM      2  C   LIG d   1       4.529   0.252  -1.778  0.00  0.00     0.064 C 
ATOM      3  N   LIG d   1       4.746   1.308  -1.418  0.00  0.00    -0.197 NA
ATOM      4  H   LIG d   1       3.451  -1.548  -1.644  0.00  0.00     0.043 H 
ATOM      5  H   LIG d   1       5.148  -1.724  -2.147  0.00  0.00     0.043 H 
ENDROOT
BRANCH   1   6
ATOM      6  C   LIG d   1       3.819  -1.075  -3.714  0.00  0.00     0.039 C 
ATOM      7  H   LIG d   1       4.527  -0.473  -4.282  0.00  0.00     0.048 H 
BRANCH   6   8
ATOM      8  C   LIG d   1       2.424  -0.457  -3.818  0.00  0.00    -0.047 C 
ATOM      9  H   LIG d   1       2.129  -0.058  -2.847  0.00  0.00     0.025 H 
ATOM     10  H   LIG d   1       2.437   0.349  -4.553  0.00  0.00     0.025 H 
ATOM     11  H   LIG d   1       1.710  -1.221  -4.129  0.00  0.00     0.025 H 
ENDBRANCH   6   8
BRANCH   6  12
ATOM     12  N   LIG d   1       3.791  -2.436  -4.252  0.00  0.00    -0.186 N 
ATOM     13  H   LIG d   1       3.123  -3.068  -3.942  0.00  0.00     0.148 HD
BRANCH  12  14
ATOM     14  S   LIG d   1       4.898  -2.897  -5.395  0.00  0.00     0.059 S 
ATOM     15  O   LIG d   1       6.142  -3.037  -4.723  0.00  0.00    -0.153 OA
ATOM     16  O   LIG d   1       4.304  -3.960  -6.128  0.00  0.00    -0.153 OA
BRANCH  14  17
ATOM     17  C   LIG d   1       5.080  -1.551  -6.516  0.00  0.00     0.106 A 
ATOM     18  C   LIG d   1       6.250  -0.814  -6.528  0.00  0.00    -0.029 A 
ATOM     19  C   LIG d   1       6.392   0.243  -7.407  0.00  0.00     0.017 A 
ATOM     20  H   LIG d   1       7.051  -1.063  -5.848  0.00  0.00     0.064 H 
ATOM     21  C   LIG d   1       5.366   0.561  -8.277  0.00  0.00     0.273 A 
ATOM     22  H   LIG d   1       7.306   0.819  -7.416  0.00  0.00     0.069 H 
ATOM     23  C   LIG d   1       4.197  -0.177  -8.267  0.00  0.00     0.017 A 
ATOM     24  C   LIG d   1       4.055  -1.235  -7.390  0.00  0.00    -0.029 A 
ATOM     25  H   LIG d   1       3.395   0.073  -8.946  0.00  0.00     0.069 H 
ATOM     26  H   LIG d   1       3.144  -1.814  -7.385  0.00  0.00     0.064 H 
BRANCH  21  27
ATOM     27  N   LIG d   1       5.519   1.692  -9.220  0.00  0.00     0.080 N 
ATOM     28  O   LIG d   1       6.481   2.433  -9.130  0.00  0.00     0.041 OA
ATOM     29  O   LIG d   1       4.682   1.882 -10.084  0.00  0.00    -0.576 OA
ENDBRANCH  21  27
ENDBRANCH  14  17
ENDBRANCH  12  14
ENDBRANCH   6  12
ENDBRANCH   1   6
TORSDOF 6
ENDMDL
MODEL 3
REMARK VINA RESULT:      -5.1      2.309      2.635
REMARK  6 active torsions:
REMARK  status: ('A' for Active; 'I' for Inactive)
REMARK    1  A    between atoms: C_1  and  C_2 
REMARK    2  A    between atoms: C_2  and  C_4 
REMARK    3  A    between atoms: C_2  and  N_7 
REMARK    4  A    between atoms: N_7  and  S_8 
REMARK    5  A    between atoms: S_8  and  C_11 
REMARK    6  A    between atoms: C_14  and  N_17 
ROOT
ATOM      1  C   LIG d   1       2.996   0.023  -2.940  0.00  0.00     0.051 C 
ATOM      2  C   LIG d   1       4.003   0.776  -2.174  0.00  0.00     0.064 C 
ATOM      3  N   LIG d   1       4.781   1.356  -1.583  0.00  0.00    -0.197 NA
ATOM      4  H   LIG d   1       2.668   0.619  -3.791  0.00  0.00     0.043 H 
ATOM      5  H   LIG d   1       2.142  -0.196  -2.299  0.00  0.00     0.043 H 
ENDROOT
BRANCH   1   6
ATOM      6  C   LIG d   1       3.609  -1.287  -3.439  0.00  0.00     0.039 C 
ATOM      7  H   LIG d   1       2.949  -1.735  -4.182  0.00  0.00     0.048 H 
BRANCH   6   8
ATOM      8  C   LIG d   1       3.783  -2.249  -2.263  0.00  0.00    -0.047 C 
ATOM      9  H   LIG d   1       4.842  -2.466  -2.124  0.00  0.00     0.025 H 
ATOM     10  H   LIG d   1       3.383  -1.792  -1.357  0.00  0.00     0.025 H 
ATOM     11  H   LIG d   1       3.247  -3.176  -2.469  0.00  0.00     0.025 H 
ENDBRANCH   6   8
BRANCH   6  12
ATOM     12  N   LIG d   1       4.914  -1.016  -4.045  0.00  0.00    -0.186 N 
ATOM     13  H   LIG d   1       5.514  -0.371  -3.638  0.00  0.00     0.148 HD
BRANCH  12  14
ATOM     14  S   LIG d   1       5.370  -1.814  -5.423  0.00  0.00     0.059 S 
ATOM     15  O   LIG d   1       6.789  -1.878  -5.406  0.00  0.00    -0.153 OA
ATOM     16  O   LIG d   1       4.556  -2.976  -5.506  0.00  0.00    -0.153 OA
BRANCH  14  17
ATOM     17  C   LIG d   1       4.928  -0.791  -6.788  0.00  0.00     0.106 A 
ATOM     18  C   LIG d   1       3.601  -0.476  -7.014  0.00  0.00    -0.029 A 
ATOM     19  C   LIG d   1       3.255   0.327  -8.085  0.00  0.00     0.017 A 
ATOM     20  H   LIG d   1       2.836  -0.858  -6.356  0.00  0.00     0.064 H 
ATOM     21  C   LIG d   1       4.236   0.816  -8.928  0.00  0.00     0.273 A 
ATOM     22  H   LIG d   1       2.219   0.573  -8.263  0.00  0.00     0.069 H 
ATOM     23  C   LIG d   1       5.563   0.503  -8.700  0.00  0.00     0.017 A 
ATOM     24  C   LIG d   1       5.909  -0.297  -7.628  0.00  0.00    -0.029 A 
ATOM     25  H   LIG d   1       6.329   0.884  -9.359  0.00  0.00     0.069 H 
ATOM     26  H   LIG d   1       6.946  -0.539  -7.447  0.00  0.00     0.064 H 
BRANCH  21  27
ATOM     27  N   LIG d   1       3.866   1.677 -10.074  0.00  0.00     0.080 N 
ATOM     28  O   LIG d   1       3.942   1.243 -11.210  0.00  0.00     0.041 OA
ATOM     29  O   LIG d   1       3.487   2.817  -9.881  0.00  0.00    -0.576 OA
ENDBRANCH  21  27
ENDBRANCH  14  17
ENDBRANCH  12  14
ENDBRANCH   6  12
ENDBRANCH   1   6
TORSDOF 6
ENDMDL
MODEL 4
REMARK VINA RESULT:      -5.0      2.724      6.223
REMARK  6 active torsions:
REMARK  status: ('A' for Active; 'I' for Inactive)
REMARK    1  A    between atoms: C_1  and  C_2 
REMARK    2  A    between atoms: C_2  and  C_4 
REMARK    3  A    between atoms: C_2  and  N_7 
REMARK    4  A    between atoms: N_7  and  S_8 
REMARK    5  A    between atoms: S_8  and  C_11 
REMARK    6  A    between atoms: C_14  and  N_17 
ROOT
ATOM      1  C   LIG d   1       5.866  -0.962 -10.043  0.00  0.00     0.051 C 
ATOM      2  C   LIG d   1       6.750  -0.399  -9.009  0.00  0.00     0.064 C 
ATOM      3  N   LIG d   1       7.431   0.036  -8.211  0.00  0.00    -0.197 NA
ATOM      4  H   LIG d   1       5.734  -2.028  -9.866  0.00  0.00     0.043 H 
ATOM      5  H   LIG d   1       6.314  -0.809 -11.025  0.00  0.00     0.043 H 
ENDROOT
BRANCH   1   6
ATOM      6  C   LIG d   1       4.506  -0.263  -9.988  0.00  0.00     0.039 C 
ATOM      7  H   LIG d   1       3.716  -1.011  -9.923  0.00  0.00     0.048 H 
BRANCH   6   8
ATOM      8  C   LIG d   1       4.313   0.575 -11.253  0.00  0.00    -0.047 C 
ATOM      9  H   LIG d   1       5.203   1.180 -11.428  0.00  0.00     0.025 H 
ATOM     10  H   LIG d   1       4.149  -0.085 -12.105  0.00  0.00     0.025 H 
ATOM     11  H   LIG d   1       3.448   1.229 -11.128  0.00  0.00     0.025 H 
ENDBRANCH   6   8
BRANCH   6  12
ATOM     12  N   LIG d   1       4.452   0.608  -8.812  0.00  0.00    -0.186 N 
ATOM     13  H   LIG d   1       5.246   1.084  -8.523  0.00  0.00     0.148 HD
BRANCH  12  14
ATOM     14  S   LIG d   1       3.032   0.787  -7.979  0.00  0.00     0.059 S 
ATOM     15  O   LIG d   1       2.840   2.183  -7.797  0.00  0.00    -0.153 OA
ATOM     16  O   LIG d   1       2.074  -0.035  -8.629  0.00  0.00    -0.153 OA
BRANCH  14  17
ATOM     17  C   LIG d   1       3.280   0.100  -6.375  0.00  0.00     0.106 A 
ATOM     18  C   LIG d   1       4.299  -0.811  -6.163  0.00  0.00    -0.029 A 
ATOM     19  C   LIG d   1       4.493  -1.350  -4.905  0.00  0.00     0.017 A 
ATOM     20  H   LIG d   1       4.941  -1.101  -6.981  0.00  0.00     0.064 H 
ATOM     21  C   LIG d   1       3.670  -0.977  -3.859  0.00  0.00     0.273 A 
ATOM     22  H   LIG d   1       5.289  -2.061  -4.740  0.00  0.00     0.069 H 
ATOM     23  C   LIG d   1       2.653  -0.065  -4.070  0.00  0.00     0.017 A 
ATOM     24  C   LIG d   1       2.461   0.476  -5.327  0.00  0.00    -0.029 A 
ATOM     25  H   LIG d   1       2.009   0.226  -3.253  0.00  0.00     0.069 H 
ATOM     26  H   LIG d   1       1.669   1.192  -5.492  0.00  0.00     0.064 H 
BRANCH  21  27
ATOM     27  N   LIG d   1       3.879  -1.553  -2.511  0.00  0.00     0.080 N 
ATOM     28  O   LIG d   1       3.578  -2.713  -2.292  0.00  0.00     0.041 OA
ATOM     29  O   LIG d   1       4.350  -0.868  -1.622  0.00  0.00    -0.576 OA
ENDBRANCH  21  27
ENDBRANCH  14  17
ENDBRANCH  12  14
ENDBRANCH   6  12
ENDBRANCH   1   6
TORSDOF 6
ENDMDL
MODEL 5
REMARK VINA RESULT:      -4.9      4.904      7.082
REMARK  6 active torsions:
REMARK  status: ('A' for Active; 'I' for Inactive)
REMARK    1  A    between atoms: C_1  and  C_2 
REMARK    2  A    between atoms: C_2  and  C_4 
REMARK    3  A    between atoms: C_2  and  N_7 
REMARK    4  A    between atoms: N_7  and  S_8 
REMARK    5  A    between atoms: S_8  and  C_11 
REMARK    6  A    between atoms: C_14  and  N_17 
ROOT
ATOM      1  C   LIG d   1       2.484  -0.628  -3.351  0.00  0.00     0.051 C 
ATOM      2  C   LIG d   1       2.674   0.251  -4.516  0.00  0.00     0.064 C 
ATOM      3  N   LIG d   1       2.821   0.929  -5.416  0.00  0.00    -0.197 NA
ATOM      4  H   LIG d   1       1.527  -1.142  -3.436  0.00  0.00     0.043 H 
ATOM      5  H   LIG d   1       2.495  -0.030  -2.440  0.00  0.00     0.043 H 
ENDROOT
BRANCH   1   6
ATOM      6  C   LIG d   1       3.614  -1.658  -3.299  0.00  0.00     0.039 C 
ATOM      7  H   LIG d   1       3.199  -2.658  -3.424  0.00  0.00     0.048 H 
BRANCH   6   8
ATOM      8  C   LIG d   1       4.326  -1.566  -1.948  0.00  0.00    -0.047 C 
ATOM      9  H   LIG d   1       5.368  -1.864  -2.065  0.00  0.00     0.025 H 
ATOM     10  H   LIG d   1       4.281  -0.539  -1.583  0.00  0.00     0.025 H 
ATOM     11  H   LIG d   1       3.836  -2.228  -1.233  0.00  0.00     0.025 H 
ENDBRANCH   6   8
BRANCH   6  12
ATOM     12  N   LIG d   1       4.570  -1.389  -4.374  0.00  0.00    -0.186 N 
ATOM     13  H   LIG d   1       4.890  -0.485  -4.525  0.00  0.00     0.148 HD
BRANCH  12  14
ATOM     14  S   LIG d   1       5.112  -2.627  -5.331  0.00  0.00     0.059 S 
ATOM     15  O   LIG d   1       4.184  -3.692  -5.181  0.00  0.00    -0.153 OA
ATOM     16  O   LIG d   1       5.421  -2.058  -6.595  0.00  0.00    -0.153 OA
BRANCH  14  17
ATOM     17  C   LIG d   1       6.635  -3.187  -4.644  0.00  0.00     0.106 A 
ATOM     18  C   LIG d   1       7.295  -2.416  -3.704  0.00  0.00    -0.029 A 
ATOM     19  C   LIG d   1       8.490  -2.855  -3.166  0.00  0.00     0.017 A 
ATOM     20  H   LIG d   1       6.877  -1.470  -3.393  0.00  0.00     0.064 H 
ATOM     21  C   LIG d   1       9.024  -4.066  -3.565  0.00  0.00     0.273 A 
ATOM     22  H   LIG d   1       9.005  -2.253  -2.432  0.00  0.00     0.069 H 
ATOM     23  C   LIG d   1       8.364  -4.838  -4.502  0.00  0.00     0.017 A 
ATOM     24  C   LIG d   1       7.168  -4.401  -5.039  0.00  0.00    -0.029 A 
ATOM     25  H   LIG d   1       8.782  -5.784  -4.815  0.00  0.00     0.069 H 
ATOM     26  H   LIG d   1       6.649  -5.005  -5.768  0.00  0.00     0.064 H 
BRANCH  21  27
ATOM     27  N   LIG d   1      10.303  -4.537  -2.987  0.00  0.00     0.080 N 
ATOM     28  O   LIG d   1      10.311  -5.477  -2.212  0.00  0.00     0.041 OA
ATOM     29  O   LIG d   1      11.346  -3.985  -3.286  0.00  0.00    -0.576 OA
ENDBRANCH  21  27
ENDBRANCH  14  17
ENDBRANCH  12  14
ENDBRANCH   6  12
ENDBRANCH   1   6
TORSDOF 6
ENDMDL
MODEL 6
REMARK VINA RESULT:      -4.9      1.690      2.717
REMARK  6 active torsions:
REMARK  status: ('A' for Active; 'I' for Inactive)
REMARK    1  A    between atoms: C_1  and  C_2 
REMARK    2  A    between atoms: C_2  and  C_4 
REMARK    3  A    between atoms: C_2  and  N_7 
REMARK    4  A    between atoms: N_7  and  S_8 
REMARK    5  A    between atoms: S_8  and  C_11 
REMARK    6  A    between atoms: C_14  and  N_17 
ROOT
ATOM      1  C   LIG d   1       4.772  -3.530  -4.481  0.00  0.00     0.051 C 
ATOM      2  C   LIG d   1       4.543  -3.549  -5.935  0.00  0.00     0.064 C 
ATOM      3  N   LIG d   1       4.367  -3.564  -7.058  0.00  0.00    -0.197 NA
ATOM      4  H   LIG d   1       5.808  -3.794  -4.273  0.00  0.00     0.043 H 
ATOM      5  H   LIG d   1       4.110  -4.251  -4.000  0.00  0.00     0.043 H 
ENDROOT
BRANCH   1   6
ATOM      6  C   LIG d   1       4.482  -2.130  -3.937  0.00  0.00     0.039 C 
ATOM      7  H   LIG d   1       5.408  -1.556  -3.900  0.00  0.00     0.048 H 
BRANCH   6   8
ATOM      8  C   LIG d   1       3.894  -2.241  -2.529  0.00  0.00    -0.047 C 
ATOM      9  H   LIG d   1       3.569  -3.267  -2.352  0.00  0.00     0.025 H 
ATOM     10  H   LIG d   1       4.653  -1.969  -1.795  0.00  0.00     0.025 H 
ATOM     11  H   LIG d   1       3.041  -1.568  -2.437  0.00  0.00     0.025 H 
ENDBRANCH   6   8
BRANCH   6  12
ATOM     12  N   LIG d   1       3.523  -1.454  -4.814  0.00  0.00    -0.186 N 
ATOM     13  H   LIG d   1       2.693  -1.893  -5.056  0.00  0.00     0.148 HD
BRANCH  12  14
ATOM     14  S   LIG d   1       3.854   0.063  -5.389  0.00  0.00     0.059 S 
ATOM     15  O   LIG d   1       2.806   0.908  -4.934  0.00  0.00    -0.153 OA
ATOM     16  O   LIG d   1       5.220   0.319  -5.097  0.00  0.00    -0.153 OA
BRANCH  14  17
ATOM     17  C   LIG d   1       3.718  -0.005  -7.145  0.00  0.00     0.106 A 
ATOM     18  C   LIG d   1       4.820   0.268  -7.935  0.00  0.00    -0.029 A 
ATOM     19  C   LIG d   1       4.713   0.215  -9.311  0.00  0.00     0.017 A 
ATOM     20  H   LIG d   1       5.763   0.524  -7.475  0.00  0.00     0.064 H 
ATOM     21  C   LIG d   1       3.505  -0.113  -9.899  0.00  0.00     0.273 A 
ATOM     22  H   LIG d   1       5.573   0.429  -9.929  0.00  0.00     0.069 H 
ATOM     23  C   LIG d   1       2.404  -0.388  -9.110  0.00  0.00     0.017 A 
ATOM     24  C   LIG d   1       2.512  -0.337  -7.733  0.00  0.00    -0.029 A 
ATOM     25  H   LIG d   1       1.460  -0.643  -9.569  0.00  0.00     0.069 H 
ATOM     26  H   LIG d   1       1.653  -0.556  -7.116  0.00  0.00     0.064 H 
BRANCH  21  27
ATOM     27  N   LIG d   1       3.391  -0.171 -11.374  0.00  0.00     0.080 N 
ATOM     28  O   LIG d   1       2.351  -0.542 -11.889  0.00  0.00     0.041 OA
ATOM     29  O   LIG d   1       4.336   0.150 -12.071  0.00  0.00    -0.576 OA
ENDBRANCH  21  27
ENDBRANCH  14  17
ENDBRANCH  12  14
ENDBRANCH   6  12
ENDBRANCH   1   6
TORSDOF 6
ENDMDL
MODEL 7
REMARK VINA RESULT:      -4.8      2.416      3.043
REMARK  6 active torsions:
REMARK  status: ('A' for Active; 'I' for Inactive)
REMARK    1  A    between atoms: C_1  and  C_2 
REMARK    2  A    between atoms: C_2  and  C_4 
REMARK    3  A    between atoms: C_2  and  N_7 
REMARK    4  A    between atoms: N_7  and  S_8 
REMARK    5  A    between atoms: S_8  and  C_11 
REMARK    6  A    between atoms: C_14  and  N_17 
ROOT
ATOM      1  C   LIG d   1       3.241  -0.010  -3.186  0.00  0.00     0.051 C 
ATOM      2  C   LIG d   1       4.046   0.750  -2.217  0.00  0.00     0.064 C 
ATOM      3  N   LIG d   1       4.669   1.337  -1.469  0.00  0.00    -0.197 NA
ATOM      4  H   LIG d   1       2.977   0.634  -4.024  0.00  0.00     0.043 H 
ATOM      5  H   LIG d   1       2.331  -0.367  -2.702  0.00  0.00     0.043 H 
ENDROOT
BRANCH   1   6
ATOM      6  C   LIG d   1       4.049  -1.205  -3.696  0.00  0.00     0.039 C 
ATOM      7  H   LIG d   1       3.702  -1.478  -4.693  0.00  0.00     0.048 H 
BRANCH   6   8
ATOM      8  C   LIG d   1       3.861  -2.390  -2.747  0.00  0.00    -0.047 C 
ATOM      9  H   LIG d   1       3.232  -2.088  -1.909  0.00  0.00     0.025 H 
ATOM     10  H   LIG d   1       3.383  -3.212  -3.282  0.00  0.00     0.025 H 
ATOM     11  H   LIG d   1       4.833  -2.715  -2.374  0.00  0.00     0.025 H 
ENDBRANCH   6   8
BRANCH   6  12
ATOM     12  N   LIG d   1       5.468  -0.846  -3.754  0.00  0.00    -0.186 N 
ATOM     13  H   LIG d   1       5.978  -0.750  -2.934  0.00  0.00     0.148 HD
BRANCH  12  14
ATOM     14  S   LIG d   1       6.204  -0.610  -5.218  0.00  0.00     0.059 S 
ATOM     15  O   LIG d   1       6.507   0.775  -5.303  0.00  0.00    -0.153 OA
ATOM     16  O   LIG d   1       7.199  -1.616  -5.338  0.00  0.00    -0.153 OA
BRANCH  14  17
ATOM     17  C   LIG d   1       5.001  -0.939  -6.464  0.00  0.00     0.106 A 
ATOM     18  C   LIG d   1       4.137   0.060  -6.872  0.00  0.00    -0.029 A 
ATOM     19  C   LIG d   1       3.194  -0.198  -7.849  0.00  0.00     0.017 A 
ATOM     20  H   LIG d   1       4.199   1.042  -6.426  0.00  0.00     0.064 H 
ATOM     21  C   LIG d   1       3.117  -1.455  -8.419  0.00  0.00     0.273 A 
ATOM     22  H   LIG d   1       2.519   0.582  -8.167  0.00  0.00     0.069 H 
ATOM     23  C   LIG d   1       3.982  -2.453  -8.013  0.00  0.00     0.017 A 
ATOM     24  C   LIG d   1       4.927  -2.195  -7.038  0.00  0.00    -0.029 A 
ATOM     25  H   LIG d   1       3.921  -3.436  -8.458  0.00  0.00     0.069 H 
ATOM     26  H   LIG d   1       5.605  -2.973  -6.724  0.00  0.00     0.064 H 
BRANCH  21  27
ATOM     27  N   LIG d   1       2.108  -1.732  -9.467  0.00  0.00     0.080 N 
ATOM     28  O   LIG d   1       1.285  -0.882  -9.758  0.00  0.00     0.041 OA
ATOM     29  O   LIG d   1       2.099  -2.808 -10.035  0.00  0.00    -0.576 OA
ENDBRANCH  21  27
ENDBRANCH  14  17
ENDBRANCH  12  14
ENDBRANCH   6  12
ENDBRANCH   1   6
TORSDOF 6
ENDMDL
MODEL 8
REMARK VINA RESULT:      -4.8      2.593      6.487
REMARK  6 active torsions:
REMARK  status: ('A' for Active; 'I' for Inactive)
REMARK    1  A    between atoms: C_1  and  C_2 
REMARK    2  A    between atoms: C_2  and  C_4 
REMARK    3  A    between atoms: C_2  and  N_7 
REMARK    4  A    between atoms: N_7  and  S_8 
REMARK    5  A    between atoms: S_8  and  C_11 
REMARK    6  A    between atoms: C_14  and  N_17 
ROOT
ATOM      1  C   LIG d   1       4.397   1.104 -10.579  0.00  0.00     0.051 C 
ATOM      2  C   LIG d   1       3.963   1.964  -9.466  0.00  0.00     0.064 C 
ATOM      3  N   LIG d   1       3.628   2.627  -8.606  0.00  0.00    -0.197 NA
ATOM      4  H   LIG d   1       5.485   1.053 -10.596  0.00  0.00     0.043 H 
ATOM      5  H   LIG d   1       4.038   1.520 -11.520  0.00  0.00     0.043 H 
ENDROOT
BRANCH   1   6
ATOM      6  C   LIG d   1       3.823  -0.302 -10.391  0.00  0.00     0.039 C 
ATOM      7  H   LIG d   1       4.576  -1.041 -10.667  0.00  0.00     0.048 H 
BRANCH   6   8
ATOM      8  C   LIG d   1       2.591  -0.473 -11.281  0.00  0.00    -0.047 C 
ATOM      9  H   LIG d   1       2.145   0.503 -11.476  0.00  0.00     0.025 H 
ATOM     10  H   LIG d   1       2.885  -0.932 -12.226  0.00  0.00     0.025 H 
ATOM     11  H   LIG d   1       1.864  -1.111 -10.778  0.00  0.00     0.025 H 
ENDBRANCH   6   8
BRANCH   6  12
ATOM     12  N   LIG d   1       3.443  -0.492  -8.990  0.00  0.00    -0.186 N 
ATOM     13  H   LIG d   1       2.638  -0.075  -8.644  0.00  0.00     0.148 HD
BRANCH  12  14
ATOM     14  S   LIG d   1       4.384  -1.422  -7.995  0.00  0.00     0.059 S 
ATOM     15  O   LIG d   1       3.744  -2.686  -7.894  0.00  0.00    -0.153 OA
ATOM     16  O   LIG d   1       5.722  -1.281  -8.453  0.00  0.00    -0.153 OA
BRANCH  14  17
ATOM     17  C   LIG d   1       4.321  -0.697  -6.390  0.00  0.00     0.106 A 
ATOM     18  C   LIG d   1       3.156  -0.099  -5.947  0.00  0.00    -0.029 A 
ATOM     19  C   LIG d   1       3.107   0.471  -4.689  0.00  0.00     0.017 A 
ATOM     20  H   LIG d   1       2.285  -0.076  -6.585  0.00  0.00     0.064 H 
ATOM     21  C   LIG d   1       4.222   0.440  -3.872  0.00  0.00     0.273 A 
ATOM     22  H   LIG d   1       2.197   0.938  -4.343  0.00  0.00     0.069 H 
ATOM     23  C   LIG d   1       5.386  -0.159  -4.314  0.00  0.00     0.017 A 
ATOM     24  C   LIG d   1       5.435  -0.731  -5.572  0.00  0.00    -0.029 A 
ATOM     25  H   LIG d   1       6.258  -0.182  -3.677  0.00  0.00     0.069 H 
ATOM     26  H   LIG d   1       6.343  -1.203  -5.916  0.00  0.00     0.064 H 
BRANCH  21  27
ATOM     27  N   LIG d   1       4.170   1.049  -2.524  0.00  0.00     0.080 N 
ATOM     28  O   LIG d   1       5.179   1.112  -1.845  0.00  0.00     0.041 OA
ATOM     29  O   LIG d   1       3.118   1.484  -2.093  0.00  0.00    -0.576 OA
ENDBRANCH  21  27
ENDBRANCH  14  17
ENDBRANCH  12  14
ENDBRANCH   6  12
ENDBRANCH   1   6
TORSDOF 6
ENDMDL
MODEL 9
REMARK VINA RESULT:      -4.7      4.375      6.361
REMARK  6 active torsions:
REMARK  status: ('A' for Active; 'I' for Inactive)
REMARK    1  A    between atoms: C_1  and  C_2 
REMARK    2  A    between atoms: C_2  and  C_4 
REMARK    3  A    between atoms: C_2  and  N_7 
REMARK    4  A    between atoms: N_7  and  S_8 
REMARK    5  A    between atoms: S_8  and  C_11 
REMARK    6  A    between atoms: C_14  and  N_17 
ROOT
ATOM      1  C   LIG d   1       3.057  -0.178  -2.839  0.00  0.00     0.051 C 
ATOM      2  C   LIG d   1       4.056   0.545  -2.035  0.00  0.00     0.064 C 
ATOM      3  N   LIG d   1       4.828   1.103  -1.415  0.00  0.00    -0.197 NA
ATOM      4  H   LIG d   1       2.066   0.225  -2.634  0.00  0.00     0.043 H 
ATOM      5  H   LIG d   1       3.079  -1.236  -2.578  0.00  0.00     0.043 H 
ENDROOT
BRANCH   1   6
ATOM      6  C   LIG d   1       3.380  -0.012  -4.325  0.00  0.00     0.039 C 
ATOM      7  H   LIG d   1       4.248   0.638  -4.437  0.00  0.00     0.048 H 
BRANCH   6   8
ATOM      8  C   LIG d   1       2.181   0.613  -5.040  0.00  0.00    -0.047 C 
ATOM      9  H   LIG d   1       1.337   0.672  -4.352  0.00  0.00     0.025 H 
ATOM     10  H   LIG d   1       2.441   1.615  -5.382  0.00  0.00     0.025 H 
ATOM     11  H   LIG d   1       1.907  -0.004  -5.897  0.00  0.00     0.025 H 
ENDBRANCH   6   8
BRANCH   6  12
ATOM     12  N   LIG d   1       3.671  -1.321  -4.911  0.00  0.00    -0.186 N 
ATOM     13  H   LIG d   1       3.138  -2.093  -4.664  0.00  0.00     0.148 HD
BRANCH  12  14
ATOM     14  S   LIG d   1       4.906  -1.485  -6.002  0.00  0.00     0.059 S 
ATOM     15  O   LIG d   1       4.468  -2.421  -6.976  0.00  0.00    -0.153 OA
ATOM     16  O   LIG d   1       5.324  -0.170  -6.342  0.00  0.00    -0.153 OA
BRANCH  14  17
ATOM     17  C   LIG d   1       6.254  -2.237  -5.152  0.00  0.00     0.106 A 
ATOM     18  C   LIG d   1       6.865  -3.360  -5.681  0.00  0.00    -0.029 A 
ATOM     19  C   LIG d   1       7.922  -3.950  -5.014  0.00  0.00     0.017 A 
ATOM     20  H   LIG d   1       6.514  -3.775  -6.614  0.00  0.00     0.064 H 
ATOM     21  C   LIG d   1       8.370  -3.417  -3.820  0.00  0.00     0.273 A 
ATOM     22  H   LIG d   1       8.398  -4.827  -5.427  0.00  0.00     0.069 H 
ATOM     23  C   LIG d   1       7.761  -2.294  -3.292  0.00  0.00     0.017 A 
ATOM     24  C   LIG d   1       6.706  -1.702  -3.960  0.00  0.00    -0.029 A 
ATOM     25  H   LIG d   1       8.110  -1.878  -2.358  0.00  0.00     0.069 H 
ATOM     26  H   LIG d   1       6.233  -0.822  -3.551  0.00  0.00     0.064 H 
BRANCH  21  27
ATOM     27  N   LIG d   1       9.503  -4.049  -3.106  0.00  0.00     0.080 N 
ATOM     28  O   LIG d   1      10.488  -4.407  -3.726  0.00  0.00     0.041 OA
ATOM     29  O   LIG d   1       9.449  -4.211  -1.901  0.00  0.00    -0.576 OA
ENDBRANCH  21  27
ENDBRANCH  14  17
ENDBRANCH  12  14
ENDBRANCH   6  12
ENDBRANCH   1   6
TORSDOF 6
ENDMDL
MODEL 10
REMARK VINA RESULT:      -4.7      4.563      5.764
REMARK  6 active torsions:
REMARK  status: ('A' for Active; 'I' for Inactive)
REMARK    1  A    between atoms: C_1  and  C_2 
REMARK    2  A    between atoms: C_2  and  C_4 
REMARK    3  A    between atoms: C_2  and  N_7 
REMARK    4  A    between atoms: N_7  and  S_8 
REMARK    5  A    between atoms: S_8  and  C_11 
REMARK    6  A    between atoms: C_14  and  N_17 
ROOT
ATOM      1  C   LIG d   1       3.296  -0.001  -3.119  0.00  0.00     0.051 C 
ATOM      2  C   LIG d   1       4.117   0.742  -2.150  0.00  0.00     0.064 C 
ATOM      3  N   LIG d   1       4.752   1.316  -1.402  0.00  0.00    -0.197 NA
ATOM      4  H   LIG d   1       3.148   0.606  -4.011  0.00  0.00     0.043 H 
ATOM      5  H   LIG d   1       2.329  -0.233  -2.672  0.00  0.00     0.043 H 
ENDROOT
BRANCH   1   6
ATOM      6  C   LIG d   1       4.007  -1.302  -3.498  0.00  0.00     0.039 C 
ATOM      7  H   LIG d   1       3.617  -1.664  -4.450  0.00  0.00     0.048 H 
BRANCH   6   8
ATOM      8  C   LIG d   1       3.762  -2.352  -2.414  0.00  0.00    -0.047 C 
ATOM      9  H   LIG d   1       3.178  -1.911  -1.606  0.00  0.00     0.025 H 
ATOM     10  H   LIG d   1       3.216  -3.195  -2.839  0.00  0.00     0.025 H 
ATOM     11  H   LIG d   1       4.719  -2.700  -2.022  0.00  0.00     0.025 H 
ENDBRANCH   6   8
BRANCH   6  12
ATOM     12  N   LIG d   1       5.445  -1.054  -3.622  0.00  0.00    -0.186 N 
ATOM     13  H   LIG d   1       5.992  -0.960  -2.826  0.00  0.00     0.148 HD
BRANCH  12  14
ATOM     14  S   LIG d   1       6.140  -0.940  -5.121  0.00  0.00     0.059 S 
ATOM     15  O   LIG d   1       6.984  -2.073  -5.266  0.00  0.00    -0.153 OA
ATOM     16  O   LIG d   1       5.090  -0.651  -6.034  0.00  0.00    -0.153 OA
BRANCH  14  17
ATOM     17  C   LIG d   1       7.192   0.473  -5.100  0.00  0.00     0.106 A 
ATOM     18  C   LIG d   1       7.743   0.943  -6.279  0.00  0.00    -0.029 A 
ATOM     19  C   LIG d   1       8.568   2.051  -6.263  0.00  0.00     0.017 A 
ATOM     20  H   LIG d   1       7.528   0.442  -7.211  0.00  0.00     0.064 H 
ATOM     21  C   LIG d   1       8.843   2.691  -5.068  0.00  0.00     0.273 A 
ATOM     22  H   LIG d   1       8.999   2.417  -7.183  0.00  0.00     0.069 H 
ATOM     23  C   LIG d   1       8.291   2.223  -3.891  0.00  0.00     0.017 A 
ATOM     24  C   LIG d   1       7.463   1.117  -3.907  0.00  0.00    -0.029 A 
ATOM     25  H   LIG d   1       8.506   2.722  -2.957  0.00  0.00     0.069 H 
ATOM     26  H   LIG d   1       7.029   0.753  -2.988  0.00  0.00     0.064 H 
BRANCH  21  27
ATOM     27  N   LIG d   1       9.726   3.879  -5.050  0.00  0.00     0.080 N 
ATOM     28  O   LIG d   1      10.567   3.998  -4.177  0.00  0.00     0.041 OA
ATOM     29  O   LIG d   1       9.611   4.736  -5.907  0.00  0.00    -0.576 OA
ENDBRANCH  21  27
ENDBRANCH  14  17
ENDBRANCH  12  14
ENDBRANCH   6  12
ENDBRANCH   1   6
TORSDOF 6
ENDMDL
