MODEL 1
REMARK VINA RESULT:      -6.6      0.000      0.000
REMARK  7 active torsions:
REMARK  status: ('A' for Active; 'I' for Inactive)
REMARK    1  A    between atoms: C_1  and  C_2 
REMARK    2  A    between atoms: C_8  and  C_36 
REMARK    3  A    between atoms: C_8  and  C_37 
REMARK    4  A    between atoms: C_19  and  C_33 
REMARK    5  A    between atoms: C_24  and  C_32 
REMARK    6  A    between atoms: C_29  and  C_30 
REMARK    7  A    between atoms: C_29  and  C_31 
ROOT
ATOM      1  C   LIG d   1       5.082  -2.759  -6.936  0.00  0.00    -0.023 C 
ATOM      2  C   LIG d   1       6.503  -2.819  -6.374  0.00  0.00    -0.046 C 
ATOM      3  C   LIG d   1       6.462  -2.869  -4.843  0.00  0.00    -0.044 C 
ATOM      4  C   LIG d   1       5.712  -1.716  -4.243  0.00  0.00    -0.000 C 
ATOM      5  C   LIG d   1       5.426  -1.953  -2.748  0.00  0.00    -0.044 C 
ATOM      6  C   LIG d   1       4.917  -0.652  -2.126  0.00  0.00    -0.045 C 
ATOM      7  C   LIG d   1       3.764  -0.046  -2.926  0.00  0.00    -0.008 C 
ATOM      8  C   LIG d   1       4.110  -0.004  -4.422  0.00  0.00     0.068 C 
ATOM      9  H   LIG d   1       3.347   0.515  -5.004  0.00  0.00     0.060 H 
ATOM     10  C   LIG d   1       4.342  -1.463  -4.906  0.00  0.00    -0.003 C 
ATOM     11  H   LIG d   1       3.578  -2.165  -4.544  0.00  0.00     0.034 H 
ATOM     12  C   LIG d   1       4.421  -1.474  -6.427  0.00  0.00    -0.029 C 
ATOM     13  H   LIG d   1       3.386  -1.459  -6.801  0.00  0.00     0.031 H 
ATOM     14  C   LIG d   1       5.147  -0.250  -6.968  0.00  0.00    -0.049 C 
ATOM     15  C   LIG d   1       5.071  -0.244  -8.503  0.00  0.00    -0.049 C 
ATOM     16  C   LIG d   1       4.367  -1.514  -8.968  0.00  0.00    -0.029 C 
ATOM     17  H   LIG d   1       3.362  -1.516  -8.487  0.00  0.00     0.031 H 
ATOM     18  C   LIG d   1       5.091  -2.759  -8.476  0.00  0.00    -0.023 C 
ATOM     19  C   LIG d   1       4.378  -3.992  -9.018  0.00  0.00    -0.047 C 
ATOM     20  C   LIG d   1       4.223  -3.990 -10.539  0.00  0.00    -0.048 C 
ATOM     21  C   LIG d   1       4.646  -2.689 -11.190  0.00  0.00    -0.024 C 
ATOM     22  H   LIG d   1       5.758  -2.618 -11.137  0.00  0.00     0.032 H 
ATOM     23  C   LIG d   1       4.083  -1.481 -10.469  0.00  0.00    -0.025 C 
ATOM     24  C   LIG d   1       4.682  -0.204 -11.069  0.00  0.00    -0.040 C 
ATOM     25  C   LIG d   1       4.293  -0.085 -12.543  0.00  0.00     0.007 C 
ATOM     26  C   LIG d   1       4.680  -1.337 -13.284  0.00  0.00     0.139 C 
ATOM     27  O   LIG d   1       5.219  -1.255 -14.372  0.00  0.00    -0.297 OA
ATOM     28  C   LIG d   1       4.401  -2.701 -12.697  0.00  0.00     0.027 C 
ATOM     29  O   LIG d   1       5.405   0.625  -4.546  0.00  0.00    -0.375 OA
ATOM     30  C   LIG d   1       6.431  -0.365  -4.369  0.00  0.00     0.054 C 
ATOM     31  H   LIG d   1       7.010  -3.729  -6.707  0.00  0.00     0.027 H 
ATOM     32  H   LIG d   1       7.075  -1.934  -6.657  0.00  0.00     0.027 H 
ATOM     33  H   LIG d   1       6.042  -3.810  -4.504  0.00  0.00     0.027 H 
ATOM     34  H   LIG d   1       7.500  -2.826  -4.480  0.00  0.00     0.027 H 
ATOM     35  H   LIG d   1       4.683  -2.738  -2.639  0.00  0.00     0.027 H 
ATOM     36  H   LIG d   1       6.352  -2.256  -2.253  0.00  0.00     0.027 H 
ATOM     37  H   LIG d   1       4.566  -0.858  -1.109  0.00  0.00     0.027 H 
ATOM     38  H   LIG d   1       5.732   0.072  -2.062  0.00  0.00     0.027 H 
ATOM     39  H   LIG d   1       4.672   0.662  -6.599  0.00  0.00     0.027 H 
ATOM     40  H   LIG d   1       6.194  -0.261  -6.677  0.00  0.00     0.027 H 
ATOM     41  H   LIG d   1       4.484   0.631  -8.801  0.00  0.00     0.027 H 
ATOM     42  H   LIG d   1       6.066  -0.164  -8.921  0.00  0.00     0.027 H 
ATOM     43  H   LIG d   1       4.924  -4.895  -8.736  0.00  0.00     0.027 H 
ATOM     44  H   LIG d   1       3.353  -4.040  -8.623  0.00  0.00     0.027 H 
ATOM     45  H   LIG d   1       4.820  -4.819 -10.936  0.00  0.00     0.027 H 
ATOM     46  H   LIG d   1       3.172  -4.212 -10.760  0.00  0.00     0.027 H 
ATOM     47  H   LIG d   1       4.300   0.667 -10.534  0.00  0.00     0.028 H 
ATOM     48  H   LIG d   1       5.767  -0.240 -10.980  0.00  0.00     0.028 H 
ATOM     49  H   LIG d   1       3.229   0.110 -12.650  0.00  0.00     0.034 H 
ATOM     50  H   LIG d   1       4.834   0.768 -12.980  0.00  0.00     0.034 H 
ATOM     51  H   LIG d   1       6.995  -0.159  -3.454  0.00  0.00     0.057 H 
ATOM     52  H   LIG d   1       7.117  -0.371  -5.213  0.00  0.00     0.057 H 
ENDROOT
BRANCH   7  53
ATOM     53  C   LIG d   1       3.543   1.397  -2.443  0.00  0.00    -0.057 C 
ATOM     54  H   LIG d   1       4.403   1.721  -1.857  0.00  0.00     0.024 H 
ATOM     55  H   LIG d   1       3.424   2.055  -3.306  0.00  0.00     0.024 H 
ATOM     56  H   LIG d   1       2.645   1.441  -1.827  0.00  0.00     0.024 H 
ENDBRANCH   7  53
BRANCH   7  57
ATOM     57  C   LIG d   1       2.480  -0.835  -2.687  0.00  0.00    -0.057 C 
ATOM     58  H   LIG d   1       2.582  -1.834  -3.112  0.00  0.00     0.024 H 
ATOM     59  H   LIG d   1       2.295  -0.913  -1.615  0.00  0.00     0.024 H 
ATOM     60  H   LIG d   1       1.644  -0.322  -3.162  0.00  0.00     0.024 H 
ENDBRANCH   7  57
BRANCH   1  61
ATOM     61  C   LIG d   1       4.293  -3.961  -6.405  0.00  0.00    -0.059 C 
ATOM     62  H   LIG d   1       3.332  -4.020  -6.917  0.00  0.00     0.024 H 
ATOM     63  H   LIG d   1       4.859  -4.876  -6.587  0.00  0.00     0.024 H 
ATOM     64  H   LIG d   1       4.128  -3.843  -5.334  0.00  0.00     0.024 H 
ENDBRANCH   1  61
BRANCH  18  65
ATOM     65  C   LIG d   1       6.554  -2.768  -8.934  0.00  0.00    -0.059 C 
ATOM     66  H   LIG d   1       7.160  -2.203  -8.225  0.00  0.00     0.024 H 
ATOM     67  H   LIG d   1       6.915  -3.795  -8.981  0.00  0.00     0.024 H 
ATOM     68  H   LIG d   1       6.630  -2.312  -9.921  0.00  0.00     0.024 H 
ENDBRANCH  18  65
BRANCH  23  69
ATOM     69  C   LIG d   1       2.551  -1.406 -10.608  0.00  0.00    -0.059 C 
ATOM     70  H   LIG d   1       2.087  -2.055  -9.865  0.00  0.00     0.024 H 
ATOM     71  H   LIG d   1       2.222  -0.380 -10.450  0.00  0.00     0.024 H 
ATOM     72  H   LIG d   1       2.260  -1.732 -11.606  0.00  0.00     0.024 H 
ENDBRANCH  23  69
BRANCH  28  73
ATOM     73  C   LIG d   1       5.419  -3.677 -13.333  0.00  0.00    -0.053 C 
ATOM     74  H   LIG d   1       5.090  -3.943 -14.337  0.00  0.00     0.024 H 
ATOM     75  H   LIG d   1       6.398  -3.199 -13.385  0.00  0.00     0.024 H 
ATOM     76  H   LIG d   1       5.487  -4.579 -12.723  0.00  0.00     0.024 H 
ENDBRANCH  28  73
BRANCH  28  77
ATOM     77  C   LIG d   1       3.007  -3.173 -13.092  0.00  0.00    -0.053 C 
ATOM     78  H   LIG d   1       2.376  -3.226 -12.205  0.00  0.00     0.024 H 
ATOM     79  H   LIG d   1       2.575  -2.471 -13.805  0.00  0.00     0.024 H 
ATOM     80  H   LIG d   1       3.074  -4.160 -13.550  0.00  0.00     0.024 H 
ENDBRANCH  28  77
TORSDOF 7
ENDMDL
MODEL 2
REMARK VINA RESULT:      -6.3      3.997      5.682
REMARK  7 active torsions:
REMARK  status: ('A' for Active; 'I' for Inactive)
REMARK    1  A    between atoms: C_1  and  C_2 
REMARK    2  A    between atoms: C_8  and  C_36 
REMARK    3  A    between atoms: C_8  and  C_37 
REMARK    4  A    between atoms: C_19  and  C_33 
REMARK    5  A    between atoms: C_24  and  C_32 
REMARK    6  A    between atoms: C_29  and  C_30 
REMARK    7  A    between atoms: C_29  and  C_31 
ROOT
ATOM      1  C   LIG d   1       7.200  -3.884  -5.254  0.00  0.00    -0.023 C 
ATOM      2  C   LIG d   1       7.690  -2.753  -6.159  0.00  0.00    -0.046 C 
ATOM      3  C   LIG d   1       7.754  -1.439  -5.373  0.00  0.00    -0.044 C 
ATOM      4  C   LIG d   1       6.441  -1.072  -4.744  0.00  0.00    -0.000 C 
ATOM      5  C   LIG d   1       6.611   0.069  -3.723  0.00  0.00    -0.044 C 
ATOM      6  C   LIG d   1       5.229   0.588  -3.323  0.00  0.00    -0.045 C 
ATOM      7  C   LIG d   1       4.293  -0.542  -2.895  0.00  0.00    -0.008 C 
ATOM      8  C   LIG d   1       4.328  -1.687  -3.917  0.00  0.00     0.068 C 
ATOM      9  H   LIG d   1       3.595  -2.462  -3.689  0.00  0.00     0.060 H 
ATOM     10  C   LIG d   1       5.780  -2.237  -3.979  0.00  0.00    -0.003 C 
ATOM     11  H   LIG d   1       6.231  -2.381  -2.986  0.00  0.00     0.034 H 
ATOM     12  C   LIG d   1       5.786  -3.535  -4.777  0.00  0.00    -0.029 C 
ATOM     13  H   LIG d   1       5.457  -4.332  -4.092  0.00  0.00     0.031 H 
ATOM     14  C   LIG d   1       4.823  -3.483  -5.955  0.00  0.00    -0.049 C 
ATOM     15  C   LIG d   1       4.767  -4.861  -6.633  0.00  0.00    -0.049 C 
ATOM     16  C   LIG d   1       5.761  -5.790  -5.948  0.00  0.00    -0.029 C 
ATOM     17  H   LIG d   1       5.473  -5.828  -4.872  0.00  0.00     0.031 H 
ATOM     18  C   LIG d   1       7.174  -5.228  -6.004  0.00  0.00    -0.023 C 
ATOM     19  C   LIG d   1       8.129  -6.224  -5.357  0.00  0.00    -0.047 C 
ATOM     20  C   LIG d   1       8.052  -7.626  -5.962  0.00  0.00    -0.048 C 
ATOM     21  C   LIG d   1       6.923  -7.796  -6.959  0.00  0.00    -0.024 C 
ATOM     22  H   LIG d   1       7.187  -7.231  -7.884  0.00  0.00     0.032 H 
ATOM     23  C   LIG d   1       5.617  -7.229  -6.442  0.00  0.00    -0.025 C 
ATOM     24  C   LIG d   1       4.564  -7.279  -7.556  0.00  0.00    -0.040 C 
ATOM     25  C   LIG d   1       4.308  -8.727  -7.971  0.00  0.00     0.007 C 
ATOM     26  C   LIG d   1       5.604  -9.399  -8.339  0.00  0.00     0.139 C 
ATOM     27  O   LIG d   1       5.665 -10.092  -9.336  0.00  0.00    -0.297 OA
ATOM     28  C   LIG d   1       6.834  -9.229  -7.478  0.00  0.00     0.027 C 
ATOM     29  O   LIG d   1       4.110  -1.105  -5.222  0.00  0.00    -0.375 OA
ATOM     30  C   LIG d   1       5.363  -0.639  -5.748  0.00  0.00     0.054 C 
ATOM     31  H   LIG d   1       8.703  -2.959  -6.516  0.00  0.00     0.027 H 
ATOM     32  H   LIG d   1       7.009  -2.599  -6.998  0.00  0.00     0.027 H 
ATOM     33  H   LIG d   1       8.534  -1.484  -4.620  0.00  0.00     0.027 H 
ATOM     34  H   LIG d   1       8.028  -0.641  -6.080  0.00  0.00     0.027 H 
ATOM     35  H   LIG d   1       7.142  -0.300  -2.850  0.00  0.00     0.027 H 
ATOM     36  H   LIG d   1       7.185   0.876  -4.184  0.00  0.00     0.027 H 
ATOM     37  H   LIG d   1       5.342   1.285  -2.487  0.00  0.00     0.027 H 
ATOM     38  H   LIG d   1       4.782   1.131  -4.158  0.00  0.00     0.027 H 
ATOM     39  H   LIG d   1       3.819  -3.231  -5.607  0.00  0.00     0.027 H 
ATOM     40  H   LIG d   1       5.150  -2.752  -6.689  0.00  0.00     0.027 H 
ATOM     41  H   LIG d   1       3.751  -5.250  -6.505  0.00  0.00     0.027 H 
ATOM     42  H   LIG d   1       4.977  -4.760  -7.690  0.00  0.00     0.027 H 
ATOM     43  H   LIG d   1       9.158  -5.872  -5.452  0.00  0.00     0.027 H 
ATOM     44  H   LIG d   1       7.877  -6.354  -4.295  0.00  0.00     0.027 H 
ATOM     45  H   LIG d   1       9.013  -7.834  -6.447  0.00  0.00     0.027 H 
ATOM     46  H   LIG d   1       7.947  -8.335  -5.132  0.00  0.00     0.027 H 
ATOM     47  H   LIG d   1       3.629  -6.846  -7.196  0.00  0.00     0.028 H 
ATOM     48  H   LIG d   1       4.923  -6.711  -8.414  0.00  0.00     0.028 H 
ATOM     49  H   LIG d   1       3.803  -9.276  -7.179  0.00  0.00     0.034 H 
ATOM     50  H   LIG d   1       3.645  -8.728  -8.851  0.00  0.00     0.034 H 
ATOM     51  H   LIG d   1       5.351   0.451  -5.831  0.00  0.00     0.057 H 
ATOM     52  H   LIG d   1       5.557  -1.066  -6.729  0.00  0.00     0.057 H 
ENDROOT
BRANCH   7  53
ATOM     53  C   LIG d   1       2.859   0.010  -2.840  0.00  0.00    -0.057 C 
ATOM     54  H   LIG d   1       2.150  -0.819  -2.844  0.00  0.00     0.024 H 
ATOM     55  H   LIG d   1       2.728   0.593  -1.927  0.00  0.00     0.024 H 
ATOM     56  H   LIG d   1       2.680   0.647  -3.706  0.00  0.00     0.024 H 
ENDBRANCH   7  53
BRANCH   7  57
ATOM     57  C   LIG d   1       4.670  -1.044  -1.503  0.00  0.00    -0.057 C 
ATOM     58  H   LIG d   1       4.517  -2.122  -1.452  0.00  0.00     0.024 H 
ATOM     59  H   LIG d   1       5.717  -0.816  -1.305  0.00  0.00     0.024 H 
ATOM     60  H   LIG d   1       4.044  -0.553  -0.758  0.00  0.00     0.024 H 
ENDBRANCH   7  57
BRANCH   1  61
ATOM     61  C   LIG d   1       8.123  -3.970  -4.033  0.00  0.00    -0.059 C 
ATOM     62  H   LIG d   1       7.771  -4.757  -3.365  0.00  0.00     0.024 H 
ATOM     63  H   LIG d   1       9.138  -4.198  -4.360  0.00  0.00     0.024 H 
ATOM     64  H   LIG d   1       8.117  -3.017  -3.505  0.00  0.00     0.024 H 
ENDBRANCH   1  61
BRANCH  18  65
ATOM     65  C   LIG d   1       7.608  -4.963  -7.451  0.00  0.00    -0.059 C 
ATOM     66  H   LIG d   1       6.963  -5.520  -8.131  0.00  0.00     0.024 H 
ATOM     67  H   LIG d   1       7.528  -3.897  -7.665  0.00  0.00     0.024 H 
ATOM     68  H   LIG d   1       8.641  -5.283  -7.585  0.00  0.00     0.024 H 
ENDBRANCH  18  65
BRANCH  23  69
ATOM     69  C   LIG d   1       5.088  -8.037  -5.243  0.00  0.00    -0.059 C 
ATOM     70  H   LIG d   1       5.780  -8.849  -5.019  0.00  0.00     0.024 H 
ATOM     71  H   LIG d   1       5.000  -7.385  -4.376  0.00  0.00     0.024 H 
ATOM     72  H   LIG d   1       4.110  -8.451  -5.487  0.00  0.00     0.024 H 
ENDBRANCH  23  69
BRANCH  28  73
ATOM     73  C   LIG d   1       8.056  -9.477  -8.393  0.00  0.00    -0.053 C 
ATOM     74  H   LIG d   1       7.729  -9.530  -9.431  0.00  0.00     0.024 H 
ATOM     75  H   LIG d   1       8.768  -8.659  -8.278  0.00  0.00     0.024 H 
ATOM     76  H   LIG d   1       8.534 -10.417  -8.115  0.00  0.00     0.024 H 
ENDBRANCH  28  73
BRANCH  28  77
ATOM     77  C   LIG d   1       6.863 -10.286  -6.380  0.00  0.00    -0.053 C 
ATOM     78  H   LIG d   1       6.485 -11.230  -6.774  0.00  0.00     0.024 H 
ATOM     79  H   LIG d   1       7.887 -10.421  -6.033  0.00  0.00     0.024 H 
ATOM     80  H   LIG d   1       6.237  -9.963  -5.548  0.00  0.00     0.024 H 
ENDBRANCH  28  77
TORSDOF 7
ENDMDL
MODEL 3
REMARK VINA RESULT:      -6.0      2.351      2.843
REMARK  7 active torsions:
REMARK  status: ('A' for Active; 'I' for Inactive)
REMARK    1  A    between atoms: C_1  and  C_2 
REMARK    2  A    between atoms: C_8  and  C_36 
REMARK    3  A    between atoms: C_8  and  C_37 
REMARK    4  A    between atoms: C_19  and  C_33 
REMARK    5  A    between atoms: C_24  and  C_32 
REMARK    6  A    between atoms: C_29  and  C_30 
REMARK    7  A    between atoms: C_29  and  C_31 
ROOT
ATOM      1  C   LIG d   1       5.722  -2.604  -6.888  0.00  0.00    -0.023 C 
ATOM      2  C   LIG d   1       6.371  -3.633  -5.962  0.00  0.00    -0.046 C 
ATOM      3  C   LIG d   1       5.533  -3.799  -4.690  0.00  0.00    -0.044 C 
ATOM      4  C   LIG d   1       5.317  -2.504  -3.962  0.00  0.00    -0.000 C 
ATOM      5  C   LIG d   1       4.233  -2.648  -2.877  0.00  0.00    -0.044 C 
ATOM      6  C   LIG d   1       4.247  -1.402  -1.991  0.00  0.00    -0.045 C 
ATOM      7  C   LIG d   1       4.188  -0.114  -2.811  0.00  0.00    -0.008 C 
ATOM      8  C   LIG d   1       5.212  -0.156  -3.955  0.00  0.00     0.068 C 
ATOM      9  H   LIG d   1       5.262   0.791  -4.495  0.00  0.00     0.060 H 
ATOM     10  C   LIG d   1       4.855  -1.353  -4.879  0.00  0.00    -0.003 C 
ATOM     11  H   LIG d   1       3.782  -1.419  -5.108  0.00  0.00     0.034 H 
ATOM     12  C   LIG d   1       5.683  -1.259  -6.155  0.00  0.00    -0.029 C 
ATOM     13  H   LIG d   1       5.177  -0.534  -6.811  0.00  0.00     0.031 H 
ATOM     14  C   LIG d   1       7.095  -0.759  -5.882  0.00  0.00    -0.049 C 
ATOM     15  C   LIG d   1       7.831  -0.549  -7.214  0.00  0.00    -0.049 C 
ATOM     16  C   LIG d   1       6.927  -0.996  -8.356  0.00  0.00    -0.029 C 
ATOM     17  H   LIG d   1       5.994  -0.390  -8.280  0.00  0.00     0.031 H 
ATOM     18  C   LIG d   1       6.517  -2.453  -8.199  0.00  0.00    -0.023 C 
ATOM     19  C   LIG d   1       5.663  -2.859  -9.395  0.00  0.00    -0.047 C 
ATOM     20  C   LIG d   1       6.338  -2.602 -10.742  0.00  0.00    -0.048 C 
ATOM     21  C   LIG d   1       7.641  -1.835 -10.632  0.00  0.00    -0.024 C 
ATOM     22  H   LIG d   1       8.408  -2.513 -10.190  0.00  0.00     0.032 H 
ATOM     23  C   LIG d   1       7.518  -0.633  -9.717  0.00  0.00    -0.025 C 
ATOM     24  C   LIG d   1       8.902  -0.004  -9.515  0.00  0.00    -0.040 C 
ATOM     25  C   LIG d   1       9.454   0.488 -10.853  0.00  0.00     0.007 C 
ATOM     26  C   LIG d   1       9.443  -0.629 -11.862  0.00  0.00     0.139 C 
ATOM     27  O   LIG d   1      10.411  -0.809 -12.577  0.00  0.00    -0.297 OA
ATOM     28  C   LIG d   1       8.240  -1.531 -12.004  0.00  0.00     0.027 C 
ATOM     29  O   LIG d   1       6.487  -0.516  -3.377  0.00  0.00    -0.375 OA
ATOM     30  C   LIG d   1       6.578  -1.947  -3.285  0.00  0.00     0.054 C 
ATOM     31  H   LIG d   1       6.412  -4.613  -6.445  0.00  0.00     0.027 H 
ATOM     32  H   LIG d   1       7.369  -3.312  -5.657  0.00  0.00     0.027 H 
ATOM     33  H   LIG d   1       4.580  -4.266  -4.920  0.00  0.00     0.027 H 
ATOM     34  H   LIG d   1       6.077  -4.481  -4.019  0.00  0.00     0.027 H 
ATOM     35  H   LIG d   1       3.260  -2.764  -3.347  0.00  0.00     0.027 H 
ATOM     36  H   LIG d   1       4.451  -3.530  -2.270  0.00  0.00     0.027 H 
ATOM     37  H   LIG d   1       3.380  -1.432  -1.324  0.00  0.00     0.027 H 
ATOM     38  H   LIG d   1       5.148  -1.397  -1.374  0.00  0.00     0.027 H 
ATOM     39  H   LIG d   1       7.058   0.198  -5.357  0.00  0.00     0.027 H 
ATOM     40  H   LIG d   1       7.652  -1.479  -5.291  0.00  0.00     0.027 H 
ATOM     41  H   LIG d   1       8.042   0.522  -7.310  0.00  0.00     0.027 H 
ATOM     42  H   LIG d   1       8.766  -1.095  -7.208  0.00  0.00     0.027 H 
ATOM     43  H   LIG d   1       5.419  -3.922  -9.337  0.00  0.00     0.027 H 
ATOM     44  H   LIG d   1       4.738  -2.266  -9.417  0.00  0.00     0.027 H 
ATOM     45  H   LIG d   1       6.516  -3.574 -11.218  0.00  0.00     0.027 H 
ATOM     46  H   LIG d   1       5.620  -2.060 -11.369  0.00  0.00     0.027 H 
ATOM     47  H   LIG d   1       8.823   0.845  -8.834  0.00  0.00     0.028 H 
ATOM     48  H   LIG d   1       9.577  -0.748  -9.094  0.00  0.00     0.028 H 
ATOM     49  H   LIG d   1       8.886   1.340 -11.219  0.00  0.00     0.034 H 
ATOM     50  H   LIG d   1      10.493   0.821 -10.703  0.00  0.00     0.034 H 
ATOM     51  H   LIG d   1       6.601  -2.253  -2.236  0.00  0.00     0.057 H 
ATOM     52  H   LIG d   1       7.474  -2.313  -3.780  0.00  0.00     0.057 H 
ENDROOT
BRANCH   7  53
ATOM     53  C   LIG d   1       4.545   1.066  -1.891  0.00  0.00    -0.057 C 
ATOM     54  H   LIG d   1       3.785   1.165  -1.115  0.00  0.00     0.024 H 
ATOM     55  H   LIG d   1       5.515   0.885  -1.427  0.00  0.00     0.024 H 
ATOM     56  H   LIG d   1       4.588   1.984  -2.476  0.00  0.00     0.024 H 
ENDBRANCH   7  53
BRANCH   7  57
ATOM     57  C   LIG d   1       2.778   0.108  -3.352  0.00  0.00    -0.057 C 
ATOM     58  H   LIG d   1       2.049  -0.139  -2.579  0.00  0.00     0.024 H 
ATOM     59  H   LIG d   1       2.660   1.151  -3.643  0.00  0.00     0.024 H 
ATOM     60  H   LIG d   1       2.617  -0.531  -4.220  0.00  0.00     0.024 H 
ENDBRANCH   7  57
BRANCH   1  61
ATOM     61  C   LIG d   1       4.284  -3.045  -7.182  0.00  0.00    -0.059 C 
ATOM     62  H   LIG d   1       4.018  -2.766  -8.202  0.00  0.00     0.024 H 
ATOM     63  H   LIG d   1       4.206  -4.127  -7.069  0.00  0.00     0.024 H 
ATOM     64  H   LIG d   1       3.604  -2.558  -6.483  0.00  0.00     0.024 H 
ENDBRANCH   1  61
BRANCH  18  65
ATOM     65  C   LIG d   1       7.744  -3.368  -8.108  0.00  0.00    -0.059 C 
ATOM     66  H   LIG d   1       7.429  -4.370  -7.816  0.00  0.00     0.024 H 
ATOM     67  H   LIG d   1       8.238  -3.412  -9.078  0.00  0.00     0.024 H 
ATOM     68  H   LIG d   1       8.438  -2.974  -7.365  0.00  0.00     0.024 H 
ENDBRANCH  18  65
BRANCH  23  69
ATOM     69  C   LIG d   1       6.585   0.436 -10.313  0.00  0.00    -0.059 C 
ATOM     70  H   LIG d   1       6.968   1.427 -10.070  0.00  0.00     0.024 H 
ATOM     71  H   LIG d   1       6.543   0.319 -11.395  0.00  0.00     0.024 H 
ATOM     72  H   LIG d   1       5.586   0.320  -9.896  0.00  0.00     0.024 H 
ENDBRANCH  23  69
BRANCH  28  73
ATOM     73  C   LIG d   1       8.749  -2.864 -12.602  0.00  0.00    -0.053 C 
ATOM     74  H   LIG d   1       8.023  -3.652 -12.404  0.00  0.00     0.024 H 
ATOM     75  H   LIG d   1       8.879  -2.753 -13.679  0.00  0.00     0.024 H 
ATOM     76  H   LIG d   1       9.703  -3.126 -12.145  0.00  0.00     0.024 H 
ENDBRANCH  28  73
BRANCH  28  77
ATOM     77  C   LIG d   1       7.245  -0.936 -12.994  0.00  0.00    -0.053 C 
ATOM     78  H   LIG d   1       7.635  -1.037 -14.006  0.00  0.00     0.024 H 
ATOM     79  H   LIG d   1       6.294  -1.463 -12.914  0.00  0.00     0.024 H 
ATOM     80  H   LIG d   1       7.095   0.120 -12.767  0.00  0.00     0.024 H 
ENDBRANCH  28  77
TORSDOF 7
ENDMDL
MODEL 4
REMARK VINA RESULT:      -6.0      9.381     11.495
REMARK  7 active torsions:
REMARK  status: ('A' for Active; 'I' for Inactive)
REMARK    1  A    between atoms: C_1  and  C_2 
REMARK    2  A    between atoms: C_8  and  C_36 
REMARK    3  A    between atoms: C_8  and  C_37 
REMARK    4  A    between atoms: C_19  and  C_33 
REMARK    5  A    between atoms: C_24  and  C_32 
REMARK    6  A    between atoms: C_29  and  C_30 
REMARK    7  A    between atoms: C_29  and  C_31 
ROOT
ATOM      1  C   LIG d   1      11.004   8.640  -4.635  0.00  0.00    -0.023 C 
ATOM      2  C   LIG d   1       9.918   9.566  -4.086  0.00  0.00    -0.046 C 
ATOM      3  C   LIG d   1      10.260   9.985  -2.652  0.00  0.00    -0.044 C 
ATOM      4  C   LIG d   1      10.460   8.814  -1.735  0.00  0.00    -0.000 C 
ATOM      5  C   LIG d   1      11.094   9.252  -0.401  0.00  0.00    -0.044 C 
ATOM      6  C   LIG d   1      11.021   8.090   0.590  0.00  0.00    -0.045 C 
ATOM      7  C   LIG d   1      11.571   6.793  -0.004  0.00  0.00    -0.008 C 
ATOM      8  C   LIG d   1      10.979   6.546  -1.399  0.00  0.00     0.068 C 
ATOM      9  H   LIG d   1      11.276   5.578  -1.805  0.00  0.00     0.060 H 
ATOM     10  C   LIG d   1      11.391   7.731  -2.317  0.00  0.00    -0.003 C 
ATOM     11  H   LIG d   1      12.450   8.007  -2.218  0.00  0.00     0.034 H 
ATOM     12  C   LIG d   1      11.048   7.384  -3.760  0.00  0.00    -0.029 C 
ATOM     13  H   LIG d   1      11.860   6.742  -4.136  0.00  0.00     0.031 H 
ATOM     14  C   LIG d   1       9.738   6.615  -3.865  0.00  0.00    -0.049 C 
ATOM     15  C   LIG d   1       9.518   6.170  -5.319  0.00  0.00    -0.049 C 
ATOM     16  C   LIG d   1      10.645   6.725  -6.181  0.00  0.00    -0.029 C 
ATOM     17  H   LIG d   1      11.597   6.336  -5.752  0.00  0.00     0.031 H 
ATOM     18  C   LIG d   1      10.713   8.243  -6.094  0.00  0.00    -0.023 C 
ATOM     19  C   LIG d   1      11.817   8.743  -7.019  0.00  0.00    -0.047 C 
ATOM     20  C   LIG d   1      11.668   8.264  -8.463  0.00  0.00    -0.048 C 
ATOM     21  C   LIG d   1      10.560   7.248  -8.654  0.00  0.00    -0.024 C 
ATOM     22  H   LIG d   1       9.582   7.775  -8.553  0.00  0.00     0.032 H 
ATOM     23  C   LIG d   1      10.596   6.160  -7.601  0.00  0.00    -0.025 C 
ATOM     24  C   LIG d   1       9.358   5.267  -7.747  0.00  0.00    -0.040 C 
ATOM     25  C   LIG d   1       9.363   4.585  -9.116  0.00  0.00     0.007 C 
ATOM     26  C   LIG d   1       9.495   5.614 -10.207  0.00  0.00     0.139 C 
ATOM     27  O   LIG d   1       8.793   5.540 -11.198  0.00  0.00    -0.297 OA
ATOM     28  C   LIG d   1      10.498   6.738 -10.093  0.00  0.00     0.027 C 
ATOM     29  O   LIG d   1       9.543   6.665  -1.283  0.00  0.00    -0.375 OA
ATOM     30  C   LIG d   1       9.171   8.047  -1.405  0.00  0.00     0.054 C 
ATOM     31  H   LIG d   1       9.859  10.483  -4.679  0.00  0.00     0.027 H 
ATOM     32  H   LIG d   1       8.951   9.062  -4.058  0.00  0.00     0.027 H 
ATOM     33  H   LIG d   1      11.135  10.628  -2.641  0.00  0.00     0.027 H 
ATOM     34  H   LIG d   1       9.416  10.579  -2.268  0.00  0.00     0.027 H 
ATOM     35  H   LIG d   1      12.129   9.540  -0.567  0.00  0.00     0.027 H 
ATOM     36  H   LIG d   1      10.537  10.104  -0.005  0.00  0.00     0.027 H 
ATOM     37  H   LIG d   1      11.609   8.344   1.478  0.00  0.00     0.027 H 
ATOM     38  H   LIG d   1       9.987   7.934   0.901  0.00  0.00     0.027 H 
ATOM     39  H   LIG d   1       9.776   5.722  -3.236  0.00  0.00     0.027 H 
ATOM     40  H   LIG d   1       8.899   7.238  -3.565  0.00  0.00     0.027 H 
ATOM     41  H   LIG d   1       9.546   5.075  -5.337  0.00  0.00     0.027 H 
ATOM     42  H   LIG d   1       8.549   6.506  -5.663  0.00  0.00     0.027 H 
ATOM     43  H   LIG d   1      11.834   9.834  -7.025  0.00  0.00     0.027 H 
ATOM     44  H   LIG d   1      12.791   8.358  -6.686  0.00  0.00     0.027 H 
ATOM     45  H   LIG d   1      11.480   9.144  -9.089  0.00  0.00     0.027 H 
ATOM     46  H   LIG d   1      12.635   7.848  -8.770  0.00  0.00     0.027 H 
ATOM     47  H   LIG d   1       9.367   4.499  -6.972  0.00  0.00     0.028 H 
ATOM     48  H   LIG d   1       8.461   5.877  -7.647  0.00  0.00     0.028 H 
ATOM     49  H   LIG d   1      10.162   3.851  -9.182  0.00  0.00     0.034 H 
ATOM     50  H   LIG d   1       8.409   4.051  -9.244  0.00  0.00     0.034 H 
ATOM     51  H   LIG d   1       8.758   8.407  -0.459  0.00  0.00     0.057 H 
ATOM     52  H   LIG d   1       8.430   8.184  -2.190  0.00  0.00     0.057 H 
ENDROOT
BRANCH   7  53
ATOM     53  C   LIG d   1      11.157   5.626   0.907  0.00  0.00    -0.057 C 
ATOM     54  H   LIG d   1      10.732   6.019   1.831  0.00  0.00     0.024 H 
ATOM     55  H   LIG d   1      10.413   5.013   0.398  0.00  0.00     0.024 H 
ATOM     56  H   LIG d   1      12.031   5.018   1.139  0.00  0.00     0.024 H 
ENDBRANCH   7  53
BRANCH   7  57
ATOM     57  C   LIG d   1      13.096   6.841  -0.062  0.00  0.00    -0.057 C 
ATOM     58  H   LIG d   1      13.506   5.937   0.390  0.00  0.00     0.024 H 
ATOM     59  H   LIG d   1      13.418   6.906  -1.101  0.00  0.00     0.024 H 
ATOM     60  H   LIG d   1      13.454   7.714   0.484  0.00  0.00     0.024 H 
ENDBRANCH   7  57
BRANCH   1  61
ATOM     61  C   LIG d   1      12.356   9.356  -4.536  0.00  0.00    -0.059 C 
ATOM     62  H   LIG d   1      12.193  10.420  -4.366  0.00  0.00     0.024 H 
ATOM     63  H   LIG d   1      12.928   8.938  -3.706  0.00  0.00     0.024 H 
ATOM     64  H   LIG d   1      12.910   9.217  -5.464  0.00  0.00     0.024 H 
ENDBRANCH   1  61
BRANCH  18  65
ATOM     65  C   LIG d   1       9.377   8.882  -6.494  0.00  0.00    -0.059 C 
ATOM     66  H   LIG d   1       9.303   9.875  -6.051  0.00  0.00     0.024 H 
ATOM     67  H   LIG d   1       9.324   8.964  -7.579  0.00  0.00     0.024 H 
ATOM     68  H   LIG d   1       8.555   8.262  -6.136  0.00  0.00     0.024 H 
ENDBRANCH  18  65
BRANCH  23  69
ATOM     69  C   LIG d   1      11.848   5.276  -7.747  0.00  0.00    -0.059 C 
ATOM     70  H   LIG d   1      11.893   4.875  -8.760  0.00  0.00     0.024 H 
ATOM     71  H   LIG d   1      12.739   5.872  -7.553  0.00  0.00     0.024 H 
ATOM     72  H   LIG d   1      11.798   4.454  -7.034  0.00  0.00     0.024 H 
ENDBRANCH  23  69
BRANCH  28  73
ATOM     73  C   LIG d   1       9.976   7.893 -10.980  0.00  0.00    -0.053 C 
ATOM     74  H   LIG d   1       9.969   8.819 -10.405  0.00  0.00     0.024 H 
ATOM     75  H   LIG d   1      10.628   8.009 -11.847  0.00  0.00     0.024 H 
ATOM     76  H   LIG d   1       8.963   7.666 -11.314  0.00  0.00     0.024 H 
ENDBRANCH  28  73
BRANCH  28  77
ATOM     77  C   LIG d   1      11.847   6.305 -10.653  0.00  0.00    -0.053 C 
ATOM     78  H   LIG d   1      12.507   6.022  -9.833  0.00  0.00     0.024 H 
ATOM     79  H   LIG d   1      11.707   5.453 -11.318  0.00  0.00     0.024 H 
ATOM     80  H   LIG d   1      12.292   7.130 -11.209  0.00  0.00     0.024 H 
ENDBRANCH  28  77
TORSDOF 7
ENDMDL
MODEL 5
REMARK VINA RESULT:      -5.9      1.530      7.939
REMARK  7 active torsions:
REMARK  status: ('A' for Active; 'I' for Inactive)
REMARK    1  A    between atoms: C_1  and  C_2 
REMARK    2  A    between atoms: C_8  and  C_36 
REMARK    3  A    between atoms: C_8  and  C_37 
REMARK    4  A    between atoms: C_19  and  C_33 
REMARK    5  A    between atoms: C_24  and  C_32 
REMARK    6  A    between atoms: C_29  and  C_30 
REMARK    7  A    between atoms: C_29  and  C_31 
ROOT
ATOM      1  C   LIG d   1       3.438  -0.467  -9.325  0.00  0.00    -0.023 C 
ATOM      2  C   LIG d   1       3.804   0.671 -10.279  0.00  0.00    -0.046 C 
ATOM      3  C   LIG d   1       3.543   0.248 -11.728  0.00  0.00    -0.044 C 
ATOM      4  C   LIG d   1       4.273  -1.007 -12.109  0.00  0.00    -0.000 C 
ATOM      5  C   LIG d   1       3.757  -1.568 -13.448  0.00  0.00    -0.044 C 
ATOM      6  C   LIG d   1       4.705  -2.669 -13.924  0.00  0.00    -0.045 C 
ATOM      7  C   LIG d   1       4.971  -3.709 -12.835  0.00  0.00    -0.008 C 
ATOM      8  C   LIG d   1       5.326  -3.021 -11.509  0.00  0.00     0.068 C 
ATOM      9  H   LIG d   1       5.618  -3.739 -10.741  0.00  0.00     0.060 H 
ATOM     10  C   LIG d   1       4.117  -2.144 -11.079  0.00  0.00    -0.003 C 
ATOM     11  H   LIG d   1       3.151  -2.659 -11.182  0.00  0.00     0.034 H 
ATOM     12  C   LIG d   1       4.333  -1.667  -9.649  0.00  0.00    -0.029 C 
ATOM     13  H   LIG d   1       4.036  -2.496  -8.987  0.00  0.00     0.031 H 
ATOM     14  C   LIG d   1       5.794  -1.333  -9.375  0.00  0.00    -0.049 C 
ATOM     15  C   LIG d   1       5.973  -0.998  -7.886  0.00  0.00    -0.049 C 
ATOM     16  C   LIG d   1       4.611  -1.029  -7.204  0.00  0.00    -0.029 C 
ATOM     17  H   LIG d   1       4.195  -2.050  -7.368  0.00  0.00     0.031 H 
ATOM     18  C   LIG d   1       3.643  -0.052  -7.856  0.00  0.00    -0.023 C 
ATOM     19  C   LIG d   1       2.321  -0.085  -7.099  0.00  0.00    -0.047 C 
ATOM     20  C   LIG d   1       2.469   0.178  -5.600  0.00  0.00    -0.048 C 
ATOM     21  C   LIG d   1       3.910   0.244  -5.134  0.00  0.00    -0.024 C 
ATOM     22  H   LIG d   1       4.356   1.193  -5.514  0.00  0.00     0.032 H 
ATOM     23  C   LIG d   1       4.739  -0.897  -5.687  0.00  0.00    -0.025 C 
ATOM     24  C   LIG d   1       6.212  -0.680  -5.321  0.00  0.00    -0.040 C 
ATOM     25  C   LIG d   1       6.380  -0.680  -3.801  0.00  0.00     0.007 C 
ATOM     26  C   LIG d   1       5.451   0.325  -3.177  0.00  0.00     0.139 C 
ATOM     27  O   LIG d   1       5.857   1.062  -2.298  0.00  0.00    -0.297 OA
ATOM     28  C   LIG d   1       4.011   0.429  -3.622  0.00  0.00     0.027 C 
ATOM     29  O   LIG d   1       6.378  -2.070 -11.787  0.00  0.00    -0.375 OA
ATOM     30  C   LIG d   1       5.794  -0.835 -12.234  0.00  0.00     0.054 C 
ATOM     31  H   LIG d   1       3.180   1.548 -10.087  0.00  0.00     0.027 H 
ATOM     32  H   LIG d   1       4.862   0.925 -10.198  0.00  0.00     0.027 H 
ATOM     33  H   LIG d   1       2.478   0.134 -11.905  0.00  0.00     0.027 H 
ATOM     34  H   LIG d   1       3.897   1.060 -12.381  0.00  0.00     0.027 H 
ATOM     35  H   LIG d   1       2.755  -1.967 -13.314  0.00  0.00     0.027 H 
ATOM     36  H   LIG d   1       3.734  -0.763 -14.185  0.00  0.00     0.027 H 
ATOM     37  H   LIG d   1       4.258  -3.173 -14.787  0.00  0.00     0.027 H 
ATOM     38  H   LIG d   1       5.653  -2.230 -14.242  0.00  0.00     0.027 H 
ATOM     39  H   LIG d   1       6.425  -2.193  -9.610  0.00  0.00     0.027 H 
ATOM     40  H   LIG d   1       6.110  -0.475  -9.961  0.00  0.00     0.027 H 
ATOM     41  H   LIG d   1       6.620  -1.766  -7.450  0.00  0.00     0.027 H 
ATOM     42  H   LIG d   1       6.450  -0.032  -7.782  0.00  0.00     0.027 H 
ATOM     43  H   LIG d   1       1.637   0.662  -7.506  0.00  0.00     0.027 H 
ATOM     44  H   LIG d   1       1.868  -1.084  -7.173  0.00  0.00     0.027 H 
ATOM     45  H   LIG d   1       1.960   1.123  -5.375  0.00  0.00     0.027 H 
ATOM     46  H   LIG d   1       1.926  -0.616  -5.073  0.00  0.00     0.027 H 
ATOM     47  H   LIG d   1       6.817  -1.485  -5.741  0.00  0.00     0.028 H 
ATOM     48  H   LIG d   1       6.545   0.276  -5.724  0.00  0.00     0.028 H 
ATOM     49  H   LIG d   1       6.204  -1.672  -3.391  0.00  0.00     0.034 H 
ATOM     50  H   LIG d   1       7.418  -0.401  -3.563  0.00  0.00     0.034 H 
ATOM     51  H   LIG d   1       6.061  -0.652 -13.278  0.00  0.00     0.057 H 
ATOM     52  H   LIG d   1       6.138   0.000 -11.629  0.00  0.00     0.057 H 
ENDROOT
BRANCH   7  53
ATOM     53  C   LIG d   1       6.170  -4.570 -13.267  0.00  0.00    -0.057 C 
ATOM     54  H   LIG d   1       6.264  -4.545 -14.352  0.00  0.00     0.024 H 
ATOM     55  H   LIG d   1       7.081  -4.177 -12.815  0.00  0.00     0.024 H 
ATOM     56  H   LIG d   1       6.016  -5.598 -12.938  0.00  0.00     0.024 H 
ENDBRANCH   7  53
BRANCH   7  57
ATOM     57  C   LIG d   1       3.759  -4.622 -12.666  0.00  0.00    -0.057 C 
ATOM     58  H   LIG d   1       3.641  -4.878 -11.613  0.00  0.00     0.024 H 
ATOM     59  H   LIG d   1       2.864  -4.107 -13.018  0.00  0.00     0.024 H 
ATOM     60  H   LIG d   1       3.905  -5.532 -13.247  0.00  0.00     0.024 H 
ENDBRANCH   7  57
BRANCH   1  61
ATOM     61  C   LIG d   1       1.978  -0.863  -9.570  0.00  0.00    -0.059 C 
ATOM     62  H   LIG d   1       1.940  -1.705 -10.261  0.00  0.00     0.024 H 
ATOM     63  H   LIG d   1       1.515  -1.147  -8.625  0.00  0.00     0.024 H 
ATOM     64  H   LIG d   1       1.440  -0.017  -9.998  0.00  0.00     0.024 H 
ENDBRANCH   1  61
BRANCH  18  65
ATOM     65  C   LIG d   1       4.206   1.375  -7.849  0.00  0.00    -0.059 C 
ATOM     66  H   LIG d   1       3.383   2.089  -7.885  0.00  0.00     0.024 H 
ATOM     67  H   LIG d   1       4.784   1.533  -6.939  0.00  0.00     0.024 H 
ATOM     68  H   LIG d   1       4.849   1.517  -8.717  0.00  0.00     0.024 H 
ENDBRANCH  18  65
BRANCH  23  69
ATOM     69  C   LIG d   1       4.293  -2.251  -5.106  0.00  0.00    -0.059 C 
ATOM     70  H   LIG d   1       3.548  -2.700  -5.762  0.00  0.00     0.024 H 
ATOM     71  H   LIG d   1       5.154  -2.914  -5.027  0.00  0.00     0.024 H 
ATOM     72  H   LIG d   1       3.861  -2.098  -4.117  0.00  0.00     0.024 H 
ENDBRANCH  23  69
BRANCH  28  73
ATOM     73  C   LIG d   1       3.543   1.866  -3.290  0.00  0.00    -0.053 C 
ATOM     74  H   LIG d   1       3.688   2.505  -4.160  0.00  0.00     0.024 H 
ATOM     75  H   LIG d   1       2.486   1.852  -3.021  0.00  0.00     0.024 H 
ATOM     76  H   LIG d   1       4.126   2.254  -2.454  0.00  0.00     0.024 H 
ENDBRANCH  28  73
BRANCH  28  77
ATOM     77  C   LIG d   1       3.138  -0.532  -2.822  0.00  0.00    -0.053 C 
ATOM     78  H   LIG d   1       2.212  -0.719  -3.365  0.00  0.00     0.024 H 
ATOM     79  H   LIG d   1       3.672  -1.471  -2.678  0.00  0.00     0.024 H 
ATOM     80  H   LIG d   1       2.909  -0.092  -1.852  0.00  0.00     0.024 H 
ENDBRANCH  28  77
TORSDOF 7
ENDMDL
MODEL 6
REMARK VINA RESULT:      -5.6      3.633      5.053
REMARK  7 active torsions:
REMARK  status: ('A' for Active; 'I' for Inactive)
REMARK    1  A    between atoms: C_1  and  C_2 
REMARK    2  A    between atoms: C_8  and  C_36 
REMARK    3  A    between atoms: C_8  and  C_37 
REMARK    4  A    between atoms: C_19  and  C_33 
REMARK    5  A    between atoms: C_24  and  C_32 
REMARK    6  A    between atoms: C_29  and  C_30 
REMARK    7  A    between atoms: C_29  and  C_31 
ROOT
ATOM      1  C   LIG d   1       7.444   0.279  -6.234  0.00  0.00    -0.023 C 
ATOM      2  C   LIG d   1       8.691  -0.605  -6.293  0.00  0.00    -0.046 C 
ATOM      3  C   LIG d   1       9.735  -0.111  -5.287  0.00  0.00    -0.044 C 
ATOM      4  C   LIG d   1      10.106   1.329  -5.492  0.00  0.00    -0.000 C 
ATOM      5  C   LIG d   1      10.910   1.875  -4.297  0.00  0.00    -0.044 C 
ATOM      6  C   LIG d   1      11.495   3.237  -4.672  0.00  0.00    -0.045 C 
ATOM      7  C   LIG d   1      10.435   4.182  -5.236  0.00  0.00    -0.008 C 
ATOM      8  C   LIG d   1       9.599   3.474  -6.312  0.00  0.00     0.068 C 
ATOM      9  H   LIG d   1       8.901   4.154  -6.802  0.00  0.00     0.060 H 
ATOM     10  C   LIG d   1       8.887   2.261  -5.650  0.00  0.00    -0.003 C 
ATOM     11  H   LIG d   1       8.431   2.503  -4.680  0.00  0.00     0.034 H 
ATOM     12  C   LIG d   1       7.852   1.704  -6.619  0.00  0.00    -0.029 C 
ATOM     13  H   LIG d   1       6.959   2.343  -6.534  0.00  0.00     0.031 H 
ATOM     14  C   LIG d   1       8.339   1.749  -8.061  0.00  0.00    -0.049 C 
ATOM     15  C   LIG d   1       7.205   1.311  -9.001  0.00  0.00    -0.049 C 
ATOM     16  C   LIG d   1       6.001   0.897  -8.163  0.00  0.00    -0.029 C 
ATOM     17  H   LIG d   1       5.727   1.780  -7.540  0.00  0.00     0.031 H 
ATOM     18  C   LIG d   1       6.357  -0.226  -7.201  0.00  0.00    -0.023 C 
ATOM     19  C   LIG d   1       5.104  -0.636  -6.434  0.00  0.00    -0.047 C 
ATOM     20  C   LIG d   1       3.931  -1.014  -7.338  0.00  0.00    -0.048 C 
ATOM     21  C   LIG d   1       4.183  -0.739  -8.807  0.00  0.00    -0.024 C 
ATOM     22  H   LIG d   1       4.925  -1.484  -9.179  0.00  0.00     0.032 H 
ATOM     23  C   LIG d   1       4.773   0.638  -9.035  0.00  0.00    -0.025 C 
ATOM     24  C   LIG d   1       5.160   0.788 -10.512  0.00  0.00    -0.040 C 
ATOM     25  C   LIG d   1       3.918   0.665 -11.394  0.00  0.00     0.007 C 
ATOM     26  C   LIG d   1       3.191  -0.618 -11.090  0.00  0.00     0.139 C 
ATOM     27  O   LIG d   1       2.777  -1.310 -12.001  0.00  0.00    -0.297 OA
ATOM     28  C   LIG d   1       2.959  -1.056  -9.663  0.00  0.00     0.027 C 
ATOM     29  O   LIG d   1      10.523   2.879  -7.250  0.00  0.00    -0.375 OA
ATOM     30  C   LIG d   1      10.930   1.589  -6.762  0.00  0.00     0.054 C 
ATOM     31  H   LIG d   1       8.445  -1.634  -6.016  0.00  0.00     0.027 H 
ATOM     32  H   LIG d   1       9.149  -0.572  -7.283  0.00  0.00     0.027 H 
ATOM     33  H   LIG d   1       9.389  -0.270  -4.270  0.00  0.00     0.027 H 
ATOM     34  H   LIG d   1      10.642  -0.719  -5.421  0.00  0.00     0.027 H 
ATOM     35  H   LIG d   1      10.258   1.970  -3.433  0.00  0.00     0.027 H 
ATOM     36  H   LIG d   1      11.721   1.180  -4.067  0.00  0.00     0.027 H 
ATOM     37  H   LIG d   1      11.930   3.694  -3.776  0.00  0.00     0.027 H 
ATOM     38  H   LIG d   1      12.292   3.108  -5.407  0.00  0.00     0.027 H 
ATOM     39  H   LIG d   1       8.630   2.767  -8.327  0.00  0.00     0.027 H 
ATOM     40  H   LIG d   1       9.182   1.078  -8.204  0.00  0.00     0.027 H 
ATOM     41  H   LIG d   1       6.941   2.173  -9.623  0.00  0.00     0.027 H 
ATOM     42  H   LIG d   1       7.545   0.505  -9.637  0.00  0.00     0.027 H 
ATOM     43  H   LIG d   1       5.322  -1.490  -5.789  0.00  0.00     0.027 H 
ATOM     44  H   LIG d   1       4.741   0.205  -5.826  0.00  0.00     0.027 H 
ATOM     45  H   LIG d   1       3.724  -2.080  -7.188  0.00  0.00     0.027 H 
ATOM     46  H   LIG d   1       3.054  -0.460  -6.984  0.00  0.00     0.027 H 
ATOM     47  H   LIG d   1       5.611   1.768 -10.675  0.00  0.00     0.028 H 
ATOM     48  H   LIG d   1       5.874   0.008 -10.776  0.00  0.00     0.028 H 
ATOM     49  H   LIG d   1       3.260   1.520 -11.260  0.00  0.00     0.034 H 
ATOM     50  H   LIG d   1       4.237   0.651 -12.448  0.00  0.00     0.034 H 
ATOM     51  H   LIG d   1      11.995   1.603  -6.516  0.00  0.00     0.057 H 
ATOM     52  H   LIG d   1      10.747   0.816  -7.505  0.00  0.00     0.057 H 
ENDROOT
BRANCH   7  53
ATOM     53  C   LIG d   1      11.147   5.377  -5.890  0.00  0.00    -0.057 C 
ATOM     54  H   LIG d   1      11.985   5.019  -6.489  0.00  0.00     0.024 H 
ATOM     55  H   LIG d   1      10.446   5.912  -6.532  0.00  0.00     0.024 H 
ATOM     56  H   LIG d   1      11.516   6.050  -5.116  0.00  0.00     0.024 H 
ENDBRANCH   7  53
BRANCH   7  57
ATOM     57  C   LIG d   1       9.543   4.709  -4.114  0.00  0.00    -0.057 C 
ATOM     58  H   LIG d   1       8.505   4.712  -4.446  0.00  0.00     0.024 H 
ATOM     59  H   LIG d   1       9.643   4.068  -3.239  0.00  0.00     0.024 H 
ATOM     60  H   LIG d   1       9.844   5.724  -3.856  0.00  0.00     0.024 H 
ENDBRANCH   7  57
BRANCH   1  61
ATOM     61  C   LIG d   1       6.918   0.290  -4.795  0.00  0.00    -0.059 C 
ATOM     62  H   LIG d   1       7.083  -0.686  -4.339  0.00  0.00     0.024 H 
ATOM     63  H   LIG d   1       7.445   1.053  -4.221  0.00  0.00     0.024 H 
ATOM     64  H   LIG d   1       5.851   0.512  -4.800  0.00  0.00     0.024 H 
ENDBRANCH   1  61
BRANCH  18  65
ATOM     65  C   LIG d   1       6.923  -1.439  -7.948  0.00  0.00    -0.059 C 
ATOM     66  H   LIG d   1       6.158  -1.849  -8.607  0.00  0.00     0.024 H 
ATOM     67  H   LIG d   1       7.785  -1.132  -8.540  0.00  0.00     0.024 H 
ATOM     68  H   LIG d   1       7.229  -2.200  -7.229  0.00  0.00     0.024 H 
ENDBRANCH  18  65
BRANCH  23  69
ATOM     69  C   LIG d   1       3.765   1.748  -8.687  0.00  0.00    -0.059 C 
ATOM     70  H   LIG d   1       3.350   1.564  -7.696  0.00  0.00     0.024 H 
ATOM     71  H   LIG d   1       4.270   2.713  -8.696  0.00  0.00     0.024 H 
ATOM     72  H   LIG d   1       2.960   1.752  -9.422  0.00  0.00     0.024 H 
ENDBRANCH  23  69
BRANCH  28  73
ATOM     73  C   LIG d   1       2.789  -2.594  -9.691  0.00  0.00    -0.053 C 
ATOM     74  H   LIG d   1       1.734  -2.845  -9.581  0.00  0.00     0.024 H 
ATOM     75  H   LIG d   1       3.158  -2.984 -10.640  0.00  0.00     0.024 H 
ATOM     76  H   LIG d   1       3.354  -3.037  -8.871  0.00  0.00     0.024 H 
ENDBRANCH  28  73
BRANCH  28  77
ATOM     77  C   LIG d   1       1.661  -0.462  -9.130  0.00  0.00    -0.053 C 
ATOM     78  H   LIG d   1       0.815  -1.023  -9.525  0.00  0.00     0.024 H 
ATOM     79  H   LIG d   1       1.658  -0.516  -8.041  0.00  0.00     0.024 H 
ATOM     80  H   LIG d   1       1.584   0.580  -9.441  0.00  0.00     0.024 H 
ENDBRANCH  28  77
TORSDOF 7
ENDMDL
MODEL 7
REMARK VINA RESULT:      -5.6      9.233     11.826
REMARK  7 active torsions:
REMARK  status: ('A' for Active; 'I' for Inactive)
REMARK    1  A    between atoms: C_1  and  C_2 
REMARK    2  A    between atoms: C_8  and  C_36 
REMARK    3  A    between atoms: C_8  and  C_37 
REMARK    4  A    between atoms: C_19  and  C_33 
REMARK    5  A    between atoms: C_24  and  C_32 
REMARK    6  A    between atoms: C_29  and  C_30 
REMARK    7  A    between atoms: C_29  and  C_31 
ROOT
ATOM      1  C   LIG d   1      10.978   8.342  -4.076  0.00  0.00    -0.023 C 
ATOM      2  C   LIG d   1       9.915   9.441  -4.024  0.00  0.00    -0.046 C 
ATOM      3  C   LIG d   1      10.379  10.579  -3.109  0.00  0.00    -0.044 C 
ATOM      4  C   LIG d   1      10.715  10.111  -1.722  0.00  0.00    -0.000 C 
ATOM      5  C   LIG d   1      11.459  11.202  -0.930  0.00  0.00    -0.044 C 
ATOM      6  C   LIG d   1      11.530  10.788   0.541  0.00  0.00    -0.045 C 
ATOM      7  C   LIG d   1      12.069   9.369   0.713  0.00  0.00    -0.008 C 
ATOM      8  C   LIG d   1      11.353   8.401  -0.240  0.00  0.00     0.068 C 
ATOM      9  H   LIG d   1      11.647   7.364  -0.069  0.00  0.00     0.060 H 
ATOM     10  C   LIG d   1      11.626   8.866  -1.698  0.00  0.00    -0.003 C 
ATOM     11  H   LIG d   1      12.678   9.128  -1.879  0.00  0.00     0.034 H 
ATOM     12  C   LIG d   1      11.157   7.783  -2.661  0.00  0.00    -0.029 C 
ATOM     13  H   LIG d   1      11.952   7.023  -2.699  0.00  0.00     0.031 H 
ATOM     14  C   LIG d   1       9.874   7.115  -2.185  0.00  0.00    -0.049 C 
ATOM     15  C   LIG d   1       9.530   5.942  -3.116  0.00  0.00    -0.049 C 
ATOM     16  C   LIG d   1      10.544   5.899  -4.252  0.00  0.00    -0.029 C 
ATOM     17  H   LIG d   1      11.548   5.793  -3.781  0.00  0.00     0.031 H 
ATOM     18  C   LIG d   1      10.560   7.207  -5.030  0.00  0.00    -0.023 C 
ATOM     19  C   LIG d   1      11.548   7.084  -6.184  0.00  0.00    -0.047 C 
ATOM     20  C   LIG d   1      11.276   5.887  -7.096  0.00  0.00    -0.048 C 
ATOM     21  C   LIG d   1      10.196   4.961  -6.575  0.00  0.00    -0.024 C 
ATOM     22  H   LIG d   1       9.213   5.477  -6.683  0.00  0.00     0.032 H 
ATOM     23  C   LIG d   1      10.378   4.642  -5.106  0.00  0.00    -0.025 C 
ATOM     24  C   LIG d   1       9.168   3.845  -4.603  0.00  0.00    -0.040 C 
ATOM     25  C   LIG d   1       9.065   2.518  -5.355  0.00  0.00     0.007 C 
ATOM     26  C   LIG d   1       9.049   2.763  -6.840  0.00  0.00     0.139 C 
ATOM     27  O   LIG d   1       8.256   2.167  -7.544  0.00  0.00    -0.297 OA
ATOM     28  C   LIG d   1      10.013   3.739  -7.473  0.00  0.00     0.027 C 
ATOM     29  O   LIG d   1       9.932   8.596  -0.062  0.00  0.00    -0.375 OA
ATOM     30  C   LIG d   1       9.496   9.685  -0.891  0.00  0.00     0.054 C 
ATOM     31  H   LIG d   1       9.762   9.874  -5.016  0.00  0.00     0.027 H 
ATOM     32  H   LIG d   1       8.976   9.059  -3.621  0.00  0.00     0.027 H 
ATOM     33  H   LIG d   1      11.225  11.099  -3.546  0.00  0.00     0.027 H 
ATOM     34  H   LIG d   1       9.554  11.303  -3.033  0.00  0.00     0.027 H 
ATOM     35  H   LIG d   1      12.461  11.327  -1.334  0.00  0.00     0.027 H 
ATOM     36  H   LIG d   1      10.911  12.143  -1.018  0.00  0.00     0.027 H 
ATOM     37  H   LIG d   1      12.191  11.481   1.072  0.00  0.00     0.027 H 
ATOM     38  H   LIG d   1      10.538  10.855   0.992  0.00  0.00     0.027 H 
ATOM     39  H   LIG d   1      10.009   6.722  -1.175  0.00  0.00     0.027 H 
ATOM     40  H   LIG d   1       9.045   7.818  -2.197  0.00  0.00     0.027 H 
ATOM     41  H   LIG d   1       9.599   5.021  -2.526  0.00  0.00     0.027 H 
ATOM     42  H   LIG d   1       8.519   6.051  -3.487  0.00  0.00     0.027 H 
ATOM     43  H   LIG d   1      11.521   7.988  -6.798  0.00  0.00     0.027 H 
ATOM     44  H   LIG d   1      12.564   6.928  -5.797  0.00  0.00     0.027 H 
ATOM     45  H   LIG d   1      10.993   6.275  -8.081  0.00  0.00     0.027 H 
ATOM     46  H   LIG d   1      12.224   5.349  -7.218  0.00  0.00     0.027 H 
ATOM     47  H   LIG d   1       9.283   3.637  -3.538  0.00  0.00     0.028 H 
ATOM     48  H   LIG d   1       8.262   4.428  -4.766  0.00  0.00     0.028 H 
ATOM     49  H   LIG d   1       9.882   1.854  -5.085  0.00  0.00     0.034 H 
ATOM     50  H   LIG d   1       8.124   2.024  -5.066  0.00  0.00     0.034 H 
ATOM     51  H   LIG d   1       9.164  10.520  -0.267  0.00  0.00     0.057 H 
ATOM     52  H   LIG d   1       8.677   9.379  -1.538  0.00  0.00     0.057 H 
ENDROOT
BRANCH   7  53
ATOM     53  C   LIG d   1      11.793   8.915   2.156  0.00  0.00    -0.057 C 
ATOM     54  H   LIG d   1      12.060   7.863   2.264  0.00  0.00     0.024 H 
ATOM     55  H   LIG d   1      12.389   9.513   2.846  0.00  0.00     0.024 H 
ATOM     56  H   LIG d   1      10.735   9.047   2.383  0.00  0.00     0.024 H 
ENDBRANCH   7  53
BRANCH   7  57
ATOM     57  C   LIG d   1      13.578   9.343   0.481  0.00  0.00    -0.057 C 
ATOM     58  H   LIG d   1      13.856  10.151  -0.196  0.00  0.00     0.024 H 
ATOM     59  H   LIG d   1      14.094   9.471   1.432  0.00  0.00     0.024 H 
ATOM     60  H   LIG d   1      13.862   8.387   0.041  0.00  0.00     0.024 H 
ENDBRANCH   7  57
BRANCH   1  61
ATOM     61  C   LIG d   1      12.304   8.962  -4.531  0.00  0.00    -0.059 C 
ATOM     62  H   LIG d   1      12.751   8.339  -5.306  0.00  0.00     0.024 H 
ATOM     63  H   LIG d   1      12.120   9.961  -4.928  0.00  0.00     0.024 H 
ATOM     64  H   LIG d   1      12.984   9.029  -3.681  0.00  0.00     0.024 H 
ENDBRANCH   1  61
BRANCH  18  65
ATOM     65  C   LIG d   1       9.168   7.546  -5.576  0.00  0.00    -0.059 C 
ATOM     66  H   LIG d   1       9.252   7.854  -6.619  0.00  0.00     0.024 H 
ATOM     67  H   LIG d   1       8.527   6.666  -5.509  0.00  0.00     0.024 H 
ATOM     68  H   LIG d   1       8.734   8.356  -4.991  0.00  0.00     0.024 H 
ENDBRANCH  18  65
BRANCH  23  69
ATOM     69  C   LIG d   1      11.643   3.798  -4.865  0.00  0.00    -0.059 C 
ATOM     70  H   LIG d   1      12.517   4.450  -4.847  0.00  0.00     0.024 H 
ATOM     71  H   LIG d   1      11.558   3.278  -3.912  0.00  0.00     0.024 H 
ATOM     72  H   LIG d   1      11.752   3.069  -5.668  0.00  0.00     0.024 H 
ENDBRANCH  23  69
BRANCH  28  73
ATOM     73  C   LIG d   1       9.361   4.217  -8.793  0.00  0.00    -0.053 C 
ATOM     74  H   LIG d   1       9.273   3.376  -9.480  0.00  0.00     0.024 H 
ATOM     75  H   LIG d   1       8.371   4.622  -8.584  0.00  0.00     0.024 H 
ATOM     76  H   LIG d   1       9.983   4.991  -9.245  0.00  0.00     0.024 H 
ENDBRANCH  28  73
BRANCH  28  77
ATOM     77  C   LIG d   1      11.317   3.038  -7.835  0.00  0.00    -0.053 C 
ATOM     78  H   LIG d   1      11.246   1.982  -7.573  0.00  0.00     0.024 H 
ATOM     79  H   LIG d   1      11.497   3.137  -8.905  0.00  0.00     0.024 H 
ATOM     80  H   LIG d   1      12.139   3.494  -7.284  0.00  0.00     0.024 H 
ENDBRANCH  28  77
TORSDOF 7
ENDMDL
MODEL 8
REMARK VINA RESULT:      -5.5      1.805      7.772
REMARK  7 active torsions:
REMARK  status: ('A' for Active; 'I' for Inactive)
REMARK    1  A    between atoms: C_1  and  C_2 
REMARK    2  A    between atoms: C_8  and  C_36 
REMARK    3  A    between atoms: C_8  and  C_37 
REMARK    4  A    between atoms: C_19  and  C_33 
REMARK    5  A    between atoms: C_24  and  C_32 
REMARK    6  A    between atoms: C_29  and  C_30 
REMARK    7  A    between atoms: C_29  and  C_31 
ROOT
ATOM      1  C   LIG d   1       3.453  -1.090  -8.928  0.00  0.00    -0.023 C 
ATOM      2  C   LIG d   1       4.089  -0.326 -10.091  0.00  0.00    -0.046 C 
ATOM      3  C   LIG d   1       3.130  -0.290 -11.285  0.00  0.00    -0.044 C 
ATOM      4  C   LIG d   1       2.704  -1.659 -11.731  0.00  0.00    -0.000 C 
ATOM      5  C   LIG d   1       1.521  -1.582 -12.715  0.00  0.00    -0.044 C 
ATOM      6  C   LIG d   1       1.309  -2.958 -13.346  0.00  0.00    -0.045 C 
ATOM      7  C   LIG d   1       1.218  -4.064 -12.296  0.00  0.00    -0.008 C 
ATOM      8  C   LIG d   1       2.366  -3.942 -11.283  0.00  0.00     0.068 C 
ATOM      9  H   LIG d   1       2.384  -4.776 -10.581  0.00  0.00     0.060 H 
ATOM     10  C   LIG d   1       2.240  -2.565 -10.573  0.00  0.00    -0.003 C 
ATOM     11  H   LIG d   1       1.212  -2.332 -10.259  0.00  0.00     0.034 H 
ATOM     12  C   LIG d   1       3.196  -2.529  -9.387  0.00  0.00    -0.029 C 
ATOM     13  H   LIG d   1       2.699  -3.060  -8.560  0.00  0.00     0.031 H 
ATOM     14  C   LIG d   1       4.510  -3.234  -9.694  0.00  0.00    -0.049 C 
ATOM     15  C   LIG d   1       5.371  -3.290  -8.423  0.00  0.00    -0.049 C 
ATOM     16  C   LIG d   1       4.654  -2.543  -7.305  0.00  0.00    -0.029 C 
ATOM     17  H   LIG d   1       3.663  -3.037  -7.176  0.00  0.00     0.031 H 
ATOM     18  C   LIG d   1       4.375  -1.099  -7.695  0.00  0.00    -0.023 C 
ATOM     19  C   LIG d   1       3.711  -0.389  -6.522  0.00  0.00    -0.047 C 
ATOM     20  C   LIG d   1       4.508  -0.481  -5.221  0.00  0.00    -0.048 C 
ATOM     21  C   LIG d   1       5.706  -1.405  -5.307  0.00  0.00    -0.024 C 
ATOM     22  H   LIG d   1       6.481  -0.912  -5.941  0.00  0.00     0.032 H 
ATOM     23  C   LIG d   1       5.360  -2.726  -5.963  0.00  0.00    -0.025 C 
ATOM     24  C   LIG d   1       6.642  -3.541  -6.173  0.00  0.00    -0.040 C 
ATOM     25  C   LIG d   1       7.294  -3.850  -4.825  0.00  0.00     0.007 C 
ATOM     26  C   LIG d   1       7.511  -2.578  -4.050  0.00  0.00     0.139 C 
ATOM     27  O   LIG d   1       8.567  -2.391  -3.477  0.00  0.00    -0.297 OA
ATOM     28  C   LIG d   1       6.427  -1.529  -3.966  0.00  0.00     0.027 C 
ATOM     29  O   LIG d   1       3.595  -3.844 -12.037  0.00  0.00    -0.375 OA
ATOM     30  C   LIG d   1       3.816  -2.473 -12.407  0.00  0.00     0.054 C 
ATOM     31  H   LIG d   1       4.282   0.712  -9.808  0.00  0.00     0.027 H 
ATOM     32  H   LIG d   1       5.008  -0.812 -10.423  0.00  0.00     0.027 H 
ATOM     33  H   LIG d   1       2.262   0.320 -11.058  0.00  0.00     0.027 H 
ATOM     34  H   LIG d   1       3.658   0.192 -12.122  0.00  0.00     0.027 H 
ATOM     35  H   LIG d   1       0.625  -1.270 -12.184  0.00  0.00     0.027 H 
ATOM     36  H   LIG d   1       1.754  -0.854 -13.496  0.00  0.00     0.027 H 
ATOM     37  H   LIG d   1       0.377  -2.944 -13.921  0.00  0.00     0.027 H 
ATOM     38  H   LIG d   1       2.128  -3.180 -14.034  0.00  0.00     0.027 H 
ATOM     39  H   LIG d   1       4.318  -4.258 -10.022  0.00  0.00     0.027 H 
ATOM     40  H   LIG d   1       5.064  -2.701 -10.461  0.00  0.00     0.027 H 
ATOM     41  H   LIG d   1       5.484  -4.344  -8.146  0.00  0.00     0.027 H 
ATOM     42  H   LIG d   1       6.348  -2.869  -8.622  0.00  0.00     0.027 H 
ATOM     43  H   LIG d   1       3.568   0.668  -6.755  0.00  0.00     0.027 H 
ATOM     44  H   LIG d   1       2.740  -0.854  -6.299  0.00  0.00     0.027 H 
ATOM     45  H   LIG d   1       4.835   0.532  -4.957  0.00  0.00     0.027 H 
ATOM     46  H   LIG d   1       3.817  -0.813  -4.437  0.00  0.00     0.027 H 
ATOM     47  H   LIG d   1       6.401  -4.482  -6.670  0.00  0.00     0.028 H 
ATOM     48  H   LIG d   1       7.334  -2.969  -6.790  0.00  0.00     0.028 H 
ATOM     49  H   LIG d   1       6.690  -4.550  -4.252  0.00  0.00     0.034 H 
ATOM     50  H   LIG d   1       8.270  -4.325  -5.008  0.00  0.00     0.034 H 
ATOM     51  H   LIG d   1       3.748  -2.364 -13.493  0.00  0.00     0.057 H 
ATOM     52  H   LIG d   1       4.796  -2.134 -12.078  0.00  0.00     0.057 H 
ENDROOT
BRANCH   7  53
ATOM     53  C   LIG d   1       1.347  -5.422 -13.006  0.00  0.00    -0.057 C 
ATOM     54  H   LIG d   1       2.401  -5.664 -13.141  0.00  0.00     0.024 H 
ATOM     55  H   LIG d   1       0.872  -6.196 -12.400  0.00  0.00     0.024 H 
ATOM     56  H   LIG d   1       0.857  -5.372 -13.979  0.00  0.00     0.024 H 
ENDBRANCH   7  53
BRANCH   7  57
ATOM     57  C   LIG d   1      -0.135  -4.016 -11.591  0.00  0.00    -0.057 C 
ATOM     58  H   LIG d   1      -0.738  -3.213 -12.014  0.00  0.00     0.024 H 
ATOM     59  H   LIG d   1      -0.650  -4.968 -11.728  0.00  0.00     0.024 H 
ATOM     60  H   LIG d   1       0.015  -3.836 -10.526  0.00  0.00     0.024 H 
ENDBRANCH   7  57
BRANCH   1  61
ATOM     61  C   LIG d   1       2.110  -0.435  -8.587  0.00  0.00    -0.059 C 
ATOM     62  H   LIG d   1       1.317  -1.181  -8.642  0.00  0.00     0.024 H 
ATOM     63  H   LIG d   1       2.152  -0.022  -7.579  0.00  0.00     0.024 H 
ATOM     64  H   LIG d   1       1.905   0.365  -9.299  0.00  0.00     0.024 H 
ENDBRANCH   1  61
BRANCH  18  65
ATOM     65  C   LIG d   1       5.668  -0.367  -8.075  0.00  0.00    -0.059 C 
ATOM     66  H   LIG d   1       6.296  -1.027  -8.675  0.00  0.00     0.024 H 
ATOM     67  H   LIG d   1       5.425   0.526  -8.650  0.00  0.00     0.024 H 
ATOM     68  H   LIG d   1       6.204  -0.081  -7.169  0.00  0.00     0.024 H 
ENDBRANCH  18  65
BRANCH  23  69
ATOM     69  C   LIG d   1       4.401  -3.554  -5.089  0.00  0.00    -0.059 C 
ATOM     70  H   LIG d   1       3.592  -3.943  -5.707  0.00  0.00     0.024 H 
ATOM     71  H   LIG d   1       4.945  -4.383  -4.638  0.00  0.00     0.024 H 
ATOM     72  H   LIG d   1       3.987  -2.922  -4.304  0.00  0.00     0.024 H 
ENDBRANCH  23  69
BRANCH  28  73
ATOM     73  C   LIG d   1       7.131  -0.181  -3.683  0.00  0.00    -0.053 C 
ATOM     74  H   LIG d   1       7.616  -0.222  -2.707  0.00  0.00     0.024 H 
ATOM     75  H   LIG d   1       7.880   0.007  -4.452  0.00  0.00     0.024 H 
ATOM     76  H   LIG d   1       6.394   0.623  -3.688  0.00  0.00     0.024 H 
ENDBRANCH  28  73
BRANCH  28  77
ATOM     77  C   LIG d   1       5.499  -1.817  -2.792  0.00  0.00    -0.053 C 
ATOM     78  H   LIG d   1       5.172  -2.855  -2.833  0.00  0.00     0.024 H 
ATOM     79  H   LIG d   1       6.032  -1.639  -1.857  0.00  0.00     0.024 H 
ATOM     80  H   LIG d   1       4.631  -1.159  -2.845  0.00  0.00     0.024 H 
ENDBRANCH  28  77
TORSDOF 7
ENDMDL
MODEL 9
REMARK VINA RESULT:      -5.5     12.607     15.538
REMARK  7 active torsions:
REMARK  status: ('A' for Active; 'I' for Inactive)
REMARK    1  A    between atoms: C_1  and  C_2 
REMARK    2  A    between atoms: C_8  and  C_36 
REMARK    3  A    between atoms: C_8  and  C_37 
REMARK    4  A    between atoms: C_19  and  C_33 
REMARK    5  A    between atoms: C_24  and  C_32 
REMARK    6  A    between atoms: C_29  and  C_30 
REMARK    7  A    between atoms: C_29  and  C_31 
ROOT
ATOM      1  C   LIG d   1      -4.739   7.217 -14.704  0.00  0.00    -0.023 C 
ATOM      2  C   LIG d   1      -4.959   7.882 -16.065  0.00  0.00    -0.046 C 
ATOM      3  C   LIG d   1      -4.818   9.402 -15.937  0.00  0.00    -0.044 C 
ATOM      4  C   LIG d   1      -5.745   9.989 -14.913  0.00  0.00    -0.000 C 
ATOM      5  C   LIG d   1      -5.370  11.449 -14.592  0.00  0.00    -0.044 C 
ATOM      6  C   LIG d   1      -6.492  12.081 -13.769  0.00  0.00    -0.045 C 
ATOM      7  C   LIG d   1      -6.875  11.222 -12.564  0.00  0.00    -0.008 C 
ATOM      8  C   LIG d   1      -7.073   9.759 -12.987  0.00  0.00     0.068 C 
ATOM      9  H   LIG d   1      -7.444   9.142 -12.167  0.00  0.00     0.060 H 
ATOM     10  C   LIG d   1      -5.729   9.237 -13.567  0.00  0.00    -0.003 C 
ATOM     11  H   LIG d   1      -4.858   9.512 -12.956  0.00  0.00     0.034 H 
ATOM     12  C   LIG d   1      -5.818   7.726 -13.744  0.00  0.00    -0.029 C 
ATOM     13  H   LIG d   1      -5.628   7.277 -12.757  0.00  0.00     0.031 H 
ATOM     14  C   LIG d   1      -7.199   7.289 -14.214  0.00  0.00    -0.049 C 
ATOM     15  C   LIG d   1      -7.272   5.754 -14.237  0.00  0.00    -0.049 C 
ATOM     16  C   LIG d   1      -5.907   5.189 -13.864  0.00  0.00    -0.029 C 
ATOM     17  H   LIG d   1      -5.659   5.593 -12.855  0.00  0.00     0.031 H 
ATOM     18  C   LIG d   1      -4.825   5.684 -14.812  0.00  0.00    -0.023 C 
ATOM     19  C   LIG d   1      -3.497   5.042 -14.426  0.00  0.00    -0.047 C 
ATOM     20  C   LIG d   1      -3.549   3.515 -14.372  0.00  0.00    -0.048 C 
ATOM     21  C   LIG d   1      -4.945   2.949 -14.538  0.00  0.00    -0.024 C 
ATOM     22  H   LIG d   1      -5.254   3.088 -15.601  0.00  0.00     0.032 H 
ATOM     23  C   LIG d   1      -5.959   3.673 -13.676  0.00  0.00    -0.025 C 
ATOM     24  C   LIG d   1      -7.367   3.170 -14.014  0.00  0.00    -0.040 C 
ATOM     25  C   LIG d   1      -7.479   1.677 -13.704  0.00  0.00     0.007 C 
ATOM     26  C   LIG d   1      -6.384   0.918 -14.406  0.00  0.00     0.139 C 
ATOM     27  O   LIG d   1      -6.641  -0.122 -14.982  0.00  0.00    -0.297 OA
ATOM     28  C   LIG d   1      -4.962   1.428 -14.399  0.00  0.00     0.027 C 
ATOM     29  O   LIG d   1      -7.975   9.757 -14.116  0.00  0.00    -0.375 OA
ATOM     30  C   LIG d   1      -7.225   9.971 -15.322  0.00  0.00     0.054 C 
ATOM     31  H   LIG d   1      -4.202   7.551 -16.780  0.00  0.00     0.027 H 
ATOM     32  H   LIG d   1      -5.962   7.677 -16.443  0.00  0.00     0.027 H 
ATOM     33  H   LIG d   1      -3.790   9.672 -15.715  0.00  0.00     0.027 H 
ATOM     34  H   LIG d   1      -5.067   9.843 -16.915  0.00  0.00     0.027 H 
ATOM     35  H   LIG d   1      -4.437  11.471 -14.036  0.00  0.00     0.027 H 
ATOM     36  H   LIG d   1      -5.249  11.999 -15.528  0.00  0.00     0.027 H 
ATOM     37  H   LIG d   1      -6.158  13.060 -13.408  0.00  0.00     0.027 H 
ATOM     38  H   LIG d   1      -7.371  12.234 -14.397  0.00  0.00     0.027 H 
ATOM     39  H   LIG d   1      -7.963   7.657 -13.526  0.00  0.00     0.027 H 
ATOM     40  H   LIG d   1      -7.401   7.657 -15.216  0.00  0.00     0.027 H 
ATOM     41  H   LIG d   1      -8.013   5.448 -13.491  0.00  0.00     0.027 H 
ATOM     42  H   LIG d   1      -7.591   5.416 -15.214  0.00  0.00     0.027 H 
ATOM     43  H   LIG d   1      -2.721   5.328 -15.139  0.00  0.00     0.027 H 
ATOM     44  H   LIG d   1      -3.205   5.357 -13.414  0.00  0.00     0.027 H 
ATOM     45  H   LIG d   1      -2.894   3.131 -15.163  0.00  0.00     0.027 H 
ATOM     46  H   LIG d   1      -3.116   3.207 -13.413  0.00  0.00     0.027 H 
ATOM     47  H   LIG d   1      -8.103   3.708 -13.415  0.00  0.00     0.028 H 
ATOM     48  H   LIG d   1      -7.564   3.338 -15.072  0.00  0.00     0.028 H 
ATOM     49  H   LIG d   1      -7.442   1.498 -12.632  0.00  0.00     0.034 H 
ATOM     50  H   LIG d   1      -8.453   1.315 -14.069  0.00  0.00     0.034 H 
ATOM     51  H   LIG d   1      -7.498  10.932 -15.766  0.00  0.00     0.057 H 
ATOM     52  H   LIG d   1      -7.415   9.181 -16.045  0.00  0.00     0.057 H 
ENDROOT
BRANCH   7  53
ATOM     53  C   LIG d   1      -8.206  11.743 -11.998  0.00  0.00    -0.057 C 
ATOM     54  H   LIG d   1      -9.017  11.488 -12.681  0.00  0.00     0.024 H 
ATOM     55  H   LIG d   1      -8.393  11.283 -11.026  0.00  0.00     0.024 H 
ATOM     56  H   LIG d   1      -8.154  12.826 -11.883  0.00  0.00     0.024 H 
ENDBRANCH   7  53
BRANCH   7  57
ATOM     57  C   LIG d   1      -5.812  11.333 -11.474  0.00  0.00    -0.057 C 
ATOM     58  H   LIG d   1      -6.136  10.779 -10.592  0.00  0.00     0.024 H 
ATOM     59  H   LIG d   1      -4.872  10.918 -11.838  0.00  0.00     0.024 H 
ATOM     60  H   LIG d   1      -5.668  12.381 -11.211  0.00  0.00     0.024 H 
ENDBRANCH   7  57
BRANCH   1  61
ATOM     61  C   LIG d   1      -3.366   7.640 -14.169  0.00  0.00    -0.059 C 
ATOM     62  H   LIG d   1      -2.673   7.763 -15.001  0.00  0.00     0.024 H 
ATOM     63  H   LIG d   1      -3.461   8.585 -13.632  0.00  0.00     0.024 H 
ATOM     64  H   LIG d   1      -2.989   6.874 -13.491  0.00  0.00     0.024 H 
ENDBRANCH   1  61
BRANCH  18  65
ATOM     65  C   LIG d   1      -5.161   5.336 -16.267  0.00  0.00    -0.059 C 
ATOM     66  H   LIG d   1      -6.147   4.873 -16.312  0.00  0.00     0.024 H 
ATOM     67  H   LIG d   1      -5.160   6.246 -16.868  0.00  0.00     0.024 H 
ATOM     68  H   LIG d   1      -4.416   4.643 -16.657  0.00  0.00     0.024 H 
ENDBRANCH  18  65
BRANCH  23  69
ATOM     69  C   LIG d   1      -5.705   3.423 -12.178  0.00  0.00    -0.059 C 
ATOM     70  H   LIG d   1      -5.652   4.378 -11.655  0.00  0.00     0.024 H 
ATOM     71  H   LIG d   1      -6.520   2.829 -11.766  0.00  0.00     0.024 H 
ATOM     72  H   LIG d   1      -4.765   2.887 -12.052  0.00  0.00     0.024 H 
ENDBRANCH  23  69
BRANCH  28  73
ATOM     73  C   LIG d   1      -4.268   0.833 -15.646  0.00  0.00    -0.053 C 
ATOM     74  H   LIG d   1      -3.910  -0.171 -15.419  0.00  0.00     0.024 H 
ATOM     75  H   LIG d   1      -4.980   0.787 -16.471  0.00  0.00     0.024 H 
ATOM     76  H   LIG d   1      -3.424   1.463 -15.929  0.00  0.00     0.024 H 
ENDBRANCH  28  73
BRANCH  28  77
ATOM     77  C   LIG d   1      -4.220   0.912 -13.172  0.00  0.00    -0.053 C 
ATOM     78  H   LIG d   1      -4.463  -0.139 -13.015  0.00  0.00     0.024 H 
ATOM     79  H   LIG d   1      -3.146   1.018 -13.326  0.00  0.00     0.024 H 
ATOM     80  H   LIG d   1      -4.519   1.489 -12.297  0.00  0.00     0.024 H 
ENDBRANCH  28  77
TORSDOF 7
ENDMDL
MODEL 10
REMARK VINA RESULT:      -5.5      9.269     13.513
REMARK  7 active torsions:
REMARK  status: ('A' for Active; 'I' for Inactive)
REMARK    1  A    between atoms: C_1  and  C_2 
REMARK    2  A    between atoms: C_8  and  C_36 
REMARK    3  A    between atoms: C_8  and  C_37 
REMARK    4  A    between atoms: C_19  and  C_33 
REMARK    5  A    between atoms: C_24  and  C_32 
REMARK    6  A    between atoms: C_29  and  C_30 
REMARK    7  A    between atoms: C_29  and  C_31 
ROOT
ATOM      1  C   LIG d   1      12.214   6.042  -3.350  0.00  0.00    -0.023 C 
ATOM      2  C   LIG d   1      12.908   4.925  -2.570  0.00  0.00    -0.046 C 
ATOM      3  C   LIG d   1      13.016   3.666  -3.437  0.00  0.00    -0.044 C 
ATOM      4  C   LIG d   1      11.685   3.196  -3.950  0.00  0.00    -0.000 C 
ATOM      5  C   LIG d   1      11.856   2.131  -5.050  0.00  0.00    -0.044 C 
ATOM      6  C   LIG d   1      10.497   1.492  -5.338  0.00  0.00    -0.045 C 
ATOM      7  C   LIG d   1       9.414   2.537  -5.599  0.00  0.00    -0.008 C 
ATOM      8  C   LIG d   1       9.445   3.628  -4.518  0.00  0.00     0.068 C 
ATOM      9  H   LIG d   1       8.619   4.332  -4.622  0.00  0.00     0.060 H 
ATOM     10  C   LIG d   1      10.834   4.322  -4.571  0.00  0.00    -0.003 C 
ATOM     11  H   LIG d   1      11.159   4.562  -5.594  0.00  0.00     0.034 H 
ATOM     12  C   LIG d   1      10.798   5.572  -3.701  0.00  0.00    -0.029 C 
ATOM     13  H   LIG d   1      10.320   6.364  -4.298  0.00  0.00     0.031 H 
ATOM     14  C   LIG d   1       9.978   5.361  -2.436  0.00  0.00    -0.049 C 
ATOM     15  C   LIG d   1       9.859   6.689  -1.673  0.00  0.00    -0.049 C 
ATOM     16  C   LIG d   1      10.677   7.751  -2.398  0.00  0.00    -0.029 C 
ATOM     17  H   LIG d   1      10.273   7.813  -3.435  0.00  0.00     0.031 H 
ATOM     18  C   LIG d   1      12.136   7.337  -2.520  0.00  0.00    -0.023 C 
ATOM     19  C   LIG d   1      12.913   8.459  -3.200  0.00  0.00    -0.047 C 
ATOM     20  C   LIG d   1      12.764   9.813  -2.506  0.00  0.00    -0.048 C 
ATOM     21  C   LIG d   1      11.738   9.814  -1.391  0.00  0.00    -0.024 C 
ATOM     22  H   LIG d   1      12.155   9.234  -0.533  0.00  0.00     0.032 H 
ATOM     23  C   LIG d   1      10.446   9.140  -1.805  0.00  0.00    -0.025 C 
ATOM     24  C   LIG d   1       9.520   9.023  -0.588  0.00  0.00    -0.040 C 
ATOM     25  C   LIG d   1       9.168  10.415  -0.062  0.00  0.00     0.007 C 
ATOM     26  C   LIG d   1      10.424  11.199   0.212  0.00  0.00     0.139 C 
ATOM     27  O   LIG d   1      10.524  11.844   1.238  0.00  0.00    -0.297 OA
ATOM     28  C   LIG d   1      11.565  11.202  -0.779  0.00  0.00     0.027 C 
ATOM     29  O   LIG d   1       9.427   2.961  -3.236  0.00  0.00    -0.375 OA
ATOM     30  C   LIG d   1      10.770   2.603  -2.869  0.00  0.00     0.054 C 
ATOM     31  H   LIG d   1      13.928   5.217  -2.307  0.00  0.00     0.027 H 
ATOM     32  H   LIG d   1      12.340   4.659  -1.677  0.00  0.00     0.027 H 
ATOM     33  H   LIG d   1      13.702   3.829  -4.262  0.00  0.00     0.027 H 
ATOM     34  H   LIG d   1      13.442   2.866  -2.812  0.00  0.00     0.027 H 
ATOM     35  H   LIG d   1      12.250   2.597  -5.950  0.00  0.00     0.027 H 
ATOM     36  H   LIG d   1      12.552   1.366  -4.700  0.00  0.00     0.027 H 
ATOM     37  H   LIG d   1      10.587   0.853  -6.223  0.00  0.00     0.027 H 
ATOM     38  H   LIG d   1      10.198   0.864  -4.496  0.00  0.00     0.027 H 
ATOM     39  H   LIG d   1       8.971   5.023  -2.694  0.00  0.00     0.027 H 
ATOM     40  H   LIG d   1      10.452   4.632  -1.785  0.00  0.00     0.027 H 
ATOM     41  H   LIG d   1       8.802   6.977  -1.672  0.00  0.00     0.027 H 
ATOM     42  H   LIG d   1      10.191   6.558  -0.651  0.00  0.00     0.027 H 
ATOM     43  H   LIG d   1      13.976   8.211  -3.232  0.00  0.00     0.027 H 
ATOM     44  H   LIG d   1      12.537   8.614  -4.221  0.00  0.00     0.027 H 
ATOM     45  H   LIG d   1      13.747  10.095  -2.110  0.00  0.00     0.027 H 
ATOM     46  H   LIG d   1      12.502  10.547  -3.277  0.00  0.00     0.027 H 
ATOM     47  H   LIG d   1       8.599   8.514  -0.877  0.00  0.00     0.028 H 
ATOM     48  H   LIG d   1      10.023   8.454   0.193  0.00  0.00     0.028 H 
ATOM     49  H   LIG d   1       8.530  10.946  -0.763  0.00  0.00     0.034 H 
ATOM     50  H   LIG d   1       8.608  10.302   0.879  0.00  0.00     0.034 H 
ATOM     51  H   LIG d   1      10.875   1.514  -2.852  0.00  0.00     0.057 H 
ATOM     52  H   LIG d   1      11.025   2.998  -1.889  0.00  0.00     0.057 H 
ENDROOT
BRANCH   7  53
ATOM     53  C   LIG d   1       8.043   1.843  -5.541  0.00  0.00    -0.057 C 
ATOM     54  H   LIG d   1       8.184   0.765  -5.466  0.00  0.00     0.024 H 
ATOM     55  H   LIG d   1       7.492   2.198  -4.669  0.00  0.00     0.024 H 
ATOM     56  H   LIG d   1       7.479   2.074  -6.445  0.00  0.00     0.024 H 
ENDBRANCH   7  53
BRANCH   7  57
ATOM     57  C   LIG d   1       9.586   3.146  -6.989  0.00  0.00    -0.057 C 
ATOM     58  H   LIG d   1       8.767   2.824  -7.631  0.00  0.00     0.024 H 
ATOM     59  H   LIG d   1       9.583   4.233  -6.912  0.00  0.00     0.024 H 
ATOM     60  H   LIG d   1      10.533   2.815  -7.415  0.00  0.00     0.024 H 
ENDBRANCH   7  57
BRANCH   1  61
ATOM     61  C   LIG d   1      12.987   6.286  -4.651  0.00  0.00    -0.059 C 
ATOM     62  H   LIG d   1      12.740   7.273  -5.042  0.00  0.00     0.024 H 
ATOM     63  H   LIG d   1      14.058   6.230  -4.453  0.00  0.00     0.024 H 
ATOM     64  H   LIG d   1      12.713   5.526  -5.384  0.00  0.00     0.024 H 
ENDBRANCH   1  61
BRANCH  18  65
ATOM     65  C   LIG d   1      12.748   7.047  -1.145  0.00  0.00    -0.059 C 
ATOM     66  H   LIG d   1      12.545   7.882  -0.473  0.00  0.00     0.024 H 
ATOM     67  H   LIG d   1      12.308   6.137  -0.736  0.00  0.00     0.024 H 
ATOM     68  H   LIG d   1      13.825   6.915  -1.246  0.00  0.00     0.024 H 
ENDBRANCH  18  65
BRANCH  23  69
ATOM     69  C   LIG d   1       9.714   9.948  -2.892  0.00  0.00    -0.059 C 
ATOM     70  H   LIG d   1       8.868  10.472  -2.447  0.00  0.00     0.024 H 
ATOM     71  H   LIG d   1      10.399  10.672  -3.330  0.00  0.00     0.024 H 
ATOM     72  H   LIG d   1       9.355   9.272  -3.667  0.00  0.00     0.024 H 
ENDBRANCH  23  69
BRANCH  28  73
ATOM     73  C   LIG d   1      12.848  11.530   0.020  0.00  0.00    -0.053 C 
ATOM     74  H   LIG d   1      12.705  12.458   0.574  0.00  0.00     0.024 H 
ATOM     75  H   LIG d   1      13.059  10.719   0.718  0.00  0.00     0.024 H 
ATOM     76  H   LIG d   1      13.686  11.644  -0.669  0.00  0.00     0.024 H 
ENDBRANCH  28  73
BRANCH  28  77
ATOM     77  C   LIG d   1      11.371  12.310  -1.807  0.00  0.00    -0.053 C 
ATOM     78  H   LIG d   1      12.341  12.724  -2.083  0.00  0.00     0.024 H 
ATOM     79  H   LIG d   1      10.884  11.902  -2.693  0.00  0.00     0.024 H 
ATOM     80  H   LIG d   1      10.748  13.097  -1.380  0.00  0.00     0.024 H 
ENDBRANCH  28  77
TORSDOF 7
ENDMDL
