MODEL 1
REMARK VINA RESULT:      -7.9      0.000      0.000
REMARK  4 active torsions:
REMARK  status: ('A' for Active; 'I' for Inactive)
REMARK    1  A    between atoms: C_6  and  C_7 
REMARK    2  A    between atoms: C_9  and  C_12 
REMARK    3  A    between atoms: C_21  and  C_22 
REMARK    4  A    between atoms: C_21  and  N_51 
ROOT
ATOM      1  C   LIG d   1       9.059   1.834  -5.324  0.00  0.00     0.067 C 
ATOM      2  H   LIG d   1       9.622   0.910  -5.454  0.00  0.00     0.096 H 
ATOM      3  C   LIG d   1       9.143   2.668  -6.610  0.00  0.00     0.065 C 
ATOM      4  C   LIG d   1       8.314   1.978  -7.662  0.00  0.00     0.156 A 
ATOM      5  C   LIG d   1       7.405   1.015  -7.384  0.00  0.00     0.190 A 
ATOM      6  C   LIG d   1       7.390   1.301  -9.518  0.00  0.00     0.243 A 
ATOM      7  N   LIG d   1       8.304   2.160  -9.008  0.00  0.00    -0.247 N 
ATOM      8  H   LIG d   1       8.866   2.806  -9.525  0.00  0.00     0.310 HD
ATOM      9  C   LIG d   1       7.117   0.529  -5.986  0.00  0.00     0.036 C 
ATOM     10  H   LIG d   1       8.747   3.668  -6.427  0.00  0.00     0.041 H 
ATOM     11  H   LIG d   1      10.178   2.734  -6.941  0.00  0.00     0.041 H 
ATOM     12  H   LIG d   1       7.141   1.195 -10.563  0.00  0.00     0.158 H 
ATOM     13  H   LIG d   1       7.597  -0.436  -5.825  0.00  0.00     0.090 H 
ATOM     14  H   LIG d   1       6.040   0.432  -5.845  0.00  0.00     0.090 H 
ATOM     15  N   LIG d   1       7.636   1.542  -5.035  0.00  0.00     0.251 N 
ATOM     16  H   LIG d   1       7.093   2.406  -5.139  0.00  0.00     0.205 HD
ATOM     17  N   LIG d   1       6.861   0.621  -8.534  0.00  0.00    -0.243 N 
ATOM     18  H   LIG d   1       6.138  -0.102  -8.634  0.00  0.00     0.311 HD
ENDROOT
BRANCH  15  19
ATOM     19  C   LIG d   1       7.495   1.051  -3.648  0.00  0.00    -0.028 C 
ATOM     20  H   LIG d   1       7.514   1.902  -2.966  0.00  0.00     0.082 H 
ATOM     21  H   LIG d   1       8.305   0.366  -3.398  0.00  0.00     0.082 H 
BRANCH  19  22
ATOM     22  C   LIG d   1       6.155   0.325  -3.520  0.00  0.00    -0.001 C 
ATOM     23  C   LIG d   1       5.295   1.022  -2.463  0.00  0.00    -0.045 C 
ATOM     24  C   LIG d   1       3.955   0.295  -2.335  0.00  0.00    -0.053 C 
ATOM     25  H   LIG d   1       5.812   1.003  -1.504  0.00  0.00     0.027 H 
ATOM     26  H   LIG d   1       5.120   2.056  -2.762  0.00  0.00     0.027 H 
ATOM     27  C   LIG d   1       4.200  -1.156  -1.917  0.00  0.00    -0.053 C 
ATOM     28  H   LIG d   1       3.343   0.792  -1.582  0.00  0.00     0.026 H 
ATOM     29  H   LIG d   1       3.438   0.315  -3.295  0.00  0.00     0.026 H 
ATOM     30  C   LIG d   1       5.059  -1.854  -2.973  0.00  0.00    -0.053 C 
ATOM     31  H   LIG d   1       4.717  -1.176  -0.957  0.00  0.00     0.026 H 
ATOM     32  H   LIG d   1       3.245  -1.674  -1.825  0.00  0.00     0.026 H 
ATOM     33  C   LIG d   1       6.399  -1.127  -3.101  0.00  0.00    -0.045 C 
ATOM     34  H   LIG d   1       4.542  -1.835  -3.932  0.00  0.00     0.026 H 
ATOM     35  H   LIG d   1       5.233  -2.888  -2.675  0.00  0.00     0.026 H 
ATOM     36  H   LIG d   1       7.012  -1.624  -3.854  0.00  0.00     0.027 H 
ATOM     37  H   LIG d   1       6.917  -1.146  -2.142  0.00  0.00     0.027 H 
ATOM     38  H   LIG d   1       5.638   0.343  -4.479  0.00  0.00     0.035 H 
ENDBRANCH  19  22
ENDBRANCH  15  19
BRANCH   1  39
ATOM     39  C   LIG d   1       9.642   2.620  -4.178  0.00  0.00     0.276 A 
ATOM     40  N   LIG d   1       9.381   3.868  -3.878  0.00  0.00    -0.186 NA
ATOM     41  C   LIG d   1      10.126   4.142  -2.783  0.00  0.00     0.202 A 
ATOM     42  N   LIG d   1      10.796   3.058  -2.491  0.00  0.00    -0.056 NA
ATOM     43  O   LIG d   1      10.529   2.178  -3.282  0.00  0.00    -0.332 OA
BRANCH  41  44
ATOM     44  C   LIG d   1      10.178   5.433  -2.053  0.00  0.00     0.022 A 
ATOM     45  C   LIG d   1       9.574   6.567  -2.593  0.00  0.00    -0.050 A 
ATOM     46  C   LIG d   1       9.619   7.763  -1.909  0.00  0.00    -0.043 A 
ATOM     47  H   LIG d   1       9.067   6.507  -3.545  0.00  0.00     0.062 H 
ATOM     48  C   LIG d   1      10.274   7.842  -0.691  0.00  0.00     0.041 A 
ATOM     49  H   LIG d   1       9.148   8.641  -2.324  0.00  0.00     0.063 H 
ATOM     50  C   LIG d   1      10.881   6.720  -0.152  0.00  0.00    -0.043 A 
ATOM     51 CL   LIG d   1      10.335   9.352   0.163  0.00  0.00    -0.084 Cl
ATOM     52  C   LIG d   1      10.835   5.517  -0.827  0.00  0.00    -0.050 A 
ATOM     53  H   LIG d   1      11.390   6.786   0.798  0.00  0.00     0.063 H 
ATOM     54  H   LIG d   1      11.309   4.643  -0.406  0.00  0.00     0.062 H 
ENDBRANCH  41  44
ENDBRANCH   1  39
TORSDOF 4
ENDMDL
MODEL 2
REMARK VINA RESULT:      -7.7      2.146      3.306
REMARK  4 active torsions:
REMARK  status: ('A' for Active; 'I' for Inactive)
REMARK    1  A    between atoms: C_6  and  C_7 
REMARK    2  A    between atoms: C_9  and  C_12 
REMARK    3  A    between atoms: C_21  and  C_22 
REMARK    4  A    between atoms: C_21  and  N_51 
ROOT
ATOM      1  C   LIG d   1       6.806   0.404  -7.613  0.00  0.00     0.067 C 
ATOM      2  H   LIG d   1       7.182  -0.470  -8.144  0.00  0.00     0.096 H 
ATOM      3  C   LIG d   1       6.353   1.463  -8.629  0.00  0.00     0.065 C 
ATOM      4  C   LIG d   1       5.091   0.963  -9.284  0.00  0.00     0.156 A 
ATOM      5  C   LIG d   1       4.344  -0.050  -8.789  0.00  0.00     0.190 A 
ATOM      6  C   LIG d   1       3.380   0.624 -10.592  0.00  0.00     0.243 A 
ATOM      7  N   LIG d   1       4.483   1.391 -10.420  0.00  0.00    -0.247 N 
ATOM      8  H   LIG d   1       4.791   2.132 -11.017  0.00  0.00     0.310 HD
ATOM      9  C   LIG d   1       4.690  -0.791  -7.522  0.00  0.00     0.036 C 
ATOM     10  H   LIG d   1       6.154   2.404  -8.116  0.00  0.00     0.041 H 
ATOM     11  H   LIG d   1       7.127   1.607  -9.382  0.00  0.00     0.041 H 
ATOM     12  H   LIG d   1       2.676   0.709 -11.406  0.00  0.00     0.158 H 
ATOM     13  H   LIG d   1       5.122  -1.761  -7.769  0.00  0.00     0.090 H 
ATOM     14  H   LIG d   1       3.791  -0.932  -6.921  0.00  0.00     0.090 H 
ATOM     15  N   LIG d   1       5.654   0.039  -6.758  0.00  0.00     0.251 N 
ATOM     16  H   LIG d   1       5.184   0.897  -6.450  0.00  0.00     0.205 HD
ATOM     17  N   LIG d   1       3.310  -0.234  -9.608  0.00  0.00    -0.243 N 
ATOM     18  H   LIG d   1       2.573  -0.939  -9.487  0.00  0.00     0.311 HD
ENDROOT
BRANCH  15  19
ATOM     19  C   LIG d   1       6.125  -0.703  -5.569  0.00  0.00    -0.028 C 
ATOM     20  H   LIG d   1       7.110  -0.330  -5.285  0.00  0.00     0.082 H 
ATOM     21  H   LIG d   1       6.188  -1.770  -5.781  0.00  0.00     0.082 H 
BRANCH  19  22
ATOM     22  C   LIG d   1       5.140  -0.468  -4.422  0.00  0.00    -0.001 C 
ATOM     23  C   LIG d   1       5.796   0.416  -3.359  0.00  0.00    -0.045 C 
ATOM     24  C   LIG d   1       4.810   0.651  -2.213  0.00  0.00    -0.053 C 
ATOM     25  H   LIG d   1       6.689  -0.078  -2.976  0.00  0.00     0.027 H 
ATOM     26  H   LIG d   1       6.072   1.373  -3.803  0.00  0.00     0.027 H 
ATOM     27  C   LIG d   1       4.423  -0.692  -1.591  0.00  0.00    -0.053 C 
ATOM     28  H   LIG d   1       5.278   1.280  -1.456  0.00  0.00     0.026 H 
ATOM     29  H   LIG d   1       3.918   1.145  -2.596  0.00  0.00     0.026 H 
ATOM     30  C   LIG d   1       3.767  -1.577  -2.653  0.00  0.00    -0.053 C 
ATOM     31  H   LIG d   1       5.316  -1.187  -1.207  0.00  0.00     0.026 H 
ATOM     32  H   LIG d   1       3.721  -0.525  -0.773  0.00  0.00     0.026 H 
ATOM     33  C   LIG d   1       4.752  -1.811  -3.800  0.00  0.00    -0.045 C 
ATOM     34  H   LIG d   1       2.875  -1.083  -3.036  0.00  0.00     0.026 H 
ATOM     35  H   LIG d   1       3.491  -2.533  -2.210  0.00  0.00     0.026 H 
ATOM     36  H   LIG d   1       4.285  -2.441  -4.557  0.00  0.00     0.027 H 
ATOM     37  H   LIG d   1       5.646  -2.305  -3.417  0.00  0.00     0.027 H 
ATOM     38  H   LIG d   1       4.247   0.025  -4.806  0.00  0.00     0.035 H 
ENDBRANCH  19  22
ENDBRANCH  15  19
BRANCH   1  39
ATOM     39  C   LIG d   1       7.900   0.975  -6.748  0.00  0.00     0.276 A 
ATOM     40  N   LIG d   1       7.833   2.071  -6.032  0.00  0.00    -0.186 NA
ATOM     41  C   LIG d   1       9.038   2.183  -5.428  0.00  0.00     0.202 A 
ATOM     42  N   LIG d   1       9.760   1.164  -5.815  0.00  0.00    -0.056 NA
ATOM     43  O   LIG d   1       9.121   0.464  -6.572  0.00  0.00    -0.332 OA
BRANCH  41  44
ATOM     44  C   LIG d   1       9.462   3.263  -4.503  0.00  0.00     0.022 A 
ATOM     45  C   LIG d   1      10.058   2.946  -3.284  0.00  0.00    -0.050 A 
ATOM     46  C   LIG d   1      10.456   3.953  -2.430  0.00  0.00    -0.043 A 
ATOM     47  H   LIG d   1      10.211   1.913  -3.010  0.00  0.00     0.062 H 
ATOM     48  C   LIG d   1      10.255   5.278  -2.778  0.00  0.00     0.041 A 
ATOM     49  H   LIG d   1      10.922   3.708  -1.487  0.00  0.00     0.063 H 
ATOM     50  C   LIG d   1       9.659   5.599  -3.986  0.00  0.00    -0.043 A 
ATOM     51 CL   LIG d   1      10.752   6.541  -1.696  0.00  0.00    -0.084 Cl
ATOM     52  C   LIG d   1       9.262   4.598  -4.849  0.00  0.00    -0.050 A 
ATOM     53  H   LIG d   1       9.505   6.634  -4.253  0.00  0.00     0.063 H 
ATOM     54  H   LIG d   1       8.797   4.850  -5.791  0.00  0.00     0.062 H 
ENDBRANCH  41  44
ENDBRANCH   1  39
TORSDOF 4
ENDMDL
MODEL 3
REMARK VINA RESULT:      -7.5      3.650      8.208
REMARK  4 active torsions:
REMARK  status: ('A' for Active; 'I' for Inactive)
REMARK    1  A    between atoms: C_6  and  C_7 
REMARK    2  A    between atoms: C_9  and  C_12 
REMARK    3  A    between atoms: C_21  and  C_22 
REMARK    4  A    between atoms: C_21  and  N_51 
ROOT
ATOM      1  C   LIG d   1      10.574   4.225  -3.887  0.00  0.00     0.067 C 
ATOM      2  H   LIG d   1      11.285   4.249  -4.712  0.00  0.00     0.096 H 
ATOM      3  C   LIG d   1      11.286   3.752  -2.612  0.00  0.00     0.065 C 
ATOM      4  C   LIG d   1      12.206   4.856  -2.160  0.00  0.00     0.156 A 
ATOM      5  C   LIG d   1      12.122   6.129  -2.611  0.00  0.00     0.190 A 
ATOM      6  C   LIG d   1      13.755   6.061  -1.209  0.00  0.00     0.243 A 
ATOM      7  N   LIG d   1      13.234   4.812  -1.275  0.00  0.00    -0.247 N 
ATOM      8  H   LIG d   1      13.549   4.010  -0.767  0.00  0.00     0.310 HD
ATOM      9  C   LIG d   1      11.092   6.586  -3.613  0.00  0.00     0.036 C 
ATOM     10  H   LIG d   1      10.550   3.544  -1.835  0.00  0.00     0.041 H 
ATOM     11  H   LIG d   1      11.865   2.853  -2.824  0.00  0.00     0.041 H 
ATOM     12  H   LIG d   1      14.588   6.363  -0.593  0.00  0.00     0.158 H 
ATOM     13  H   LIG d   1      11.555   6.692  -4.594  0.00  0.00     0.090 H 
ATOM     14  H   LIG d   1      10.672   7.542  -3.300  0.00  0.00     0.090 H 
ATOM     15  N   LIG d   1      10.008   5.572  -3.647  0.00  0.00     0.251 N 
ATOM     16  H   LIG d   1       9.524   5.572  -2.742  0.00  0.00     0.205 HD
ATOM     17  N   LIG d   1      13.079   6.838  -2.014  0.00  0.00    -0.243 N 
ATOM     18  H   LIG d   1      13.259   7.838  -2.163  0.00  0.00     0.311 HD
ENDROOT
BRANCH  15  19
ATOM     19  C   LIG d   1       9.038   5.908  -4.710  0.00  0.00    -0.028 C 
ATOM     20  H   LIG d   1       8.217   6.480  -4.274  0.00  0.00     0.082 H 
ATOM     21  H   LIG d   1       8.645   5.004  -5.173  0.00  0.00     0.082 H 
BRANCH  19  22
ATOM     22  C   LIG d   1       9.744   6.758  -5.768  0.00  0.00    -0.001 C 
ATOM     23  C   LIG d   1       8.985   8.073  -5.958  0.00  0.00    -0.045 C 
ATOM     24  C   LIG d   1       9.693   8.922  -7.016  0.00  0.00    -0.053 C 
ATOM     25  H   LIG d   1       7.967   7.861  -6.282  0.00  0.00     0.027 H 
ATOM     26  H   LIG d   1       8.960   8.617  -5.013  0.00  0.00     0.027 H 
ATOM     27  C   LIG d   1       9.729   8.158  -8.341  0.00  0.00    -0.053 C 
ATOM     28  H   LIG d   1       9.152   9.858  -7.151  0.00  0.00     0.026 H 
ATOM     29  H   LIG d   1      10.711   9.133  -6.691  0.00  0.00     0.026 H 
ATOM     30  C   LIG d   1      10.488   6.843  -8.152  0.00  0.00    -0.053 C 
ATOM     31  H   LIG d   1       8.710   7.946  -8.667  0.00  0.00     0.026 H 
ATOM     32  H   LIG d   1      10.232   8.763  -9.096  0.00  0.00     0.026 H 
ATOM     33  C   LIG d   1       9.781   5.994  -7.094  0.00  0.00    -0.045 C 
ATOM     34  H   LIG d   1      11.506   7.055  -7.828  0.00  0.00     0.026 H 
ATOM     35  H   LIG d   1      10.513   6.299  -9.097  0.00  0.00     0.026 H 
ATOM     36  H   LIG d   1      10.321   5.057  -6.959  0.00  0.00     0.027 H 
ATOM     37  H   LIG d   1       8.762   5.782  -7.418  0.00  0.00     0.027 H 
ATOM     38  H   LIG d   1      10.763   6.969  -5.443  0.00  0.00     0.035 H 
ENDBRANCH  19  22
ENDBRANCH  15  19
BRANCH   1  39
ATOM     39  C   LIG d   1       9.453   3.273  -4.219  0.00  0.00     0.276 A 
ATOM     40  N   LIG d   1       8.784   2.533  -3.370  0.00  0.00    -0.186 NA
ATOM     41  C   LIG d   1       7.885   1.850  -4.113  0.00  0.00     0.202 A 
ATOM     42  N   LIG d   1       8.065   2.205  -5.359  0.00  0.00    -0.056 NA
ATOM     43  O   LIG d   1       8.961   3.020  -5.434  0.00  0.00    -0.332 OA
BRANCH  41  44
ATOM     44  C   LIG d   1       6.885   0.876  -3.611  0.00  0.00     0.022 A 
ATOM     45  C   LIG d   1       7.077  -0.489  -3.813  0.00  0.00    -0.050 A 
ATOM     46  C   LIG d   1       6.148  -1.392  -3.339  0.00  0.00    -0.043 A 
ATOM     47  H   LIG d   1       7.953  -0.840  -4.336  0.00  0.00     0.062 H 
ATOM     48  C   LIG d   1       5.021  -0.943  -2.672  0.00  0.00     0.041 A 
ATOM     49  H   LIG d   1       6.297  -2.451  -3.491  0.00  0.00     0.063 H 
ATOM     50  C   LIG d   1       4.822   0.413  -2.473  0.00  0.00    -0.043 A 
ATOM     51 CL   LIG d   1       3.851  -2.083  -2.084  0.00  0.00    -0.084 Cl
ATOM     52  C   LIG d   1       5.749   1.323  -2.939  0.00  0.00    -0.050 A 
ATOM     53  H   LIG d   1       3.942   0.759  -1.952  0.00  0.00     0.063 H 
ATOM     54  H   LIG d   1       5.594   2.381  -2.783  0.00  0.00     0.062 H 
ENDBRANCH  41  44
ENDBRANCH   1  39
TORSDOF 4
ENDMDL
MODEL 4
REMARK VINA RESULT:      -7.4      3.350      5.170
REMARK  4 active torsions:
REMARK  status: ('A' for Active; 'I' for Inactive)
REMARK    1  A    between atoms: C_6  and  C_7 
REMARK    2  A    between atoms: C_9  and  C_12 
REMARK    3  A    between atoms: C_21  and  C_22 
REMARK    4  A    between atoms: C_21  and  N_51 
ROOT
ATOM      1  C   LIG d   1       6.256  -2.105  -6.034  0.00  0.00     0.067 C 
ATOM      2  H   LIG d   1       7.014  -2.886  -6.081  0.00  0.00     0.096 H 
ATOM      3  C   LIG d   1       5.502  -2.044  -7.371  0.00  0.00     0.065 C 
ATOM      4  C   LIG d   1       4.636  -3.274  -7.467  0.00  0.00     0.156 A 
ATOM      5  C   LIG d   1       4.338  -4.063  -6.409  0.00  0.00     0.190 A 
ATOM      6  C   LIG d   1       3.361  -4.915  -8.128  0.00  0.00     0.243 A 
ATOM      7  N   LIG d   1       4.018  -3.809  -8.552  0.00  0.00    -0.247 N 
ATOM      8  H   LIG d   1       4.044  -3.455  -9.487  0.00  0.00     0.310 HD
ATOM      9  C   LIG d   1       4.838  -3.795  -5.012  0.00  0.00     0.036 C 
ATOM     10  H   LIG d   1       4.878  -1.151  -7.402  0.00  0.00     0.041 H 
ATOM     11  H   LIG d   1       6.213  -2.029  -8.196  0.00  0.00     0.041 H 
ATOM     12  H   LIG d   1       2.769  -5.571  -8.748  0.00  0.00     0.158 H 
ATOM     13  H   LIG d   1       5.659  -4.473  -4.778  0.00  0.00     0.090 H 
ATOM     14  H   LIG d   1       4.027  -3.940  -4.297  0.00  0.00     0.090 H 
ATOM     15  N   LIG d   1       5.286  -2.382  -4.951  0.00  0.00     0.251 N 
ATOM     16  H   LIG d   1       4.472  -1.769  -5.069  0.00  0.00     0.205 HD
ATOM     17  N   LIG d   1       3.562  -5.054  -6.843  0.00  0.00    -0.243 N 
ATOM     18  H   LIG d   1       3.181  -5.810  -6.261  0.00  0.00     0.311 HD
ENDROOT
BRANCH  15  19
ATOM     19  C   LIG d   1       5.906  -2.107  -3.638  0.00  0.00    -0.028 C 
ATOM     20  H   LIG d   1       6.843  -1.570  -3.793  0.00  0.00     0.082 H 
ATOM     21  H   LIG d   1       6.105  -3.036  -3.103  0.00  0.00     0.082 H 
BRANCH  19  22
ATOM     22  C   LIG d   1       4.952  -1.239  -2.816  0.00  0.00    -0.001 C 
ATOM     23  C   LIG d   1       3.659  -1.014  -3.604  0.00  0.00    -0.045 C 
ATOM     24  C   LIG d   1       2.705  -0.145  -2.781  0.00  0.00    -0.053 C 
ATOM     25  H   LIG d   1       3.889  -0.513  -4.544  0.00  0.00     0.027 H 
ATOM     26  H   LIG d   1       3.188  -1.975  -3.811  0.00  0.00     0.027 H 
ATOM     27  C   LIG d   1       3.366   1.203  -2.491  0.00  0.00    -0.053 C 
ATOM     28  H   LIG d   1       1.785   0.015  -3.343  0.00  0.00     0.026 H 
ATOM     29  H   LIG d   1       2.476  -0.648  -1.842  0.00  0.00     0.026 H 
ATOM     30  C   LIG d   1       4.659   0.980  -1.704  0.00  0.00    -0.053 C 
ATOM     31  H   LIG d   1       3.596   1.706  -3.431  0.00  0.00     0.026 H 
ATOM     32  H   LIG d   1       2.686   1.822  -1.906  0.00  0.00     0.026 H 
ATOM     33  C   LIG d   1       5.612   0.111  -2.526  0.00  0.00    -0.045 C 
ATOM     34  H   LIG d   1       4.429   0.478  -0.764  0.00  0.00     0.026 H 
ATOM     35  H   LIG d   1       5.129   1.941  -1.497  0.00  0.00     0.026 H 
ATOM     36  H   LIG d   1       6.533  -0.049  -1.965  0.00  0.00     0.027 H 
ATOM     37  H   LIG d   1       5.843   0.612  -3.466  0.00  0.00     0.027 H 
ATOM     38  H   LIG d   1       4.723  -1.740  -1.876  0.00  0.00     0.035 H 
ENDBRANCH  19  22
ENDBRANCH  15  19
BRANCH   1  39
ATOM     39  C   LIG d   1       6.919  -0.777  -5.773  0.00  0.00     0.276 A 
ATOM     40  N   LIG d   1       8.118  -0.590  -5.278  0.00  0.00    -0.186 NA
ATOM     41  C   LIG d   1       8.284   0.751  -5.226  0.00  0.00     0.202 A 
ATOM     42  N   LIG d   1       7.184   1.294  -5.679  0.00  0.00    -0.056 NA
ATOM     43  O   LIG d   1       6.393   0.431  -5.996  0.00  0.00    -0.332 OA
BRANCH  41  44
ATOM     44  C   LIG d   1       9.486   1.471  -4.740  0.00  0.00     0.022 A 
ATOM     45  C   LIG d   1       9.428   2.214  -3.562  0.00  0.00    -0.050 A 
ATOM     46  C   LIG d   1      10.550   2.877  -3.110  0.00  0.00    -0.043 A 
ATOM     47  H   LIG d   1       8.507   2.266  -3.001  0.00  0.00     0.062 H 
ATOM     48  C   LIG d   1      11.731   2.814  -3.831  0.00  0.00     0.041 A 
ATOM     49  H   LIG d   1      10.508   3.449  -2.195  0.00  0.00     0.063 H 
ATOM     50  C   LIG d   1      11.793   2.082  -5.005  0.00  0.00    -0.043 A 
ATOM     51 CL   LIG d   1      13.138   3.657  -3.262  0.00  0.00    -0.084 Cl
ATOM     52  C   LIG d   1      10.677   1.411  -5.462  0.00  0.00    -0.050 A 
ATOM     53  H   LIG d   1      12.716   2.037  -5.564  0.00  0.00     0.063 H 
ATOM     54  H   LIG d   1      10.726   0.841  -6.378  0.00  0.00     0.062 H 
ENDBRANCH  41  44
ENDBRANCH   1  39
TORSDOF 4
ENDMDL
MODEL 5
REMARK VINA RESULT:      -7.1      3.433      7.402
REMARK  4 active torsions:
REMARK  status: ('A' for Active; 'I' for Inactive)
REMARK    1  A    between atoms: C_6  and  C_7 
REMARK    2  A    between atoms: C_9  and  C_12 
REMARK    3  A    between atoms: C_21  and  C_22 
REMARK    4  A    between atoms: C_21  and  N_51 
ROOT
ATOM      1  C   LIG d   1       9.431   4.540  -5.253  0.00  0.00     0.067 C 
ATOM      2  H   LIG d   1       8.528   5.142  -5.342  0.00  0.00     0.096 H 
ATOM      3  C   LIG d   1      10.105   4.421  -6.627  0.00  0.00     0.065 C 
ATOM      4  C   LIG d   1      10.694   5.766  -6.969  0.00  0.00     0.156 A 
ATOM      5  C   LIG d   1      10.882   6.751  -6.061  0.00  0.00     0.190 A 
ATOM      6  C   LIG d   1      11.566   7.501  -7.960  0.00  0.00     0.243 A 
ATOM      7  N   LIG d   1      11.127   6.237  -8.167  0.00  0.00    -0.247 N 
ATOM      8  H   LIG d   1      11.121   5.744  -9.037  0.00  0.00     0.310 HD
ATOM      9  C   LIG d   1      10.528   6.611  -4.603  0.00  0.00     0.036 C 
ATOM     10  H   LIG d   1      10.896   3.672  -6.587  0.00  0.00     0.041 H 
ATOM     11  H   LIG d   1       9.367   4.141  -7.378  0.00  0.00     0.041 H 
ATOM     12  H   LIG d   1      11.975   8.156  -8.715  0.00  0.00     0.158 H 
ATOM     13  H   LIG d   1       9.599   7.144  -4.397  0.00  0.00     0.090 H 
ATOM     14  H   LIG d   1      11.330   7.019  -3.988  0.00  0.00     0.090 H 
ATOM     15  N   LIG d   1      10.383   5.164  -4.306  0.00  0.00     0.251 N 
ATOM     16  H   LIG d   1      11.298   4.711  -4.407  0.00  0.00     0.205 HD
ATOM     17  N   LIG d   1      11.413   7.796  -6.696  0.00  0.00    -0.243 N 
ATOM     18  H   LIG d   1      11.663   8.692  -6.260  0.00  0.00     0.311 HD
ENDROOT
BRANCH  15  19
ATOM     19  C   LIG d   1       9.907   4.980  -2.919  0.00  0.00    -0.028 C 
ATOM     20  H   LIG d   1      10.083   3.947  -2.618  0.00  0.00     0.082 H 
ATOM     21  H   LIG d   1       8.844   5.204  -2.843  0.00  0.00     0.082 H 
BRANCH  19  22
ATOM     22  C   LIG d   1      10.693   5.919  -2.002  0.00  0.00    -0.001 C 
ATOM     23  C   LIG d   1      11.497   5.094  -0.994  0.00  0.00    -0.045 C 
ATOM     24  C   LIG d   1      12.283   6.034  -0.078  0.00  0.00    -0.053 C 
ATOM     25  H   LIG d   1      10.817   4.488  -0.397  0.00  0.00     0.027 H 
ATOM     26  H   LIG d   1      12.191   4.444  -1.529  0.00  0.00     0.027 H 
ATOM     27  C   LIG d   1      11.311   6.947   0.671  0.00  0.00    -0.053 C 
ATOM     28  H   LIG d   1      12.856   5.446   0.640  0.00  0.00     0.026 H 
ATOM     29  H   LIG d   1      12.963   6.640  -0.676  0.00  0.00     0.026 H 
ATOM     30  C   LIG d   1      10.506   7.772  -0.336  0.00  0.00    -0.053 C 
ATOM     31  H   LIG d   1      10.630   6.340   1.270  0.00  0.00     0.026 H 
ATOM     32  H   LIG d   1      11.871   7.616   1.325  0.00  0.00     0.026 H 
ATOM     33  C   LIG d   1       9.721   6.832  -1.252  0.00  0.00    -0.045 C 
ATOM     34  H   LIG d   1      11.186   8.378  -0.933  0.00  0.00     0.026 H 
ATOM     35  H   LIG d   1       9.813   8.422   0.198  0.00  0.00     0.026 H 
ATOM     36  H   LIG d   1       9.147   7.420  -1.970  0.00  0.00     0.027 H 
ATOM     37  H   LIG d   1       9.040   6.225  -0.655  0.00  0.00     0.027 H 
ATOM     38  H   LIG d   1      11.372   6.526  -2.600  0.00  0.00     0.035 H 
ENDBRANCH  19  22
ENDBRANCH  15  19
BRANCH   1  39
ATOM     39  C   LIG d   1       9.070   3.165  -4.752  0.00  0.00     0.276 A 
ATOM     40  N   LIG d   1       7.873   2.746  -4.425  0.00  0.00    -0.186 NA
ATOM     41  C   LIG d   1       8.031   1.460  -4.038  0.00  0.00     0.202 A 
ATOM     42  N   LIG d   1       9.304   1.179  -4.144  0.00  0.00    -0.056 NA
ATOM     43  O   LIG d   1       9.911   2.147  -4.551  0.00  0.00    -0.332 OA
BRANCH  41  44
ATOM     44  C   LIG d   1       6.962   0.541  -3.575  0.00  0.00     0.022 A 
ATOM     45  C   LIG d   1       5.810   1.052  -2.981  0.00  0.00    -0.050 A 
ATOM     46  C   LIG d   1       4.816   0.195  -2.557  0.00  0.00    -0.043 A 
ATOM     47  H   LIG d   1       5.694   2.118  -2.856  0.00  0.00     0.062 H 
ATOM     48  C   LIG d   1       4.966  -1.173  -2.712  0.00  0.00     0.041 A 
ATOM     49  H   LIG d   1       3.921   0.590  -2.100  0.00  0.00     0.063 H 
ATOM     50  C   LIG d   1       6.111  -1.687  -3.298  0.00  0.00    -0.043 A 
ATOM     51 CL   LIG d   1       3.715  -2.248  -2.171  0.00  0.00    -0.084 Cl
ATOM     52  C   LIG d   1       7.109  -0.836  -3.729  0.00  0.00    -0.050 A 
ATOM     53  H   LIG d   1       6.224  -2.755  -3.417  0.00  0.00     0.063 H 
ATOM     54  H   LIG d   1       8.002  -1.238  -4.185  0.00  0.00     0.062 H 
ENDBRANCH  41  44
ENDBRANCH   1  39
TORSDOF 4
ENDMDL
MODEL 6
REMARK VINA RESULT:      -7.0      6.546      9.631
REMARK  4 active torsions:
REMARK  status: ('A' for Active; 'I' for Inactive)
REMARK    1  A    between atoms: C_6  and  C_7 
REMARK    2  A    between atoms: C_9  and  C_12 
REMARK    3  A    between atoms: C_21  and  C_22 
REMARK    4  A    between atoms: C_21  and  N_51 
ROOT
ATOM      1  C   LIG d   1       7.256  -3.681  -5.439  0.00  0.00     0.067 C 
ATOM      2  H   LIG d   1       8.007  -3.292  -6.126  0.00  0.00     0.096 H 
ATOM      3  C   LIG d   1       7.658  -5.093  -4.990  0.00  0.00     0.065 C 
ATOM      4  C   LIG d   1       8.844  -4.965  -4.070  0.00  0.00     0.156 A 
ATOM      5  C   LIG d   1       9.221  -3.799  -3.496  0.00  0.00     0.190 A 
ATOM      6  C   LIG d   1      10.610  -5.306  -2.838  0.00  0.00     0.243 A 
ATOM      7  N   LIG d   1       9.719  -5.917  -3.654  0.00  0.00    -0.247 N 
ATOM      8  H   LIG d   1       9.707  -6.885  -3.904  0.00  0.00     0.310 HD
ATOM      9  C   LIG d   1       8.490  -2.498  -3.710  0.00  0.00     0.036 C 
ATOM     10  H   LIG d   1       6.829  -5.561  -4.459  0.00  0.00     0.041 H 
ATOM     11  H   LIG d   1       7.928  -5.694  -5.858  0.00  0.00     0.041 H 
ATOM     12  H   LIG d   1      11.438  -5.787  -2.340  0.00  0.00     0.158 H 
ATOM     13  H   LIG d   1       9.048  -1.873  -4.408  0.00  0.00     0.090 H 
ATOM     14  H   LIG d   1       8.379  -1.977  -2.758  0.00  0.00     0.090 H 
ATOM     15  N   LIG d   1       7.143  -2.814  -4.245  0.00  0.00     0.251 N 
ATOM     16  H   LIG d   1       6.607  -3.310  -3.524  0.00  0.00     0.205 HD
ATOM     17  N   LIG d   1      10.300  -4.039  -2.752  0.00  0.00    -0.243 N 
ATOM     18  H   LIG d   1      10.809  -3.339  -2.200  0.00  0.00     0.311 HD
ENDROOT
BRANCH  15  19
ATOM     19  C   LIG d   1       6.434  -1.565  -4.595  0.00  0.00    -0.028 C 
ATOM     20  H   LIG d   1       5.879  -1.720  -5.521  0.00  0.00     0.082 H 
ATOM     21  H   LIG d   1       7.140  -0.746  -4.727  0.00  0.00     0.082 H 
BRANCH  19  22
ATOM     22  C   LIG d   1       5.459  -1.222  -3.467  0.00  0.00    -0.001 C 
ATOM     23  C   LIG d   1       4.024  -1.438  -3.950  0.00  0.00    -0.045 C 
ATOM     24  C   LIG d   1       3.049  -1.094  -2.821  0.00  0.00    -0.053 C 
ATOM     25  H   LIG d   1       3.828  -0.795  -4.808  0.00  0.00     0.027 H 
ATOM     26  H   LIG d   1       3.891  -2.481  -4.239  0.00  0.00     0.027 H 
ATOM     27  C   LIG d   1       3.235   0.369  -2.415  0.00  0.00    -0.053 C 
ATOM     28  H   LIG d   1       2.026  -1.248  -3.165  0.00  0.00     0.026 H 
ATOM     29  H   LIG d   1       3.245  -1.737  -1.964  0.00  0.00     0.026 H 
ATOM     30  C   LIG d   1       4.671   0.586  -1.932  0.00  0.00    -0.053 C 
ATOM     31  H   LIG d   1       3.039   1.013  -3.273  0.00  0.00     0.026 H 
ATOM     32  H   LIG d   1       2.541   0.614  -1.611  0.00  0.00     0.026 H 
ATOM     33  C   LIG d   1       5.645   0.242  -3.061  0.00  0.00    -0.045 C 
ATOM     34  H   LIG d   1       4.867  -0.056  -1.075  0.00  0.00     0.026 H 
ATOM     35  H   LIG d   1       4.803   1.629  -1.643  0.00  0.00     0.026 H 
ATOM     36  H   LIG d   1       6.668   0.397  -2.717  0.00  0.00     0.027 H 
ATOM     37  H   LIG d   1       5.450   0.885  -3.919  0.00  0.00     0.027 H 
ATOM     38  H   LIG d   1       5.656  -1.864  -2.609  0.00  0.00     0.035 H 
ENDBRANCH  19  22
ENDBRANCH  15  19
BRANCH   1  39
ATOM     39  C   LIG d   1       5.921  -3.737  -6.135  0.00  0.00     0.276 A 
ATOM     40  N   LIG d   1       5.554  -3.028  -7.174  0.00  0.00    -0.186 NA
ATOM     41  C   LIG d   1       4.288  -3.414  -7.449  0.00  0.00     0.202 A 
ATOM     42  N   LIG d   1       3.960  -4.320  -6.564  0.00  0.00    -0.056 NA
ATOM     43  O   LIG d   1       4.886  -4.515  -5.805  0.00  0.00    -0.332 OA
BRANCH  41  44
ATOM     44  C   LIG d   1       3.429  -2.901  -8.544  0.00  0.00     0.022 A 
ATOM     45  C   LIG d   1       3.111  -1.546  -8.608  0.00  0.00    -0.050 A 
ATOM     46  C   LIG d   1       2.317  -1.073  -9.632  0.00  0.00    -0.043 A 
ATOM     47  H   LIG d   1       3.489  -0.867  -7.860  0.00  0.00     0.062 H 
ATOM     48  C   LIG d   1       1.827  -1.945 -10.590  0.00  0.00     0.041 A 
ATOM     49  H   LIG d   1       2.073  -0.023  -9.685  0.00  0.00     0.063 H 
ATOM     50  C   LIG d   1       2.135  -3.293 -10.529  0.00  0.00    -0.043 A 
ATOM     51 CL   LIG d   1       0.822  -1.345 -11.872  0.00  0.00    -0.084 Cl
ATOM     52  C   LIG d   1       2.934  -3.775  -9.511  0.00  0.00    -0.050 A 
ATOM     53  H   LIG d   1       1.751  -3.969 -11.279  0.00  0.00     0.063 H 
ATOM     54  H   LIG d   1       3.173  -4.827  -9.464  0.00  0.00     0.062 H 
ENDBRANCH  41  44
ENDBRANCH   1  39
TORSDOF 4
ENDMDL
MODEL 7
REMARK VINA RESULT:      -7.0      6.925     11.103
REMARK  4 active torsions:
REMARK  status: ('A' for Active; 'I' for Inactive)
REMARK    1  A    between atoms: C_6  and  C_7 
REMARK    2  A    between atoms: C_9  and  C_12 
REMARK    3  A    between atoms: C_21  and  C_22 
REMARK    4  A    between atoms: C_21  and  N_51 
ROOT
ATOM      1  C   LIG d   1       4.965  -2.617  -4.802  0.00  0.00     0.067 C 
ATOM      2  H   LIG d   1       6.041  -2.442  -4.814  0.00  0.00     0.096 H 
ATOM      3  C   LIG d   1       4.440  -2.478  -3.366  0.00  0.00     0.065 C 
ATOM      4  C   LIG d   1       4.494  -1.018  -2.994  0.00  0.00     0.156 A 
ATOM      5  C   LIG d   1       4.640  -0.023  -3.899  0.00  0.00     0.190 A 
ATOM      6  C   LIG d   1       4.516   0.899  -1.958  0.00  0.00     0.243 A 
ATOM      7  N   LIG d   1       4.413  -0.438  -1.770  0.00  0.00    -0.247 N 
ATOM      8  H   LIG d   1       4.300  -0.908  -0.894  0.00  0.00     0.310 HD
ATOM      9  C   LIG d   1       4.761  -0.264  -5.382  0.00  0.00     0.036 C 
ATOM     10  H   LIG d   1       3.411  -2.834  -3.313  0.00  0.00     0.041 H 
ATOM     11  H   LIG d   1       5.067  -3.054  -2.686  0.00  0.00     0.041 H 
ATOM     12  H   LIG d   1       4.488   1.647  -1.179  0.00  0.00     0.158 H 
ATOM     13  H   LIG d   1       5.802  -0.156  -5.689  0.00  0.00     0.090 H 
ATOM     14  H   LIG d   1       4.142   0.452  -5.923  0.00  0.00     0.090 H 
ATOM     15  N   LIG d   1       4.268  -1.635  -5.663  0.00  0.00     0.251 N 
ATOM     16  H   LIG d   1       3.262  -1.674  -5.463  0.00  0.00     0.205 HD
ATOM     17  N   LIG d   1       4.652   1.133  -3.237  0.00  0.00    -0.243 N 
ATOM     18  H   LIG d   1       4.751   2.062  -3.663  0.00  0.00     0.311 HD
ENDROOT
BRANCH  15  19
ATOM     19  C   LIG d   1       4.488  -1.967  -7.086  0.00  0.00    -0.028 C 
ATOM     20  H   LIG d   1       3.814  -2.778  -7.369  0.00  0.00     0.082 H 
ATOM     21  H   LIG d   1       5.519  -2.277  -7.255  0.00  0.00     0.082 H 
BRANCH  19  22
ATOM     22  C   LIG d   1       4.181  -0.731  -7.932  0.00  0.00    -0.001 C 
ATOM     23  C   LIG d   1       2.739  -0.803  -8.439  0.00  0.00    -0.045 C 
ATOM     24  C   LIG d   1       2.433   0.435  -9.285  0.00  0.00    -0.053 C 
ATOM     25  H   LIG d   1       2.611  -1.699  -9.046  0.00  0.00     0.027 H 
ATOM     26  H   LIG d   1       2.057  -0.840  -7.589  0.00  0.00     0.027 H 
ATOM     27  C   LIG d   1       3.390   0.487 -10.477  0.00  0.00    -0.053 C 
ATOM     28  H   LIG d   1       1.405   0.383  -9.645  0.00  0.00     0.026 H 
ATOM     29  H   LIG d   1       2.560   1.330  -8.677  0.00  0.00     0.026 H 
ATOM     30  C   LIG d   1       4.832   0.559  -9.971  0.00  0.00    -0.053 C 
ATOM     31  H   LIG d   1       3.263  -0.409 -11.085  0.00  0.00     0.026 H 
ATOM     32  H   LIG d   1       3.171   1.368 -11.080  0.00  0.00     0.026 H 
ATOM     33  C   LIG d   1       5.138  -0.678  -9.125  0.00  0.00    -0.045 C 
ATOM     34  H   LIG d   1       4.959   1.455  -9.364  0.00  0.00     0.026 H 
ATOM     35  H   LIG d   1       5.514   0.596 -10.821  0.00  0.00     0.026 H 
ATOM     36  H   LIG d   1       6.165  -0.627  -8.764  0.00  0.00     0.027 H 
ATOM     37  H   LIG d   1       5.011  -1.575  -9.732  0.00  0.00     0.027 H 
ATOM     38  H   LIG d   1       4.309   0.165  -7.325  0.00  0.00     0.035 H 
ENDBRANCH  19  22
ENDBRANCH  15  19
BRANCH   1  39
ATOM     39  C   LIG d   1       4.678  -4.007  -5.308  0.00  0.00     0.276 A 
ATOM     40  N   LIG d   1       5.480  -5.040  -5.243  0.00  0.00    -0.186 NA
ATOM     41  C   LIG d   1       4.804  -6.062  -5.815  0.00  0.00     0.202 A 
ATOM     42  N   LIG d   1       3.645  -5.592  -6.198  0.00  0.00    -0.056 NA
ATOM     43  O   LIG d   1       3.559  -4.416  -5.914  0.00  0.00    -0.332 OA
BRANCH  41  44
ATOM     44  C   LIG d   1       5.288  -7.454  -5.982  0.00  0.00     0.022 A 
ATOM     45  C   LIG d   1       6.354  -7.921  -5.216  0.00  0.00    -0.050 A 
ATOM     46  C   LIG d   1       6.797  -9.218  -5.370  0.00  0.00    -0.043 A 
ATOM     47  H   LIG d   1       6.830  -7.269  -4.499  0.00  0.00     0.062 H 
ATOM     48  C   LIG d   1       6.191 -10.053  -6.293  0.00  0.00     0.041 A 
ATOM     49  H   LIG d   1       7.621  -9.582  -4.774  0.00  0.00     0.063 H 
ATOM     50  C   LIG d   1       5.134  -9.594  -7.061  0.00  0.00    -0.043 A 
ATOM     51 CL   LIG d   1       6.757 -11.683  -6.488  0.00  0.00    -0.084 Cl
ATOM     52  C   LIG d   1       4.681  -8.299  -6.909  0.00  0.00    -0.050 A 
ATOM     53  H   LIG d   1       4.664 -10.249  -7.779  0.00  0.00     0.063 H 
ATOM     54  H   LIG d   1       3.857  -7.941  -7.509  0.00  0.00     0.062 H 
ENDBRANCH  41  44
ENDBRANCH   1  39
TORSDOF 4
ENDMDL
MODEL 8
REMARK VINA RESULT:      -7.0      3.370      7.904
REMARK  4 active torsions:
REMARK  status: ('A' for Active; 'I' for Inactive)
REMARK    1  A    between atoms: C_6  and  C_7 
REMARK    2  A    between atoms: C_9  and  C_12 
REMARK    3  A    between atoms: C_21  and  C_22 
REMARK    4  A    between atoms: C_21  and  N_51 
ROOT
ATOM      1  C   LIG d   1      11.097   3.197  -4.200  0.00  0.00     0.067 C 
ATOM      2  H   LIG d   1      11.316   3.855  -5.040  0.00  0.00     0.096 H 
ATOM      3  C   LIG d   1      12.111   2.044  -4.177  0.00  0.00     0.065 C 
ATOM      4  C   LIG d   1      13.442   2.609  -3.753  0.00  0.00     0.156 A 
ATOM      5  C   LIG d   1      13.587   3.822  -3.171  0.00  0.00     0.190 A 
ATOM      6  C   LIG d   1      15.553   2.961  -3.338  0.00  0.00     0.243 A 
ATOM      7  N   LIG d   1      14.682   2.064  -3.857  0.00  0.00    -0.247 N 
ATOM      8  H   LIG d   1      14.908   1.170  -4.244  0.00  0.00     0.310 HD
ATOM      9  C   LIG d   1      12.430   4.742  -2.877  0.00  0.00     0.036 C 
ATOM     10  H   LIG d   1      11.789   1.284  -3.463  0.00  0.00     0.041 H 
ATOM     11  H   LIG d   1      12.196   1.606  -5.171  0.00  0.00     0.041 H 
ATOM     12  H   LIG d   1      16.623   2.831  -3.271  0.00  0.00     0.158 H 
ATOM     13  H   LIG d   1      12.399   5.543  -3.615  0.00  0.00     0.090 H 
ATOM     14  H   LIG d   1      12.541   5.166  -1.879  0.00  0.00     0.090 H 
ATOM     15  N   LIG d   1      11.184   3.936  -2.920  0.00  0.00     0.251 N 
ATOM     16  H   LIG d   1      11.198   3.261  -2.147  0.00  0.00     0.205 HD
ATOM     17  N   LIG d   1      14.885   4.008  -2.932  0.00  0.00    -0.243 N 
ATOM     18  H   LIG d   1      15.295   4.843  -2.497  0.00  0.00     0.311 HD
ENDROOT
BRANCH  15  19
ATOM     19  C   LIG d   1      10.009   4.818  -2.767  0.00  0.00    -0.028 C 
ATOM     20  H   LIG d   1       9.398   4.456  -1.939  0.00  0.00     0.082 H 
ATOM     21  H   LIG d   1       9.413   4.828  -3.680  0.00  0.00     0.082 H 
BRANCH  19  22
ATOM     22  C   LIG d   1      10.495   6.235  -2.460  0.00  0.00    -0.001 C 
ATOM     23  C   LIG d   1      10.053   6.632  -1.050  0.00  0.00    -0.045 C 
ATOM     24  C   LIG d   1      10.541   8.050  -0.743  0.00  0.00    -0.053 C 
ATOM     25  H   LIG d   1       8.966   6.600  -0.987  0.00  0.00     0.027 H 
ATOM     26  H   LIG d   1      10.480   5.937  -0.326  0.00  0.00     0.027 H 
ATOM     27  C   LIG d   1       9.942   9.025  -1.758  0.00  0.00    -0.053 C 
ATOM     28  H   LIG d   1      10.225   8.333   0.262  0.00  0.00     0.026 H 
ATOM     29  H   LIG d   1      11.628   8.082  -0.805  0.00  0.00     0.026 H 
ATOM     30  C   LIG d   1      10.384   8.629  -3.168  0.00  0.00    -0.053 C 
ATOM     31  H   LIG d   1       8.854   8.994  -1.696  0.00  0.00     0.026 H 
ATOM     32  H   LIG d   1      10.289  10.036  -1.539  0.00  0.00     0.026 H 
ATOM     33  C   LIG d   1       9.897   7.211  -3.475  0.00  0.00    -0.045 C 
ATOM     34  H   LIG d   1      11.471   8.661  -3.231  0.00  0.00     0.026 H 
ATOM     35  H   LIG d   1       9.957   9.324  -3.892  0.00  0.00     0.026 H 
ATOM     36  H   LIG d   1      10.211   6.929  -4.480  0.00  0.00     0.027 H 
ATOM     37  H   LIG d   1       8.809   7.179  -3.413  0.00  0.00     0.027 H 
ATOM     38  H   LIG d   1      11.583   6.267  -2.523  0.00  0.00     0.035 H 
ENDBRANCH  19  22
ENDBRANCH  15  19
BRANCH   1  39
ATOM     39  C   LIG d   1       9.706   2.637  -4.351  0.00  0.00     0.276 A 
ATOM     40  N   LIG d   1       9.150   1.719  -3.599  0.00  0.00    -0.186 NA
ATOM     41  C   LIG d   1       7.909   1.539  -4.104  0.00  0.00     0.202 A 
ATOM     42  N   LIG d   1       7.788   2.344  -5.128  0.00  0.00    -0.056 NA
ATOM     43  O   LIG d   1       8.810   2.979  -5.281  0.00  0.00    -0.332 OA
BRANCH  41  44
ATOM     44  C   LIG d   1       6.879   0.600  -3.595  0.00  0.00     0.022 A 
ATOM     45  C   LIG d   1       5.735   1.090  -2.968  0.00  0.00    -0.050 A 
ATOM     46  C   LIG d   1       4.777   0.214  -2.502  0.00  0.00    -0.043 A 
ATOM     47  H   LIG d   1       5.596   2.154  -2.852  0.00  0.00     0.062 H 
ATOM     48  C   LIG d   1       4.956  -1.152  -2.647  0.00  0.00     0.041 A 
ATOM     49  H   LIG d   1       3.887   0.592  -2.020  0.00  0.00     0.063 H 
ATOM     50  C   LIG d   1       6.094  -1.644  -3.264  0.00  0.00    -0.043 A 
ATOM     51 CL   LIG d   1       3.751  -2.250  -2.051  0.00  0.00    -0.084 Cl
ATOM     52  C   LIG d   1       7.055  -0.775  -3.738  0.00  0.00    -0.050 A 
ATOM     53  H   LIG d   1       6.229  -2.710  -3.374  0.00  0.00     0.063 H 
ATOM     54  H   LIG d   1       7.942  -1.160  -4.219  0.00  0.00     0.062 H 
ENDBRANCH  41  44
ENDBRANCH   1  39
TORSDOF 4
ENDMDL
MODEL 9
REMARK VINA RESULT:      -6.9      6.717      9.047
REMARK  4 active torsions:
REMARK  status: ('A' for Active; 'I' for Inactive)
REMARK    1  A    between atoms: C_6  and  C_7 
REMARK    2  A    between atoms: C_9  and  C_12 
REMARK    3  A    between atoms: C_21  and  C_22 
REMARK    4  A    between atoms: C_21  and  N_51 
ROOT
ATOM      1  C   LIG d   1       2.295  -0.158 -10.681  0.00  0.00     0.067 C 
ATOM      2  H   LIG d   1       2.066   0.715 -11.292  0.00  0.00     0.096 H 
ATOM      3  C   LIG d   1       1.068  -1.081 -10.629  0.00  0.00     0.065 C 
ATOM      4  C   LIG d   1       0.912  -1.717 -11.986  0.00  0.00     0.156 A 
ATOM      5  C   LIG d   1       1.887  -1.725 -12.923  0.00  0.00     0.190 A 
ATOM      6  C   LIG d   1       0.192  -2.752 -13.765  0.00  0.00     0.243 A 
ATOM      7  N   LIG d   1      -0.157  -2.366 -12.515  0.00  0.00    -0.247 N 
ATOM      8  H   LIG d   1      -1.037  -2.528 -12.067  0.00  0.00     0.310 HD
ATOM      9  C   LIG d   1       3.244  -1.102 -12.712  0.00  0.00     0.036 C 
ATOM     10  H   LIG d   1       1.219  -1.853  -9.875  0.00  0.00     0.041 H 
ATOM     11  H   LIG d   1       0.178  -0.499 -10.390  0.00  0.00     0.041 H 
ATOM     12  H   LIG d   1      -0.438  -3.293 -14.455  0.00  0.00     0.158 H 
ATOM     13  H   LIG d   1       3.297  -0.149 -13.238  0.00  0.00     0.090 H 
ATOM     14  H   LIG d   1       4.019  -1.772 -13.084  0.00  0.00     0.090 H 
ATOM     15  N   LIG d   1       3.434  -0.911 -11.253  0.00  0.00     0.251 N 
ATOM     16  H   LIG d   1       3.485  -1.830 -10.800  0.00  0.00     0.205 HD
ATOM     17  N   LIG d   1       1.418  -2.361 -13.996  0.00  0.00    -0.243 N 
ATOM     18  H   LIG d   1       1.938  -2.520 -14.867  0.00  0.00     0.311 HD
ENDROOT
BRANCH  15  19
ATOM     19  C   LIG d   1       4.695  -0.182 -11.001  0.00  0.00    -0.028 C 
ATOM     20  H   LIG d   1       4.503   0.626 -10.294  0.00  0.00     0.082 H 
ATOM     21  H   LIG d   1       5.092   0.233 -11.927  0.00  0.00     0.082 H 
BRANCH  19  22
ATOM     22  C   LIG d   1       5.712  -1.154 -10.401  0.00  0.00    -0.001 C 
ATOM     23  C   LIG d   1       5.026  -2.486 -10.094  0.00  0.00    -0.045 C 
ATOM     24  C   LIG d   1       6.044  -3.458  -9.493  0.00  0.00    -0.053 C 
ATOM     25  H   LIG d   1       4.216  -2.323  -9.383  0.00  0.00     0.027 H 
ATOM     26  H   LIG d   1       4.622  -2.907 -11.015  0.00  0.00     0.027 H 
ATOM     27  C   LIG d   1       6.612  -2.867  -8.201  0.00  0.00    -0.053 C 
ATOM     28  H   LIG d   1       5.555  -4.407  -9.274  0.00  0.00     0.026 H 
ATOM     29  H   LIG d   1       6.853  -3.621 -10.205  0.00  0.00     0.026 H 
ATOM     30  C   LIG d   1       7.298  -1.535  -8.508  0.00  0.00    -0.053 C 
ATOM     31  H   LIG d   1       5.802  -2.704  -7.490  0.00  0.00     0.026 H 
ATOM     32  H   LIG d   1       7.337  -3.560  -7.773  0.00  0.00     0.026 H 
ATOM     33  C   LIG d   1       6.280  -0.563  -9.108  0.00  0.00    -0.045 C 
ATOM     34  H   LIG d   1       8.108  -1.698  -9.218  0.00  0.00     0.026 H 
ATOM     35  H   LIG d   1       7.703  -1.114  -7.587  0.00  0.00     0.026 H 
ATOM     36  H   LIG d   1       6.769   0.386  -9.327  0.00  0.00     0.027 H 
ATOM     37  H   LIG d   1       5.470  -0.399  -8.397  0.00  0.00     0.027 H 
ATOM     38  H   LIG d   1       6.522  -1.317 -11.112  0.00  0.00     0.035 H 
ENDBRANCH  19  22
ENDBRANCH  15  19
BRANCH   1  39
ATOM     39  C   LIG d   1       2.648   0.285  -9.285  0.00  0.00     0.276 A 
ATOM     40  N   LIG d   1       2.844  -0.492  -8.248  0.00  0.00    -0.186 NA
ATOM     41  C   LIG d   1       3.136   0.338  -7.222  0.00  0.00     0.202 A 
ATOM     42  N   LIG d   1       3.092   1.559  -7.688  0.00  0.00    -0.056 NA
ATOM     43  O   LIG d   1       2.813   1.543  -8.869  0.00  0.00    -0.332 OA
BRANCH  41  44
ATOM     44  C   LIG d   1       3.443  -0.061  -5.826  0.00  0.00     0.022 A 
ATOM     45  C   LIG d   1       2.578   0.289  -4.792  0.00  0.00    -0.050 A 
ATOM     46  C   LIG d   1       2.864  -0.089  -3.497  0.00  0.00    -0.043 A 
ATOM     47  H   LIG d   1       1.681   0.852  -5.005  0.00  0.00     0.062 H 
ATOM     48  C   LIG d   1       4.016  -0.805  -3.222  0.00  0.00     0.041 A 
ATOM     49  H   LIG d   1       2.191   0.178  -2.695  0.00  0.00     0.063 H 
ATOM     50  C   LIG d   1       4.883  -1.151  -4.244  0.00  0.00    -0.043 A 
ATOM     51 CL   LIG d   1       4.376  -1.272  -1.588  0.00  0.00    -0.084 Cl
ATOM     52  C   LIG d   1       4.602  -0.782  -5.544  0.00  0.00    -0.050 A 
ATOM     53  H   LIG d   1       5.781  -1.711  -4.025  0.00  0.00     0.063 H 
ATOM     54  H   LIG d   1       5.279  -1.052  -6.341  0.00  0.00     0.062 H 
ENDBRANCH  41  44
ENDBRANCH   1  39
TORSDOF 4
ENDMDL
MODEL 10
REMARK VINA RESULT:      -6.9      3.869      4.903
REMARK  4 active torsions:
REMARK  status: ('A' for Active; 'I' for Inactive)
REMARK    1  A    between atoms: C_6  and  C_7 
REMARK    2  A    between atoms: C_9  and  C_12 
REMARK    3  A    between atoms: C_21  and  C_22 
REMARK    4  A    between atoms: C_21  and  N_51 
ROOT
ATOM      1  C   LIG d   1       6.625   0.270  -7.607  0.00  0.00     0.067 C 
ATOM      2  H   LIG d   1       7.003  -0.576  -8.180  0.00  0.00     0.096 H 
ATOM      3  C   LIG d   1       6.231   1.402  -8.567  0.00  0.00     0.065 C 
ATOM      4  C   LIG d   1       4.984   0.975  -9.297  0.00  0.00     0.156 A 
ATOM      5  C   LIG d   1       4.199  -0.051  -8.895  0.00  0.00     0.190 A 
ATOM      6  C   LIG d   1       3.315   0.760 -10.683  0.00  0.00     0.243 A 
ATOM      7  N   LIG d   1       4.426   1.489 -10.423  0.00  0.00    -0.247 N 
ATOM      8  H   LIG d   1       4.771   2.259 -10.960  0.00  0.00     0.310 HD
ATOM      9  C   LIG d   1       4.483  -0.880  -7.668  0.00  0.00     0.036 C 
ATOM     10  H   LIG d   1       6.033   2.313  -8.001  0.00  0.00     0.041 H 
ATOM     11  H   LIG d   1       7.035   1.577  -9.281  0.00  0.00     0.041 H 
ATOM     12  H   LIG d   1       2.643   0.914 -11.514  0.00  0.00     0.158 H 
ATOM     13  H   LIG d   1       4.904  -1.841  -7.962  0.00  0.00     0.090 H 
ATOM     14  H   LIG d   1       3.560  -1.038  -7.109  0.00  0.00     0.090 H 
ATOM     15  N   LIG d   1       5.435  -0.123  -6.818  0.00  0.00     0.251 N 
ATOM     16  H   LIG d   1       4.972   0.724  -6.472  0.00  0.00     0.205 HD
ATOM     17  N   LIG d   1       3.192  -0.158  -9.761  0.00  0.00    -0.243 N 
ATOM     18  H   LIG d   1       2.437  -0.853  -9.712  0.00  0.00     0.311 HD
ENDROOT
BRANCH  15  19
ATOM     19  C   LIG d   1       5.847  -0.950  -5.665  0.00  0.00    -0.028 C 
ATOM     20  H   LIG d   1       6.889  -0.733  -5.426  0.00  0.00     0.082 H 
ATOM     21  H   LIG d   1       5.741  -2.011  -5.894  0.00  0.00     0.082 H 
BRANCH  19  22
ATOM     22  C   LIG d   1       4.965  -0.596  -4.467  0.00  0.00    -0.001 C 
ATOM     23  C   LIG d   1       5.770   0.241  -3.470  0.00  0.00    -0.045 C 
ATOM     24  C   LIG d   1       4.887   0.595  -2.272  0.00  0.00    -0.053 C 
ATOM     25  H   LIG d   1       6.633  -0.331  -3.129  0.00  0.00     0.027 H 
ATOM     26  H   LIG d   1       6.109   1.157  -3.955  0.00  0.00     0.027 H 
ATOM     27  C   LIG d   1       4.411  -0.689  -1.591  0.00  0.00    -0.053 C 
ATOM     28  H   LIG d   1       5.461   1.191  -1.561  0.00  0.00     0.026 H 
ATOM     29  H   LIG d   1       4.025   1.167  -2.613  0.00  0.00     0.026 H 
ATOM     30  C   LIG d   1       3.606  -1.527  -2.588  0.00  0.00    -0.053 C 
ATOM     31  H   LIG d   1       5.274  -1.262  -1.250  0.00  0.00     0.026 H 
ATOM     32  H   LIG d   1       3.782  -0.437  -0.737  0.00  0.00     0.026 H 
ATOM     33  C   LIG d   1       4.489  -1.881  -3.786  0.00  0.00    -0.045 C 
ATOM     34  H   LIG d   1       2.743  -0.955  -2.928  0.00  0.00     0.026 H 
ATOM     35  H   LIG d   1       3.267  -2.442  -2.103  0.00  0.00     0.026 H 
ATOM     36  H   LIG d   1       3.916  -2.477  -4.496  0.00  0.00     0.027 H 
ATOM     37  H   LIG d   1       5.352  -2.453  -3.445  0.00  0.00     0.027 H 
ATOM     38  H   LIG d   1       4.102  -0.025  -4.808  0.00  0.00     0.035 H 
ENDBRANCH  19  22
ENDBRANCH  15  19
BRANCH   1  39
ATOM     39  C   LIG d   1       7.698   0.760  -6.669  0.00  0.00     0.276 A 
ATOM     40  N   LIG d   1       8.823   0.150  -6.388  0.00  0.00    -0.186 NA
ATOM     41  C   LIG d   1       9.463   0.955  -5.510  0.00  0.00     0.202 A 
ATOM     42  N   LIG d   1       8.692   1.991  -5.304  0.00  0.00    -0.056 NA
ATOM     43  O   LIG d   1       7.677   1.893  -5.961  0.00  0.00    -0.332 OA
BRANCH  41  44
ATOM     44  C   LIG d   1      10.788   0.706  -4.891  0.00  0.00     0.022 A 
ATOM     45  C   LIG d   1      11.439   1.725  -4.199  0.00  0.00    -0.050 A 
ATOM     46  C   LIG d   1      12.668   1.488  -3.619  0.00  0.00    -0.043 A 
ATOM     47  H   LIG d   1      10.980   2.699  -4.112  0.00  0.00     0.062 H 
ATOM     48  C   LIG d   1      13.260   0.242  -3.734  0.00  0.00     0.041 A 
ATOM     49  H   LIG d   1      13.172   2.276  -3.079  0.00  0.00     0.063 H 
ATOM     50  C   LIG d   1      12.621  -0.774  -4.425  0.00  0.00    -0.043 A 
ATOM     51 CL   LIG d   1      14.811  -0.049  -3.009  0.00  0.00    -0.084 Cl
ATOM     52  C   LIG d   1      11.388  -0.547  -5.003  0.00  0.00    -0.050 A 
ATOM     53  H   LIG d   1      13.087  -1.744  -4.512  0.00  0.00     0.063 H 
ATOM     54  H   LIG d   1      10.890  -1.339  -5.542  0.00  0.00     0.062 H 
ENDBRANCH  41  44
ENDBRANCH   1  39
TORSDOF 4
ENDMDL
