MODEL 1
REMARK VINA RESULT:      -8.1      0.000      0.000
REMARK  5 active torsions:
REMARK  status: ('A' for Active; 'I' for Inactive)
REMARK    1  A    between atoms: C_1  and  C_2 
REMARK    2  A    between atoms: C_6  and  C_8 
REMARK    3  A    between atoms: N_26  and  C_29 
REMARK    4  A    between atoms: C_32  and  O_35 
REMARK    5  A    between atoms: O_35  and  C_36 
ROOT
ATOM      1  C   LIG d   1       5.918  -1.497  -5.887  0.00  0.00     0.094 C 
ATOM      2  H   LIG d   1       6.268  -2.528  -5.958  0.00  0.00     0.062 H 
ATOM      3  C   LIG d   1       5.045  -1.160  -7.080  0.00  0.00     0.046 A 
ATOM      4  C   LIG d   1       5.406  -0.292  -8.048  0.00  0.00    -0.015 A 
ATOM      5  C   LIG d   1       4.317  -0.260  -9.007  0.00  0.00     0.003 A 
ATOM      6  C   LIG d   1       4.129   0.445 -10.200  0.00  0.00    -0.052 A 
ATOM      7  C   LIG d   1       2.948   0.231 -10.867  0.00  0.00    -0.061 A 
ATOM      8  C   LIG d   1       1.981  -0.639 -10.391  0.00  0.00    -0.060 A 
ATOM      9  C   LIG d   1       2.141  -1.350  -9.213  0.00  0.00    -0.038 A 
ATOM     10  C   LIG d   1       3.331  -1.152  -8.516  0.00  0.00     0.047 A 
ATOM     11  N   LIG d   1       3.806  -1.678  -7.348  0.00  0.00    -0.356 N 
ATOM     12  H   LIG d   1       3.336  -2.320  -6.793  0.00  0.00     0.166 HD
ATOM     13  C   LIG d   1       6.697   0.486  -8.102  0.00  0.00     0.002 C 
ATOM     14  C   LIG d   1       7.734  -0.185  -7.193  0.00  0.00     0.110 A 
ATOM     15  H   LIG d   1       8.201  -1.041  -7.680  0.00  0.00     0.060 H 
ATOM     16  N   LIG d   1       7.056  -0.571  -5.936  0.00  0.00    -0.261 N 
ATOM     17  C   LIG d   1       7.665   0.076  -4.941  0.00  0.00     0.317 A 
ATOM     18  O   LIG d   1       7.387  -0.066  -3.766  0.00  0.00    -0.252 OA
ATOM     19  N   LIG d   1       8.621   0.904  -5.387  0.00  0.00    -0.193 N 
ATOM     20  C   LIG d   1       8.745   0.844  -6.729  0.00  0.00     0.248 A 
ATOM     21  O   LIG d   1       9.510   1.480  -7.423  0.00  0.00    -0.273 OA
ATOM     22  H   LIG d   1       4.878   1.125 -10.579  0.00  0.00     0.062 H 
ATOM     23  H   LIG d   1       2.767   0.758 -11.792  0.00  0.00     0.062 H 
ATOM     24  H   LIG d   1       1.071  -0.768 -10.957  0.00  0.00     0.062 H 
ATOM     25  H   LIG d   1       1.380  -2.025  -8.853  0.00  0.00     0.064 H 
ATOM     26  H   LIG d   1       7.069   0.504  -9.126  0.00  0.00     0.034 H 
ATOM     27  H   LIG d   1       6.521   1.506  -7.761  0.00  0.00     0.034 H 
ENDROOT
BRANCH   1  28
ATOM     28  C   LIG d   1       5.145  -1.302  -4.608  0.00  0.00    -0.021 A 
ATOM     29  C   LIG d   1       4.929  -2.372  -3.761  0.00  0.00    -0.056 A 
ATOM     30  C   LIG d   1       4.225  -2.190  -2.585  0.00  0.00    -0.061 A 
ATOM     31  H   LIG d   1       5.314  -3.348  -4.016  0.00  0.00     0.062 H 
ATOM     32  C   LIG d   1       3.729  -0.942  -2.261  0.00  0.00    -0.059 A 
ATOM     33  H   LIG d   1       4.059  -3.026  -1.921  0.00  0.00     0.062 H 
ATOM     34  C   LIG d   1       3.940   0.128  -3.112  0.00  0.00    -0.050 A 
ATOM     35  H   LIG d   1       3.176  -0.801  -1.344  0.00  0.00     0.062 H 
ATOM     36  C   LIG d   1       4.649  -0.052  -4.285  0.00  0.00    -0.053 A 
ATOM     37  H   LIG d   1       4.814   0.783  -4.949  0.00  0.00     0.062 H 
BRANCH  34  38
ATOM     38  C   LIG d   1       3.399   1.489  -2.760  0.00  0.00    -0.040 C 
ATOM     39  H   LIG d   1       4.221   2.138  -2.453  0.00  0.00     0.028 H 
ATOM     40  H   LIG d   1       2.903   1.920  -3.630  0.00  0.00     0.028 H 
ATOM     41  H   LIG d   1       2.685   1.397  -1.943  0.00  0.00     0.028 H 
ENDBRANCH  34  38
ENDBRANCH   1  28
BRANCH  19  42
ATOM     42  C   LIG d   1       9.395   1.733  -4.561  0.00  0.00     0.046 A 
ATOM     43  C   LIG d   1      10.694   1.371  -4.236  0.00  0.00    -0.036 A 
ATOM     44  C   LIG d   1      11.456   2.187  -3.423  0.00  0.00    -0.018 A 
ATOM     45  H   LIG d   1      11.110   0.449  -4.617  0.00  0.00     0.064 H 
ATOM     46  C   LIG d   1      10.922   3.369  -2.932  0.00  0.00     0.120 A 
ATOM     47  H   LIG d   1      12.467   1.904  -3.170  0.00  0.00     0.066 H 
ATOM     48  C   LIG d   1       9.624   3.733  -3.257  0.00  0.00    -0.018 A 
ATOM     49  C   LIG d   1       8.863   2.920  -4.074  0.00  0.00    -0.036 A 
ATOM     50  H   LIG d   1       9.209   4.655  -2.876  0.00  0.00     0.066 H 
ATOM     51  H   LIG d   1       7.854   3.205  -4.332  0.00  0.00     0.064 H 
BRANCH  46  52
ATOM     52  O   LIG d   1      11.673   4.172  -2.131  0.00  0.00    -0.495 OA
BRANCH  52  53
ATOM     53  C   LIG d   1      10.994   5.235  -1.458  0.00  0.00     0.079 C 
ATOM     54  H   LIG d   1      10.009   4.893  -1.141  0.00  0.00     0.066 H 
ATOM     55  H   LIG d   1      11.571   5.538  -0.585  0.00  0.00     0.066 H 
ATOM     56  H   LIG d   1      10.884   6.081  -2.134  0.00  0.00     0.066 H 
ENDBRANCH  52  53
ENDBRANCH  46  52
ENDBRANCH  19  42
TORSDOF 5
ENDMDL
MODEL 2
REMARK VINA RESULT:      -8.1      3.489      7.721
REMARK  5 active torsions:
REMARK  status: ('A' for Active; 'I' for Inactive)
REMARK    1  A    between atoms: C_1  and  C_2 
REMARK    2  A    between atoms: C_6  and  C_8 
REMARK    3  A    between atoms: N_26  and  C_29 
REMARK    4  A    between atoms: C_32  and  O_35 
REMARK    5  A    between atoms: O_35  and  C_36 
ROOT
ATOM      1  C   LIG d   1       7.093  -1.329  -4.775  0.00  0.00     0.094 C 
ATOM      2  H   LIG d   1       7.711  -0.437  -4.674  0.00  0.00     0.062 H 
ATOM      3  C   LIG d   1       7.899  -2.563  -4.419  0.00  0.00     0.046 A 
ATOM      4  C   LIG d   1       8.268  -3.500  -5.318  0.00  0.00    -0.015 A 
ATOM      5  C   LIG d   1       9.031  -4.498  -4.592  0.00  0.00     0.003 A 
ATOM      6  C   LIG d   1       9.662  -5.680  -4.992  0.00  0.00    -0.052 A 
ATOM      7  C   LIG d   1      10.306  -6.400  -4.016  0.00  0.00    -0.061 A 
ATOM      8  C   LIG d   1      10.338  -5.984  -2.695  0.00  0.00    -0.060 A 
ATOM      9  C   LIG d   1       9.723  -4.818  -2.272  0.00  0.00    -0.038 A 
ATOM     10  C   LIG d   1       9.061  -4.067  -3.242  0.00  0.00     0.047 A 
ATOM     11  N   LIG d   1       8.366  -2.894  -3.175  0.00  0.00    -0.356 N 
ATOM     12  H   LIG d   1       8.223  -2.374  -2.368  0.00  0.00     0.166 HD
ATOM     13  C   LIG d   1       7.937  -3.491  -6.789  0.00  0.00     0.002 C 
ATOM     14  C   LIG d   1       7.553  -2.070  -7.218  0.00  0.00     0.110 A 
ATOM     15  H   LIG d   1       8.434  -1.450  -7.387  0.00  0.00     0.060 H 
ATOM     16  N   LIG d   1       6.675  -1.500  -6.172  0.00  0.00    -0.261 N 
ATOM     17  C   LIG d   1       5.506  -1.214  -6.748  0.00  0.00     0.317 A 
ATOM     18  O   LIG d   1       4.579  -0.677  -6.174  0.00  0.00    -0.252 OA
ATOM     19  N   LIG d   1       5.472  -1.590  -8.034  0.00  0.00    -0.193 N 
ATOM     20  C   LIG d   1       6.643  -2.130  -8.427  0.00  0.00     0.248 A 
ATOM     21  O   LIG d   1       6.914  -2.573  -9.523  0.00  0.00    -0.273 OA
ATOM     22  H   LIG d   1       9.643  -6.011  -6.020  0.00  0.00     0.062 H 
ATOM     23  H   LIG d   1      10.805  -7.319  -4.287  0.00  0.00     0.062 H 
ATOM     24  H   LIG d   1      10.860  -6.591  -1.970  0.00  0.00     0.062 H 
ATOM     25  H   LIG d   1       9.755  -4.504  -1.239  0.00  0.00     0.064 H 
ATOM     26  H   LIG d   1       8.805  -3.820  -7.360  0.00  0.00     0.034 H 
ATOM     27  H   LIG d   1       7.101  -4.165  -6.978  0.00  0.00     0.034 H 
ENDROOT
BRANCH   1  28
ATOM     28  C   LIG d   1       5.884  -1.225  -3.881  0.00  0.00    -0.021 A 
ATOM     29  C   LIG d   1       5.138  -2.352  -3.593  0.00  0.00    -0.056 A 
ATOM     30  C   LIG d   1       4.033  -2.257  -2.770  0.00  0.00    -0.061 A 
ATOM     31  H   LIG d   1       5.422  -3.308  -4.009  0.00  0.00     0.062 H 
ATOM     32  C   LIG d   1       3.667  -1.033  -2.241  0.00  0.00    -0.059 A 
ATOM     33  H   LIG d   1       3.452  -3.138  -2.541  0.00  0.00     0.062 H 
ATOM     34  C   LIG d   1       4.410   0.096  -2.534  0.00  0.00    -0.050 A 
ATOM     35  H   LIG d   1       2.801  -0.958  -1.601  0.00  0.00     0.062 H 
ATOM     36  C   LIG d   1       5.518  -0.000  -3.354  0.00  0.00    -0.053 A 
ATOM     37  H   LIG d   1       6.099   0.881  -3.582  0.00  0.00     0.062 H 
BRANCH  34  38
ATOM     38  C   LIG d   1       4.012   1.431  -1.959  0.00  0.00    -0.040 C 
ATOM     39  H   LIG d   1       3.235   1.877  -2.581  0.00  0.00     0.028 H 
ATOM     40  H   LIG d   1       3.630   1.291  -0.947  0.00  0.00     0.028 H 
ATOM     41  H   LIG d   1       4.879   2.089  -1.933  0.00  0.00     0.028 H 
ENDBRANCH  34  38
ENDBRANCH   1  28
BRANCH  19  42
ATOM     42  C   LIG d   1       4.354  -1.441  -8.870  0.00  0.00     0.046 A 
ATOM     43  C   LIG d   1       4.224  -0.308  -9.661  0.00  0.00    -0.036 A 
ATOM     44  C   LIG d   1       3.124  -0.162 -10.483  0.00  0.00    -0.018 A 
ATOM     45  H   LIG d   1       4.983   0.460  -9.634  0.00  0.00     0.064 H 
ATOM     46  C   LIG d   1       2.148  -1.147 -10.518  0.00  0.00     0.120 A 
ATOM     47  H   LIG d   1       3.024   0.720 -11.099  0.00  0.00     0.066 H 
ATOM     48  C   LIG d   1       2.277  -2.280  -9.728  0.00  0.00    -0.018 A 
ATOM     49  C   LIG d   1       3.380  -2.430  -8.909  0.00  0.00    -0.036 A 
ATOM     50  H   LIG d   1       1.518  -3.048  -9.756  0.00  0.00     0.066 H 
ATOM     51  H   LIG d   1       3.482  -3.314  -8.298  0.00  0.00     0.064 H 
BRANCH  46  52
ATOM     52  O   LIG d   1       1.066  -1.002 -11.327  0.00  0.00    -0.495 OA
BRANCH  52  53
ATOM     53  C   LIG d   1       0.875  -1.994 -12.339  0.00  0.00     0.079 C 
ATOM     54  H   LIG d   1       1.781  -2.080 -12.939  0.00  0.00     0.066 H 
ATOM     55  H   LIG d   1       0.657  -2.954 -11.871  0.00  0.00     0.066 H 
ATOM     56  H   LIG d   1       0.043  -1.704 -12.979  0.00  0.00     0.066 H 
ENDBRANCH  52  53
ENDBRANCH  46  52
ENDBRANCH  19  42
TORSDOF 5
ENDMDL
MODEL 3
REMARK VINA RESULT:      -7.7      3.342      4.044
REMARK  5 active torsions:
REMARK  status: ('A' for Active; 'I' for Inactive)
REMARK    1  A    between atoms: C_1  and  C_2 
REMARK    2  A    between atoms: C_6  and  C_8 
REMARK    3  A    between atoms: N_26  and  C_29 
REMARK    4  A    between atoms: C_32  and  O_35 
REMARK    5  A    between atoms: O_35  and  C_36 
ROOT
ATOM      1  C   LIG d   1       4.938  -2.354  -5.890  0.00  0.00     0.094 C 
ATOM      2  H   LIG d   1       4.305  -3.223  -6.070  0.00  0.00     0.062 H 
ATOM      3  C   LIG d   1       4.606  -1.254  -6.879  0.00  0.00     0.046 A 
ATOM      4  C   LIG d   1       5.441  -0.855  -7.862  0.00  0.00    -0.015 A 
ATOM      5  C   LIG d   1       4.755   0.194  -8.592  0.00  0.00     0.003 A 
ATOM      6  C   LIG d   1       5.119   0.970  -9.697  0.00  0.00    -0.052 A 
ATOM      7  C   LIG d   1       4.203   1.895 -10.134  0.00  0.00    -0.061 A 
ATOM      8  C   LIG d   1       2.973   2.061  -9.518  0.00  0.00    -0.060 A 
ATOM      9  C   LIG d   1       2.587   1.306  -8.424  0.00  0.00    -0.038 A 
ATOM     10  C   LIG d   1       3.497   0.359  -7.959  0.00  0.00     0.047 A 
ATOM     11  N   LIG d   1       3.443  -0.533  -6.927  0.00  0.00    -0.356 N 
ATOM     12  H   LIG d   1       2.694  -0.640  -6.319  0.00  0.00     0.166 HD
ATOM     13  C   LIG d   1       6.819  -1.406  -8.129  0.00  0.00     0.002 C 
ATOM     14  C   LIG d   1       6.956  -2.781  -7.463  0.00  0.00     0.110 A 
ATOM     15  H   LIG d   1       6.498  -3.566  -8.066  0.00  0.00     0.060 H 
ATOM     16  N   LIG d   1       6.347  -2.698  -6.117  0.00  0.00    -0.261 N 
ATOM     17  C   LIG d   1       7.306  -2.976  -5.231  0.00  0.00     0.317 A 
ATOM     18  O   LIG d   1       7.122  -3.050  -4.032  0.00  0.00    -0.252 OA
ATOM     19  N   LIG d   1       8.497  -3.163  -5.817  0.00  0.00    -0.193 N 
ATOM     20  C   LIG d   1       8.414  -3.057  -7.159  0.00  0.00     0.248 A 
ATOM     21  O   LIG d   1       9.320  -3.162  -7.959  0.00  0.00    -0.273 OA
ATOM     22  H   LIG d   1       6.075   0.847 -10.184  0.00  0.00     0.062 H 
ATOM     23  H   LIG d   1       4.449   2.513 -10.985  0.00  0.00     0.062 H 
ATOM     24  H   LIG d   1       2.293   2.805  -9.906  0.00  0.00     0.062 H 
ATOM     25  H   LIG d   1       1.625   1.445  -7.953  0.00  0.00     0.064 H 
ATOM     26  H   LIG d   1       6.969  -1.506  -9.203  0.00  0.00     0.034 H 
ATOM     27  H   LIG d   1       7.568  -0.728  -7.718  0.00  0.00     0.034 H 
ENDROOT
BRANCH   1  28
ATOM     28  C   LIG d   1       4.747  -1.858  -4.480  0.00  0.00    -0.021 A 
ATOM     29  C   LIG d   1       4.166  -2.678  -3.532  0.00  0.00    -0.056 A 
ATOM     30  C   LIG d   1       3.995  -2.225  -2.238  0.00  0.00    -0.061 A 
ATOM     31  H   LIG d   1       3.848  -3.675  -3.802  0.00  0.00     0.062 H 
ATOM     32  C   LIG d   1       4.398  -0.949  -1.892  0.00  0.00    -0.059 A 
ATOM     33  H   LIG d   1       3.544  -2.868  -1.496  0.00  0.00     0.062 H 
ATOM     34  C   LIG d   1       4.974  -0.126  -2.843  0.00  0.00    -0.050 A 
ATOM     35  H   LIG d   1       4.261  -0.594  -0.882  0.00  0.00     0.062 H 
ATOM     36  C   LIG d   1       5.149  -0.581  -4.136  0.00  0.00    -0.053 A 
ATOM     37  H   LIG d   1       5.600   0.062  -4.878  0.00  0.00     0.062 H 
BRANCH  34  38
ATOM     38  C   LIG d   1       5.412   1.266  -2.468  0.00  0.00    -0.040 C 
ATOM     39  H   LIG d   1       4.634   1.979  -2.746  0.00  0.00     0.028 H 
ATOM     40  H   LIG d   1       5.583   1.317  -1.392  0.00  0.00     0.028 H 
ATOM     41  H   LIG d   1       6.334   1.512  -2.994  0.00  0.00     0.028 H 
ENDBRANCH  34  38
ENDBRANCH   1  28
BRANCH  19  42
ATOM     42  C   LIG d   1       9.685  -3.433  -5.120  0.00  0.00     0.046 A 
ATOM     43  C   LIG d   1       9.979  -4.731  -4.728  0.00  0.00    -0.036 A 
ATOM     44  C   LIG d   1      11.148  -4.998  -4.042  0.00  0.00    -0.018 A 
ATOM     45  H   LIG d   1       9.293  -5.534  -4.957  0.00  0.00     0.064 H 
ATOM     46  C   LIG d   1      12.028  -3.967  -3.746  0.00  0.00     0.120 A 
ATOM     47  H   LIG d   1      11.376  -6.008  -3.736  0.00  0.00     0.066 H 
ATOM     48  C   LIG d   1      11.736  -2.670  -4.139  0.00  0.00    -0.018 A 
ATOM     49  C   LIG d   1      10.569  -2.403  -4.829  0.00  0.00    -0.036 A 
ATOM     50  H   LIG d   1      12.422  -1.868  -3.910  0.00  0.00     0.066 H 
ATOM     51  H   LIG d   1      10.344  -1.394  -5.140  0.00  0.00     0.064 H 
BRANCH  46  52
ATOM     52  O   LIG d   1      13.179  -4.231  -3.072  0.00  0.00    -0.495 OA
BRANCH  52  53
ATOM     53  C   LIG d   1      14.280  -3.347  -3.297  0.00  0.00     0.079 C 
ATOM     54  H   LIG d   1      14.476  -3.276  -4.367  0.00  0.00     0.066 H 
ATOM     55  H   LIG d   1      14.037  -2.358  -2.907  0.00  0.00     0.066 H 
ATOM     56  H   LIG d   1      15.164  -3.731  -2.790  0.00  0.00     0.066 H 
ENDBRANCH  52  53
ENDBRANCH  46  52
ENDBRANCH  19  42
TORSDOF 5
ENDMDL
MODEL 4
REMARK VINA RESULT:      -7.5      3.560      5.444
REMARK  5 active torsions:
REMARK  status: ('A' for Active; 'I' for Inactive)
REMARK    1  A    between atoms: C_1  and  C_2 
REMARK    2  A    between atoms: C_6  and  C_8 
REMARK    3  A    between atoms: N_26  and  C_29 
REMARK    4  A    between atoms: C_32  and  O_35 
REMARK    5  A    between atoms: O_35  and  C_36 
ROOT
ATOM      1  C   LIG d   1       3.937  -1.698  -5.610  0.00  0.00     0.094 C 
ATOM      2  H   LIG d   1       2.948  -2.112  -5.411  0.00  0.00     0.062 H 
ATOM      3  C   LIG d   1       3.886  -0.785  -6.818  0.00  0.00     0.046 A 
ATOM      4  C   LIG d   1       4.477  -1.072  -7.998  0.00  0.00    -0.015 A 
ATOM      5  C   LIG d   1       4.185   0.034  -8.891  0.00  0.00     0.003 A 
ATOM      6  C   LIG d   1       4.526   0.288 -10.223  0.00  0.00    -0.052 A 
ATOM      7  C   LIG d   1       4.072   1.465 -10.766  0.00  0.00    -0.061 A 
ATOM      8  C   LIG d   1       3.312   2.366 -10.038  0.00  0.00    -0.060 A 
ATOM      9  C   LIG d   1       2.959   2.140  -8.719  0.00  0.00    -0.038 A 
ATOM     10  C   LIG d   1       3.406   0.952  -8.142  0.00  0.00     0.047 A 
ATOM     11  N   LIG d   1       3.246   0.424  -6.893  0.00  0.00    -0.356 N 
ATOM     12  H   LIG d   1       2.755   0.842  -6.169  0.00  0.00     0.166 HD
ATOM     13  C   LIG d   1       5.282  -2.309  -8.305  0.00  0.00     0.002 C 
ATOM     14  C   LIG d   1       4.944  -3.403  -7.285  0.00  0.00     0.110 A 
ATOM     15  H   LIG d   1       4.015  -3.915  -7.537  0.00  0.00     0.060 H 
ATOM     16  N   LIG d   1       4.877  -2.774  -5.947  0.00  0.00    -0.261 N 
ATOM     17  C   LIG d   1       5.805  -3.359  -5.187  0.00  0.00     0.317 A 
ATOM     18  O   LIG d   1       5.973  -3.111  -4.009  0.00  0.00    -0.252 OA
ATOM     19  N   LIG d   1       6.532  -4.251  -5.874  0.00  0.00    -0.193 N 
ATOM     20  C   LIG d   1       6.115  -4.355  -7.152  0.00  0.00     0.248 A 
ATOM     21  O   LIG d   1       6.580  -5.065  -8.018  0.00  0.00    -0.273 OA
ATOM     22  H   LIG d   1       5.117  -0.409 -10.798  0.00  0.00     0.062 H 
ATOM     23  H   LIG d   1       4.315   1.695 -11.793  0.00  0.00     0.062 H 
ATOM     24  H   LIG d   1       2.983   3.276 -10.517  0.00  0.00     0.062 H 
ATOM     25  H   LIG d   1       2.366   2.850  -8.163  0.00  0.00     0.064 H 
ATOM     26  H   LIG d   1       5.041  -2.661  -9.308  0.00  0.00     0.034 H 
ATOM     27  H   LIG d   1       6.345  -2.075  -8.247  0.00  0.00     0.034 H 
ENDROOT
BRANCH   1  28
ATOM     28  C   LIG d   1       4.430  -0.938  -4.406  0.00  0.00    -0.021 A 
ATOM     29  C   LIG d   1       3.764  -1.046  -3.200  0.00  0.00    -0.056 A 
ATOM     30  C   LIG d   1       4.220  -0.352  -2.095  0.00  0.00    -0.061 A 
ATOM     31  H   LIG d   1       2.890  -1.675  -3.121  0.00  0.00     0.062 H 
ATOM     32  C   LIG d   1       5.337   0.456  -2.196  0.00  0.00    -0.059 A 
ATOM     33  H   LIG d   1       3.701  -0.440  -1.151  0.00  0.00     0.062 H 
ATOM     34  C   LIG d   1       6.000   0.569  -3.405  0.00  0.00    -0.050 A 
ATOM     35  H   LIG d   1       5.690   1.000  -1.334  0.00  0.00     0.062 H 
ATOM     36  C   LIG d   1       5.547  -0.129  -4.509  0.00  0.00    -0.053 A 
ATOM     37  H   LIG d   1       6.065  -0.041  -5.453  0.00  0.00     0.062 H 
BRANCH  34  38
ATOM     38  C   LIG d   1       7.216   1.450  -3.517  0.00  0.00    -0.040 C 
ATOM     39  H   LIG d   1       7.563   1.719  -2.519  0.00  0.00     0.028 H 
ATOM     40  H   LIG d   1       8.007   0.914  -4.044  0.00  0.00     0.028 H 
ATOM     41  H   LIG d   1       6.961   2.354  -4.069  0.00  0.00     0.028 H 
ENDBRANCH  34  38
ENDBRANCH   1  28
BRANCH  19  42
ATOM     42  C   LIG d   1       7.597  -4.986  -5.330  0.00  0.00     0.046 A 
ATOM     43  C   LIG d   1       8.812  -4.365  -5.079  0.00  0.00    -0.036 A 
ATOM     44  C   LIG d   1       9.860  -5.088  -4.544  0.00  0.00    -0.018 A 
ATOM     45  H   LIG d   1       8.939  -3.315  -5.302  0.00  0.00     0.064 H 
ATOM     46  C   LIG d   1       9.698  -6.435  -4.258  0.00  0.00     0.120 A 
ATOM     47  H   LIG d   1      10.806  -4.603  -4.349  0.00  0.00     0.066 H 
ATOM     48  C   LIG d   1       8.484  -7.057  -4.509  0.00  0.00    -0.018 A 
ATOM     49  C   LIG d   1       7.434  -6.334  -5.039  0.00  0.00    -0.036 A 
ATOM     50  H   LIG d   1       8.358  -8.106  -4.285  0.00  0.00     0.066 H 
ATOM     51  H   LIG d   1       6.487  -6.817  -5.229  0.00  0.00     0.064 H 
BRANCH  46  52
ATOM     52  O   LIG d   1      10.731  -7.146  -3.732  0.00  0.00    -0.495 OA
BRANCH  52  53
ATOM     53  C   LIG d   1      11.714  -6.414  -2.996  0.00  0.00     0.079 C 
ATOM     54  H   LIG d   1      12.604  -6.283  -3.611  0.00  0.00     0.066 H 
ATOM     55  H   LIG d   1      11.312  -5.438  -2.725  0.00  0.00     0.066 H 
ATOM     56  H   LIG d   1      11.974  -6.964  -2.092  0.00  0.00     0.066 H 
ENDBRANCH  52  53
ENDBRANCH  46  52
ENDBRANCH  19  42
TORSDOF 5
ENDMDL
MODEL 5
REMARK VINA RESULT:      -7.4      2.742      3.888
REMARK  5 active torsions:
REMARK  status: ('A' for Active; 'I' for Inactive)
REMARK    1  A    between atoms: C_1  and  C_2 
REMARK    2  A    between atoms: C_6  and  C_8 
REMARK    3  A    between atoms: N_26  and  C_29 
REMARK    4  A    between atoms: C_32  and  O_35 
REMARK    5  A    between atoms: O_35  and  C_36 
ROOT
ATOM      1  C   LIG d   1       5.696  -2.232  -3.888  0.00  0.00     0.094 C 
ATOM      2  H   LIG d   1       5.717  -2.575  -2.853  0.00  0.00     0.062 H 
ATOM      3  C   LIG d   1       5.712  -3.420  -4.830  0.00  0.00     0.046 A 
ATOM      4  C   LIG d   1       6.756  -3.726  -5.628  0.00  0.00    -0.015 A 
ATOM      5  C   LIG d   1       6.389  -4.928  -6.353  0.00  0.00     0.003 A 
ATOM      6  C   LIG d   1       7.062  -5.700  -7.306  0.00  0.00    -0.052 A 
ATOM      7  C   LIG d   1       6.399  -6.798  -7.796  0.00  0.00    -0.061 A 
ATOM      8  C   LIG d   1       5.122  -7.135  -7.375  0.00  0.00    -0.060 A 
ATOM      9  C   LIG d   1       4.434  -6.389  -6.433  0.00  0.00    -0.038 A 
ATOM     10  C   LIG d   1       5.084  -5.269  -5.918  0.00  0.00     0.047 A 
ATOM     11  N   LIG d   1       4.707  -4.334  -4.997  0.00  0.00    -0.356 N 
ATOM     12  H   LIG d   1       3.855  -4.319  -4.533  0.00  0.00     0.166 HD
ATOM     13  C   LIG d   1       8.046  -2.952  -5.733  0.00  0.00     0.002 C 
ATOM     14  C   LIG d   1       8.214  -2.070  -4.489  0.00  0.00     0.110 A 
ATOM     15  H   LIG d   1       8.596  -2.640  -3.642  0.00  0.00     0.060 H 
ATOM     16  N   LIG d   1       6.903  -1.453  -4.189  0.00  0.00    -0.261 N 
ATOM     17  C   LIG d   1       7.062  -0.130  -4.261  0.00  0.00     0.317 A 
ATOM     18  O   LIG d   1       6.186   0.675  -4.010  0.00  0.00    -0.252 OA
ATOM     19  N   LIG d   1       8.301   0.210  -4.644  0.00  0.00    -0.193 N 
ATOM     20  C   LIG d   1       9.082  -0.875  -4.825  0.00  0.00     0.248 A 
ATOM     21  O   LIG d   1      10.241  -0.891  -5.181  0.00  0.00    -0.273 OA
ATOM     22  H   LIG d   1       8.057  -5.445  -7.639  0.00  0.00     0.062 H 
ATOM     23  H   LIG d   1       6.886  -7.418  -8.533  0.00  0.00     0.062 H 
ATOM     24  H   LIG d   1       4.649  -8.009  -7.795  0.00  0.00     0.062 H 
ATOM     25  H   LIG d   1       3.439  -6.662  -6.113  0.00  0.00     0.064 H 
ATOM     26  H   LIG d   1       8.883  -3.646  -5.801  0.00  0.00     0.034 H 
ATOM     27  H   LIG d   1       8.022  -2.322  -6.623  0.00  0.00     0.034 H 
ENDROOT
BRANCH   1  28
ATOM     28  C   LIG d   1       4.466  -1.396  -4.130  0.00  0.00    -0.021 A 
ATOM     29  C   LIG d   1       3.598  -1.127  -3.089  0.00  0.00    -0.056 A 
ATOM     30  C   LIG d   1       2.473  -0.355  -3.310  0.00  0.00    -0.061 A 
ATOM     31  H   LIG d   1       3.801  -1.516  -2.102  0.00  0.00     0.062 H 
ATOM     32  C   LIG d   1       2.210   0.140  -4.574  0.00  0.00    -0.059 A 
ATOM     33  H   LIG d   1       1.796  -0.141  -2.496  0.00  0.00     0.062 H 
ATOM     34  C   LIG d   1       3.076  -0.135  -5.617  0.00  0.00    -0.050 A 
ATOM     35  H   LIG d   1       1.329   0.739  -4.747  0.00  0.00     0.062 H 
ATOM     36  C   LIG d   1       4.203  -0.902  -5.394  0.00  0.00    -0.053 A 
ATOM     37  H   LIG d   1       4.880  -1.116  -6.209  0.00  0.00     0.062 H 
BRANCH  34  38
ATOM     38  C   LIG d   1       2.790   0.404  -6.995  0.00  0.00    -0.040 C 
ATOM     39  H   LIG d   1       3.200   1.410  -7.083  0.00  0.00     0.028 H 
ATOM     40  H   LIG d   1       3.253  -0.243  -7.741  0.00  0.00     0.028 H 
ATOM     41  H   LIG d   1       1.714   0.434  -7.158  0.00  0.00     0.028 H 
ENDBRANCH  34  38
ENDBRANCH   1  28
BRANCH  19  42
ATOM     42  C   LIG d   1       8.732   1.532  -4.836  0.00  0.00     0.046 A 
ATOM     43  C   LIG d   1       9.071   2.317  -3.743  0.00  0.00    -0.036 A 
ATOM     44  C   LIG d   1       9.496   3.617  -3.932  0.00  0.00    -0.018 A 
ATOM     45  H   LIG d   1       9.001   1.912  -2.744  0.00  0.00     0.064 H 
ATOM     46  C   LIG d   1       9.584   4.139  -5.215  0.00  0.00     0.120 A 
ATOM     47  H   LIG d   1       9.759   4.228  -3.081  0.00  0.00     0.066 H 
ATOM     48  C   LIG d   1       9.246   3.354  -6.308  0.00  0.00    -0.018 A 
ATOM     49  C   LIG d   1       8.826   2.052  -6.120  0.00  0.00    -0.036 A 
ATOM     50  H   LIG d   1       9.317   3.760  -7.307  0.00  0.00     0.066 H 
ATOM     51  H   LIG d   1       8.569   1.440  -6.971  0.00  0.00     0.064 H 
BRANCH  46  52
ATOM     52  O   LIG d   1      10.002   5.419  -5.400  0.00  0.00    -0.495 OA
BRANCH  52  53
ATOM     53  C   LIG d   1       9.473   6.409  -4.514  0.00  0.00     0.079 C 
ATOM     54  H   LIG d   1      10.015   6.378  -3.569  0.00  0.00     0.066 H 
ATOM     55  H   LIG d   1       9.584   7.395  -4.964  0.00  0.00     0.066 H 
ATOM     56  H   LIG d   1       8.417   6.208  -4.334  0.00  0.00     0.066 H 
ENDBRANCH  52  53
ENDBRANCH  46  52
ENDBRANCH  19  42
TORSDOF 5
ENDMDL
MODEL 6
REMARK VINA RESULT:      -7.2      5.698      8.564
REMARK  5 active torsions:
REMARK  status: ('A' for Active; 'I' for Inactive)
REMARK    1  A    between atoms: C_1  and  C_2 
REMARK    2  A    between atoms: C_6  and  C_8 
REMARK    3  A    between atoms: N_26  and  C_29 
REMARK    4  A    between atoms: C_32  and  O_35 
REMARK    5  A    between atoms: O_35  and  C_36 
ROOT
ATOM      1  C   LIG d   1       8.100  -6.373  -5.802  0.00  0.00     0.094 C 
ATOM      2  H   LIG d   1       8.501  -6.410  -6.816  0.00  0.00     0.062 H 
ATOM      3  C   LIG d   1       7.769  -7.773  -5.323  0.00  0.00     0.046 A 
ATOM      4  C   LIG d   1       6.510  -8.214  -5.116  0.00  0.00    -0.015 A 
ATOM      5  C   LIG d   1       6.618  -9.594  -4.682  0.00  0.00     0.003 A 
ATOM      6  C   LIG d   1       5.661 -10.551  -4.329  0.00  0.00    -0.052 A 
ATOM      7  C   LIG d   1       6.128 -11.787  -3.956  0.00  0.00    -0.061 A 
ATOM      8  C   LIG d   1       7.481 -12.084  -3.926  0.00  0.00    -0.060 A 
ATOM      9  C   LIG d   1       8.449 -11.157  -4.271  0.00  0.00    -0.038 A 
ATOM     10  C   LIG d   1       8.003  -9.894  -4.654  0.00  0.00     0.047 A 
ATOM     11  N   LIG d   1       8.669  -8.768  -5.048  0.00  0.00    -0.356 N 
ATOM     12  H   LIG d   1       9.632  -8.686  -5.120  0.00  0.00     0.166 HD
ATOM     13  C   LIG d   1       5.249  -7.408  -5.303  0.00  0.00     0.002 C 
ATOM     14  C   LIG d   1       5.543  -6.204  -6.206  0.00  0.00     0.110 A 
ATOM     15  H   LIG d   1       5.550  -6.485  -7.260  0.00  0.00     0.060 H 
ATOM     16  N   LIG d   1       6.838  -5.624  -5.784  0.00  0.00    -0.261 N 
ATOM     17  C   LIG d   1       6.603  -4.366  -5.405  0.00  0.00     0.317 A 
ATOM     18  O   LIG d   1       7.471  -3.590  -5.055  0.00  0.00    -0.252 OA
ATOM     19  N   LIG d   1       5.300  -4.058  -5.452  0.00  0.00    -0.193 N 
ATOM     20  C   LIG d   1       4.560  -5.091  -5.907  0.00  0.00     0.248 A 
ATOM     21  O   LIG d   1       3.356  -5.122  -6.049  0.00  0.00    -0.273 OA
ATOM     22  H   LIG d   1       4.604 -10.329  -4.350  0.00  0.00     0.062 H 
ATOM     23  H   LIG d   1       5.419 -12.552  -3.676  0.00  0.00     0.062 H 
ATOM     24  H   LIG d   1       7.791 -13.074  -3.624  0.00  0.00     0.062 H 
ATOM     25  H   LIG d   1       9.501 -11.401  -4.244  0.00  0.00     0.064 H 
ATOM     26  H   LIG d   1       4.485  -8.031  -5.766  0.00  0.00     0.034 H 
ATOM     27  H   LIG d   1       4.895  -7.057  -4.334  0.00  0.00     0.034 H 
ENDROOT
BRANCH   1  28
ATOM     28  C   LIG d   1       9.098  -5.730  -4.874  0.00  0.00    -0.021 A 
ATOM     29  C   LIG d   1      10.172  -5.033  -5.392  0.00  0.00    -0.056 A 
ATOM     30  C   LIG d   1      11.084  -4.438  -4.540  0.00  0.00    -0.061 A 
ATOM     31  H   LIG d   1      10.298  -4.950  -6.461  0.00  0.00     0.062 H 
ATOM     32  C   LIG d   1      10.927  -4.548  -3.171  0.00  0.00    -0.059 A 
ATOM     33  H   LIG d   1      11.923  -3.890  -4.945  0.00  0.00     0.062 H 
ATOM     34  C   LIG d   1       9.854  -5.251  -2.654  0.00  0.00    -0.050 A 
ATOM     35  H   LIG d   1      11.642  -4.087  -2.506  0.00  0.00     0.062 H 
ATOM     36  C   LIG d   1       8.940  -5.841  -3.505  0.00  0.00    -0.053 A 
ATOM     37  H   LIG d   1       8.101  -6.389  -3.101  0.00  0.00     0.062 H 
BRANCH  34  38
ATOM     38  C   LIG d   1       9.682  -5.372  -1.162  0.00  0.00    -0.040 C 
ATOM     39  H   LIG d   1      10.541  -5.893  -0.738  0.00  0.00     0.028 H 
ATOM     40  H   LIG d   1       9.608  -4.377  -0.722  0.00  0.00     0.028 H 
ATOM     41  H   LIG d   1       8.774  -5.933  -0.945  0.00  0.00     0.028 H 
ENDBRANCH  34  38
ENDBRANCH   1  28
BRANCH  19  42
ATOM     42  C   LIG d   1       4.768  -2.816  -5.074  0.00  0.00     0.046 A 
ATOM     43  C   LIG d   1       4.366  -2.603  -3.763  0.00  0.00    -0.036 A 
ATOM     44  C   LIG d   1       3.844  -1.380  -3.390  0.00  0.00    -0.018 A 
ATOM     45  H   LIG d   1       4.461  -3.394  -3.033  0.00  0.00     0.064 H 
ATOM     46  C   LIG d   1       3.721  -0.364  -4.327  0.00  0.00     0.120 A 
ATOM     47  H   LIG d   1       3.530  -1.215  -2.370  0.00  0.00     0.066 H 
ATOM     48  C   LIG d   1       4.124  -0.576  -5.637  0.00  0.00    -0.018 A 
ATOM     49  C   LIG d   1       4.651  -1.797  -6.010  0.00  0.00    -0.036 A 
ATOM     50  H   LIG d   1       4.029   0.216  -6.366  0.00  0.00     0.066 H 
ATOM     51  H   LIG d   1       4.969  -1.960  -7.028  0.00  0.00     0.064 H 
BRANCH  46  52
ATOM     52  O   LIG d   1       3.206   0.839  -3.959  0.00  0.00    -0.495 OA
BRANCH  52  53
ATOM     53  C   LIG d   1       3.691   1.407  -2.740  0.00  0.00     0.079 C 
ATOM     54  H   LIG d   1       3.983   2.443  -2.913  0.00  0.00     0.066 H 
ATOM     55  H   LIG d   1       2.905   1.373  -1.986  0.00  0.00     0.066 H 
ATOM     56  H   LIG d   1       4.553   0.840  -2.393  0.00  0.00     0.066 H 
ENDBRANCH  52  53
ENDBRANCH  46  52
ENDBRANCH  19  42
TORSDOF 5
ENDMDL
MODEL 7
REMARK VINA RESULT:      -7.2      2.331      2.559
REMARK  5 active torsions:
REMARK  status: ('A' for Active; 'I' for Inactive)
REMARK    1  A    between atoms: C_1  and  C_2 
REMARK    2  A    between atoms: C_6  and  C_8 
REMARK    3  A    between atoms: N_26  and  C_29 
REMARK    4  A    between atoms: C_32  and  O_35 
REMARK    5  A    between atoms: O_35  and  C_36 
ROOT
ATOM      1  C   LIG d   1       6.618  -1.808  -4.338  0.00  0.00     0.094 C 
ATOM      2  H   LIG d   1       6.971  -2.580  -3.653  0.00  0.00     0.062 H 
ATOM      3  C   LIG d   1       6.300  -2.417  -5.689  0.00  0.00     0.046 A 
ATOM      4  C   LIG d   1       7.017  -2.175  -6.806  0.00  0.00    -0.015 A 
ATOM      5  C   LIG d   1       6.406  -2.950  -7.871  0.00  0.00     0.003 A 
ATOM      6  C   LIG d   1       6.713  -3.098  -9.227  0.00  0.00    -0.052 A 
ATOM      7  C   LIG d   1       5.902  -3.929  -9.959  0.00  0.00    -0.061 A 
ATOM      8  C   LIG d   1       4.827  -4.595  -9.392  0.00  0.00    -0.060 A 
ATOM      9  C   LIG d   1       4.502  -4.468  -8.052  0.00  0.00    -0.038 A 
ATOM     10  C   LIG d   1       5.309  -3.630  -7.285  0.00  0.00     0.047 A 
ATOM     11  N   LIG d   1       5.275  -3.283  -5.965  0.00  0.00    -0.356 N 
ATOM     12  H   LIG d   1       4.624  -3.602  -5.320  0.00  0.00     0.166 HD
ATOM     13  C   LIG d   1       8.217  -1.268  -6.906  0.00  0.00     0.002 C 
ATOM     14  C   LIG d   1       8.802  -1.041  -5.507  0.00  0.00     0.110 A 
ATOM     15  H   LIG d   1       9.429  -1.876  -5.193  0.00  0.00     0.060 H 
ATOM     16  N   LIG d   1       7.676  -0.818  -4.573  0.00  0.00    -0.261 N 
ATOM     17  C   LIG d   1       7.832   0.399  -4.048  0.00  0.00     0.317 A 
ATOM     18  O   LIG d   1       7.104   0.868  -3.195  0.00  0.00    -0.252 OA
ATOM     19  N   LIG d   1       8.883   1.045  -4.571  0.00  0.00    -0.193 N 
ATOM     20  C   LIG d   1       9.538   0.283  -5.472  0.00  0.00     0.248 A 
ATOM     21  O   LIG d   1      10.515   0.593  -6.119  0.00  0.00    -0.273 OA
ATOM     22  H   LIG d   1       7.549  -2.583  -9.677  0.00  0.00     0.062 H 
ATOM     23  H   LIG d   1       6.107  -4.068 -11.010  0.00  0.00     0.062 H 
ATOM     24  H   LIG d   1       4.223  -5.236 -10.016  0.00  0.00     0.062 H 
ATOM     25  H   LIG d   1       3.662  -4.993  -7.622  0.00  0.00     0.064 H 
ATOM     26  H   LIG d   1       8.970  -1.730  -7.544  0.00  0.00     0.034 H 
ATOM     27  H   LIG d   1       7.916  -0.311  -7.333  0.00  0.00     0.034 H 
ENDROOT
BRANCH   1  28
ATOM     28  C   LIG d   1       5.395  -1.134  -3.771  0.00  0.00    -0.021 A 
ATOM     29  C   LIG d   1       5.141  -1.192  -2.415  0.00  0.00    -0.056 A 
ATOM     30  C   LIG d   1       4.022  -0.569  -1.895  0.00  0.00    -0.061 A 
ATOM     31  H   LIG d   1       5.819  -1.720  -1.760  0.00  0.00     0.062 H 
ATOM     32  C   LIG d   1       3.152   0.104  -2.732  0.00  0.00    -0.059 A 
ATOM     33  H   LIG d   1       3.825  -0.610  -0.833  0.00  0.00     0.062 H 
ATOM     34  C   LIG d   1       3.404   0.156  -4.091  0.00  0.00    -0.050 A 
ATOM     35  H   LIG d   1       2.276   0.587  -2.326  0.00  0.00     0.062 H 
ATOM     36  C   LIG d   1       4.525  -0.463  -4.610  0.00  0.00    -0.053 A 
ATOM     37  H   LIG d   1       4.722  -0.421  -5.672  0.00  0.00     0.062 H 
BRANCH  34  38
ATOM     38  C   LIG d   1       2.456   0.888  -5.005  0.00  0.00    -0.040 C 
ATOM     39  H   LIG d   1       2.801   0.795  -6.035  0.00  0.00     0.028 H 
ATOM     40  H   LIG d   1       1.459   0.456  -4.917  0.00  0.00     0.028 H 
ATOM     41  H   LIG d   1       2.422   1.940  -4.727  0.00  0.00     0.028 H 
ENDBRANCH  34  38
ENDBRANCH   1  28
BRANCH  19  42
ATOM     42  C   LIG d   1       9.256   2.353  -4.226  0.00  0.00     0.046 A 
ATOM     43  C   LIG d   1       8.821   3.424  -4.993  0.00  0.00    -0.036 A 
ATOM     44  C   LIG d   1       9.188   4.711  -4.653  0.00  0.00    -0.018 A 
ATOM     45  H   LIG d   1       8.195   3.251  -5.857  0.00  0.00     0.064 H 
ATOM     46  C   LIG d   1       9.992   4.934  -3.545  0.00  0.00     0.120 A 
ATOM     47  H   LIG d   1       8.849   5.544  -5.251  0.00  0.00     0.066 H 
ATOM     48  C   LIG d   1      10.427   3.863  -2.777  0.00  0.00    -0.018 A 
ATOM     49  C   LIG d   1      10.056   2.576  -3.113  0.00  0.00    -0.036 A 
ATOM     50  H   LIG d   1      11.052   4.037  -1.913  0.00  0.00     0.066 H 
ATOM     51  H   LIG d   1      10.390   1.744  -2.512  0.00  0.00     0.064 H 
BRANCH  46  52
ATOM     52  O   LIG d   1      10.353   6.201  -3.212  0.00  0.00    -0.495 OA
BRANCH  52  53
ATOM     53  C   LIG d   1       9.550   6.869  -2.235  0.00  0.00     0.079 C 
ATOM     54  H   LIG d   1      10.188   7.239  -1.432  0.00  0.00     0.066 H 
ATOM     55  H   LIG d   1       9.032   7.706  -2.702  0.00  0.00     0.066 H 
ATOM     56  H   LIG d   1       8.820   6.171  -1.827  0.00  0.00     0.066 H 
ENDBRANCH  52  53
ENDBRANCH  46  52
ENDBRANCH  19  42
TORSDOF 5
ENDMDL
MODEL 8
REMARK VINA RESULT:      -7.0      2.039      2.440
REMARK  5 active torsions:
REMARK  status: ('A' for Active; 'I' for Inactive)
REMARK    1  A    between atoms: C_1  and  C_2 
REMARK    2  A    between atoms: C_6  and  C_8 
REMARK    3  A    between atoms: N_26  and  C_29 
REMARK    4  A    between atoms: C_32  and  O_35 
REMARK    5  A    between atoms: O_35  and  C_36 
ROOT
ATOM      1  C   LIG d   1       5.748  -2.377  -6.030  0.00  0.00     0.094 C 
ATOM      2  H   LIG d   1       5.606  -3.457  -6.072  0.00  0.00     0.062 H 
ATOM      3  C   LIG d   1       4.967  -1.707  -7.144  0.00  0.00     0.046 A 
ATOM      4  C   LIG d   1       5.545  -1.095  -8.199  0.00  0.00    -0.015 A 
ATOM      5  C   LIG d   1       4.468  -0.602  -9.037  0.00  0.00     0.003 A 
ATOM      6  C   LIG d   1       4.458   0.100 -10.247  0.00  0.00    -0.052 A 
ATOM      7  C   LIG d   1       3.229   0.416 -10.770  0.00  0.00    -0.061 A 
ATOM      8  C   LIG d   1       2.047   0.061 -10.139  0.00  0.00    -0.060 A 
ATOM      9  C   LIG d   1       2.028  -0.634  -8.941  0.00  0.00    -0.038 A 
ATOM     10  C   LIG d   1       3.262  -0.968  -8.388  0.00  0.00     0.047 A 
ATOM     11  N   LIG d   1       3.603  -1.634  -7.245  0.00  0.00    -0.356 N 
ATOM     12  H   LIG d   1       2.975  -1.999  -6.603  0.00  0.00     0.166 HD
ATOM     13  C   LIG d   1       7.028  -0.960  -8.439  0.00  0.00     0.002 C 
ATOM     14  C   LIG d   1       7.777  -2.006  -7.603  0.00  0.00     0.110 A 
ATOM     15  H   LIG d   1       7.763  -2.986  -8.081  0.00  0.00     0.060 H 
ATOM     16  N   LIG d   1       7.159  -2.042  -6.259  0.00  0.00    -0.261 N 
ATOM     17  C   LIG d   1       8.106  -1.714  -5.378  0.00  0.00     0.317 A 
ATOM     18  O   LIG d   1       7.940  -1.706  -4.174  0.00  0.00    -0.252 OA
ATOM     19  N   LIG d   1       9.262  -1.392  -5.976  0.00  0.00    -0.193 N 
ATOM     20  C   LIG d   1       9.182  -1.517  -7.316  0.00  0.00     0.248 A 
ATOM     21  O   LIG d   1      10.054  -1.288  -8.127  0.00  0.00    -0.273 OA
ATOM     22  H   LIG d   1       5.374   0.379 -10.746  0.00  0.00     0.062 H 
ATOM     23  H   LIG d   1       3.180   0.957 -11.703  0.00  0.00     0.062 H 
ATOM     24  H   LIG d   1       1.109   0.337 -10.597  0.00  0.00     0.062 H 
ATOM     25  H   LIG d   1       1.101  -0.904  -8.460  0.00  0.00     0.064 H 
ATOM     26  H   LIG d   1       7.242  -1.119  -9.495  0.00  0.00     0.034 H 
ATOM     27  H   LIG d   1       7.354   0.038  -8.148  0.00  0.00     0.034 H 
ENDROOT
BRANCH   1  28
ATOM     28  C   LIG d   1       5.300  -1.848  -4.692  0.00  0.00    -0.021 A 
ATOM     29  C   LIG d   1       4.761  -2.708  -3.755  0.00  0.00    -0.056 A 
ATOM     30  C   LIG d   1       4.355  -2.223  -2.526  0.00  0.00    -0.061 A 
ATOM     31  H   LIG d   1       4.660  -3.759  -3.981  0.00  0.00     0.062 H 
ATOM     32  C   LIG d   1       4.481  -0.877  -2.236  0.00  0.00    -0.059 A 
ATOM     33  H   LIG d   1       3.937  -2.896  -1.791  0.00  0.00     0.062 H 
ATOM     34  C   LIG d   1       5.015  -0.016  -3.177  0.00  0.00    -0.050 A 
ATOM     35  H   LIG d   1       4.160  -0.498  -1.278  0.00  0.00     0.062 H 
ATOM     36  C   LIG d   1       5.425  -0.501  -4.405  0.00  0.00    -0.053 A 
ATOM     37  H   LIG d   1       5.843   0.172  -5.139  0.00  0.00     0.062 H 
BRANCH  34  38
ATOM     38  C   LIG d   1       5.151   1.452  -2.864  0.00  0.00    -0.040 C 
ATOM     39  H   LIG d   1       4.681   2.037  -3.655  0.00  0.00     0.028 H 
ATOM     40  H   LIG d   1       4.663   1.668  -1.913  0.00  0.00     0.028 H 
ATOM     41  H   LIG d   1       6.207   1.713  -2.798  0.00  0.00     0.028 H 
ENDBRANCH  34  38
ENDBRANCH   1  28
BRANCH  19  42
ATOM     42  C   LIG d   1      10.414  -0.975  -5.291  0.00  0.00     0.046 A 
ATOM     43  C   LIG d   1      11.337  -1.912  -4.850  0.00  0.00    -0.036 A 
ATOM     44  C   LIG d   1      12.471  -1.502  -4.177  0.00  0.00    -0.018 A 
ATOM     45  H   LIG d   1      11.169  -2.964  -5.032  0.00  0.00     0.064 H 
ATOM     46  C   LIG d   1      12.687  -0.152  -3.942  0.00  0.00     0.120 A 
ATOM     47  H   LIG d   1      13.189  -2.232  -3.833  0.00  0.00     0.066 H 
ATOM     48  C   LIG d   1      11.765   0.786  -4.383  0.00  0.00    -0.018 A 
ATOM     49  C   LIG d   1      10.634   0.377  -5.061  0.00  0.00    -0.036 A 
ATOM     50  H   LIG d   1      11.934   1.837  -4.201  0.00  0.00     0.066 H 
ATOM     51  H   LIG d   1       9.918   1.107  -5.409  0.00  0.00     0.064 H 
BRANCH  46  52
ATOM     52  O   LIG d   1      13.803   0.252  -3.279  0.00  0.00    -0.495 OA
BRANCH  52  53
ATOM     53  C   LIG d   1      14.817  -0.732  -3.056  0.00  0.00     0.079 C 
ATOM     54  H   LIG d   1      15.723  -0.244  -2.696  0.00  0.00     0.066 H 
ATOM     55  H   LIG d   1      14.470  -1.448  -2.312  0.00  0.00     0.066 H 
ATOM     56  H   LIG d   1      15.030  -1.251  -3.990  0.00  0.00     0.066 H 
ENDBRANCH  52  53
ENDBRANCH  46  52
ENDBRANCH  19  42
TORSDOF 5
ENDMDL
MODEL 9
REMARK VINA RESULT:      -7.0      3.668      7.769
REMARK  5 active torsions:
REMARK  status: ('A' for Active; 'I' for Inactive)
REMARK    1  A    between atoms: C_1  and  C_2 
REMARK    2  A    between atoms: C_6  and  C_8 
REMARK    3  A    between atoms: N_26  and  C_29 
REMARK    4  A    between atoms: C_32  and  O_35 
REMARK    5  A    between atoms: O_35  and  C_36 
ROOT
ATOM      1  C   LIG d   1       5.797  -0.465  -6.326  0.00  0.00     0.094 C 
ATOM      2  H   LIG d   1       5.446   0.078  -7.204  0.00  0.00     0.062 H 
ATOM      3  C   LIG d   1       7.065   0.173  -5.792  0.00  0.00     0.046 A 
ATOM      4  C   LIG d   1       8.277  -0.416  -5.846  0.00  0.00    -0.015 A 
ATOM      5  C   LIG d   1       9.220   0.514  -5.253  0.00  0.00     0.003 A 
ATOM      6  C   LIG d   1      10.601   0.453  -5.039  0.00  0.00    -0.052 A 
ATOM      7  C   LIG d   1      11.184   1.539  -4.435  0.00  0.00    -0.061 A 
ATOM      8  C   LIG d   1      10.450   2.650  -4.052  0.00  0.00    -0.060 A 
ATOM      9  C   LIG d   1       9.082   2.738  -4.252  0.00  0.00    -0.038 A 
ATOM     10  C   LIG d   1       8.465   1.649  -4.864  0.00  0.00     0.047 A 
ATOM     11  N   LIG d   1       7.165   1.406  -5.205  0.00  0.00    -0.356 N 
ATOM     12  H   LIG d   1       6.425   2.015  -5.054  0.00  0.00     0.166 HD
ATOM     13  C   LIG d   1       8.572  -1.781  -6.414  0.00  0.00     0.002 C 
ATOM     14  C   LIG d   1       7.429  -2.205  -7.344  0.00  0.00     0.110 A 
ATOM     15  H   LIG d   1       7.523  -1.747  -8.329  0.00  0.00     0.060 H 
ATOM     16  N   LIG d   1       6.152  -1.842  -6.690  0.00  0.00    -0.261 N 
ATOM     17  C   LIG d   1       5.462  -2.970  -6.514  0.00  0.00     0.317 A 
ATOM     18  O   LIG d   1       4.338  -3.015  -6.052  0.00  0.00    -0.252 OA
ATOM     19  N   LIG d   1       6.153  -4.051  -6.904  0.00  0.00    -0.193 N 
ATOM     20  C   LIG d   1       7.358  -3.716  -7.409  0.00  0.00     0.248 A 
ATOM     21  O   LIG d   1       8.210  -4.470  -7.830  0.00  0.00    -0.273 OA
ATOM     22  H   LIG d   1      11.181  -0.408  -5.335  0.00  0.00     0.062 H 
ATOM     23  H   LIG d   1      12.248   1.528  -4.253  0.00  0.00     0.062 H 
ATOM     24  H   LIG d   1      10.961   3.476  -3.580  0.00  0.00     0.062 H 
ATOM     25  H   LIG d   1       8.522   3.609  -3.949  0.00  0.00     0.064 H 
ATOM     26  H   LIG d   1       9.505  -1.748  -6.977  0.00  0.00     0.034 H 
ATOM     27  H   LIG d   1       8.664  -2.502  -5.601  0.00  0.00     0.034 H 
ENDROOT
BRANCH   1  28
ATOM     28  C   LIG d   1       4.731  -0.469  -5.260  0.00  0.00    -0.021 A 
ATOM     29  C   LIG d   1       3.459  -0.016  -5.554  0.00  0.00    -0.056 A 
ATOM     30  C   LIG d   1       2.480  -0.025  -4.578  0.00  0.00    -0.061 A 
ATOM     31  H   LIG d   1       3.229   0.342  -6.547  0.00  0.00     0.062 H 
ATOM     32  C   LIG d   1       2.775  -0.479  -3.306  0.00  0.00    -0.059 A 
ATOM     33  H   LIG d   1       1.485   0.326  -4.808  0.00  0.00     0.062 H 
ATOM     34  C   LIG d   1       4.050  -0.927  -3.011  0.00  0.00    -0.050 A 
ATOM     35  H   LIG d   1       2.012  -0.483  -2.543  0.00  0.00     0.062 H 
ATOM     36  C   LIG d   1       5.027  -0.923  -3.988  0.00  0.00    -0.053 A 
ATOM     37  H   LIG d   1       6.023  -1.274  -3.758  0.00  0.00     0.062 H 
BRANCH  34  38
ATOM     38  C   LIG d   1       4.373  -1.422  -1.625  0.00  0.00    -0.040 C 
ATOM     39  H   LIG d   1       4.512  -2.503  -1.648  0.00  0.00     0.028 H 
ATOM     40  H   LIG d   1       5.288  -0.945  -1.273  0.00  0.00     0.028 H 
ATOM     41  H   LIG d   1       3.553  -1.176  -0.951  0.00  0.00     0.028 H 
ENDBRANCH  34  38
ENDBRANCH   1  28
BRANCH  19  42
ATOM     42  C   LIG d   1       5.681  -5.369  -6.798  0.00  0.00     0.046 A 
ATOM     43  C   LIG d   1       5.967  -6.119  -5.667  0.00  0.00    -0.036 A 
ATOM     44  C   LIG d   1       5.502  -7.416  -5.563  0.00  0.00    -0.018 A 
ATOM     45  H   LIG d   1       6.553  -5.691  -4.868  0.00  0.00     0.064 H 
ATOM     46  C   LIG d   1       4.751  -7.968  -6.590  0.00  0.00     0.120 A 
ATOM     47  H   LIG d   1       5.726  -8.000  -4.683  0.00  0.00     0.066 H 
ATOM     48  C   LIG d   1       4.464  -7.217  -7.721  0.00  0.00    -0.018 A 
ATOM     49  C   LIG d   1       4.923  -5.919  -7.824  0.00  0.00    -0.036 A 
ATOM     50  H   LIG d   1       3.877  -7.647  -8.520  0.00  0.00     0.066 H 
ATOM     51  H   LIG d   1       4.696  -5.333  -8.702  0.00  0.00     0.064 H 
BRANCH  46  52
ATOM     52  O   LIG d   1       4.294  -9.244  -6.487  0.00  0.00    -0.495 OA
BRANCH  52  53
ATOM     53  C   LIG d   1       4.581  -9.940  -5.271  0.00  0.00     0.079 C 
ATOM     54  H   LIG d   1       5.608 -10.303  -5.295  0.00  0.00     0.066 H 
ATOM     55  H   LIG d   1       4.456  -9.262  -4.427  0.00  0.00     0.066 H 
ATOM     56  H   LIG d   1       3.900 -10.783  -5.166  0.00  0.00     0.066 H 
ENDBRANCH  52  53
ENDBRANCH  46  52
ENDBRANCH  19  42
TORSDOF 5
ENDMDL
