MODEL 1
REMARK VINA RESULT:      -5.1      0.000      0.000
REMARK  7 active torsions:
REMARK  status: ('A' for Active; 'I' for Inactive)
REMARK    1  A    between atoms: C_1  and  C_2 
REMARK    2  A    between atoms: C_4  and  C_16 
REMARK    3  A    between atoms: C_5  and  C_8 
REMARK    4  A    between atoms: C_11  and  O_14 
REMARK    5  A    between atoms: O_14  and  C_15 
REMARK    6  A    between atoms: C_19  and  O_22 
REMARK    7  A    between atoms: O_22  and  C_23 
ROOT
ATOM      1  C   LIG d   1       6.928  -5.897  -6.299  0.00  0.00     0.149 A 
ATOM      2  N   LIG d   1       6.561  -5.098  -5.313  0.00  0.00    -0.228 NA
ATOM      3  C   LIG d   1       6.125  -3.871  -5.592  0.00  0.00     0.101 A 
ATOM      4  C   LIG d   1       6.072  -3.468  -6.942  0.00  0.00     0.119 A 
ATOM      5  N   LIG d   1       6.458  -4.326  -7.880  0.00  0.00    -0.145 NA
ATOM      6  N   LIG d   1       6.872  -5.501  -7.557  0.00  0.00    -0.134 NA
ENDROOT
BRANCH   3   7
ATOM      7  C   LIG d   1       5.706  -2.952  -4.509  0.00  0.00     0.003 A 
ATOM      8  C   LIG d   1       6.606  -2.013  -4.004  0.00  0.00    -0.049 A 
ATOM      9  C   LIG d   1       6.213  -1.158  -2.996  0.00  0.00    -0.019 A 
ATOM     10  H   LIG d   1       7.609  -1.955  -4.401  0.00  0.00     0.062 H 
ATOM     11  C   LIG d   1       4.924  -1.230  -2.486  0.00  0.00     0.120 A 
ATOM     12  H   LIG d   1       6.909  -0.431  -2.604  0.00  0.00     0.065 H 
ATOM     13  C   LIG d   1       4.026  -2.163  -2.987  0.00  0.00    -0.019 A 
ATOM     14  C   LIG d   1       4.410  -3.018  -3.997  0.00  0.00    -0.049 A 
ATOM     15  H   LIG d   1       3.024  -2.217  -2.587  0.00  0.00     0.065 H 
ATOM     16  H   LIG d   1       3.710  -3.741  -4.390  0.00  0.00     0.062 H 
BRANCH  11  17
ATOM     17  O   LIG d   1       4.539  -0.385  -1.493  0.00  0.00    -0.495 OA
BRANCH  17  18
ATOM     18  C   LIG d   1       4.279   0.971  -1.861  0.00  0.00     0.079 C 
ATOM     19  H   LIG d   1       3.905   1.005  -2.884  0.00  0.00     0.066 H 
ATOM     20  H   LIG d   1       3.533   1.393  -1.187  0.00  0.00     0.066 H 
ATOM     21  H   LIG d   1       5.200   1.549  -1.791  0.00  0.00     0.066 H 
ENDBRANCH  17  18
ENDBRANCH  11  17
ENDBRANCH   3   7
BRANCH   4  22
ATOM     22  C   LIG d   1       5.596  -2.114  -7.308  0.00  0.00     0.004 A 
ATOM     23  C   LIG d   1       6.508  -1.070  -7.462  0.00  0.00    -0.049 A 
ATOM     24  C   LIG d   1       6.061   0.188  -7.803  0.00  0.00    -0.019 A 
ATOM     25  H   LIG d   1       7.563  -1.248  -7.315  0.00  0.00     0.062 H 
ATOM     26  C   LIG d   1       4.705   0.418  -7.993  0.00  0.00     0.120 A 
ATOM     27  H   LIG d   1       6.767   0.997  -7.922  0.00  0.00     0.065 H 
ATOM     28  C   LIG d   1       3.794  -0.620  -7.840  0.00  0.00    -0.019 A 
ATOM     29  C   LIG d   1       4.234  -1.882  -7.505  0.00  0.00    -0.049 A 
ATOM     30  H   LIG d   1       2.740  -0.438  -7.988  0.00  0.00     0.065 H 
ATOM     31  H   LIG d   1       3.526  -2.689  -7.391  0.00  0.00     0.062 H 
BRANCH  26  32
ATOM     32  O   LIG d   1       4.268   1.659  -8.329  0.00  0.00    -0.495 OA
BRANCH  32  33
ATOM     33  C   LIG d   1       2.875   1.801  -8.613  0.00  0.00     0.079 C 
ATOM     34  H   LIG d   1       2.365   0.858  -8.415  0.00  0.00     0.066 H 
ATOM     35  H   LIG d   1       2.452   2.582  -7.981  0.00  0.00     0.066 H 
ATOM     36  H   LIG d   1       2.744   2.072  -9.661  0.00  0.00     0.066 H 
ENDBRANCH  32  33
ENDBRANCH  26  32
ENDBRANCH   4  22
BRANCH   1  37
ATOM     37  C   LIG d   1       7.421  -7.285  -5.981  0.00  0.00    -0.003 C 
ATOM     38  H   LIG d   1       6.904  -8.008  -6.613  0.00  0.00     0.031 H 
ATOM     39  H   LIG d   1       8.493  -7.340  -6.169  0.00  0.00     0.031 H 
ATOM     40  H   LIG d   1       7.222  -7.511  -4.934  0.00  0.00     0.031 H 
ENDBRANCH   1  37
TORSDOF 7
ENDMDL
MODEL 2
REMARK VINA RESULT:      -5.1      1.489      4.835
REMARK  7 active torsions:
REMARK  status: ('A' for Active; 'I' for Inactive)
REMARK    1  A    between atoms: C_1  and  C_2 
REMARK    2  A    between atoms: C_4  and  C_16 
REMARK    3  A    between atoms: C_5  and  C_8 
REMARK    4  A    between atoms: C_11  and  O_14 
REMARK    5  A    between atoms: O_14  and  C_15 
REMARK    6  A    between atoms: C_19  and  O_22 
REMARK    7  A    between atoms: O_22  and  C_23 
ROOT
ATOM      1  C   LIG d   1       4.368  -5.725  -7.214  0.00  0.00     0.149 A 
ATOM      2  N   LIG d   1       4.538  -4.499  -7.671  0.00  0.00    -0.228 NA
ATOM      3  C   LIG d   1       4.658  -3.490  -6.810  0.00  0.00     0.101 A 
ATOM      4  C   LIG d   1       4.596  -3.774  -5.430  0.00  0.00     0.119 A 
ATOM      5  N   LIG d   1       4.422  -5.033  -5.044  0.00  0.00    -0.145 NA
ATOM      6  N   LIG d   1       4.312  -5.972  -5.918  0.00  0.00    -0.134 NA
ENDROOT
BRANCH   3   7
ATOM      7  C   LIG d   1       4.849  -2.102  -7.290  0.00  0.00     0.003 A 
ATOM      8  C   LIG d   1       6.138  -1.602  -7.485  0.00  0.00    -0.049 A 
ATOM      9  C   LIG d   1       6.313  -0.310  -7.932  0.00  0.00    -0.019 A 
ATOM     10  H   LIG d   1       6.997  -2.227  -7.286  0.00  0.00     0.062 H 
ATOM     11  C   LIG d   1       5.210   0.493  -8.189  0.00  0.00     0.120 A 
ATOM     12  H   LIG d   1       7.310   0.078  -8.083  0.00  0.00     0.065 H 
ATOM     13  C   LIG d   1       3.926  -0.001  -7.996  0.00  0.00    -0.019 A 
ATOM     14  C   LIG d   1       3.743  -1.294  -7.553  0.00  0.00    -0.049 A 
ATOM     15  H   LIG d   1       3.071   0.627  -8.196  0.00  0.00     0.065 H 
ATOM     16  H   LIG d   1       2.745  -1.680  -7.407  0.00  0.00     0.062 H 
BRANCH  11  17
ATOM     17  O   LIG d   1       5.386   1.766  -8.630  0.00  0.00    -0.495 OA
BRANCH  17  18
ATOM     18  C   LIG d   1       4.313   2.350  -9.371  0.00  0.00     0.079 C 
ATOM     19  H   LIG d   1       3.993   3.271  -8.883  0.00  0.00     0.066 H 
ATOM     20  H   LIG d   1       4.650   2.572 -10.384  0.00  0.00     0.066 H 
ATOM     21  H   LIG d   1       3.477   1.651  -9.412  0.00  0.00     0.066 H 
ENDBRANCH  17  18
ENDBRANCH  11  17
ENDBRANCH   3   7
BRANCH   4  22
ATOM     22  C   LIG d   1       4.722  -2.689  -4.429  0.00  0.00     0.004 A 
ATOM     23  C   LIG d   1       3.581  -2.051  -3.942  0.00  0.00    -0.049 A 
ATOM     24  C   LIG d   1       3.703  -1.042  -3.011  0.00  0.00    -0.019 A 
ATOM     25  H   LIG d   1       2.604  -2.347  -4.295  0.00  0.00     0.062 H 
ATOM     26  C   LIG d   1       4.959  -0.661  -2.557  0.00  0.00     0.120 A 
ATOM     27  H   LIG d   1       2.820  -0.547  -2.634  0.00  0.00     0.065 H 
ATOM     28  C   LIG d   1       6.096  -1.295  -3.040  0.00  0.00    -0.019 A 
ATOM     29  C   LIG d   1       5.982  -2.308  -3.967  0.00  0.00    -0.049 A 
ATOM     30  H   LIG d   1       7.072  -0.996  -2.685  0.00  0.00     0.065 H 
ATOM     31  H   LIG d   1       6.867  -2.803  -4.339  0.00  0.00     0.062 H 
BRANCH  26  32
ATOM     32  O   LIG d   1       5.074   0.333  -1.639  0.00  0.00    -0.495 OA
BRANCH  32  33
ATOM     33  C   LIG d   1       4.255   1.488  -1.828  0.00  0.00     0.079 C 
ATOM     34  H   LIG d   1       4.788   2.373  -1.478  0.00  0.00     0.066 H 
ATOM     35  H   LIG d   1       4.023   1.601  -2.887  0.00  0.00     0.066 H 
ATOM     36  H   LIG d   1       3.330   1.375  -1.263  0.00  0.00     0.066 H 
ENDBRANCH  32  33
ENDBRANCH  26  32
ENDBRANCH   4  22
BRANCH   1  37
ATOM     37  C   LIG d   1       4.233  -6.866  -8.190  0.00  0.00    -0.003 C 
ATOM     38  H   LIG d   1       5.063  -7.561  -8.054  0.00  0.00     0.031 H 
ATOM     39  H   LIG d   1       3.292  -7.385  -8.013  0.00  0.00     0.031 H 
ATOM     40  H   LIG d   1       4.249  -6.477  -9.208  0.00  0.00     0.031 H 
ENDBRANCH   1  37
TORSDOF 7
ENDMDL
MODEL 3
REMARK VINA RESULT:      -5.1      0.756      4.693
REMARK  7 active torsions:
REMARK  status: ('A' for Active; 'I' for Inactive)
REMARK    1  A    between atoms: C_1  and  C_2 
REMARK    2  A    between atoms: C_4  and  C_16 
REMARK    3  A    between atoms: C_5  and  C_8 
REMARK    4  A    between atoms: C_11  and  O_14 
REMARK    5  A    between atoms: O_14  and  C_15 
REMARK    6  A    between atoms: C_19  and  O_22 
REMARK    7  A    between atoms: O_22  and  C_23 
ROOT
ATOM      1  C   LIG d   1       7.210  -5.372  -7.566  0.00  0.00     0.149 A 
ATOM      2  N   LIG d   1       6.683  -4.212  -7.912  0.00  0.00    -0.228 NA
ATOM      3  C   LIG d   1       6.232  -3.389  -6.967  0.00  0.00     0.101 A 
ATOM      4  C   LIG d   1       6.336  -3.793  -5.620  0.00  0.00     0.119 A 
ATOM      5  N   LIG d   1       6.879  -4.975  -5.348  0.00  0.00    -0.145 NA
ATOM      6  N   LIG d   1       7.299  -5.733  -6.299  0.00  0.00    -0.134 NA
ENDROOT
BRANCH   3   7
ATOM      7  C   LIG d   1       5.634  -2.082  -7.322  0.00  0.00     0.003 A 
ATOM      8  C   LIG d   1       4.257  -1.974  -7.519  0.00  0.00    -0.049 A 
ATOM      9  C   LIG d   1       3.704  -0.755  -7.849  0.00  0.00    -0.019 A 
ATOM     10  H   LIG d   1       3.625  -2.843  -7.412  0.00  0.00     0.062 H 
ATOM     11  C   LIG d   1       4.515   0.364  -7.985  0.00  0.00     0.120 A 
ATOM     12  H   LIG d   1       2.637  -0.671  -8.002  0.00  0.00     0.065 H 
ATOM     13  C   LIG d   1       5.886   0.259  -7.791  0.00  0.00    -0.019 A 
ATOM     14  C   LIG d   1       6.446  -0.955  -7.456  0.00  0.00    -0.049 A 
ATOM     15  H   LIG d   1       6.514   1.132  -7.898  0.00  0.00     0.065 H 
ATOM     16  H   LIG d   1       7.511  -1.035  -7.300  0.00  0.00     0.062 H 
BRANCH  11  17
ATOM     17  O   LIG d   1       3.966   1.564  -8.310  0.00  0.00    -0.495 OA
BRANCH  17  18
ATOM     18  C   LIG d   1       4.006   1.944  -9.687  0.00  0.00     0.079 C 
ATOM     19  H   LIG d   1       3.154   2.584  -9.912  0.00  0.00     0.066 H 
ATOM     20  H   LIG d   1       4.931   2.484  -9.888  0.00  0.00     0.066 H 
ATOM     21  H   LIG d   1       3.964   1.051 -10.311  0.00  0.00     0.066 H 
ENDBRANCH  17  18
ENDBRANCH  11  17
ENDBRANCH   3   7
BRANCH   4  22
ATOM     22  C   LIG d   1       5.851  -2.916  -4.529  0.00  0.00     0.004 A 
ATOM     23  C   LIG d   1       6.694  -1.950  -3.981  0.00  0.00    -0.049 A 
ATOM     24  C   LIG d   1       6.239  -1.136  -2.967  0.00  0.00    -0.019 A 
ATOM     25  H   LIG d   1       7.703  -1.840  -4.351  0.00  0.00     0.062 H 
ATOM     26  C   LIG d   1       4.942  -1.276  -2.491  0.00  0.00     0.120 A 
ATOM     27  H   LIG d   1       6.891  -0.388  -2.541  0.00  0.00     0.065 H 
ATOM     28  C   LIG d   1       4.100  -2.236  -3.035  0.00  0.00    -0.019 A 
ATOM     29  C   LIG d   1       4.546  -3.051  -4.053  0.00  0.00    -0.049 A 
ATOM     30  H   LIG d   1       3.091  -2.343  -2.662  0.00  0.00     0.065 H 
ATOM     31  H   LIG d   1       3.890  -3.795  -4.478  0.00  0.00     0.062 H 
BRANCH  26  32
ATOM     32  O   LIG d   1       4.496  -0.471  -1.492  0.00  0.00    -0.495 OA
BRANCH  32  33
ATOM     33  C   LIG d   1       4.511   0.936  -1.738  0.00  0.00     0.079 C 
ATOM     34  H   LIG d   1       5.249   1.412  -1.091  0.00  0.00     0.066 H 
ATOM     35  H   LIG d   1       4.769   1.121  -2.781  0.00  0.00     0.066 H 
ATOM     36  H   LIG d   1       3.525   1.352  -1.528  0.00  0.00     0.066 H 
ENDBRANCH  32  33
ENDBRANCH  26  32
ENDBRANCH   4  22
BRANCH   1  37
ATOM     37  C   LIG d   1       7.719  -6.301  -8.637  0.00  0.00    -0.003 C 
ATOM     38  H   LIG d   1       7.553  -5.854  -9.617  0.00  0.00     0.031 H 
ATOM     39  H   LIG d   1       8.786  -6.472  -8.492  0.00  0.00     0.031 H 
ATOM     40  H   LIG d   1       7.188  -7.251  -8.577  0.00  0.00     0.031 H 
ENDBRANCH   1  37
TORSDOF 7
ENDMDL
MODEL 4
REMARK VINA RESULT:      -5.0      2.640      4.146
REMARK  7 active torsions:
REMARK  status: ('A' for Active; 'I' for Inactive)
REMARK    1  A    between atoms: C_1  and  C_2 
REMARK    2  A    between atoms: C_4  and  C_16 
REMARK    3  A    between atoms: C_5  and  C_8 
REMARK    4  A    between atoms: C_11  and  O_14 
REMARK    5  A    between atoms: O_14  and  C_15 
REMARK    6  A    between atoms: C_19  and  O_22 
REMARK    7  A    between atoms: O_22  and  C_23 
ROOT
ATOM      1  C   LIG d   1       5.341  -6.913  -6.063  0.00  0.00     0.149 A 
ATOM      2  N   LIG d   1       6.404  -6.137  -5.959  0.00  0.00    -0.228 NA
ATOM      3  C   LIG d   1       6.255  -4.867  -5.587  0.00  0.00     0.101 A 
ATOM      4  C   LIG d   1       4.953  -4.396  -5.316  0.00  0.00     0.119 A 
ATOM      5  N   LIG d   1       3.931  -5.235  -5.443  0.00  0.00    -0.145 NA
ATOM      6  N   LIG d   1       4.130  -6.453  -5.805  0.00  0.00    -0.134 NA
ENDROOT
BRANCH   3   7
ATOM      7  C   LIG d   1       7.427  -3.971  -5.461  0.00  0.00     0.003 A 
ATOM      8  C   LIG d   1       7.856  -3.225  -6.559  0.00  0.00    -0.049 A 
ATOM      9  C   LIG d   1       8.948  -2.392  -6.438  0.00  0.00    -0.019 A 
ATOM     10  H   LIG d   1       7.334  -3.300  -7.502  0.00  0.00     0.062 H 
ATOM     11  C   LIG d   1       9.618  -2.294  -5.227  0.00  0.00     0.120 A 
ATOM     12  H   LIG d   1       9.281  -1.814  -7.288  0.00  0.00     0.065 H 
ATOM     13  C   LIG d   1       9.194  -3.036  -4.132  0.00  0.00    -0.019 A 
ATOM     14  C   LIG d   1       8.100  -3.868  -4.244  0.00  0.00    -0.049 A 
ATOM     15  H   LIG d   1       9.718  -2.958  -3.191  0.00  0.00     0.065 H 
ATOM     16  H   LIG d   1       7.767  -4.441  -3.391  0.00  0.00     0.062 H 
BRANCH  11  17
ATOM     17  O   LIG d   1      10.693  -1.471  -5.111  0.00  0.00    -0.495 OA
BRANCH  17  18
ATOM     18  C   LIG d   1      10.474  -0.080  -5.355  0.00  0.00     0.079 C 
ATOM     19  H   LIG d   1      11.079   0.240  -6.203  0.00  0.00     0.066 H 
ATOM     20  H   LIG d   1       9.420   0.088  -5.574  0.00  0.00     0.066 H 
ATOM     21  H   LIG d   1      10.757   0.492  -4.471  0.00  0.00     0.066 H 
ENDBRANCH  17  18
ENDBRANCH  11  17
ENDBRANCH   3   7
BRANCH   4  22
ATOM     22  C   LIG d   1       4.731  -2.992  -4.899  0.00  0.00     0.004 A 
ATOM     23  C   LIG d   1       4.634  -2.672  -3.544  0.00  0.00    -0.049 A 
ATOM     24  C   LIG d   1       4.427  -1.365  -3.160  0.00  0.00    -0.019 A 
ATOM     25  H   LIG d   1       4.720  -3.448  -2.798  0.00  0.00     0.062 H 
ATOM     26  C   LIG d   1       4.316  -0.367  -4.119  0.00  0.00     0.120 A 
ATOM     27  H   LIG d   1       4.351  -1.117  -2.112  0.00  0.00     0.065 H 
ATOM     28  C   LIG d   1       4.412  -0.682  -5.468  0.00  0.00    -0.019 A 
ATOM     29  C   LIG d   1       4.624  -1.986  -5.860  0.00  0.00    -0.049 A 
ATOM     30  H   LIG d   1       4.325   0.097  -6.211  0.00  0.00     0.065 H 
ATOM     31  H   LIG d   1       4.703  -2.229  -6.908  0.00  0.00     0.062 H 
BRANCH  26  32
ATOM     32  O   LIG d   1       4.113   0.920  -3.736  0.00  0.00    -0.495 OA
BRANCH  32  33
ATOM     33  C   LIG d   1       3.735   1.140  -2.376  0.00  0.00     0.079 C 
ATOM     34  H   LIG d   1       4.134   0.339  -1.753  0.00  0.00     0.066 H 
ATOM     35  H   LIG d   1       4.134   2.096  -2.036  0.00  0.00     0.066 H 
ATOM     36  H   LIG d   1       2.647   1.152  -2.298  0.00  0.00     0.066 H 
ENDBRANCH  32  33
ENDBRANCH  26  32
ENDBRANCH   4  22
BRANCH   1  37
ATOM     37  C   LIG d   1       5.511  -8.349  -6.484  0.00  0.00    -0.003 C 
ATOM     38  H   LIG d   1       4.533  -8.824  -6.563  0.00  0.00     0.031 H 
ATOM     39  H   LIG d   1       6.012  -8.387  -7.451  0.00  0.00     0.031 H 
ATOM     40  H   LIG d   1       6.112  -8.877  -5.743  0.00  0.00     0.031 H 
ENDBRANCH   1  37
TORSDOF 7
ENDMDL
MODEL 5
REMARK VINA RESULT:      -4.9      3.397      5.545
REMARK  7 active torsions:
REMARK  status: ('A' for Active; 'I' for Inactive)
REMARK    1  A    between atoms: C_1  and  C_2 
REMARK    2  A    between atoms: C_4  and  C_16 
REMARK    3  A    between atoms: C_5  and  C_8 
REMARK    4  A    between atoms: C_11  and  O_14 
REMARK    5  A    between atoms: O_14  and  C_15 
REMARK    6  A    between atoms: C_19  and  O_22 
REMARK    7  A    between atoms: O_22  and  C_23 
ROOT
ATOM      1  C   LIG d   1       3.598   0.320  -3.841  0.00  0.00     0.149 A 
ATOM      2  N   LIG d   1       4.321  -0.615  -4.430  0.00  0.00    -0.228 NA
ATOM      3  C   LIG d   1       4.285  -0.732  -5.756  0.00  0.00     0.101 A 
ATOM      4  C   LIG d   1       3.466   0.155  -6.486  0.00  0.00     0.119 A 
ATOM      5  N   LIG d   1       2.767   1.070  -5.825  0.00  0.00    -0.145 NA
ATOM      6  N   LIG d   1       2.838   1.141  -4.541  0.00  0.00    -0.134 NA
ENDROOT
BRANCH   3   7
ATOM      7  C   LIG d   1       5.084  -1.770  -6.447  0.00  0.00     0.003 A 
ATOM      8  C   LIG d   1       6.366  -1.471  -6.909  0.00  0.00    -0.049 A 
ATOM      9  C   LIG d   1       7.107  -2.440  -7.552  0.00  0.00    -0.019 A 
ATOM     10  H   LIG d   1       6.779  -0.484  -6.762  0.00  0.00     0.062 H 
ATOM     11  C   LIG d   1       6.579  -3.710  -7.739  0.00  0.00     0.120 A 
ATOM     12  H   LIG d   1       8.101  -2.210  -7.909  0.00  0.00     0.065 H 
ATOM     13  C   LIG d   1       5.303  -4.010  -7.282  0.00  0.00    -0.019 A 
ATOM     14  C   LIG d   1       4.557  -3.049  -6.634  0.00  0.00    -0.049 A 
ATOM     15  H   LIG d   1       4.895  -4.999  -7.430  0.00  0.00     0.065 H 
ATOM     16  H   LIG d   1       3.567  -3.283  -6.274  0.00  0.00     0.062 H 
BRANCH  11  17
ATOM     17  O   LIG d   1       7.313  -4.663  -8.373  0.00  0.00    -0.495 OA
BRANCH  17  18
ATOM     18  C   LIG d   1       7.349  -5.959  -7.773  0.00  0.00     0.079 C 
ATOM     19  H   LIG d   1       8.218  -6.505  -8.141  0.00  0.00     0.066 H 
ATOM     20  H   LIG d   1       7.415  -5.856  -6.690  0.00  0.00     0.066 H 
ATOM     21  H   LIG d   1       6.441  -6.504  -8.032  0.00  0.00     0.066 H 
ENDBRANCH  17  18
ENDBRANCH  11  17
ENDBRANCH   3   7
BRANCH   4  22
ATOM     22  C   LIG d   1       3.389   0.068  -7.963  0.00  0.00     0.004 A 
ATOM     23  C   LIG d   1       2.457  -0.777  -8.565  0.00  0.00    -0.049 A 
ATOM     24  C   LIG d   1       2.387  -0.855  -9.940  0.00  0.00    -0.019 A 
ATOM     25  H   LIG d   1       1.790  -1.369  -7.956  0.00  0.00     0.062 H 
ATOM     26  C   LIG d   1       3.244  -0.094 -10.724  0.00  0.00     0.120 A 
ATOM     27  H   LIG d   1       1.666  -1.510 -10.407  0.00  0.00     0.065 H 
ATOM     28  C   LIG d   1       4.172   0.748 -10.127  0.00  0.00    -0.019 A 
ATOM     29  C   LIG d   1       4.244   0.835  -8.754  0.00  0.00    -0.049 A 
ATOM     30  H   LIG d   1       4.837   1.339 -10.741  0.00  0.00     0.065 H 
ATOM     31  H   LIG d   1       4.964   1.493  -8.291  0.00  0.00     0.062 H 
BRANCH  26  32
ATOM     32  O   LIG d   1       3.172  -0.173 -12.078  0.00  0.00    -0.495 OA
BRANCH  32  33
ATOM     33  C   LIG d   1       2.687  -1.399 -12.631  0.00  0.00     0.079 C 
ATOM     34  H   LIG d   1       3.321  -2.223 -12.303  0.00  0.00     0.066 H 
ATOM     35  H   LIG d   1       1.665  -1.571 -12.294  0.00  0.00     0.066 H 
ATOM     36  H   LIG d   1       2.705  -1.339 -13.719  0.00  0.00     0.066 H 
ENDBRANCH  32  33
ENDBRANCH  26  32
ENDBRANCH   4  22
BRANCH   1  37
ATOM     37  C   LIG d   1       3.640   0.451  -2.340  0.00  0.00    -0.003 C 
ATOM     38  H   LIG d   1       2.635   0.646  -1.964  0.00  0.00     0.031 H 
ATOM     39  H   LIG d   1       4.018  -0.474  -1.905  0.00  0.00     0.031 H 
ATOM     40  H   LIG d   1       4.297   1.276  -2.066  0.00  0.00     0.031 H 
ENDBRANCH   1  37
TORSDOF 7
ENDMDL
MODEL 6
REMARK VINA RESULT:      -4.8     11.539     13.834
REMARK  7 active torsions:
REMARK  status: ('A' for Active; 'I' for Inactive)
REMARK    1  A    between atoms: C_1  and  C_2 
REMARK    2  A    between atoms: C_4  and  C_16 
REMARK    3  A    between atoms: C_5  and  C_8 
REMARK    4  A    between atoms: C_11  and  O_14 
REMARK    5  A    between atoms: O_14  and  C_15 
REMARK    6  A    between atoms: C_19  and  O_22 
REMARK    7  A    between atoms: O_22  and  C_23 
ROOT
ATOM      1  C   LIG d   1      11.300   6.998   3.539  0.00  0.00     0.149 A 
ATOM      2  N   LIG d   1      11.530   8.092   2.836  0.00  0.00    -0.228 NA
ATOM      3  C   LIG d   1      11.423   8.052   1.509  0.00  0.00     0.101 A 
ATOM      4  C   LIG d   1      11.065   6.831   0.901  0.00  0.00     0.119 A 
ATOM      5  N   LIG d   1      10.849   5.772   1.674  0.00  0.00    -0.145 NA
ATOM      6  N   LIG d   1      10.966   5.864   2.952  0.00  0.00    -0.134 NA
ENDROOT
BRANCH   3   7
ATOM      7  C   LIG d   1      11.675   9.261   0.691  0.00  0.00     0.003 A 
ATOM      8  C   LIG d   1      10.634  10.150   0.422  0.00  0.00    -0.049 A 
ATOM      9  C   LIG d   1      10.872  11.274  -0.340  0.00  0.00    -0.019 A 
ATOM     10  H   LIG d   1       9.644   9.959   0.809  0.00  0.00     0.062 H 
ATOM     11  C   LIG d   1      12.145  11.522  -0.837  0.00  0.00     0.120 A 
ATOM     12  H   LIG d   1      10.067  11.964  -0.549  0.00  0.00     0.065 H 
ATOM     13  C   LIG d   1      13.182  10.638  -0.570  0.00  0.00    -0.019 A 
ATOM     14  C   LIG d   1      12.953   9.514   0.194  0.00  0.00    -0.049 A 
ATOM     15  H   LIG d   1      14.171  10.834  -0.960  0.00  0.00     0.065 H 
ATOM     16  H   LIG d   1      13.761   8.830   0.405  0.00  0.00     0.062 H 
BRANCH  11  17
ATOM     17  O   LIG d   1      12.376  12.632  -1.586  0.00  0.00    -0.495 OA
BRANCH  17  18
ATOM     18  C   LIG d   1      11.247  13.449  -1.900  0.00  0.00     0.079 C 
ATOM     19  H   LIG d   1      10.819  13.846  -0.980  0.00  0.00     0.066 H 
ATOM     20  H   LIG d   1      11.562  14.273  -2.541  0.00  0.00     0.066 H 
ATOM     21  H   LIG d   1      10.499  12.850  -2.420  0.00  0.00     0.066 H 
ENDBRANCH  17  18
ENDBRANCH  11  17
ENDBRANCH   3   7
BRANCH   4  22
ATOM     22  C   LIG d   1      10.931   6.731  -0.571  0.00  0.00     0.004 A 
ATOM     23  C   LIG d   1      12.029   6.362  -1.349  0.00  0.00    -0.049 A 
ATOM     24  C   LIG d   1      11.901   6.270  -2.718  0.00  0.00    -0.019 A 
ATOM     25  H   LIG d   1      12.978   6.149  -0.878  0.00  0.00     0.062 H 
ATOM     26  C   LIG d   1      10.682   6.543  -3.323  0.00  0.00     0.120 A 
ATOM     27  H   LIG d   1      12.751   5.985  -3.321  0.00  0.00     0.065 H 
ATOM     28  C   LIG d   1       9.588   6.910  -2.551  0.00  0.00    -0.019 A 
ATOM     29  C   LIG d   1       9.706   7.000  -1.181  0.00  0.00    -0.049 A 
ATOM     30  H   LIG d   1       8.640   7.123  -3.026  0.00  0.00     0.065 H 
ATOM     31  H   LIG d   1       8.854   7.281  -0.582  0.00  0.00     0.062 H 
BRANCH  26  32
ATOM     32  O   LIG d   1      10.560   6.451  -4.673  0.00  0.00    -0.495 OA
BRANCH  32  33
ATOM     33  C   LIG d   1       9.607   7.312  -5.298  0.00  0.00     0.079 C 
ATOM     34  H   LIG d   1       9.963   8.342  -5.254  0.00  0.00     0.066 H 
ATOM     35  H   LIG d   1       9.477   7.017  -6.339  0.00  0.00     0.066 H 
ATOM     36  H   LIG d   1       8.652   7.236  -4.777  0.00  0.00     0.066 H 
ENDBRANCH  32  33
ENDBRANCH  26  32
ENDBRANCH   4  22
BRANCH   1  37
ATOM     37  C   LIG d   1      11.423   7.045   5.040  0.00  0.00    -0.003 C 
ATOM     38  H   LIG d   1      11.314   6.039   5.446  0.00  0.00     0.031 H 
ATOM     39  H   LIG d   1      12.400   7.443   5.313  0.00  0.00     0.031 H 
ATOM     40  H   LIG d   1      10.642   7.687   5.449  0.00  0.00     0.031 H 
ENDBRANCH   1  37
TORSDOF 7
ENDMDL
MODEL 7
REMARK VINA RESULT:      -4.7      1.996      2.547
REMARK  7 active torsions:
REMARK  status: ('A' for Active; 'I' for Inactive)
REMARK    1  A    between atoms: C_1  and  C_2 
REMARK    2  A    between atoms: C_4  and  C_16 
REMARK    3  A    between atoms: C_5  and  C_8 
REMARK    4  A    between atoms: C_11  and  O_14 
REMARK    5  A    between atoms: O_14  and  C_15 
REMARK    6  A    between atoms: C_19  and  O_22 
REMARK    7  A    between atoms: O_22  and  C_23 
ROOT
ATOM      1  C   LIG d   1       9.341  -4.131  -3.790  0.00  0.00     0.149 A 
ATOM      2  N   LIG d   1       8.468  -3.290  -3.268  0.00  0.00    -0.228 NA
ATOM      3  C   LIG d   1       7.532  -2.750  -4.047  0.00  0.00     0.101 A 
ATOM      4  C   LIG d   1       7.512  -3.100  -5.413  0.00  0.00     0.119 A 
ATOM      5  N   LIG d   1       8.423  -3.953  -5.868  0.00  0.00    -0.145 NA
ATOM      6  N   LIG d   1       9.306  -4.447  -5.072  0.00  0.00    -0.134 NA
ENDROOT
BRANCH   3   7
ATOM      7  C   LIG d   1       6.538  -1.803  -3.492  0.00  0.00     0.003 A 
ATOM      8  C   LIG d   1       6.820  -0.437  -3.454  0.00  0.00    -0.049 A 
ATOM      9  C   LIG d   1       5.892   0.442  -2.937  0.00  0.00    -0.019 A 
ATOM     10  H   LIG d   1       7.764  -0.068  -3.830  0.00  0.00     0.062 H 
ATOM     11  C   LIG d   1       4.679  -0.031  -2.456  0.00  0.00     0.120 A 
ATOM     12  H   LIG d   1       6.110   1.500  -2.908  0.00  0.00     0.065 H 
ATOM     13  C   LIG d   1       4.396  -1.390  -2.491  0.00  0.00    -0.019 A 
ATOM     14  C   LIG d   1       5.316  -2.274  -3.011  0.00  0.00    -0.049 A 
ATOM     15  H   LIG d   1       3.451  -1.754  -2.115  0.00  0.00     0.065 H 
ATOM     16  H   LIG d   1       5.094  -3.330  -3.042  0.00  0.00     0.062 H 
BRANCH  11  17
ATOM     17  O   LIG d   1       3.766   0.838  -1.947  0.00  0.00    -0.495 OA
BRANCH  17  18
ATOM     18  C   LIG d   1       3.296   1.868  -2.819  0.00  0.00     0.079 C 
ATOM     19  H   LIG d   1       3.178   1.466  -3.826  0.00  0.00     0.066 H 
ATOM     20  H   LIG d   1       2.335   2.237  -2.460  0.00  0.00     0.066 H 
ATOM     21  H   LIG d   1       4.015   2.686  -2.837  0.00  0.00     0.066 H 
ENDBRANCH  17  18
ENDBRANCH  11  17
ENDBRANCH   3   7
BRANCH   4  22
ATOM     22  C   LIG d   1       6.493  -2.528  -6.323  0.00  0.00     0.004 A 
ATOM     23  C   LIG d   1       5.297  -3.210  -6.551  0.00  0.00    -0.049 A 
ATOM     24  C   LIG d   1       4.352  -2.675  -7.399  0.00  0.00    -0.019 A 
ATOM     25  H   LIG d   1       5.114  -4.157  -6.065  0.00  0.00     0.062 H 
ATOM     26  C   LIG d   1       4.587  -1.458  -8.025  0.00  0.00     0.120 A 
ATOM     27  H   LIG d   1       3.426  -3.202  -7.576  0.00  0.00     0.065 H 
ATOM     28  C   LIG d   1       5.776  -0.776  -7.799  0.00  0.00    -0.019 A 
ATOM     29  C   LIG d   1       6.724  -1.303  -6.949  0.00  0.00    -0.049 A 
ATOM     30  H   LIG d   1       5.956   0.170  -8.288  0.00  0.00     0.065 H 
ATOM     31  H   LIG d   1       7.646  -0.771  -6.772  0.00  0.00     0.062 H 
BRANCH  26  32
ATOM     32  O   LIG d   1       3.652  -0.933  -8.859  0.00  0.00    -0.495 OA
BRANCH  32  33
ATOM     33  C   LIG d   1       4.116  -0.038  -9.872  0.00  0.00     0.079 C 
ATOM     34  H   LIG d   1       4.728   0.741  -9.417  0.00  0.00     0.066 H 
ATOM     35  H   LIG d   1       4.712  -0.590 -10.599  0.00  0.00     0.066 H 
ATOM     36  H   LIG d   1       3.262   0.417 -10.373  0.00  0.00     0.066 H 
ENDBRANCH  32  33
ENDBRANCH  26  32
ENDBRANCH   4  22
BRANCH   1  37
ATOM     37  C   LIG d   1      10.399  -4.741  -2.908  0.00  0.00    -0.003 C 
ATOM     38  H   LIG d   1      11.244  -5.059  -3.520  0.00  0.00     0.031 H 
ATOM     39  H   LIG d   1      10.735  -4.003  -2.180  0.00  0.00     0.031 H 
ATOM     40  H   LIG d   1       9.984  -5.604  -2.386  0.00  0.00     0.031 H 
ENDBRANCH   1  37
TORSDOF 7
ENDMDL
MODEL 8
REMARK VINA RESULT:      -4.7      9.078     11.485
REMARK  7 active torsions:
REMARK  status: ('A' for Active; 'I' for Inactive)
REMARK    1  A    between atoms: C_1  and  C_2 
REMARK    2  A    between atoms: C_4  and  C_16 
REMARK    3  A    between atoms: C_5  and  C_8 
REMARK    4  A    between atoms: C_11  and  O_14 
REMARK    5  A    between atoms: O_14  and  C_15 
REMARK    6  A    between atoms: C_19  and  O_22 
REMARK    7  A    between atoms: O_22  and  C_23 
ROOT
ATOM      1  C   LIG d   1       9.317   8.191  -6.798  0.00  0.00     0.149 A 
ATOM      2  N   LIG d   1       9.597   6.929  -6.531  0.00  0.00    -0.228 NA
ATOM      3  C   LIG d   1      10.024   6.595  -5.315  0.00  0.00     0.101 A 
ATOM      4  C   LIG d   1      10.163   7.615  -4.349  0.00  0.00     0.119 A 
ATOM      5  N   LIG d   1       9.863   8.863  -4.691  0.00  0.00    -0.145 NA
ATOM      6  N   LIG d   1       9.453   9.132  -5.881  0.00  0.00    -0.134 NA
ENDROOT
BRANCH   3   7
ATOM      7  C   LIG d   1      10.346   5.189  -4.983  0.00  0.00     0.003 A 
ATOM      8  C   LIG d   1       9.336   4.320  -4.569  0.00  0.00    -0.049 A 
ATOM      9  C   LIG d   1       9.640   3.011  -4.261  0.00  0.00    -0.019 A 
ATOM     10  H   LIG d   1       8.318   4.671  -4.490  0.00  0.00     0.062 H 
ATOM     11  C   LIG d   1      10.948   2.557  -4.364  0.00  0.00     0.120 A 
ATOM     12  H   LIG d   1       8.858   2.337  -3.941  0.00  0.00     0.065 H 
ATOM     13  C   LIG d   1      11.956   3.420  -4.775  0.00  0.00    -0.019 A 
ATOM     14  C   LIG d   1      11.659   4.729  -5.089  0.00  0.00    -0.049 A 
ATOM     15  H   LIG d   1      12.972   3.063  -4.853  0.00  0.00     0.065 H 
ATOM     16  H   LIG d   1      12.442   5.398  -5.413  0.00  0.00     0.062 H 
BRANCH  11  17
ATOM     17  O   LIG d   1      11.244   1.266  -4.061  0.00  0.00    -0.495 OA
BRANCH  17  18
ATOM     18  C   LIG d   1      12.623   0.942  -3.878  0.00  0.00     0.079 C 
ATOM     19  H   LIG d   1      12.709   0.069  -3.231  0.00  0.00     0.066 H 
ATOM     20  H   LIG d   1      13.076   0.724  -4.846  0.00  0.00     0.066 H 
ATOM     21  H   LIG d   1      13.137   1.787  -3.420  0.00  0.00     0.066 H 
ENDBRANCH  17  18
ENDBRANCH  11  17
ENDBRANCH   3   7
BRANCH   4  22
ATOM     22  C   LIG d   1      10.634   7.299  -2.981  0.00  0.00     0.004 A 
ATOM     23  C   LIG d   1      11.986   7.427  -2.661  0.00  0.00    -0.049 A 
ATOM     24  C   LIG d   1      12.421   7.133  -1.387  0.00  0.00    -0.019 A 
ATOM     25  H   LIG d   1      12.691   7.756  -3.410  0.00  0.00     0.062 H 
ATOM     26  C   LIG d   1      11.516   6.710  -0.422  0.00  0.00     0.120 A 
ATOM     27  H   LIG d   1      13.468   7.232  -1.138  0.00  0.00     0.065 H 
ATOM     28  C   LIG d   1      10.170   6.582  -0.738  0.00  0.00    -0.019 A 
ATOM     29  C   LIG d   1       9.727   6.880  -2.008  0.00  0.00    -0.049 A 
ATOM     30  H   LIG d   1       9.468   6.253   0.015  0.00  0.00     0.065 H 
ATOM     31  H   LIG d   1       8.679   6.784  -2.252  0.00  0.00     0.062 H 
BRANCH  26  32
ATOM     32  O   LIG d   1      11.949   6.422   0.833  0.00  0.00    -0.495 OA
BRANCH  32  33
ATOM     33  C   LIG d   1      11.019   5.780   1.707  0.00  0.00     0.079 C 
ATOM     34  H   LIG d   1      10.963   6.331   2.647  0.00  0.00     0.066 H 
ATOM     35  H   LIG d   1      10.034   5.759   1.240  0.00  0.00     0.066 H 
ATOM     36  H   LIG d   1      11.350   4.761   1.905  0.00  0.00     0.066 H 
ENDBRANCH  32  33
ENDBRANCH  26  32
ENDBRANCH   4  22
BRANCH   1  37
ATOM     37  C   LIG d   1       8.834   8.566  -8.175  0.00  0.00    -0.003 C 
ATOM     38  H   LIG d   1       9.379   7.988  -8.922  0.00  0.00     0.031 H 
ATOM     39  H   LIG d   1       7.769   8.351  -8.257  0.00  0.00     0.031 H 
ATOM     40  H   LIG d   1       9.004   9.629  -8.343  0.00  0.00     0.031 H 
ENDBRANCH   1  37
TORSDOF 7
ENDMDL
MODEL 9
REMARK VINA RESULT:      -4.5      8.893     11.144
REMARK  7 active torsions:
REMARK  status: ('A' for Active; 'I' for Inactive)
REMARK    1  A    between atoms: C_1  and  C_2 
REMARK    2  A    between atoms: C_4  and  C_16 
REMARK    3  A    between atoms: C_5  and  C_8 
REMARK    4  A    between atoms: C_11  and  O_14 
REMARK    5  A    between atoms: O_14  and  C_15 
REMARK    6  A    between atoms: C_19  and  O_22 
REMARK    7  A    between atoms: O_22  and  C_23 
ROOT
ATOM      1  C   LIG d   1       8.947   2.717  -4.870  0.00  0.00     0.149 A 
ATOM      2  N   LIG d   1       9.269   3.933  -5.271  0.00  0.00    -0.228 NA
ATOM      3  C   LIG d   1       9.833   4.779  -4.412  0.00  0.00     0.101 A 
ATOM      4  C   LIG d   1      10.066   4.339  -3.092  0.00  0.00     0.119 A 
ATOM      5  N   LIG d   1       9.714   3.101  -2.760  0.00  0.00    -0.145 NA
ATOM      6  N   LIG d   1       9.172   2.323  -3.630  0.00  0.00    -0.134 NA
ENDROOT
BRANCH   3   7
ATOM      7  C   LIG d   1      10.207   6.149  -4.830  0.00  0.00     0.003 A 
ATOM      8  C   LIG d   1      11.545   6.466  -5.070  0.00  0.00    -0.049 A 
ATOM      9  C   LIG d   1      11.888   7.743  -5.460  0.00  0.00    -0.019 A 
ATOM     10  H   LIG d   1      12.309   5.712  -4.952  0.00  0.00     0.062 H 
ATOM     11  C   LIG d   1      10.906   8.712  -5.614  0.00  0.00     0.120 A 
ATOM     12  H   LIG d   1      12.924   7.989  -5.647  0.00  0.00     0.065 H 
ATOM     13  C   LIG d   1       9.574   8.400  -5.375  0.00  0.00    -0.019 A 
ATOM     14  C   LIG d   1       9.222   7.124  -4.990  0.00  0.00    -0.049 A 
ATOM     15  H   LIG d   1       8.813   9.157  -5.496  0.00  0.00     0.065 H 
ATOM     16  H   LIG d   1       8.186   6.881  -4.809  0.00  0.00     0.062 H 
BRANCH  11  17
ATOM     17  O   LIG d   1      11.249   9.969  -6.000  0.00  0.00    -0.495 OA
BRANCH  17  18
ATOM     18  C   LIG d   1      10.188  10.832  -6.415  0.00  0.00     0.079 C 
ATOM     19  H   LIG d   1      10.569  11.847  -6.529  0.00  0.00     0.066 H 
ATOM     20  H   LIG d   1       9.789  10.483  -7.368  0.00  0.00     0.066 H 
ATOM     21  H   LIG d   1       9.398  10.823  -5.665  0.00  0.00     0.066 H 
ENDBRANCH  17  18
ENDBRANCH  11  17
ENDBRANCH   3   7
BRANCH   4  22
ATOM     22  C   LIG d   1      10.690   5.239  -2.095  0.00  0.00     0.004 A 
ATOM     23  C   LIG d   1      12.031   5.075  -1.748  0.00  0.00    -0.049 A 
ATOM     24  C   LIG d   1      12.609   5.914  -0.820  0.00  0.00    -0.019 A 
ATOM     25  H   LIG d   1      12.616   4.290  -2.205  0.00  0.00     0.062 H 
ATOM     26  C   LIG d   1      11.858   6.923  -0.231  0.00  0.00     0.120 A 
ATOM     27  H   LIG d   1      13.647   5.787  -0.550  0.00  0.00     0.065 H 
ATOM     28  C   LIG d   1      10.523   7.089  -0.575  0.00  0.00    -0.019 A 
ATOM     29  C   LIG d   1       9.940   6.257  -1.506  0.00  0.00    -0.049 A 
ATOM     30  H   LIG d   1       9.941   7.875  -0.115  0.00  0.00     0.065 H 
ATOM     31  H   LIG d   1       8.903   6.390  -1.775  0.00  0.00     0.062 H 
BRANCH  26  32
ATOM     32  O   LIG d   1      12.431   7.749   0.682  0.00  0.00    -0.495 OA
BRANCH  32  33
ATOM     33  C   LIG d   1      11.564   8.644   1.381  0.00  0.00     0.079 C 
ATOM     34  H   LIG d   1      10.684   8.101   1.729  0.00  0.00     0.066 H 
ATOM     35  H   LIG d   1      12.090   9.068   2.236  0.00  0.00     0.066 H 
ATOM     36  H   LIG d   1      11.253   9.446   0.711  0.00  0.00     0.066 H 
ENDBRANCH  32  33
ENDBRANCH  26  32
ENDBRANCH   4  22
BRANCH   1  37
ATOM     37  C   LIG d   1       8.309   1.762  -5.845  0.00  0.00    -0.003 C 
ATOM     38  H   LIG d   1       7.492   2.264  -6.365  0.00  0.00     0.031 H 
ATOM     39  H   LIG d   1       9.053   1.432  -6.570  0.00  0.00     0.031 H 
ATOM     40  H   LIG d   1       7.919   0.899  -5.305  0.00  0.00     0.031 H 
ENDBRANCH   1  37
TORSDOF 7
ENDMDL
MODEL 10
REMARK VINA RESULT:      -4.5      8.945     11.672
REMARK  7 active torsions:
REMARK  status: ('A' for Active; 'I' for Inactive)
REMARK    1  A    between atoms: C_1  and  C_2 
REMARK    2  A    between atoms: C_4  and  C_16 
REMARK    3  A    between atoms: C_5  and  C_8 
REMARK    4  A    between atoms: C_11  and  O_14 
REMARK    5  A    between atoms: O_14  and  C_15 
REMARK    6  A    between atoms: C_19  and  O_22 
REMARK    7  A    between atoms: O_22  and  C_23 
ROOT
ATOM      1  C   LIG d   1       9.667   8.470  -1.152  0.00  0.00     0.149 A 
ATOM      2  N   LIG d   1       9.907   8.386  -2.447  0.00  0.00    -0.228 NA
ATOM      3  C   LIG d   1      10.232   7.208  -2.978  0.00  0.00     0.101 A 
ATOM      4  C   LIG d   1      10.309   6.087  -2.126  0.00  0.00     0.119 A 
ATOM      5  N   LIG d   1      10.055   6.248  -0.833  0.00  0.00    -0.145 NA
ATOM      6  N   LIG d   1       9.744   7.409  -0.370  0.00  0.00    -0.134 NA
ENDROOT
BRANCH   3   7
ATOM      7  C   LIG d   1      10.507   7.080  -4.428  0.00  0.00     0.003 A 
ATOM      8  C   LIG d   1       9.481   6.723  -5.304  0.00  0.00    -0.049 A 
ATOM      9  C   LIG d   1       9.741   6.605  -6.653  0.00  0.00    -0.019 A 
ATOM     10  H   LIG d   1       8.485   6.541  -4.927  0.00  0.00     0.062 H 
ATOM     11  C   LIG d   1      11.020   6.840  -7.139  0.00  0.00     0.120 A 
ATOM     12  H   LIG d   1       8.947   6.329  -7.332  0.00  0.00     0.065 H 
ATOM     13  C   LIG d   1      12.043   7.195  -6.269  0.00  0.00    -0.019 A 
ATOM     14  C   LIG d   1      11.790   7.320  -4.920  0.00  0.00    -0.049 A 
ATOM     15  H   LIG d   1      13.037   7.376  -6.651  0.00  0.00     0.065 H 
ATOM     16  H   LIG d   1      12.585   7.600  -4.244  0.00  0.00     0.062 H 
BRANCH  11  17
ATOM     17  O   LIG d   1      11.272   6.723  -8.469  0.00  0.00    -0.495 OA
BRANCH  17  18
ATOM     18  C   LIG d   1      10.539   5.726  -9.183  0.00  0.00     0.079 C 
ATOM     19  H   LIG d   1      11.058   5.489 -10.111  0.00  0.00     0.066 H 
ATOM     20  H   LIG d   1      10.458   4.827  -8.570  0.00  0.00     0.066 H 
ATOM     21  H   LIG d   1       9.542   6.101  -9.410  0.00  0.00     0.066 H 
ENDBRANCH  17  18
ENDBRANCH  11  17
ENDBRANCH   3   7
BRANCH   4  22
ATOM     22  C   LIG d   1      10.667   4.754  -2.664  0.00  0.00     0.004 A 
ATOM     23  C   LIG d   1       9.664   3.852  -3.020  0.00  0.00    -0.049 A 
ATOM     24  C   LIG d   1      10.000   2.613  -3.521  0.00  0.00    -0.019 A 
ATOM     25  H   LIG d   1       8.625   4.124  -2.903  0.00  0.00     0.062 H 
ATOM     26  C   LIG d   1      11.335   2.261  -3.672  0.00  0.00     0.120 A 
ATOM     27  H   LIG d   1       9.224   1.913  -3.796  0.00  0.00     0.065 H 
ATOM     28  C   LIG d   1      12.335   3.157  -3.319  0.00  0.00    -0.019 A 
ATOM     29  C   LIG d   1      12.007   4.400  -2.822  0.00  0.00    -0.049 A 
ATOM     30  H   LIG d   1      13.374   2.881  -3.437  0.00  0.00     0.065 H 
ATOM     31  H   LIG d   1      12.785   5.098  -2.552  0.00  0.00     0.062 H 
BRANCH  26  32
ATOM     32  O   LIG d   1      11.663   1.040  -4.166  0.00  0.00    -0.495 OA
BRANCH  32  33
ATOM     33  C   LIG d   1      12.967   0.544  -3.858  0.00  0.00     0.079 C 
ATOM     34  H   LIG d   1      13.352   1.056  -2.976  0.00  0.00     0.066 H 
ATOM     35  H   LIG d   1      12.913  -0.527  -3.661  0.00  0.00     0.066 H 
ATOM     36  H   LIG d   1      13.633   0.725  -4.702  0.00  0.00     0.066 H 
ENDBRANCH  32  33
ENDBRANCH  26  32
ENDBRANCH   4  22
BRANCH   1  37
ATOM     37  C   LIG d   1       9.300   9.803  -0.554  0.00  0.00    -0.003 C 
ATOM     38  H   LIG d   1       9.780  10.602  -1.121  0.00  0.00     0.031 H 
ATOM     39  H   LIG d   1       8.218   9.932  -0.591  0.00  0.00     0.031 H 
ATOM     40  H   LIG d   1       9.635   9.842   0.483  0.00  0.00     0.031 H 
ENDBRANCH   1  37
TORSDOF 7
ENDMDL
