MODEL 1
REMARK VINA RESULT:      -7.2      0.000      0.000
REMARK  9 active torsions:
REMARK  status: ('A' for Active; 'I' for Inactive)
REMARK    1  A    between atoms: C_1  and  C_2 
REMARK    2  A    between atoms: C_5  and  C_8 
REMARK       I    between atoms: C_8  and  N_10 
REMARK    3  A    between atoms: N_10  and  C_11 
REMARK    4  A    between atoms: C_21  and  N_23 
REMARK    5  A    between atoms: C_24  and  O_28 
REMARK    6  A    between atoms: O_28  and  C_29 
REMARK    7  A    between atoms: C_33  and  N_35 
REMARK    8  A    between atoms: N_35  and  C_36 
REMARK    9  A    between atoms: N_35  and  C_37 
ROOT
ATOM      1  C   LIG d   1       9.831   2.827  -3.956  0.00  0.00     0.075 C 
ATOM      2  H   LIG d   1      10.418   2.265  -4.681  0.00  0.00     0.055 H 
ATOM      3  C   LIG d   1       9.348   4.161  -4.556  0.00  0.00     0.069 C 
ATOM      4  O   LIG d   1       9.337   5.115  -3.490  0.00  0.00    -0.370 OA
ATOM      5  C   LIG d   1      10.158   4.676  -2.413  0.00  0.00     0.111 C 
ATOM      6  H   LIG d   1       9.604   4.646  -1.476  0.00  0.00     0.065 H 
ATOM      7  C   LIG d   1      10.715   3.275  -2.769  0.00  0.00     0.107 C 
ATOM      8  H   LIG d   1      10.690   2.578  -1.931  0.00  0.00     0.064 H 
ATOM      9  O   LIG d   1      12.050   3.500  -3.274  0.00  0.00    -0.370 OA
ATOM     10  C   LIG d   1      12.588   4.594  -2.484  0.00  0.00     0.073 C 
ATOM     11  C   LIG d   1      11.406   5.569  -2.284  0.00  0.00     0.111 C 
ATOM     12  H   LIG d   1      11.409   6.336  -3.058  0.00  0.00     0.060 H 
ATOM     13  H   LIG d   1      10.031   4.486  -5.340  0.00  0.00     0.058 H 
ATOM     14  H   LIG d   1       8.343   4.045  -4.962  0.00  0.00     0.058 H 
ATOM     15  H   LIG d   1      13.400   5.087  -3.017  0.00  0.00     0.058 H 
ATOM     16  H   LIG d   1      12.937   4.219  -1.522  0.00  0.00     0.058 H 
ENDROOT
BRANCH  11  17
ATOM     17  N   LIG d   1      11.463   6.181  -0.954  0.00  0.00    -0.187 N 
ATOM     18  N   LIG d   1      12.420   5.955   0.050  0.00  0.00    -0.041 NA
ATOM     19  N   LIG d   1      12.091   6.697   1.052  0.00  0.00    -0.020 NA
ATOM     20  N   LIG d   1      11.028   7.365   0.781  0.00  0.00    -0.070 NA
ATOM     21  C   LIG d   1      10.608   7.090  -0.432  0.00  0.00     0.342 A 
BRANCH  21  22
ATOM     22  O   LIG d   1       9.521   7.617  -1.046  0.00  0.00    -0.423 OA
BRANCH  22  23
ATOM     23  C   LIG d   1       9.674   8.790  -1.717  0.00  0.00     0.134 A 
ATOM     24  C   LIG d   1       9.968   8.780  -3.070  0.00  0.00     0.002 A 
ATOM     25  C   LIG d   1      10.118   9.979  -3.754  0.00  0.00     0.033 A 
ATOM     26  H   LIG d   1      10.079   7.842  -3.594  0.00  0.00     0.067 H 
ATOM     27  C   LIG d   1       9.982  11.185  -3.076  0.00  0.00    -0.040 A 
ATOM     28  C   LIG d   1       9.693  11.189  -1.725  0.00  0.00    -0.057 A 
ATOM     29  H   LIG d   1      10.103  12.118  -3.605  0.00  0.00     0.064 H 
ATOM     30  C   LIG d   1       9.538   9.996  -1.045  0.00  0.00    -0.019 A 
ATOM     31  H   LIG d   1       9.587  12.127  -1.200  0.00  0.00     0.062 H 
ATOM     32  H   LIG d   1       9.313  10.003   0.011  0.00  0.00     0.065 H 
BRANCH  25  33
ATOM     33  N   LIG d   1      10.411   9.974  -5.120  0.00  0.00    -0.336 N 
BRANCH  33  34
ATOM     34  C   LIG d   1      11.523  10.778  -5.634  0.00  0.00     0.000 C 
ATOM     35  H   LIG d   1      12.398  10.634  -5.001  0.00  0.00     0.043 H 
ATOM     36  H   LIG d   1      11.755  10.468  -6.652  0.00  0.00     0.043 H 
ATOM     37  H   LIG d   1      11.242  11.832  -5.630  0.00  0.00     0.043 H 
ENDBRANCH  33  34
BRANCH  33  38
ATOM     38  C   LIG d   1       9.605   9.167  -6.039  0.00  0.00     0.000 C 
ATOM     39  H   LIG d   1       9.729   9.540  -7.056  0.00  0.00     0.043 H 
ATOM     40  H   LIG d   1       9.930   8.128  -5.990  0.00  0.00     0.043 H 
ATOM     41  H   LIG d   1       8.555   9.232  -5.753  0.00  0.00     0.043 H 
ENDBRANCH  33  38
ENDBRANCH  25  33
ENDBRANCH  22  23
ENDBRANCH  21  22
ENDBRANCH  11  17
BRANCH   1  42
ATOM     42  N   LIG d   1       8.696   2.031  -3.483  0.00  0.00    -0.304 N 
ATOM     43  C   LIG d   1       8.266   0.976  -4.203  0.00  0.00     0.244 C 
ATOM     44  O   LIG d   1       8.821   0.686  -5.245  0.00  0.00    -0.270 OA
ATOM     45  H   LIG d   1       8.253   2.263  -2.651  0.00  0.00     0.149 HD
BRANCH  43  46
ATOM     46  C   LIG d   1       7.120   0.173  -3.726  0.00  0.00     0.037 A 
ATOM     47  C   LIG d   1       6.040   0.796  -3.099  0.00  0.00    -0.049 A 
ATOM     48  C   LIG d   1       4.972   0.041  -2.661  0.00  0.00    -0.058 A 
ATOM     49  H   LIG d   1       6.039   1.867  -2.960  0.00  0.00     0.062 H 
ATOM     50  C   LIG d   1       4.972  -1.331  -2.838  0.00  0.00    -0.050 A 
ATOM     51  H   LIG d   1       4.133   0.523  -2.180  0.00  0.00     0.062 H 
ATOM     52  C   LIG d   1       6.041  -1.956  -3.454  0.00  0.00    -0.058 A 
ATOM     53  C   LIG d   1       7.117  -1.213  -3.896  0.00  0.00    -0.049 A 
ATOM     54  H   LIG d   1       6.036  -3.027  -3.588  0.00  0.00     0.062 H 
ATOM     55  H   LIG d   1       7.951  -1.701  -4.377  0.00  0.00     0.062 H 
BRANCH  50  56
ATOM     56  C   LIG d   1       3.801  -2.149  -2.357  0.00  0.00    -0.040 C 
ATOM     57  H   LIG d   1       3.645  -2.991  -3.031  0.00  0.00     0.028 H 
ATOM     58  H   LIG d   1       4.005  -2.521  -1.353  0.00  0.00     0.028 H 
ATOM     59  H   LIG d   1       2.906  -1.527  -2.340  0.00  0.00     0.028 H 
ENDBRANCH  50  56
ENDBRANCH  43  46
ENDBRANCH   1  42
TORSDOF 9
ENDMDL
MODEL 2
REMARK VINA RESULT:      -7.2      1.106      2.158
REMARK  9 active torsions:
REMARK  status: ('A' for Active; 'I' for Inactive)
REMARK    1  A    between atoms: C_1  and  C_2 
REMARK    2  A    between atoms: C_5  and  C_8 
REMARK       I    between atoms: C_8  and  N_10 
REMARK    3  A    between atoms: N_10  and  C_11 
REMARK    4  A    between atoms: C_21  and  N_23 
REMARK    5  A    between atoms: C_24  and  O_28 
REMARK    6  A    between atoms: O_28  and  C_29 
REMARK    7  A    between atoms: C_33  and  N_35 
REMARK    8  A    between atoms: N_35  and  C_36 
REMARK    9  A    between atoms: N_35  and  C_37 
ROOT
ATOM      1  C   LIG d   1       9.706   3.044  -4.065  0.00  0.00     0.075 C 
ATOM      2  H   LIG d   1      10.289   2.475  -4.788  0.00  0.00     0.055 H 
ATOM      3  C   LIG d   1       9.294   4.410  -4.644  0.00  0.00     0.069 C 
ATOM      4  O   LIG d   1       9.293   5.339  -3.556  0.00  0.00    -0.370 OA
ATOM      5  C   LIG d   1      10.066   4.840  -2.469  0.00  0.00     0.111 C 
ATOM      6  H   LIG d   1       9.485   4.811  -1.547  0.00  0.00     0.065 H 
ATOM      7  C   LIG d   1      10.575   3.427  -2.844  0.00  0.00     0.107 C 
ATOM      8  H   LIG d   1      10.499   2.711  -2.025  0.00  0.00     0.064 H 
ATOM      9  O   LIG d   1      11.931   3.608  -3.308  0.00  0.00    -0.370 OA
ATOM     10  C   LIG d   1      12.491   4.659  -2.478  0.00  0.00     0.073 C 
ATOM     11  C   LIG d   1      11.345   5.678  -2.284  0.00  0.00     0.111 C 
ATOM     12  H   LIG d   1      11.400   6.462  -3.039  0.00  0.00     0.060 H 
ATOM     13  H   LIG d   1      10.011   4.725  -5.401  0.00  0.00     0.058 H 
ATOM     14  H   LIG d   1       8.296   4.345  -5.079  0.00  0.00     0.058 H 
ATOM     15  H   LIG d   1      13.337   5.131  -2.977  0.00  0.00     0.058 H 
ATOM     16  H   LIG d   1      12.799   4.247  -1.516  0.00  0.00     0.058 H 
ENDROOT
BRANCH  11  17
ATOM     17  N   LIG d   1      11.391   6.256  -0.939  0.00  0.00    -0.187 N 
ATOM     18  N   LIG d   1      12.277   5.928   0.102  0.00  0.00    -0.041 NA
ATOM     19  N   LIG d   1      11.965   6.674   1.106  0.00  0.00    -0.020 NA
ATOM     20  N   LIG d   1      10.976   7.436   0.803  0.00  0.00    -0.070 NA
ATOM     21  C   LIG d   1      10.592   7.223  -0.434  0.00  0.00     0.342 A 
BRANCH  21  22
ATOM     22  O   LIG d   1       9.583   7.852  -1.083  0.00  0.00    -0.423 OA
BRANCH  22  23
ATOM     23  C   LIG d   1       9.871   9.008  -1.740  0.00  0.00     0.134 A 
ATOM     24  C   LIG d   1       9.913  10.206  -1.047  0.00  0.00     0.002 A 
ATOM     25  C   LIG d   1      10.211  11.384  -1.718  0.00  0.00     0.033 A 
ATOM     26  H   LIG d   1       9.716  10.225   0.015  0.00  0.00     0.067 H 
ATOM     27  C   LIG d   1      10.458  11.358  -3.086  0.00  0.00    -0.040 A 
ATOM     28  C   LIG d   1      10.410  10.161  -3.774  0.00  0.00    -0.057 A 
ATOM     29  H   LIG d   1      10.686  12.274  -3.611  0.00  0.00     0.064 H 
ATOM     30  C   LIG d   1      10.118   8.987  -3.105  0.00  0.00    -0.019 A 
ATOM     31  H   LIG d   1      10.602  10.142  -4.837  0.00  0.00     0.062 H 
ATOM     32  H   LIG d   1      10.081   8.054  -3.646  0.00  0.00     0.065 H 
BRANCH  25  33
ATOM     33  N   LIG d   1      10.260  12.594  -1.022  0.00  0.00    -0.336 N 
BRANCH  33  34
ATOM     34  C   LIG d   1      10.523  12.600   0.419  0.00  0.00     0.000 C 
ATOM     35  H   LIG d   1       9.869  11.880   0.911  0.00  0.00     0.043 H 
ATOM     36  H   LIG d   1      11.562  12.330   0.601  0.00  0.00     0.043 H 
ATOM     37  H   LIG d   1      10.331  13.596   0.820  0.00  0.00     0.043 H 
ENDBRANCH  33  34
BRANCH  33  38
ATOM     38  C   LIG d   1      10.046  13.857  -1.732  0.00  0.00     0.000 C 
ATOM     39  H   LIG d   1       9.024  14.199  -1.567  0.00  0.00     0.043 H 
ATOM     40  H   LIG d   1      10.744  14.606  -1.360  0.00  0.00     0.043 H 
ATOM     41  H   LIG d   1      10.210  13.706  -2.799  0.00  0.00     0.043 H 
ENDBRANCH  33  38
ENDBRANCH  25  33
ENDBRANCH  22  23
ENDBRANCH  21  22
ENDBRANCH  11  17
BRANCH   1  42
ATOM     42  N   LIG d   1       8.527   2.285  -3.641  0.00  0.00    -0.304 N 
ATOM     43  C   LIG d   1       8.357   1.015  -4.061  0.00  0.00     0.244 C 
ATOM     44  O   LIG d   1       9.182   0.501  -4.790  0.00  0.00    -0.270 OA
ATOM     45  H   LIG d   1       7.868   2.695  -3.059  0.00  0.00     0.149 HD
BRANCH  43  46
ATOM     46  C   LIG d   1       7.167   0.248  -3.634  0.00  0.00     0.037 A 
ATOM     47  C   LIG d   1       7.143  -1.141  -3.769  0.00  0.00    -0.049 A 
ATOM     48  C   LIG d   1       6.031  -1.851  -3.364  0.00  0.00    -0.058 A 
ATOM     49  H   LIG d   1       7.993  -1.659  -4.186  0.00  0.00     0.062 H 
ATOM     50  C   LIG d   1       4.940  -1.188  -2.830  0.00  0.00    -0.050 A 
ATOM     51  H   LIG d   1       6.013  -2.926  -3.463  0.00  0.00     0.062 H 
ATOM     52  C   LIG d   1       4.956   0.189  -2.698  0.00  0.00    -0.058 A 
ATOM     53  C   LIG d   1       6.060   0.911  -3.100  0.00  0.00    -0.049 A 
ATOM     54  H   LIG d   1       4.101   0.700  -2.282  0.00  0.00     0.062 H 
ATOM     55  H   LIG d   1       6.071   1.986  -2.998  0.00  0.00     0.062 H 
BRANCH  50  56
ATOM     56  C   LIG d   1       3.730  -1.970  -2.388  0.00  0.00    -0.040 C 
ATOM     57  H   LIG d   1       3.186  -1.403  -1.634  0.00  0.00     0.028 H 
ATOM     58  H   LIG d   1       3.081  -2.150  -3.246  0.00  0.00     0.028 H 
ATOM     59  H   LIG d   1       4.048  -2.923  -1.967  0.00  0.00     0.028 H 
ENDBRANCH  50  56
ENDBRANCH  43  46
ENDBRANCH   1  42
TORSDOF 9
ENDMDL
MODEL 3
REMARK VINA RESULT:      -6.8      9.187     14.879
REMARK  9 active torsions:
REMARK  status: ('A' for Active; 'I' for Inactive)
REMARK    1  A    between atoms: C_1  and  C_2 
REMARK    2  A    between atoms: C_5  and  C_8 
REMARK       I    between atoms: C_8  and  N_10 
REMARK    3  A    between atoms: N_10  and  C_11 
REMARK    4  A    between atoms: C_21  and  N_23 
REMARK    5  A    between atoms: C_24  and  O_28 
REMARK    6  A    between atoms: O_28  and  C_29 
REMARK    7  A    between atoms: C_33  and  N_35 
REMARK    8  A    between atoms: N_35  and  C_36 
REMARK    9  A    between atoms: N_35  and  C_37 
ROOT
ATOM      1  C   LIG d   1       6.233  -5.488  -6.164  0.00  0.00     0.075 C 
ATOM      2  H   LIG d   1       6.148  -5.113  -7.183  0.00  0.00     0.055 H 
ATOM      3  C   LIG d   1       7.567  -6.233  -5.963  0.00  0.00     0.069 C 
ATOM      4  O   LIG d   1       7.313  -7.297  -5.042  0.00  0.00    -0.370 OA
ATOM      5  C   LIG d   1       5.920  -7.587  -4.980  0.00  0.00     0.111 C 
ATOM      6  H   LIG d   1       5.547  -7.530  -3.958  0.00  0.00     0.065 H 
ATOM      7  C   LIG d   1       5.175  -6.583  -5.895  0.00  0.00     0.107 C 
ATOM      8  H   LIG d   1       4.261  -6.192  -5.448  0.00  0.00     0.064 H 
ATOM      9  O   LIG d   1       4.940  -7.284  -7.136  0.00  0.00    -0.370 OA
ATOM     10  C   LIG d   1       4.660  -8.658  -6.762  0.00  0.00     0.073 C 
ATOM     11  C   LIG d   1       5.625  -8.967  -5.596  0.00  0.00     0.111 C 
ATOM     12  H   LIG d   1       6.543  -9.422  -5.970  0.00  0.00     0.060 H 
ATOM     13  H   LIG d   1       7.914  -6.637  -6.913  0.00  0.00     0.058 H 
ATOM     14  H   LIG d   1       8.314  -5.554  -5.551  0.00  0.00     0.058 H 
ATOM     15  H   LIG d   1       4.851  -9.328  -7.600  0.00  0.00     0.058 H 
ATOM     16  H   LIG d   1       3.625  -8.749  -6.432  0.00  0.00     0.058 H 
ENDROOT
BRANCH  11  17
ATOM     17  N   LIG d   1       4.983  -9.841  -4.612  0.00  0.00    -0.187 N 
ATOM     18  N   LIG d   1       3.625  -9.866  -4.250  0.00  0.00    -0.041 NA
ATOM     19  N   LIG d   1       3.495 -10.784  -3.353  0.00  0.00    -0.020 NA
ATOM     20  N   LIG d   1       4.630 -11.337  -3.117  0.00  0.00    -0.070 NA
ATOM     21  C   LIG d   1       5.569 -10.802  -3.862  0.00  0.00     0.342 A 
BRANCH  21  22
ATOM     22  O   LIG d   1       6.879 -11.146  -3.876  0.00  0.00    -0.423 OA
BRANCH  22  23
ATOM     23  C   LIG d   1       7.625 -10.858  -2.777  0.00  0.00     0.134 A 
ATOM     24  C   LIG d   1       8.372  -9.692  -2.732  0.00  0.00     0.002 A 
ATOM     25  C   LIG d   1       9.129  -9.399  -1.606  0.00  0.00     0.033 A 
ATOM     26  H   LIG d   1       8.364  -9.011  -3.570  0.00  0.00     0.067 H 
ATOM     27  C   LIG d   1       9.143 -10.280  -0.531  0.00  0.00    -0.040 A 
ATOM     28  C   LIG d   1       8.400 -11.444  -0.583  0.00  0.00    -0.057 A 
ATOM     29  H   LIG d   1       9.734 -10.055   0.344  0.00  0.00     0.064 H 
ATOM     30  C   LIG d   1       7.642 -11.734  -1.701  0.00  0.00    -0.019 A 
ATOM     31  H   LIG d   1       8.411 -12.127   0.253  0.00  0.00     0.062 H 
ATOM     32  H   LIG d   1       7.062 -12.645  -1.738  0.00  0.00     0.065 H 
BRANCH  25  33
ATOM     33  N   LIG d   1       9.880  -8.222  -1.555  0.00  0.00    -0.336 N 
BRANCH  33  34
ATOM     34  C   LIG d   1       9.430  -7.034  -2.284  0.00  0.00     0.000 C 
ATOM     35  H   LIG d   1      10.158  -6.232  -2.156  0.00  0.00     0.043 H 
ATOM     36  H   LIG d   1       9.334  -7.271  -3.343  0.00  0.00     0.043 H 
ATOM     37  H   LIG d   1       8.464  -6.711  -1.894  0.00  0.00     0.043 H 
ENDBRANCH  33  34
BRANCH  33  38
ATOM     38  C   LIG d   1      11.118  -8.176  -0.772  0.00  0.00     0.000 C 
ATOM     39  H   LIG d   1      11.274  -7.164  -0.398  0.00  0.00     0.043 H 
ATOM     40  H   LIG d   1      11.043  -8.867   0.067  0.00  0.00     0.043 H 
ATOM     41  H   LIG d   1      11.957  -8.463  -1.405  0.00  0.00     0.043 H 
ENDBRANCH  33  38
ENDBRANCH  25  33
ENDBRANCH  22  23
ENDBRANCH  21  22
ENDBRANCH  11  17
BRANCH   1  42
ATOM     42  N   LIG d   1       6.101  -4.394  -5.199  0.00  0.00    -0.304 N 
ATOM     43  C   LIG d   1       5.128  -3.474  -5.352  0.00  0.00     0.244 C 
ATOM     44  O   LIG d   1       4.360  -3.554  -6.291  0.00  0.00    -0.270 OA
ATOM     45  H   LIG d   1       6.714  -4.330  -4.450  0.00  0.00     0.149 HD
BRANCH  43  46
ATOM     46  C   LIG d   1       4.994  -2.369  -4.379  0.00  0.00     0.037 A 
ATOM     47  C   LIG d   1       5.650  -1.157  -4.601  0.00  0.00    -0.049 A 
ATOM     48  C   LIG d   1       5.517  -0.128  -3.691  0.00  0.00    -0.058 A 
ATOM     49  H   LIG d   1       6.257  -1.023  -5.484  0.00  0.00     0.062 H 
ATOM     50  C   LIG d   1       4.740  -0.298  -2.559  0.00  0.00    -0.050 A 
ATOM     51  H   LIG d   1       6.019   0.812  -3.864  0.00  0.00     0.062 H 
ATOM     52  C   LIG d   1       4.092  -1.499  -2.331  0.00  0.00    -0.058 A 
ATOM     53  C   LIG d   1       4.217  -2.536  -3.231  0.00  0.00    -0.049 A 
ATOM     54  H   LIG d   1       3.487  -1.625  -1.445  0.00  0.00     0.062 H 
ATOM     55  H   LIG d   1       3.711  -3.473  -3.053  0.00  0.00     0.062 H 
BRANCH  50  56
ATOM     56  C   LIG d   1       4.598   0.830  -1.570  0.00  0.00    -0.040 C 
ATOM     57  H   LIG d   1       3.920   0.531  -0.772  0.00  0.00     0.028 H 
ATOM     58  H   LIG d   1       5.575   1.067  -1.147  0.00  0.00     0.028 H 
ATOM     59  H   LIG d   1       4.199   1.709  -2.076  0.00  0.00     0.028 H 
ENDBRANCH  50  56
ENDBRANCH  43  46
ENDBRANCH   1  42
TORSDOF 9
ENDMDL
MODEL 4
REMARK VINA RESULT:      -6.8      9.386     11.495
REMARK  9 active torsions:
REMARK  status: ('A' for Active; 'I' for Inactive)
REMARK    1  A    between atoms: C_1  and  C_2 
REMARK    2  A    between atoms: C_5  and  C_8 
REMARK       I    between atoms: C_8  and  N_10 
REMARK    3  A    between atoms: N_10  and  C_11 
REMARK    4  A    between atoms: C_21  and  N_23 
REMARK    5  A    between atoms: C_24  and  O_28 
REMARK    6  A    between atoms: O_28  and  C_29 
REMARK    7  A    between atoms: C_33  and  N_35 
REMARK    8  A    between atoms: N_35  and  C_36 
REMARK    9  A    between atoms: N_35  and  C_37 
ROOT
ATOM      1  C   LIG d   1       5.538  -6.051  -6.752  0.00  0.00     0.075 C 
ATOM      2  H   LIG d   1       6.131  -6.478  -7.560  0.00  0.00     0.055 H 
ATOM      3  C   LIG d   1       4.060  -5.917  -7.167  0.00  0.00     0.069 C 
ATOM      4  O   LIG d   1       3.556  -4.739  -6.531  0.00  0.00    -0.370 OA
ATOM      5  C   LIG d   1       4.624  -3.886  -6.134  0.00  0.00     0.111 C 
ATOM      6  H   LIG d   1       4.574  -3.652  -5.071  0.00  0.00     0.065 H 
ATOM      7  C   LIG d   1       5.960  -4.588  -6.481  0.00  0.00     0.107 C 
ATOM      8  H   LIG d   1       6.709  -4.500  -5.693  0.00  0.00     0.064 H 
ATOM      9  O   LIG d   1       6.393  -4.014  -7.734  0.00  0.00    -0.370 OA
ATOM     10  C   LIG d   1       6.012  -2.614  -7.675  0.00  0.00     0.073 C 
ATOM     11  C   LIG d   1       4.633  -2.598  -6.978  0.00  0.00     0.111 C 
ATOM     12  H   LIG d   1       3.832  -2.621  -7.718  0.00  0.00     0.060 H 
ATOM     13  H   LIG d   1       3.985  -5.818  -8.250  0.00  0.00     0.058 H 
ATOM     14  H   LIG d   1       3.499  -6.790  -6.833  0.00  0.00     0.058 H 
ATOM     15  H   LIG d   1       5.935  -2.196  -8.678  0.00  0.00     0.058 H 
ATOM     16  H   LIG d   1       6.741  -2.057  -7.085  0.00  0.00     0.058 H 
ENDROOT
BRANCH  11  17
ATOM     17  N   LIG d   1       4.503  -1.419  -6.118  0.00  0.00    -0.187 N 
ATOM     18  N   LIG d   1       5.272  -1.100  -4.986  0.00  0.00    -0.041 NA
ATOM     19  N   LIG d   1       4.822   0.020  -4.533  0.00  0.00    -0.020 NA
ATOM     20  N   LIG d   1       3.851   0.437  -5.264  0.00  0.00    -0.070 NA
ATOM     21  C   LIG d   1       3.621  -0.403  -6.247  0.00  0.00     0.342 A 
BRANCH  21  22
ATOM     22  O   LIG d   1       2.675  -0.276  -7.208  0.00  0.00    -0.423 OA
BRANCH  22  23
ATOM     23  C   LIG d   1       3.027   0.331  -8.372  0.00  0.00     0.134 A 
ATOM     24  C   LIG d   1       3.163  -0.417  -9.530  0.00  0.00     0.002 A 
ATOM     25  C   LIG d   1       3.518   0.207 -10.719  0.00  0.00     0.033 A 
ATOM     26  H   LIG d   1       2.992  -1.483  -9.509  0.00  0.00     0.067 H 
ATOM     27  C   LIG d   1       3.744   1.578 -10.742  0.00  0.00    -0.040 A 
ATOM     28  C   LIG d   1       3.612   2.319  -9.583  0.00  0.00    -0.057 A 
ATOM     29  H   LIG d   1       4.024   2.063 -11.665  0.00  0.00     0.064 H 
ATOM     30  C   LIG d   1       3.254   1.700  -8.400  0.00  0.00    -0.019 A 
ATOM     31  H   LIG d   1       3.788   3.384  -9.602  0.00  0.00     0.062 H 
ATOM     32  H   LIG d   1       3.151   2.282  -7.497  0.00  0.00     0.065 H 
BRANCH  25  33
ATOM     33  N   LIG d   1       3.652  -0.543 -11.890  0.00  0.00    -0.336 N 
BRANCH  33  34
ATOM     34  C   LIG d   1       2.516  -1.319 -12.397  0.00  0.00     0.000 C 
ATOM     35  H   LIG d   1       2.825  -1.879 -13.280  0.00  0.00     0.043 H 
ATOM     36  H   LIG d   1       2.176  -2.011 -11.628  0.00  0.00     0.043 H 
ATOM     37  H   LIG d   1       1.704  -0.642 -12.663  0.00  0.00     0.043 H 
ENDBRANCH  33  34
BRANCH  33  38
ATOM     38  C   LIG d   1       4.927  -0.556 -12.610  0.00  0.00     0.000 C 
ATOM     39  H   LIG d   1       5.728  -0.248 -11.937  0.00  0.00     0.043 H 
ATOM     40  H   LIG d   1       5.128  -1.563 -12.976  0.00  0.00     0.043 H 
ATOM     41  H   LIG d   1       4.875   0.133 -13.453  0.00  0.00     0.043 H 
ENDBRANCH  33  38
ENDBRANCH  25  33
ENDBRANCH  22  23
ENDBRANCH  21  22
ENDBRANCH  11  17
BRANCH   1  42
ATOM     42  N   LIG d   1       5.663  -6.859  -5.537  0.00  0.00    -0.304 N 
ATOM     43  C   LIG d   1       5.751  -8.201  -5.627  0.00  0.00     0.244 C 
ATOM     44  O   LIG d   1       5.726  -8.740  -6.716  0.00  0.00    -0.270 OA
ATOM     45  H   LIG d   1       5.683  -6.429  -4.668  0.00  0.00     0.149 HD
BRANCH  43  46
ATOM     46  C   LIG d   1       5.877  -9.017  -4.400  0.00  0.00     0.037 A 
ATOM     47  C   LIG d   1       4.795  -9.774  -3.948  0.00  0.00    -0.049 A 
ATOM     48  C   LIG d   1       4.922 -10.538  -2.806  0.00  0.00    -0.058 A 
ATOM     49  H   LIG d   1       3.862  -9.765  -4.492  0.00  0.00     0.062 H 
ATOM     50  C   LIG d   1       6.116 -10.550  -2.107  0.00  0.00    -0.050 A 
ATOM     51  H   LIG d   1       4.087 -11.128  -2.457  0.00  0.00     0.062 H 
ATOM     52  C   LIG d   1       7.190  -9.798  -2.547  0.00  0.00    -0.058 A 
ATOM     53  C   LIG d   1       7.077  -9.029  -3.687  0.00  0.00    -0.049 A 
ATOM     54  H   LIG d   1       8.119  -9.812  -1.997  0.00  0.00     0.062 H 
ATOM     55  H   LIG d   1       7.917  -8.443  -4.030  0.00  0.00     0.062 H 
BRANCH  50  56
ATOM     56  C   LIG d   1       6.247 -11.387  -0.861  0.00  0.00    -0.040 C 
ATOM     57  H   LIG d   1       5.286 -11.845  -0.628  0.00  0.00     0.028 H 
ATOM     58  H   LIG d   1       6.991 -12.167  -1.024  0.00  0.00     0.028 H 
ATOM     59  H   LIG d   1       6.559 -10.755  -0.030  0.00  0.00     0.028 H 
ENDBRANCH  50  56
ENDBRANCH  43  46
ENDBRANCH   1  42
TORSDOF 9
ENDMDL
MODEL 5
REMARK VINA RESULT:      -6.7      8.611     14.358
REMARK  9 active torsions:
REMARK  status: ('A' for Active; 'I' for Inactive)
REMARK    1  A    between atoms: C_1  and  C_2 
REMARK    2  A    between atoms: C_5  and  C_8 
REMARK       I    between atoms: C_8  and  N_10 
REMARK    3  A    between atoms: N_10  and  C_11 
REMARK    4  A    between atoms: C_21  and  N_23 
REMARK    5  A    between atoms: C_24  and  O_28 
REMARK    6  A    between atoms: O_28  and  C_29 
REMARK    7  A    between atoms: C_33  and  N_35 
REMARK    8  A    between atoms: N_35  and  C_36 
REMARK    9  A    between atoms: N_35  and  C_37 
ROOT
ATOM      1  C   LIG d   1       9.461  -4.212  -3.778  0.00  0.00     0.075 C 
ATOM      2  H   LIG d   1       9.766  -3.949  -4.791  0.00  0.00     0.055 H 
ATOM      3  C   LIG d   1      10.687  -4.338  -2.852  0.00  0.00     0.069 C 
ATOM      4  O   LIG d   1      10.389  -5.372  -1.910  0.00  0.00    -0.370 OA
ATOM      5  C   LIG d   1       9.335  -6.201  -2.389  0.00  0.00     0.111 C 
ATOM      6  H   LIG d   1       8.516  -6.257  -1.673  0.00  0.00     0.065 H 
ATOM      7  C   LIG d   1       8.846  -5.630  -3.743  0.00  0.00     0.107 C 
ATOM      8  H   LIG d   1       7.760  -5.626  -3.840  0.00  0.00     0.064 H 
ATOM      9  O   LIG d   1       9.500  -6.419  -4.761  0.00  0.00    -0.370 OA
ATOM     10  C   LIG d   1       9.553  -7.771  -4.234  0.00  0.00     0.073 C 
ATOM     11  C   LIG d   1       9.863  -7.607  -2.729  0.00  0.00     0.111 C 
ATOM     12  H   LIG d   1      10.937  -7.665  -2.552  0.00  0.00     0.060 H 
ATOM     13  H   LIG d   1      11.567  -4.607  -3.435  0.00  0.00     0.058 H 
ATOM     14  H   LIG d   1      10.858  -3.396  -2.331  0.00  0.00     0.058 H 
ATOM     15  H   LIG d   1      10.342  -8.341  -4.724  0.00  0.00     0.058 H 
ATOM     16  H   LIG d   1       8.589  -8.260  -4.371  0.00  0.00     0.058 H 
ENDROOT
BRANCH  11  17
ATOM     17  N   LIG d   1       9.159  -8.624  -1.944  0.00  0.00    -0.187 N 
ATOM     18  N   LIG d   1       7.797  -8.966  -2.015  0.00  0.00    -0.041 NA
ATOM     19  N   LIG d   1       7.603  -9.905  -1.153  0.00  0.00    -0.020 NA
ATOM     20  N   LIG d   1       8.701 -10.188  -0.550  0.00  0.00    -0.070 NA
ATOM     21  C   LIG d   1       9.681  -9.439  -0.999  0.00  0.00     0.342 A 
BRANCH  21  22
ATOM     22  O   LIG d   1      10.972  -9.473  -0.592  0.00  0.00    -0.423 OA
BRANCH  22  23
ATOM     23  C   LIG d   1      11.219  -9.449   0.745  0.00  0.00     0.134 A 
ATOM     24  C   LIG d   1      11.543 -10.620   1.410  0.00  0.00     0.002 A 
ATOM     25  C   LIG d   1      11.800 -10.593   2.774  0.00  0.00     0.033 A 
ATOM     26  H   LIG d   1      11.598 -11.553   0.868  0.00  0.00     0.067 H 
ATOM     27  C   LIG d   1      11.722  -9.392   3.470  0.00  0.00    -0.040 A 
ATOM     28  C   LIG d   1      11.394  -8.228   2.803  0.00  0.00    -0.057 A 
ATOM     29  H   LIG d   1      11.918  -9.370   4.532  0.00  0.00     0.064 H 
ATOM     30  C   LIG d   1      11.143  -8.253   1.444  0.00  0.00    -0.019 A 
ATOM     31  H   LIG d   1      11.334  -7.295   3.345  0.00  0.00     0.062 H 
ATOM     32  H   LIG d   1      10.887  -7.341   0.926  0.00  0.00     0.065 H 
BRANCH  25  33
ATOM     33  N   LIG d   1      12.132 -11.771   3.447  0.00  0.00    -0.336 N 
BRANCH  33  34
ATOM     34  C   LIG d   1      12.525 -11.723   4.858  0.00  0.00     0.000 C 
ATOM     35  H   LIG d   1      13.542 -12.098   4.965  0.00  0.00     0.043 H 
ATOM     36  H   LIG d   1      12.477 -10.694   5.214  0.00  0.00     0.043 H 
ATOM     37  H   LIG d   1      11.847 -12.343   5.446  0.00  0.00     0.043 H 
ENDBRANCH  33  34
BRANCH  33  38
ATOM     38  C   LIG d   1      12.089 -13.055   2.743  0.00  0.00     0.000 C 
ATOM     39  H   LIG d   1      12.388 -13.853   3.423  0.00  0.00     0.043 H 
ATOM     40  H   LIG d   1      11.076 -13.240   2.388  0.00  0.00     0.043 H 
ATOM     41  H   LIG d   1      12.772 -13.026   1.894  0.00  0.00     0.043 H 
ENDBRANCH  33  38
ENDBRANCH  25  33
ENDBRANCH  22  23
ENDBRANCH  21  22
ENDBRANCH  11  17
BRANCH   1  42
ATOM     42  N   LIG d   1       8.515  -3.225  -3.251  0.00  0.00    -0.304 N 
ATOM     43  C   LIG d   1       7.718  -2.539  -4.095  0.00  0.00     0.244 C 
ATOM     44  O   LIG d   1       7.784  -2.741  -5.291  0.00  0.00    -0.270 OA
ATOM     45  H   LIG d   1       8.462  -3.064  -2.296  0.00  0.00     0.149 HD
BRANCH  43  46
ATOM     46  C   LIG d   1       6.763  -1.543  -3.564  0.00  0.00     0.037 A 
ATOM     47  C   LIG d   1       5.585  -1.963  -2.943  0.00  0.00    -0.049 A 
ATOM     48  C   LIG d   1       4.701  -1.028  -2.445  0.00  0.00    -0.058 A 
ATOM     49  H   LIG d   1       5.368  -3.017  -2.850  0.00  0.00     0.062 H 
ATOM     50  C   LIG d   1       4.977   0.322  -2.565  0.00  0.00    -0.050 A 
ATOM     51  H   LIG d   1       3.792  -1.352  -1.960  0.00  0.00     0.062 H 
ATOM     52  C   LIG d   1       6.140   0.745  -3.184  0.00  0.00    -0.058 A 
ATOM     53  C   LIG d   1       7.032  -0.179  -3.687  0.00  0.00    -0.049 A 
ATOM     54  H   LIG d   1       6.349   1.800  -3.274  0.00  0.00     0.062 H 
ATOM     55  H   LIG d   1       7.940   0.152  -4.170  0.00  0.00     0.062 H 
BRANCH  50  56
ATOM     56  C   LIG d   1       4.007   1.337  -2.018  0.00  0.00    -0.040 C 
ATOM     57  H   LIG d   1       3.089   1.315  -2.603  0.00  0.00     0.028 H 
ATOM     58  H   LIG d   1       3.781   1.100  -0.978  0.00  0.00     0.028 H 
ATOM     59  H   LIG d   1       4.450   2.331  -2.076  0.00  0.00     0.028 H 
ENDBRANCH  50  56
ENDBRANCH  43  46
ENDBRANCH   1  42
TORSDOF 9
ENDMDL
MODEL 6
REMARK VINA RESULT:      -6.3      9.737     15.728
REMARK  9 active torsions:
REMARK  status: ('A' for Active; 'I' for Inactive)
REMARK    1  A    between atoms: C_1  and  C_2 
REMARK    2  A    between atoms: C_5  and  C_8 
REMARK       I    between atoms: C_8  and  N_10 
REMARK    3  A    between atoms: N_10  and  C_11 
REMARK    4  A    between atoms: C_21  and  N_23 
REMARK    5  A    between atoms: C_24  and  O_28 
REMARK    6  A    between atoms: O_28  and  C_29 
REMARK    7  A    between atoms: C_33  and  N_35 
REMARK    8  A    between atoms: N_35  and  C_36 
REMARK    9  A    between atoms: N_35  and  C_37 
ROOT
ATOM      1  C   LIG d   1       2.523  -0.461  -9.425  0.00  0.00     0.075 C 
ATOM      2  H   LIG d   1       2.088   0.535  -9.494  0.00  0.00     0.055 H 
ATOM      3  C   LIG d   1       3.774  -0.578 -10.315  0.00  0.00     0.069 C 
ATOM      4  O   LIG d   1       3.806  -1.919 -10.812  0.00  0.00    -0.370 OA
ATOM      5  C   LIG d   1       2.522  -2.524 -10.709  0.00  0.00     0.111 C 
ATOM      6  H   LIG d   1       2.565  -3.458 -10.150  0.00  0.00     0.065 H 
ATOM      7  C   LIG d   1       1.565  -1.517 -10.025  0.00  0.00     0.107 C 
ATOM      8  H   LIG d   1       0.917  -1.979  -9.279  0.00  0.00     0.064 H 
ATOM      9  O   LIG d   1       0.828  -0.886 -11.095  0.00  0.00    -0.370 OA
ATOM     10  C   LIG d   1       0.608  -1.926 -12.084  0.00  0.00     0.073 C 
ATOM     11  C   LIG d   1       1.915  -2.749 -12.106  0.00  0.00     0.111 C 
ATOM     12  H   LIG d   1       2.587  -2.377 -12.879  0.00  0.00     0.060 H 
ATOM     13  H   LIG d   1       3.708   0.125 -11.145  0.00  0.00     0.058 H 
ATOM     14  H   LIG d   1       4.670  -0.376  -9.727  0.00  0.00     0.058 H 
ATOM     15  H   LIG d   1       0.419  -1.488 -13.063  0.00  0.00     0.058 H 
ATOM     16  H   LIG d   1      -0.231  -2.554 -11.780  0.00  0.00     0.058 H 
ENDROOT
BRANCH  11  17
ATOM     17  N   LIG d   1       1.626  -4.170 -12.317  0.00  0.00    -0.187 N 
ATOM     18  N   LIG d   1       2.132  -5.003 -13.330  0.00  0.00    -0.041 NA
ATOM     19  N   LIG d   1       1.619  -6.171 -13.143  0.00  0.00    -0.020 NA
ATOM     20  N   LIG d   1       0.846  -6.157 -12.117  0.00  0.00    -0.070 NA
ATOM     21  C   LIG d   1       0.819  -4.962 -11.575  0.00  0.00     0.342 A 
BRANCH  21  22
ATOM     22  O   LIG d   1       0.115  -4.591 -10.480  0.00  0.00    -0.423 OA
BRANCH  22  23
ATOM     23  C   LIG d   1      -1.136  -5.102 -10.323  0.00  0.00     0.134 A 
ATOM     24  C   LIG d   1      -2.194  -4.577 -11.046  0.00  0.00     0.002 A 
ATOM     25  C   LIG d   1      -3.469  -5.105 -10.887  0.00  0.00     0.033 A 
ATOM     26  H   LIG d   1      -2.029  -3.761 -11.733  0.00  0.00     0.067 H 
ATOM     27  C   LIG d   1      -3.680  -6.151  -9.997  0.00  0.00    -0.040 A 
ATOM     28  C   LIG d   1      -2.622  -6.667  -9.274  0.00  0.00    -0.057 A 
ATOM     29  H   LIG d   1      -4.672  -6.559  -9.869  0.00  0.00     0.064 H 
ATOM     30  C   LIG d   1      -1.352  -6.147  -9.435  0.00  0.00    -0.019 A 
ATOM     31  H   LIG d   1      -2.788  -7.480  -8.583  0.00  0.00     0.062 H 
ATOM     32  H   LIG d   1      -0.527  -6.553  -8.869  0.00  0.00     0.065 H 
BRANCH  25  33
ATOM     33  N   LIG d   1      -4.538  -4.581 -11.617  0.00  0.00    -0.336 N 
BRANCH  33  34
ATOM     34  C   LIG d   1      -4.608  -3.143 -11.886  0.00  0.00     0.000 C 
ATOM     35  H   LIG d   1      -5.624  -2.789 -11.709  0.00  0.00     0.043 H 
ATOM     36  H   LIG d   1      -3.920  -2.616 -11.228  0.00  0.00     0.043 H 
ATOM     37  H   LIG d   1      -4.335  -2.953 -12.925  0.00  0.00     0.043 H 
ENDBRANCH  33  34
BRANCH  33  38
ATOM     38  C   LIG d   1      -5.591  -5.471 -12.114  0.00  0.00     0.000 C 
ATOM     39  H   LIG d   1      -6.374  -4.878 -12.588  0.00  0.00     0.043 H 
ATOM     40  H   LIG d   1      -5.169  -6.164 -12.841  0.00  0.00     0.043 H 
ATOM     41  H   LIG d   1      -6.015  -6.032 -11.280  0.00  0.00     0.043 H 
ENDBRANCH  33  38
ENDBRANCH  25  33
ENDBRANCH  22  23
ENDBRANCH  21  22
ENDBRANCH  11  17
BRANCH   1  42
ATOM     42  N   LIG d   1       2.845  -0.788  -8.034  0.00  0.00    -0.304 N 
ATOM     43  C   LIG d   1       3.105   0.199  -7.153  0.00  0.00     0.244 C 
ATOM     44  O   LIG d   1       3.071   1.359  -7.514  0.00  0.00    -0.270 OA
ATOM     45  H   LIG d   1       2.872  -1.714  -7.746  0.00  0.00     0.149 HD
BRANCH  43  46
ATOM     46  C   LIG d   1       3.431  -0.130  -5.749  0.00  0.00     0.037 A 
ATOM     47  C   LIG d   1       4.626  -0.782  -5.441  0.00  0.00    -0.049 A 
ATOM     48  C   LIG d   1       4.926  -1.081  -4.128  0.00  0.00    -0.058 A 
ATOM     49  H   LIG d   1       5.316  -1.048  -6.228  0.00  0.00     0.062 H 
ATOM     50  C   LIG d   1       4.043  -0.741  -3.119  0.00  0.00    -0.050 A 
ATOM     51  H   LIG d   1       5.853  -1.581  -3.888  0.00  0.00     0.062 H 
ATOM     52  C   LIG d   1       2.855  -0.100  -3.417  0.00  0.00    -0.058 A 
ATOM     53  C   LIG d   1       2.541   0.205  -4.726  0.00  0.00    -0.049 A 
ATOM     54  H   LIG d   1       2.170   0.162  -2.625  0.00  0.00     0.062 H 
ATOM     55  H   LIG d   1       1.613   0.706  -4.958  0.00  0.00     0.062 H 
BRANCH  50  56
ATOM     56  C   LIG d   1       4.378  -1.071  -1.687  0.00  0.00    -0.040 C 
ATOM     57  H   LIG d   1       4.776  -2.083  -1.630  0.00  0.00     0.028 H 
ATOM     58  H   LIG d   1       5.124  -0.366  -1.317  0.00  0.00     0.028 H 
ATOM     59  H   LIG d   1       3.477  -1.000  -1.077  0.00  0.00     0.028 H 
ENDBRANCH  50  56
ENDBRANCH  43  46
ENDBRANCH   1  42
TORSDOF 9
ENDMDL
MODEL 7
REMARK VINA RESULT:      -6.3      8.743     11.108
REMARK  9 active torsions:
REMARK  status: ('A' for Active; 'I' for Inactive)
REMARK    1  A    between atoms: C_1  and  C_2 
REMARK    2  A    between atoms: C_5  and  C_8 
REMARK       I    between atoms: C_8  and  N_10 
REMARK    3  A    between atoms: N_10  and  C_11 
REMARK    4  A    between atoms: C_21  and  N_23 
REMARK    5  A    between atoms: C_24  and  O_28 
REMARK    6  A    between atoms: O_28  and  C_29 
REMARK    7  A    between atoms: C_33  and  N_35 
REMARK    8  A    between atoms: N_35  and  C_36 
REMARK    9  A    between atoms: N_35  and  C_37 
ROOT
ATOM      1  C   LIG d   1       8.771  -4.618  -4.811  0.00  0.00     0.075 C 
ATOM      2  H   LIG d   1       9.805  -4.312  -4.963  0.00  0.00     0.055 H 
ATOM      3  C   LIG d   1       8.063  -4.847  -6.160  0.00  0.00     0.069 C 
ATOM      4  O   LIG d   1       6.699  -4.451  -5.984  0.00  0.00    -0.370 OA
ATOM      5  C   LIG d   1       6.564  -3.603  -4.849  0.00  0.00     0.111 C 
ATOM      6  H   LIG d   1       5.826  -3.991  -4.147  0.00  0.00     0.065 H 
ATOM      7  C   LIG d   1       7.951  -3.473  -4.173  0.00  0.00     0.107 C 
ATOM      8  H   LIG d   1       7.906  -3.535  -3.085  0.00  0.00     0.064 H 
ATOM      9  O   LIG d   1       8.501  -2.222  -4.643  0.00  0.00    -0.370 OA
ATOM     10  C   LIG d   1       7.374  -1.313  -4.742  0.00  0.00     0.073 C 
ATOM     11  C   LIG d   1       6.207  -2.169  -5.283  0.00  0.00     0.111 C 
ATOM     12  H   LIG d   1       6.155  -2.101  -6.370  0.00  0.00     0.060 H 
ATOM     13  H   LIG d   1       8.530  -4.238  -6.934  0.00  0.00     0.058 H 
ATOM     14  H   LIG d   1       8.113  -5.901  -6.433  0.00  0.00     0.058 H 
ATOM     15  H   LIG d   1       7.599  -0.500  -5.432  0.00  0.00     0.058 H 
ATOM     16  H   LIG d   1       7.129  -0.917  -3.756  0.00  0.00     0.058 H 
ENDROOT
BRANCH  11  17
ATOM     17  N   LIG d   1       4.939  -1.751  -4.681  0.00  0.00    -0.187 N 
ATOM     18  N   LIG d   1       4.271  -2.346  -3.597  0.00  0.00    -0.041 NA
ATOM     19  N   LIG d   1       3.196  -1.661  -3.400  0.00  0.00    -0.020 NA
ATOM     20  N   LIG d   1       3.121  -0.699  -4.247  0.00  0.00    -0.070 NA
ATOM     21  C   LIG d   1       4.162  -0.707  -5.047  0.00  0.00     0.342 A 
BRANCH  21  22
ATOM     22  O   LIG d   1       4.410   0.166  -6.053  0.00  0.00    -0.423 OA
BRANCH  22  23
ATOM     23  C   LIG d   1       3.702   0.029  -7.205  0.00  0.00     0.134 A 
ATOM     24  C   LIG d   1       3.503  -1.229  -7.750  0.00  0.00     0.002 A 
ATOM     25  C   LIG d   1       2.775  -1.367  -8.924  0.00  0.00     0.033 A 
ATOM     26  H   LIG d   1       3.911  -2.102  -7.262  0.00  0.00     0.067 H 
ATOM     27  C   LIG d   1       2.256  -0.243  -9.555  0.00  0.00    -0.040 A 
ATOM     28  C   LIG d   1       2.461   1.010  -9.010  0.00  0.00    -0.057 A 
ATOM     29  H   LIG d   1       1.693  -0.348 -10.470  0.00  0.00     0.064 H 
ATOM     30  C   LIG d   1       3.181   1.148  -7.838  0.00  0.00    -0.019 A 
ATOM     31  H   LIG d   1       2.057   1.884  -9.500  0.00  0.00     0.062 H 
ATOM     32  H   LIG d   1       3.339   2.129  -7.415  0.00  0.00     0.065 H 
BRANCH  25  33
ATOM     33  N   LIG d   1       2.568  -2.635  -9.475  0.00  0.00    -0.336 N 
BRANCH  33  34
ATOM     34  C   LIG d   1       1.503  -2.841 -10.459  0.00  0.00     0.000 C 
ATOM     35  H   LIG d   1       0.865  -3.665 -10.137  0.00  0.00     0.043 H 
ATOM     36  H   LIG d   1       0.908  -1.933 -10.547  0.00  0.00     0.043 H 
ATOM     37  H   LIG d   1       1.944  -3.082 -11.427  0.00  0.00     0.043 H 
ENDBRANCH  33  34
BRANCH  33  38
ATOM     38  C   LIG d   1       3.416  -3.758  -9.067  0.00  0.00     0.000 C 
ATOM     39  H   LIG d   1       3.738  -3.615  -8.035  0.00  0.00     0.043 H 
ATOM     40  H   LIG d   1       2.851  -4.686  -9.145  0.00  0.00     0.043 H 
ATOM     41  H   LIG d   1       4.289  -3.808  -9.717  0.00  0.00     0.043 H 
ENDBRANCH  33  38
ENDBRANCH  25  33
ENDBRANCH  22  23
ENDBRANCH  21  22
ENDBRANCH  11  17
BRANCH   1  42
ATOM     42  N   LIG d   1       8.707  -5.824  -3.982  0.00  0.00    -0.304 N 
ATOM     43  C   LIG d   1       9.759  -6.171  -3.214  0.00  0.00     0.244 C 
ATOM     44  O   LIG d   1      10.760  -5.482  -3.210  0.00  0.00    -0.270 OA
ATOM     45  H   LIG d   1       7.907  -6.374  -3.985  0.00  0.00     0.149 HD
BRANCH  43  46
ATOM     46  C   LIG d   1       9.694  -7.388  -2.377  0.00  0.00     0.037 A 
ATOM     47  C   LIG d   1       8.651  -8.300  -2.546  0.00  0.00    -0.049 A 
ATOM     48  C   LIG d   1       8.600  -9.436  -1.766  0.00  0.00    -0.058 A 
ATOM     49  H   LIG d   1       7.888  -8.118  -3.288  0.00  0.00     0.062 H 
ATOM     50  C   LIG d   1       9.576  -9.670  -0.814  0.00  0.00    -0.050 A 
ATOM     51  H   LIG d   1       7.795 -10.145  -1.898  0.00  0.00     0.062 H 
ATOM     52  C   LIG d   1      10.610  -8.768  -0.638  0.00  0.00    -0.058 A 
ATOM     53  C   LIG d   1      10.673  -7.627  -1.411  0.00  0.00    -0.049 A 
ATOM     54  H   LIG d   1      11.369  -8.956   0.107  0.00  0.00     0.062 H 
ATOM     55  H   LIG d   1      11.481  -6.923  -1.273  0.00  0.00     0.062 H 
BRANCH  50  56
ATOM     56  C   LIG d   1       9.514 -10.914   0.034  0.00  0.00    -0.040 C 
ATOM     57  H   LIG d   1      10.509 -11.351   0.112  0.00  0.00     0.028 H 
ATOM     58  H   LIG d   1       9.151 -10.657   1.030  0.00  0.00     0.028 H 
ATOM     59  H   LIG d   1       8.836 -11.633  -0.425  0.00  0.00     0.028 H 
ENDBRANCH  50  56
ENDBRANCH  43  46
ENDBRANCH   1  42
TORSDOF 9
ENDMDL
MODEL 8
REMARK VINA RESULT:      -6.3      4.105     10.017
REMARK  9 active torsions:
REMARK  status: ('A' for Active; 'I' for Inactive)
REMARK    1  A    between atoms: C_1  and  C_2 
REMARK    2  A    between atoms: C_5  and  C_8 
REMARK       I    between atoms: C_8  and  N_10 
REMARK    3  A    between atoms: N_10  and  C_11 
REMARK    4  A    between atoms: C_21  and  N_23 
REMARK    5  A    between atoms: C_24  and  O_28 
REMARK    6  A    between atoms: O_28  and  C_29 
REMARK    7  A    between atoms: C_33  and  N_35 
REMARK    8  A    between atoms: N_35  and  C_36 
REMARK    9  A    between atoms: N_35  and  C_37 
ROOT
ATOM      1  C   LIG d   1       9.293   1.613  -6.845  0.00  0.00     0.075 C 
ATOM      2  H   LIG d   1      10.329   1.556  -7.177  0.00  0.00     0.055 H 
ATOM      3  C   LIG d   1       8.841   0.277  -6.226  0.00  0.00     0.069 C 
ATOM      4  O   LIG d   1       7.457   0.117  -6.550  0.00  0.00    -0.370 OA
ATOM      5  C   LIG d   1       7.099   0.949  -7.649  0.00  0.00     0.111 C 
ATOM      6  H   LIG d   1       6.260   1.598  -7.401  0.00  0.00     0.065 H 
ATOM      7  C   LIG d   1       8.341   1.782  -8.051  0.00  0.00     0.107 C 
ATOM      8  H   LIG d   1       8.107   2.825  -8.267  0.00  0.00     0.064 H 
ATOM      9  O   LIG d   1       8.929   1.093  -9.177  0.00  0.00    -0.370 OA
ATOM     10  C   LIG d   1       7.811   0.573  -9.944  0.00  0.00     0.073 C 
ATOM     11  C   LIG d   1       6.783   0.097  -8.893  0.00  0.00     0.111 C 
ATOM     12  H   LIG d   1       6.922  -0.962  -8.676  0.00  0.00     0.060 H 
ATOM     13  H   LIG d   1       9.419  -0.544  -6.647  0.00  0.00     0.058 H 
ATOM     14  H   LIG d   1       8.969   0.306  -5.143  0.00  0.00     0.058 H 
ATOM     15  H   LIG d   1       8.131  -0.262 -10.567  0.00  0.00     0.058 H 
ATOM     16  H   LIG d   1       7.385   1.365 -10.560  0.00  0.00     0.058 H 
ENDROOT
BRANCH  11  17
ATOM     17  N   LIG d   1       5.417   0.351  -9.356  0.00  0.00    -0.187 N 
ATOM     18  N   LIG d   1       5.016   1.172 -10.425  0.00  0.00    -0.041 NA
ATOM     19  N   LIG d   1       3.730   1.108 -10.481  0.00  0.00    -0.020 NA
ATOM     20  N   LIG d   1       3.282   0.333  -9.560  0.00  0.00    -0.070 NA
ATOM     21  C   LIG d   1       4.271  -0.157  -8.849  0.00  0.00     0.342 A 
BRANCH  21  22
ATOM     22  O   LIG d   1       4.164  -1.011  -7.803  0.00  0.00    -0.423 OA
BRANCH  22  23
ATOM     23  C   LIG d   1       3.783  -0.502  -6.602  0.00  0.00     0.134 A 
ATOM     24  C   LIG d   1       4.558  -0.728  -5.476  0.00  0.00     0.002 A 
ATOM     25  C   LIG d   1       4.169  -0.204  -4.251  0.00  0.00     0.033 A 
ATOM     26  H   LIG d   1       5.465  -1.310  -5.551  0.00  0.00     0.067 H 
ATOM     27  C   LIG d   1       2.998   0.539  -4.156  0.00  0.00    -0.040 A 
ATOM     28  C   LIG d   1       2.226   0.758  -5.281  0.00  0.00    -0.057 A 
ATOM     29  H   LIG d   1       2.692   0.944  -3.203  0.00  0.00     0.064 H 
ATOM     30  C   LIG d   1       2.615   0.240  -6.501  0.00  0.00    -0.019 A 
ATOM     31  H   LIG d   1       1.316   1.335  -5.205  0.00  0.00     0.062 H 
ATOM     32  H   LIG d   1       2.009   0.413  -7.378  0.00  0.00     0.065 H 
BRANCH  25  33
ATOM     33  N   LIG d   1       4.950  -0.425  -3.115  0.00  0.00    -0.336 N 
BRANCH  33  34
ATOM     34  C   LIG d   1       4.946   0.550  -2.021  0.00  0.00     0.000 C 
ATOM     35  H   LIG d   1       4.873   0.026  -1.068  0.00  0.00     0.043 H 
ATOM     36  H   LIG d   1       5.868   1.130  -2.047  0.00  0.00     0.043 H 
ATOM     37  H   LIG d   1       4.092   1.218  -2.133  0.00  0.00     0.043 H 
ENDBRANCH  33  34
BRANCH  33  38
ATOM     38  C   LIG d   1       5.776  -1.632  -3.017  0.00  0.00     0.000 C 
ATOM     39  H   LIG d   1       5.404  -2.384  -3.713  0.00  0.00     0.043 H 
ATOM     40  H   LIG d   1       6.808  -1.387  -3.265  0.00  0.00     0.043 H 
ATOM     41  H   LIG d   1       5.729  -2.021  -2.000  0.00  0.00     0.043 H 
ENDBRANCH  33  38
ENDBRANCH  25  33
ENDBRANCH  22  23
ENDBRANCH  21  22
ENDBRANCH  11  17
BRANCH   1  42
ATOM     42  N   LIG d   1       9.118   2.711  -5.891  0.00  0.00    -0.304 N 
ATOM     43  C   LIG d   1      10.161   3.130  -5.146  0.00  0.00     0.244 C 
ATOM     44  O   LIG d   1      11.246   2.596  -5.267  0.00  0.00    -0.270 OA
ATOM     45  H   LIG d   1       8.251   3.137  -5.794  0.00  0.00     0.149 HD
BRANCH  43  46
ATOM     46  C   LIG d   1       9.985   4.238  -4.183  0.00  0.00     0.037 A 
ATOM     47  C   LIG d   1       9.412   5.442  -4.598  0.00  0.00    -0.049 A 
ATOM     48  C   LIG d   1       9.245   6.469  -3.693  0.00  0.00    -0.058 A 
ATOM     49  H   LIG d   1       9.096   5.566  -5.623  0.00  0.00     0.062 H 
ATOM     50  C   LIG d   1       9.649   6.311  -2.379  0.00  0.00    -0.050 A 
ATOM     51  H   LIG d   1       8.797   7.400  -4.011  0.00  0.00     0.062 H 
ATOM     52  C   LIG d   1      10.223   5.123  -1.964  0.00  0.00    -0.058 A 
ATOM     53  C   LIG d   1      10.396   4.087  -2.858  0.00  0.00    -0.049 A 
ATOM     54  H   LIG d   1      10.537   5.006  -0.937  0.00  0.00     0.062 H 
ATOM     55  H   LIG d   1      10.844   3.159  -2.533  0.00  0.00     0.062 H 
BRANCH  50  56
ATOM     56  C   LIG d   1       9.463   7.438  -1.396  0.00  0.00    -0.040 C 
ATOM     57  H   LIG d   1      10.437   7.828  -1.101  0.00  0.00     0.028 H 
ATOM     58  H   LIG d   1       8.879   8.233  -1.861  0.00  0.00     0.028 H 
ATOM     59  H   LIG d   1       8.938   7.069  -0.516  0.00  0.00     0.028 H 
ENDBRANCH  50  56
ENDBRANCH  43  46
ENDBRANCH   1  42
TORSDOF 9
ENDMDL
MODEL 9
REMARK VINA RESULT:      -6.2      1.820      2.614
REMARK  9 active torsions:
REMARK  status: ('A' for Active; 'I' for Inactive)
REMARK    1  A    between atoms: C_1  and  C_2 
REMARK    2  A    between atoms: C_5  and  C_8 
REMARK       I    between atoms: C_8  and  N_10 
REMARK    3  A    between atoms: N_10  and  C_11 
REMARK    4  A    between atoms: C_21  and  N_23 
REMARK    5  A    between atoms: C_24  and  O_28 
REMARK    6  A    between atoms: O_28  and  C_29 
REMARK    7  A    between atoms: C_33  and  N_35 
REMARK    8  A    between atoms: N_35  and  C_36 
REMARK    9  A    between atoms: N_35  and  C_37 
ROOT
ATOM      1  C   LIG d   1      10.209   1.898  -4.431  0.00  0.00     0.075 C 
ATOM      2  H   LIG d   1      10.929   1.113  -4.659  0.00  0.00     0.055 H 
ATOM      3  C   LIG d   1       9.902   2.741  -5.683  0.00  0.00     0.069 C 
ATOM      4  O   LIG d   1       9.677   4.081  -5.235  0.00  0.00    -0.370 OA
ATOM      5  C   LIG d   1      10.229   4.277  -3.937  0.00  0.00     0.111 C 
ATOM      6  H   LIG d   1       9.480   4.646  -3.237  0.00  0.00     0.065 H 
ATOM      7  C   LIG d   1      10.819   2.929  -3.453  0.00  0.00     0.107 C 
ATOM      8  H   LIG d   1      10.593   2.712  -2.409  0.00  0.00     0.064 H 
ATOM      9  O   LIG d   1      12.237   3.004  -3.718  0.00  0.00    -0.370 OA
ATOM     10  C   LIG d   1      12.611   4.383  -3.461  0.00  0.00     0.073 C 
ATOM     11  C   LIG d   1      11.437   5.230  -4.000  0.00  0.00     0.111 C 
ATOM     12  H   LIG d   1      11.629   5.536  -5.029  0.00  0.00     0.060 H 
ATOM     13  H   LIG d   1      10.749   2.715  -6.367  0.00  0.00     0.058 H 
ATOM     14  H   LIG d   1       9.009   2.359  -6.179  0.00  0.00     0.058 H 
ATOM     15  H   LIG d   1      13.532   4.633  -3.985  0.00  0.00     0.058 H 
ATOM     16  H   LIG d   1      12.730   4.540  -2.388  0.00  0.00     0.058 H 
ENDROOT
BRANCH  11  17
ATOM     17  N   LIG d   1      11.212   6.401  -3.149  0.00  0.00    -0.187 N 
ATOM     18  N   LIG d   1      11.974   6.811  -2.041  0.00  0.00    -0.041 NA
ATOM     19  N   LIG d   1      11.425   7.886  -1.589  0.00  0.00    -0.020 NA
ATOM     20  N   LIG d   1      10.399   8.194  -2.298  0.00  0.00    -0.070 NA
ATOM     21  C   LIG d   1      10.229   7.322  -3.265  0.00  0.00     0.342 A 
BRANCH  21  22
ATOM     22  O   LIG d   1       9.251   7.341  -4.202  0.00  0.00    -0.423 OA
BRANCH  22  23
ATOM     23  C   LIG d   1       9.477   8.042  -5.345  0.00  0.00     0.134 A 
ATOM     24  C   LIG d   1       9.569   9.424  -5.303  0.00  0.00     0.002 A 
ATOM     25  C   LIG d   1       9.804  10.137  -6.471  0.00  0.00     0.033 A 
ATOM     26  H   LIG d   1       9.460   9.946  -4.364  0.00  0.00     0.067 H 
ATOM     27  C   LIG d   1       9.938   9.464  -7.679  0.00  0.00    -0.040 A 
ATOM     28  C   LIG d   1       9.841   8.086  -7.717  0.00  0.00    -0.057 A 
ATOM     29  H   LIG d   1      10.117  10.018  -8.589  0.00  0.00     0.064 H 
ATOM     30  C   LIG d   1       9.612   7.375  -6.554  0.00  0.00    -0.019 A 
ATOM     31  H   LIG d   1       9.945   7.565  -8.656  0.00  0.00     0.062 H 
ATOM     32  H   LIG d   1       9.536   6.298  -6.587  0.00  0.00     0.065 H 
BRANCH  25  33
ATOM     33  N   LIG d   1       9.902  11.530  -6.432  0.00  0.00    -0.336 N 
BRANCH  33  34
ATOM     34  C   LIG d   1       9.515  12.259  -5.221  0.00  0.00     0.000 C 
ATOM     35  H   LIG d   1      10.399  12.448  -4.612  0.00  0.00     0.043 H 
ATOM     36  H   LIG d   1       9.055  13.206  -5.498  0.00  0.00     0.043 H 
ATOM     37  H   LIG d   1       8.803  11.662  -4.650  0.00  0.00     0.043 H 
ENDBRANCH  33  34
BRANCH  33  38
ATOM     38  C   LIG d   1      10.391  12.263  -7.603  0.00  0.00     0.000 C 
ATOM     39  H   LIG d   1      10.362  13.334  -7.399  0.00  0.00     0.043 H 
ATOM     40  H   LIG d   1      11.416  11.961  -7.819  0.00  0.00     0.043 H 
ATOM     41  H   LIG d   1       9.758  12.039  -8.461  0.00  0.00     0.043 H 
ENDBRANCH  33  38
ENDBRANCH  25  33
ENDBRANCH  22  23
ENDBRANCH  21  22
ENDBRANCH  11  17
BRANCH   1  42
ATOM     42  N   LIG d   1       8.980   1.325  -3.878  0.00  0.00    -0.304 N 
ATOM     43  C   LIG d   1       8.447   0.215  -4.426  0.00  0.00     0.244 C 
ATOM     44  O   LIG d   1       8.988  -0.310  -5.380  0.00  0.00    -0.270 OA
ATOM     45  H   LIG d   1       8.548   1.745  -3.116  0.00  0.00     0.149 HD
BRANCH  43  46
ATOM     46  C   LIG d   1       7.206  -0.363  -3.868  0.00  0.00     0.037 A 
ATOM     47  C   LIG d   1       6.338   0.432  -3.118  0.00  0.00    -0.049 A 
ATOM     48  C   LIG d   1       5.179  -0.112  -2.605  0.00  0.00    -0.058 A 
ATOM     49  H   LIG d   1       6.572   1.472  -2.943  0.00  0.00     0.062 H 
ATOM     50  C   LIG d   1       4.879  -1.445  -2.828  0.00  0.00    -0.050 A 
ATOM     51  H   LIG d   1       4.504   0.503  -2.028  0.00  0.00     0.062 H 
ATOM     52  C   LIG d   1       5.738  -2.239  -3.566  0.00  0.00    -0.058 A 
ATOM     53  C   LIG d   1       6.901  -1.708  -4.084  0.00  0.00    -0.049 A 
ATOM     54  H   LIG d   1       5.498  -3.278  -3.736  0.00  0.00     0.062 H 
ATOM     55  H   LIG d   1       7.570  -2.329  -4.661  0.00  0.00     0.062 H 
BRANCH  50  56
ATOM     56  C   LIG d   1       3.611  -2.032  -2.264  0.00  0.00    -0.040 C 
ATOM     57  H   LIG d   1       3.360  -1.528  -1.331  0.00  0.00     0.028 H 
ATOM     58  H   LIG d   1       2.799  -1.898  -2.980  0.00  0.00     0.028 H 
ATOM     59  H   LIG d   1       3.756  -3.096  -2.075  0.00  0.00     0.028 H 
ENDBRANCH  50  56
ENDBRANCH  43  46
ENDBRANCH   1  42
TORSDOF 9
ENDMDL
MODEL 10
REMARK VINA RESULT:      -6.1      9.190     16.040
REMARK  9 active torsions:
REMARK  status: ('A' for Active; 'I' for Inactive)
REMARK    1  A    between atoms: C_1  and  C_2 
REMARK    2  A    between atoms: C_5  and  C_8 
REMARK       I    between atoms: C_8  and  N_10 
REMARK    3  A    between atoms: N_10  and  C_11 
REMARK    4  A    between atoms: C_21  and  N_23 
REMARK    5  A    between atoms: C_24  and  O_28 
REMARK    6  A    between atoms: O_28  and  C_29 
REMARK    7  A    between atoms: C_33  and  N_35 
REMARK    8  A    between atoms: N_35  and  C_36 
REMARK    9  A    between atoms: N_35  and  C_37 
ROOT
ATOM      1  C   LIG d   1       5.427  -4.850  -6.902  0.00  0.00     0.075 C 
ATOM      2  H   LIG d   1       6.495  -5.064  -6.855  0.00  0.00     0.055 H 
ATOM      3  C   LIG d   1       4.601  -6.102  -6.554  0.00  0.00     0.069 C 
ATOM      4  O   LIG d   1       3.413  -6.049  -7.350  0.00  0.00    -0.370 OA
ATOM      5  C   LIG d   1       3.589  -5.171  -8.457  0.00  0.00     0.111 C 
ATOM      6  H   LIG d   1       2.818  -4.402  -8.481  0.00  0.00     0.065 H 
ATOM      7  C   LIG d   1       4.997  -4.536  -8.353  0.00  0.00     0.107 C 
ATOM      8  H   LIG d   1       5.005  -3.469  -8.579  0.00  0.00     0.064 H 
ATOM      9  O   LIG d   1       5.841  -5.305  -9.239  0.00  0.00    -0.370 OA
ATOM     10  C   LIG d   1       5.005  -5.647 -10.376  0.00  0.00     0.073 C 
ATOM     11  C   LIG d   1       3.616  -5.962  -9.778  0.00  0.00     0.111 C 
ATOM     12  H   LIG d   1       3.517  -7.031  -9.585  0.00  0.00     0.060 H 
ATOM     13  H   LIG d   1       5.169  -7.001  -6.793  0.00  0.00     0.058 H 
ATOM     14  H   LIG d   1       4.341  -6.095  -5.495  0.00  0.00     0.058 H 
ATOM     15  H   LIG d   1       5.402  -6.519 -10.893  0.00  0.00     0.058 H 
ATOM     16  H   LIG d   1       4.940  -4.798 -11.057  0.00  0.00     0.058 H 
ENDROOT
BRANCH  11  17
ATOM     17  N   LIG d   1       2.552  -5.502 -10.673  0.00  0.00    -0.187 N 
ATOM     18  N   LIG d   1       2.689  -4.706 -11.824  0.00  0.00    -0.041 NA
ATOM     19  N   LIG d   1       1.505  -4.541 -12.306  0.00  0.00    -0.020 NA
ATOM     20  N   LIG d   1       0.640  -5.151 -11.579  0.00  0.00    -0.070 NA
ATOM     21  C   LIG d   1       1.227  -5.756 -10.573  0.00  0.00     0.342 A 
BRANCH  21  22
ATOM     22  O   LIG d   1       0.621  -6.495  -9.613  0.00  0.00    -0.423 OA
BRANCH  22  23
ATOM     23  C   LIG d   1      -0.675  -6.856  -9.810  0.00  0.00     0.134 A 
ATOM     24  C   LIG d   1      -0.972  -8.074 -10.399  0.00  0.00     0.002 A 
ATOM     25  C   LIG d   1      -2.297  -8.443 -10.594  0.00  0.00     0.033 A 
ATOM     26  H   LIG d   1      -0.176  -8.738 -10.703  0.00  0.00     0.067 H 
ATOM     27  C   LIG d   1      -3.319  -7.585 -10.207  0.00  0.00    -0.040 A 
ATOM     28  C   LIG d   1      -3.017  -6.369  -9.625  0.00  0.00    -0.057 A 
ATOM     29  H   LIG d   1      -4.349  -7.868 -10.362  0.00  0.00     0.064 H 
ATOM     30  C   LIG d   1      -1.699  -6.003  -9.425  0.00  0.00    -0.019 A 
ATOM     31  H   LIG d   1      -3.812  -5.703  -9.324  0.00  0.00     0.062 H 
ATOM     32  H   LIG d   1      -1.466  -5.052  -8.969  0.00  0.00     0.065 H 
BRANCH  25  33
ATOM     33  N   LIG d   1      -2.601  -9.672 -11.183  0.00  0.00    -0.336 N 
BRANCH  33  34
ATOM     34  C   LIG d   1      -3.075 -10.785 -10.355  0.00  0.00     0.000 C 
ATOM     35  H   LIG d   1      -2.232 -11.223  -9.819  0.00  0.00     0.043 H 
ATOM     36  H   LIG d   1      -3.809 -10.418  -9.639  0.00  0.00     0.043 H 
ATOM     37  H   LIG d   1      -3.533 -11.542 -10.991  0.00  0.00     0.043 H 
ENDBRANCH  33  34
BRANCH  33  38
ATOM     38  C   LIG d   1      -2.447  -9.851 -12.629  0.00  0.00     0.000 C 
ATOM     39  H   LIG d   1      -2.376 -10.914 -12.859  0.00  0.00     0.043 H 
ATOM     40  H   LIG d   1      -3.308  -9.424 -13.142  0.00  0.00     0.043 H 
ATOM     41  H   LIG d   1      -1.539  -9.346 -12.961  0.00  0.00     0.043 H 
ENDBRANCH  33  38
ENDBRANCH  25  33
ENDBRANCH  22  23
ENDBRANCH  21  22
ENDBRANCH  11  17
BRANCH   1  42
ATOM     42  N   LIG d   1       5.084  -3.740  -6.010  0.00  0.00    -0.304 N 
ATOM     43  C   LIG d   1       5.894  -3.429  -4.977  0.00  0.00     0.244 C 
ATOM     44  O   LIG d   1       6.909  -4.071  -4.788  0.00  0.00    -0.270 OA
ATOM     45  H   LIG d   1       4.274  -3.228  -6.161  0.00  0.00     0.149 HD
BRANCH  43  46
ATOM     46  C   LIG d   1       5.548  -2.309  -4.077  0.00  0.00     0.037 A 
ATOM     47  C   LIG d   1       4.377  -2.355  -3.319  0.00  0.00    -0.049 A 
ATOM     48  C   LIG d   1       4.063  -1.309  -2.477  0.00  0.00    -0.058 A 
ATOM     49  H   LIG d   1       3.720  -3.209  -3.390  0.00  0.00     0.062 H 
ATOM     50  C   LIG d   1       4.903  -0.214  -2.386  0.00  0.00    -0.050 A 
ATOM     51  H   LIG d   1       3.159  -1.345  -1.886  0.00  0.00     0.062 H 
ATOM     52  C   LIG d   1       6.063  -0.159  -3.138  0.00  0.00    -0.058 A 
ATOM     53  C   LIG d   1       6.389  -1.198  -3.985  0.00  0.00    -0.049 A 
ATOM     54  H   LIG d   1       6.714   0.699  -3.063  0.00  0.00     0.062 H 
ATOM     55  H   LIG d   1       7.295  -1.155  -4.572  0.00  0.00     0.062 H 
BRANCH  50  56
ATOM     56  C   LIG d   1       4.554   0.925  -1.463  0.00  0.00    -0.040 C 
ATOM     57  H   LIG d   1       3.822   0.588  -0.730  0.00  0.00     0.028 H 
ATOM     58  H   LIG d   1       5.453   1.265  -0.949  0.00  0.00     0.028 H 
ATOM     59  H   LIG d   1       4.134   1.747  -2.043  0.00  0.00     0.028 H 
ENDBRANCH  50  56
ENDBRANCH  43  46
ENDBRANCH   1  42
TORSDOF 9
ENDMDL
