MODEL 1
REMARK VINA RESULT:      -5.7      0.000      0.000
REMARK  12 active torsions:
REMARK  status: ('A' for Active; 'I' for Inactive)
REMARK    1  A    between atoms: C_1  and  C_2 
REMARK    2  A    between atoms: C_2  and  C_3 
REMARK    3  A    between atoms: C_3  and  C_23 
REMARK    4  A    between atoms: C_4  and  C_5 
REMARK    5  A    between atoms: C_4  and  C_16 
REMARK    6  A    between atoms: C_8  and  O_11 
REMARK    7  A    between atoms: O_11  and  C_12 
REMARK    8  A    between atoms: C_12  and  C_13 
REMARK    9  A    between atoms: C_13  and  N_58 
REMARK   10  A    between atoms: C_14  and  N_58 
REMARK   11  A    between atoms: C_15  and  N_58 
REMARK   12  A    between atoms: C_20  and  O_22 
ROOT
ATOM      1  C   LIG d   1       3.383  -0.062  -5.438  0.00  0.00    -0.032 C 
ATOM      2  C   LIG d   1       4.127  -0.417  -6.514  0.00  0.00    -0.007 C 
ENDROOT
BRANCH   2   3
ATOM      3  C   LIG d   1       5.319  -1.275  -6.339  0.00  0.00    -0.017 A 
ATOM      4  C   LIG d   1       5.190  -2.664  -6.359  0.00  0.00    -0.051 A 
ATOM      5  C   LIG d   1       6.304  -3.461  -6.197  0.00  0.00    -0.019 A 
ATOM      6  H   LIG d   1       4.219  -3.115  -6.502  0.00  0.00     0.062 H 
ATOM      7  C   LIG d   1       7.553  -2.882  -6.013  0.00  0.00     0.121 A 
ATOM      8  H   LIG d   1       6.205  -4.536  -6.212  0.00  0.00     0.065 H 
ATOM      9  C   LIG d   1       7.685  -1.500  -5.992  0.00  0.00    -0.019 A 
ATOM     10  C   LIG d   1       6.577  -0.697  -6.159  0.00  0.00    -0.051 A 
ATOM     11  H   LIG d   1       8.658  -1.053  -5.850  0.00  0.00     0.065 H 
ATOM     12  H   LIG d   1       6.682   0.378  -6.147  0.00  0.00     0.062 H 
BRANCH   7  13
ATOM     13  O   LIG d   1       8.648  -3.670  -5.853  0.00  0.00    -0.487 OA
BRANCH  13  14
ATOM     14  C   LIG d   1       9.543  -3.330  -4.792  0.00  0.00     0.129 C 
ATOM     15  H   LIG d   1      10.489  -3.852  -4.933  0.00  0.00     0.075 H 
ATOM     16  H   LIG d   1       9.717  -2.254  -4.795  0.00  0.00     0.075 H 
BRANCH  14  17
ATOM     17  C   LIG d   1       8.927  -3.742  -3.454  0.00  0.00     0.003 C 
ATOM     18  H   LIG d   1       8.289  -2.938  -3.084  0.00  0.00     0.085 H 
ATOM     19  H   LIG d   1       8.332  -4.645  -3.589  0.00  0.00     0.085 H 
BRANCH  17  20
ATOM     20  N   LIG d   1      10.016  -4.021  -2.494  0.00  0.00     0.233 N 
ATOM     21  H   LIG d   1      10.030  -3.282  -1.781  0.00  0.00     0.203 HD
BRANCH  20  22
ATOM     22  C   LIG d   1       9.784  -5.322  -1.831  0.00  0.00    -0.043 C 
ATOM     23  H   LIG d   1       8.746  -5.631  -1.949  0.00  0.00     0.078 H 
ATOM     24  H   LIG d   1      10.439  -6.070  -2.280  0.00  0.00     0.078 H 
ATOM     25  H   LIG d   1      10.017  -5.225  -0.770  0.00  0.00     0.078 H 
ENDBRANCH  20  22
BRANCH  20  26
ATOM     26  C   LIG d   1      11.317  -4.036  -3.195  0.00  0.00    -0.043 C 
ATOM     27  H   LIG d   1      11.248  -4.708  -4.051  0.00  0.00     0.078 H 
ATOM     28  H   LIG d   1      11.544  -3.028  -3.543  0.00  0.00     0.078 H 
ATOM     29  H   LIG d   1      12.107  -4.377  -2.527  0.00  0.00     0.078 H 
ENDBRANCH  20  26
ENDBRANCH  17  20
ENDBRANCH  14  17
ENDBRANCH  13  14
ENDBRANCH   7  13
ENDBRANCH   2   3
BRANCH   2  30
ATOM     30  C   LIG d   1       3.747   0.055  -7.864  0.00  0.00    -0.014 A 
ATOM     31  C   LIG d   1       2.776  -0.628  -8.596  0.00  0.00    -0.012 A 
ATOM     32  C   LIG d   1       2.425  -0.182  -9.859  0.00  0.00     0.117 A 
ATOM     33  H   LIG d   1       2.300  -1.505  -8.180  0.00  0.00     0.066 H 
ATOM     34  C   LIG d   1       3.041   0.941 -10.396  0.00  0.00    -0.020 A 
ATOM     35  C   LIG d   1       4.000   1.623  -9.668  0.00  0.00    -0.058 A 
ATOM     36  H   LIG d   1       2.768   1.286 -11.382  0.00  0.00     0.065 H 
ATOM     37  C   LIG d   1       4.357   1.186  -8.408  0.00  0.00    -0.054 A 
ATOM     38  H   LIG d   1       4.473   2.498 -10.088  0.00  0.00     0.062 H 
ATOM     39  H   LIG d   1       5.109   1.718  -7.845  0.00  0.00     0.062 H 
BRANCH  32  40
ATOM     40  O   LIG d   1       1.480  -0.845 -10.576  0.00  0.00    -0.507 OA
ATOM     41  H   LIG d   1       0.626  -0.391 -10.617  0.00  0.00     0.292 HD
ENDBRANCH  32  40
ENDBRANCH   2  30
BRANCH   1  42
ATOM     42  C   LIG d   1       2.102   0.708  -5.628  0.00  0.00    -0.029 C 
ATOM     43  H   LIG d   1       1.913   0.840  -6.694  0.00  0.00     0.031 H 
ATOM     44  H   LIG d   1       1.277   0.157  -5.179  0.00  0.00     0.031 H 
BRANCH  42  45
ATOM     45  C   LIG d   1       2.225   2.078  -4.958  0.00  0.00    -0.061 C 
ATOM     46  H   LIG d   1       1.328   2.662  -5.158  0.00  0.00     0.023 H 
ATOM     47  H   LIG d   1       2.343   1.948  -3.883  0.00  0.00     0.023 H 
ATOM     48  H   LIG d   1       3.095   2.600  -5.358  0.00  0.00     0.023 H 
ENDBRANCH  42  45
ENDBRANCH   1  42
BRANCH   1  49
ATOM     49  C   LIG d   1       3.826  -0.431  -4.084  0.00  0.00    -0.021 A 
ATOM     50  C   LIG d   1       3.435  -1.652  -3.525  0.00  0.00    -0.054 A 
ATOM     51  C   LIG d   1       3.854  -1.990  -2.256  0.00  0.00    -0.061 A 
ATOM     52  H   LIG d   1       2.805  -2.327  -4.085  0.00  0.00     0.062 H 
ATOM     53  C   LIG d   1       4.662  -1.126  -1.536  0.00  0.00    -0.062 A 
ATOM     54  H   LIG d   1       3.553  -2.932  -1.822  0.00  0.00     0.062 H 
ATOM     55  C   LIG d   1       5.054   0.083  -2.084  0.00  0.00    -0.061 A 
ATOM     56  H   LIG d   1       4.988  -1.397  -0.544  0.00  0.00     0.062 H 
ATOM     57  C   LIG d   1       4.646   0.435  -3.353  0.00  0.00    -0.054 A 
ATOM     58  H   LIG d   1       5.685   0.751  -1.517  0.00  0.00     0.062 H 
ATOM     59  H   LIG d   1       4.957   1.377  -3.780  0.00  0.00     0.062 H 
ENDBRANCH   1  49
TORSDOF 12
ENDMDL
MODEL 2
REMARK VINA RESULT:      -5.5      3.488      7.608
REMARK  12 active torsions:
REMARK  status: ('A' for Active; 'I' for Inactive)
REMARK    1  A    between atoms: C_1  and  C_2 
REMARK    2  A    between atoms: C_2  and  C_3 
REMARK    3  A    between atoms: C_3  and  C_23 
REMARK    4  A    between atoms: C_4  and  C_5 
REMARK    5  A    between atoms: C_4  and  C_16 
REMARK    6  A    between atoms: C_8  and  O_11 
REMARK    7  A    between atoms: O_11  and  C_12 
REMARK    8  A    between atoms: C_12  and  C_13 
REMARK    9  A    between atoms: C_13  and  N_58 
REMARK   10  A    between atoms: C_14  and  N_58 
REMARK   11  A    between atoms: C_15  and  N_58 
REMARK   12  A    between atoms: C_20  and  O_22 
ROOT
ATOM      1  C   LIG d   1       7.358  -3.389  -4.446  0.00  0.00    -0.032 C 
ATOM      2  C   LIG d   1       6.140  -2.833  -4.659  0.00  0.00    -0.007 C 
ENDROOT
BRANCH   2   3
ATOM      3  C   LIG d   1       5.326  -3.258  -5.819  0.00  0.00    -0.017 A 
ATOM      4  C   LIG d   1       5.311  -2.488  -6.982  0.00  0.00    -0.051 A 
ATOM      5  C   LIG d   1       4.552  -2.887  -8.062  0.00  0.00    -0.019 A 
ATOM      6  H   LIG d   1       5.892  -1.579  -7.037  0.00  0.00     0.062 H 
ATOM      7  C   LIG d   1       3.804  -4.055  -7.993  0.00  0.00     0.121 A 
ATOM      8  H   LIG d   1       4.540  -2.292  -8.963  0.00  0.00     0.065 H 
ATOM      9  C   LIG d   1       3.816  -4.824  -6.836  0.00  0.00    -0.019 A 
ATOM     10  C   LIG d   1       4.577  -4.434  -5.755  0.00  0.00    -0.051 A 
ATOM     11  H   LIG d   1       3.234  -5.732  -6.787  0.00  0.00     0.065 H 
ATOM     12  H   LIG d   1       4.589  -5.035  -4.858  0.00  0.00     0.062 H 
BRANCH   7  13
ATOM     13  O   LIG d   1       3.057  -4.445  -9.059  0.00  0.00    -0.487 OA
BRANCH  13  14
ATOM     14  C   LIG d   1       2.817  -3.469 -10.075  0.00  0.00     0.129 C 
ATOM     15  H   LIG d   1       3.093  -2.483  -9.703  0.00  0.00     0.075 H 
ATOM     16  H   LIG d   1       3.414  -3.707 -10.956  0.00  0.00     0.075 H 
BRANCH  14  17
ATOM     17  C   LIG d   1       1.333  -3.477 -10.448  0.00  0.00     0.003 C 
ATOM     18  H   LIG d   1       1.199  -4.003 -11.394  0.00  0.00     0.085 H 
ATOM     19  H   LIG d   1       0.764  -3.982  -9.668  0.00  0.00     0.085 H 
BRANCH  17  20
ATOM     20  N   LIG d   1       0.863  -2.080 -10.562  0.00  0.00     0.233 N 
ATOM     21  H   LIG d   1      -0.101  -2.023 -10.212  0.00  0.00     0.203 HD
BRANCH  20  22
ATOM     22  C   LIG d   1       1.721  -1.191  -9.749  0.00  0.00    -0.043 C 
ATOM     23  H   LIG d   1       2.702  -1.082 -10.209  0.00  0.00     0.078 H 
ATOM     24  H   LIG d   1       1.245  -0.213  -9.672  0.00  0.00     0.078 H 
ATOM     25  H   LIG d   1       1.831  -1.620  -8.753  0.00  0.00     0.078 H 
ENDBRANCH  20  22
BRANCH  20  26
ATOM     26  C   LIG d   1       0.888  -1.651 -11.976  0.00  0.00    -0.043 C 
ATOM     27  H   LIG d   1       1.885  -1.280 -12.214  0.00  0.00     0.078 H 
ATOM     28  H   LIG d   1       0.658  -2.507 -12.610  0.00  0.00     0.078 H 
ATOM     29  H   LIG d   1       0.155  -0.863 -12.149  0.00  0.00     0.078 H 
ENDBRANCH  20  26
ENDBRANCH  17  20
ENDBRANCH  14  17
ENDBRANCH  13  14
ENDBRANCH   7  13
ENDBRANCH   2   3
BRANCH   2  30
ATOM     30  C   LIG d   1       5.624  -1.802  -3.731  0.00  0.00    -0.014 A 
ATOM     31  C   LIG d   1       6.090  -0.491  -3.813  0.00  0.00    -0.012 A 
ATOM     32  C   LIG d   1       5.603   0.469  -2.942  0.00  0.00     0.117 A 
ATOM     33  H   LIG d   1       6.831  -0.225  -4.553  0.00  0.00     0.066 H 
ATOM     34  C   LIG d   1       4.656   0.124  -1.986  0.00  0.00    -0.020 A 
ATOM     35  C   LIG d   1       4.188  -1.176  -1.908  0.00  0.00    -0.058 A 
ATOM     36  H   LIG d   1       4.280   0.873  -1.306  0.00  0.00     0.065 H 
ATOM     37  C   LIG d   1       4.667  -2.140  -2.772  0.00  0.00    -0.054 A 
ATOM     38  H   LIG d   1       3.448  -1.437  -1.166  0.00  0.00     0.062 H 
ATOM     39  H   LIG d   1       4.303  -3.154  -2.705  0.00  0.00     0.062 H 
BRANCH  32  40
ATOM     40  O   LIG d   1       6.055   1.749  -3.018  0.00  0.00    -0.507 OA
ATOM     41  H   LIG d   1       5.516   2.387  -2.530  0.00  0.00     0.292 HD
ENDBRANCH  32  40
ENDBRANCH   2  30
BRANCH   1  42
ATOM     42  C   LIG d   1       8.133  -3.048  -3.199  0.00  0.00    -0.029 C 
ATOM     43  H   LIG d   1       8.528  -2.035  -3.283  0.00  0.00     0.031 H 
ATOM     44  H   LIG d   1       7.475  -3.111  -2.334  0.00  0.00     0.031 H 
BRANCH  42  45
ATOM     45  C   LIG d   1       9.291  -4.035  -3.033  0.00  0.00    -0.061 C 
ATOM     46  H   LIG d   1      10.033  -3.613  -2.357  0.00  0.00     0.023 H 
ATOM     47  H   LIG d   1       8.915  -4.971  -2.623  0.00  0.00     0.023 H 
ATOM     48  H   LIG d   1       9.750  -4.222  -4.004  0.00  0.00     0.023 H 
ENDBRANCH  42  45
ENDBRANCH   1  42
BRANCH   1  49
ATOM     49  C   LIG d   1       7.921  -4.325  -5.431  0.00  0.00    -0.021 A 
ATOM     50  C   LIG d   1       7.706  -5.700  -5.296  0.00  0.00    -0.054 A 
ATOM     51  C   LIG d   1       8.237  -6.571  -6.224  0.00  0.00    -0.061 A 
ATOM     52  H   LIG d   1       7.126  -6.080  -4.468  0.00  0.00     0.062 H 
ATOM     53  C   LIG d   1       8.981  -6.087  -7.287  0.00  0.00    -0.062 A 
ATOM     54  H   LIG d   1       8.072  -7.633  -6.122  0.00  0.00     0.062 H 
ATOM     55  C   LIG d   1       9.196  -4.728  -7.427  0.00  0.00    -0.061 A 
ATOM     56  H   LIG d   1       9.393  -6.774  -8.010  0.00  0.00     0.062 H 
ATOM     57  C   LIG d   1       8.669  -3.844  -6.510  0.00  0.00    -0.054 A 
ATOM     58  H   LIG d   1       9.777  -4.358  -8.259  0.00  0.00     0.062 H 
ATOM     59  H   LIG d   1       8.836  -2.782  -6.624  0.00  0.00     0.062 H 
ENDBRANCH   1  49
TORSDOF 12
ENDMDL
MODEL 3
REMARK VINA RESULT:      -5.5      3.859      7.125
REMARK  12 active torsions:
REMARK  status: ('A' for Active; 'I' for Inactive)
REMARK    1  A    between atoms: C_1  and  C_2 
REMARK    2  A    between atoms: C_2  and  C_3 
REMARK    3  A    between atoms: C_3  and  C_23 
REMARK    4  A    between atoms: C_4  and  C_5 
REMARK    5  A    between atoms: C_4  and  C_16 
REMARK    6  A    between atoms: C_8  and  O_11 
REMARK    7  A    between atoms: O_11  and  C_12 
REMARK    8  A    between atoms: C_12  and  C_13 
REMARK    9  A    between atoms: C_13  and  N_58 
REMARK   10  A    between atoms: C_14  and  N_58 
REMARK   11  A    between atoms: C_15  and  N_58 
REMARK   12  A    between atoms: C_20  and  O_22 
ROOT
ATOM      1  C   LIG d   1       6.742  -2.781  -4.692  0.00  0.00    -0.032 C 
ATOM      2  C   LIG d   1       5.410  -2.840  -4.934  0.00  0.00    -0.007 C 
ENDROOT
BRANCH   2   3
ATOM      3  C   LIG d   1       4.875  -3.835  -5.890  0.00  0.00    -0.017 A 
ATOM      4  C   LIG d   1       4.454  -3.431  -7.157  0.00  0.00    -0.051 A 
ATOM      5  C   LIG d   1       3.957  -4.362  -8.045  0.00  0.00    -0.019 A 
ATOM      6  H   LIG d   1       4.517  -2.392  -7.443  0.00  0.00     0.062 H 
ATOM      7  C   LIG d   1       3.875  -5.699  -7.679  0.00  0.00     0.121 A 
ATOM      8  H   LIG d   1       3.631  -4.051  -9.027  0.00  0.00     0.065 H 
ATOM      9  C   LIG d   1       4.293  -6.104  -6.418  0.00  0.00    -0.019 A 
ATOM     10  C   LIG d   1       4.796  -5.180  -5.527  0.00  0.00    -0.051 A 
ATOM     11  H   LIG d   1       4.229  -7.145  -6.137  0.00  0.00     0.065 H 
ATOM     12  H   LIG d   1       5.125  -5.497  -4.548  0.00  0.00     0.062 H 
BRANCH   7  13
ATOM     13  O   LIG d   1       3.385  -6.613  -8.557  0.00  0.00    -0.487 OA
BRANCH  13  14
ATOM     14  C   LIG d   1       3.061  -6.144  -9.867  0.00  0.00     0.129 C 
ATOM     15  H   LIG d   1       3.195  -5.064  -9.910  0.00  0.00     0.075 H 
ATOM     16  H   LIG d   1       3.715  -6.622 -10.597  0.00  0.00     0.075 H 
BRANCH  14  17
ATOM     17  C   LIG d   1       1.605  -6.491 -10.187  0.00  0.00     0.003 C 
ATOM     18  H   LIG d   1       1.513  -6.729 -11.247  0.00  0.00     0.085 H 
ATOM     19  H   LIG d   1       1.297  -7.351  -9.593  0.00  0.00     0.085 H 
BRANCH  17  20
ATOM     20  N   LIG d   1       0.752  -5.334  -9.840  0.00  0.00     0.233 N 
ATOM     21  H   LIG d   1       0.818  -5.162  -8.830  0.00  0.00     0.203 HD
BRANCH  20  22
ATOM     22  C   LIG d   1       1.217  -4.130 -10.562  0.00  0.00    -0.043 C 
ATOM     23  H   LIG d   1       0.529  -3.880 -11.369  0.00  0.00     0.078 H 
ATOM     24  H   LIG d   1       1.272  -3.296  -9.861  0.00  0.00     0.078 H 
ATOM     25  H   LIG d   1       2.207  -4.325 -10.974  0.00  0.00     0.078 H 
ENDBRANCH  20  22
BRANCH  20  26
ATOM     26  C   LIG d   1      -0.655  -5.621 -10.188  0.00  0.00    -0.043 C 
ATOM     27  H   LIG d   1      -0.955  -4.970 -11.009  0.00  0.00     0.078 H 
ATOM     28  H   LIG d   1      -0.738  -6.661 -10.500  0.00  0.00     0.078 H 
ATOM     29  H   LIG d   1      -1.303  -5.446  -9.329  0.00  0.00     0.078 H 
ENDBRANCH  20  26
ENDBRANCH  17  20
ENDBRANCH  14  17
ENDBRANCH  13  14
ENDBRANCH   7  13
ENDBRANCH   2   3
BRANCH   2  30
ATOM     30  C   LIG d   1       4.490  -1.908  -4.243  0.00  0.00    -0.014 A 
ATOM     31  C   LIG d   1       4.068  -0.742  -4.880  0.00  0.00    -0.012 A 
ATOM     32  C   LIG d   1       3.207   0.125  -4.228  0.00  0.00     0.117 A 
ATOM     33  H   LIG d   1       4.412  -0.514  -5.878  0.00  0.00     0.066 H 
ATOM     34  C   LIG d   1       2.771  -0.165  -2.942  0.00  0.00    -0.020 A 
ATOM     35  C   LIG d   1       3.184  -1.325  -2.312  0.00  0.00    -0.058 A 
ATOM     36  H   LIG d   1       2.102   0.514  -2.434  0.00  0.00     0.065 H 
ATOM     37  C   LIG d   1       4.042  -2.196  -2.953  0.00  0.00    -0.054 A 
ATOM     38  H   LIG d   1       2.838  -1.548  -1.313  0.00  0.00     0.062 H 
ATOM     39  H   LIG d   1       4.367  -3.098  -2.457  0.00  0.00     0.062 H 
BRANCH  32  40
ATOM     40  O   LIG d   1       2.793   1.264  -4.844  0.00  0.00    -0.507 OA
ATOM     41  H   LIG d   1       2.436   1.124  -5.732  0.00  0.00     0.292 HD
ENDBRANCH  32  40
ENDBRANCH   2  30
BRANCH   1  42
ATOM     42  C   LIG d   1       7.275  -1.854  -3.630  0.00  0.00    -0.029 C 
ATOM     43  H   LIG d   1       6.487  -1.638  -2.908  0.00  0.00     0.031 H 
ATOM     44  H   LIG d   1       8.113  -2.328  -3.122  0.00  0.00     0.031 H 
BRANCH  42  45
ATOM     45  C   LIG d   1       7.743  -0.549  -4.280  0.00  0.00    -0.061 C 
ATOM     46  H   LIG d   1       7.941   0.191  -3.506  0.00  0.00     0.023 H 
ATOM     47  H   LIG d   1       8.653  -0.733  -4.850  0.00  0.00     0.023 H 
ATOM     48  H   LIG d   1       6.965  -0.177  -4.947  0.00  0.00     0.023 H 
ENDBRANCH  42  45
ENDBRANCH   1  42
BRANCH   1  49
ATOM     49  C   LIG d   1       7.668  -3.624  -5.465  0.00  0.00    -0.021 A 
ATOM     50  C   LIG d   1       8.029  -3.260  -6.767  0.00  0.00    -0.054 A 
ATOM     51  C   LIG d   1       8.897  -4.054  -7.484  0.00  0.00    -0.061 A 
ATOM     52  H   LIG d   1       7.628  -2.359  -7.208  0.00  0.00     0.062 H 
ATOM     53  C   LIG d   1       9.412  -5.210  -6.921  0.00  0.00    -0.062 A 
ATOM     54  H   LIG d   1       9.177  -3.776  -8.490  0.00  0.00     0.062 H 
ATOM     55  C   LIG d   1       9.060  -5.575  -5.633  0.00  0.00    -0.061 A 
ATOM     56  H   LIG d   1      10.091  -5.827  -7.488  0.00  0.00     0.062 H 
ATOM     57  C   LIG d   1       8.196  -4.790  -4.901  0.00  0.00    -0.054 A 
ATOM     58  H   LIG d   1       9.466  -6.477  -5.200  0.00  0.00     0.062 H 
ATOM     59  H   LIG d   1       7.926  -5.075  -3.894  0.00  0.00     0.062 H 
ENDBRANCH   1  49
TORSDOF 12
ENDMDL
MODEL 4
REMARK VINA RESULT:      -5.5      3.304      7.024
REMARK  12 active torsions:
REMARK  status: ('A' for Active; 'I' for Inactive)
REMARK    1  A    between atoms: C_1  and  C_2 
REMARK    2  A    between atoms: C_2  and  C_3 
REMARK    3  A    between atoms: C_3  and  C_23 
REMARK    4  A    between atoms: C_4  and  C_5 
REMARK    5  A    between atoms: C_4  and  C_16 
REMARK    6  A    between atoms: C_8  and  O_11 
REMARK    7  A    between atoms: O_11  and  C_12 
REMARK    8  A    between atoms: C_12  and  C_13 
REMARK    9  A    between atoms: C_13  and  N_58 
REMARK   10  A    between atoms: C_14  and  N_58 
REMARK   11  A    between atoms: C_15  and  N_58 
REMARK   12  A    between atoms: C_20  and  O_22 
ROOT
ATOM      1  C   LIG d   1       6.291  -1.240  -3.988  0.00  0.00    -0.032 C 
ATOM      2  C   LIG d   1       6.752  -2.350  -4.614  0.00  0.00    -0.007 C 
ENDROOT
BRANCH   2   3
ATOM      3  C   LIG d   1       5.831  -3.182  -5.419  0.00  0.00    -0.017 A 
ATOM      4  C   LIG d   1       5.652  -2.913  -6.776  0.00  0.00    -0.051 A 
ATOM      5  C   LIG d   1       4.793  -3.691  -7.523  0.00  0.00    -0.019 A 
ATOM      6  H   LIG d   1       6.184  -2.097  -7.241  0.00  0.00     0.062 H 
ATOM      7  C   LIG d   1       4.107  -4.742  -6.927  0.00  0.00     0.121 A 
ATOM      8  H   LIG d   1       4.653  -3.484  -8.574  0.00  0.00     0.065 H 
ATOM      9  C   LIG d   1       4.283  -5.011  -5.576  0.00  0.00    -0.019 A 
ATOM     10  C   LIG d   1       5.144  -4.241  -4.823  0.00  0.00    -0.051 A 
ATOM     11  H   LIG d   1       3.749  -5.829  -5.115  0.00  0.00     0.065 H 
ATOM     12  H   LIG d   1       5.283  -4.455  -3.774  0.00  0.00     0.062 H 
BRANCH   7  13
ATOM     13  O   LIG d   1       3.262  -5.506  -7.666  0.00  0.00    -0.487 OA
BRANCH  13  14
ATOM     14  C   LIG d   1       3.556  -5.637  -9.059  0.00  0.00     0.129 C 
ATOM     15  H   LIG d   1       4.093  -4.753  -9.401  0.00  0.00     0.075 H 
ATOM     16  H   LIG d   1       4.173  -6.522  -9.218  0.00  0.00     0.075 H 
BRANCH  14  17
ATOM     17  C   LIG d   1       2.251  -5.778  -9.845  0.00  0.00     0.003 C 
ATOM     18  H   LIG d   1       2.473  -6.095 -10.864  0.00  0.00     0.085 H 
ATOM     19  H   LIG d   1       1.615  -6.520  -9.363  0.00  0.00     0.085 H 
BRANCH  17  20
ATOM     20  N   LIG d   1       1.554  -4.474  -9.849  0.00  0.00     0.233 N 
ATOM     21  H   LIG d   1       1.302  -4.228  -8.884  0.00  0.00     0.203 HD
BRANCH  20  22
ATOM     22  C   LIG d   1       2.445  -3.427 -10.393  0.00  0.00    -0.043 C 
ATOM     23  H   LIG d   1       1.860  -2.615 -10.823  0.00  0.00     0.078 H 
ATOM     24  H   LIG d   1       3.068  -3.039  -9.587  0.00  0.00     0.078 H 
ATOM     25  H   LIG d   1       3.078  -3.867 -11.163  0.00  0.00     0.078 H 
ENDBRANCH  20  22
BRANCH  20  26
ATOM     26  C   LIG d   1       0.322  -4.562 -10.660  0.00  0.00    -0.043 C 
ATOM     27  H   LIG d   1      -0.535  -4.334 -10.026  0.00  0.00     0.078 H 
ATOM     28  H   LIG d   1       0.378  -3.834 -11.469  0.00  0.00     0.078 H 
ATOM     29  H   LIG d   1       0.210  -5.562 -11.077  0.00  0.00     0.078 H 
ENDBRANCH  20  26
ENDBRANCH  17  20
ENDBRANCH  14  17
ENDBRANCH  13  14
ENDBRANCH   7  13
ENDBRANCH   2   3
BRANCH   2  30
ATOM     30  C   LIG d   1       8.177  -2.731  -4.492  0.00  0.00    -0.014 A 
ATOM     31  C   LIG d   1       8.602  -3.518  -3.422  0.00  0.00    -0.012 A 
ATOM     32  C   LIG d   1       9.937  -3.870  -3.314  0.00  0.00     0.117 A 
ATOM     33  H   LIG d   1       7.892  -3.851  -2.679  0.00  0.00     0.066 H 
ATOM     34  C   LIG d   1      10.849  -3.437  -4.267  0.00  0.00    -0.020 A 
ATOM     35  C   LIG d   1      10.428  -2.661  -5.332  0.00  0.00    -0.058 A 
ATOM     36  H   LIG d   1      11.890  -3.710  -4.179  0.00  0.00     0.065 H 
ATOM     37  C   LIG d   1       9.100  -2.304  -5.448  0.00  0.00    -0.054 A 
ATOM     38  H   LIG d   1      11.141  -2.330  -6.072  0.00  0.00     0.062 H 
ATOM     39  H   LIG d   1       8.775  -1.694  -6.278  0.00  0.00     0.062 H 
BRANCH  32  40
ATOM     40  O   LIG d   1      10.356  -4.637  -2.273  0.00  0.00    -0.507 OA
ATOM     41  H   LIG d   1      10.207  -4.238  -1.405  0.00  0.00     0.292 HD
ENDBRANCH  32  40
ENDBRANCH   2  30
BRANCH   1  42
ATOM     42  C   LIG d   1       7.251  -0.326  -3.270  0.00  0.00    -0.029 C 
ATOM     43  H   LIG d   1       6.820  -0.025  -2.315  0.00  0.00     0.031 H 
ATOM     44  H   LIG d   1       8.190  -0.850  -3.096  0.00  0.00     0.031 H 
BRANCH  42  45
ATOM     45  C   LIG d   1       7.510   0.916  -4.126  0.00  0.00    -0.061 C 
ATOM     46  H   LIG d   1       6.676   1.609  -4.022  0.00  0.00     0.023 H 
ATOM     47  H   LIG d   1       8.428   1.400  -3.796  0.00  0.00     0.023 H 
ATOM     48  H   LIG d   1       7.610   0.622  -5.171  0.00  0.00     0.023 H 
ENDBRANCH  42  45
ENDBRANCH   1  42
BRANCH   1  49
ATOM     49  C   LIG d   1       4.854  -0.927  -4.010  0.00  0.00    -0.021 A 
ATOM     50  C   LIG d   1       4.028  -1.343  -2.960  0.00  0.00    -0.054 A 
ATOM     51  C   LIG d   1       2.682  -1.045  -2.988  0.00  0.00    -0.061 A 
ATOM     52  H   LIG d   1       4.443  -1.896  -2.131  0.00  0.00     0.062 H 
ATOM     53  C   LIG d   1       2.148  -0.336  -4.050  0.00  0.00    -0.062 A 
ATOM     54  H   LIG d   1       2.043  -1.366  -2.179  0.00  0.00     0.062 H 
ATOM     55  C   LIG d   1       2.959   0.080  -5.091  0.00  0.00    -0.061 A 
ATOM     56  H   LIG d   1       1.093  -0.106  -4.065  0.00  0.00     0.062 H 
ATOM     57  C   LIG d   1       4.307  -0.206  -5.077  0.00  0.00    -0.054 A 
ATOM     58  H   LIG d   1       2.535   0.633  -5.916  0.00  0.00     0.062 H 
ATOM     59  H   LIG d   1       4.939   0.122  -5.889  0.00  0.00     0.062 H 
ENDBRANCH   1  49
TORSDOF 12
ENDMDL
MODEL 5
REMARK VINA RESULT:      -5.5      3.664      7.465
REMARK  12 active torsions:
REMARK  status: ('A' for Active; 'I' for Inactive)
REMARK    1  A    between atoms: C_1  and  C_2 
REMARK    2  A    between atoms: C_2  and  C_3 
REMARK    3  A    between atoms: C_3  and  C_23 
REMARK    4  A    between atoms: C_4  and  C_5 
REMARK    5  A    between atoms: C_4  and  C_16 
REMARK    6  A    between atoms: C_8  and  O_11 
REMARK    7  A    between atoms: O_11  and  C_12 
REMARK    8  A    between atoms: C_12  and  C_13 
REMARK    9  A    between atoms: C_13  and  N_58 
REMARK   10  A    between atoms: C_14  and  N_58 
REMARK   11  A    between atoms: C_15  and  N_58 
REMARK   12  A    between atoms: C_20  and  O_22 
ROOT
ATOM      1  C   LIG d   1       6.416  -0.508  -6.273  0.00  0.00    -0.032 C 
ATOM      2  C   LIG d   1       5.121  -0.819  -6.021  0.00  0.00    -0.007 C 
ENDROOT
BRANCH   2   3
ATOM      3  C   LIG d   1       4.184  -1.053  -7.142  0.00  0.00    -0.017 A 
ATOM      4  C   LIG d   1       4.181  -2.279  -7.808  0.00  0.00    -0.051 A 
ATOM      5  C   LIG d   1       3.307  -2.493  -8.852  0.00  0.00    -0.019 A 
ATOM      6  H   LIG d   1       4.864  -3.060  -7.506  0.00  0.00     0.062 H 
ATOM      7  C   LIG d   1       2.429  -1.490  -9.241  0.00  0.00     0.121 A 
ATOM      8  H   LIG d   1       3.303  -3.442  -9.367  0.00  0.00     0.065 H 
ATOM      9  C   LIG d   1       2.429  -0.267  -8.581  0.00  0.00    -0.019 A 
ATOM     10  C   LIG d   1       3.298  -0.048  -7.533  0.00  0.00    -0.051 A 
ATOM     11  H   LIG d   1       1.745   0.510  -8.886  0.00  0.00     0.065 H 
ATOM     12  H   LIG d   1       3.293   0.901  -7.018  0.00  0.00     0.062 H 
BRANCH   7  13
ATOM     13  O   LIG d   1       1.568  -1.704 -10.270  0.00  0.00    -0.487 OA
BRANCH  13  14
ATOM     14  C   LIG d   1       1.732  -0.890 -11.433  0.00  0.00     0.129 C 
ATOM     15  H   LIG d   1       0.789  -0.397 -11.667  0.00  0.00     0.075 H 
ATOM     16  H   LIG d   1       2.499  -0.138 -11.245  0.00  0.00     0.075 H 
BRANCH  14  17
ATOM     17  C   LIG d   1       2.158  -1.766 -12.613  0.00  0.00     0.003 C 
ATOM     18  H   LIG d   1       2.005  -2.816 -12.360  0.00  0.00     0.085 H 
ATOM     19  H   LIG d   1       1.560  -1.512 -13.489  0.00  0.00     0.085 H 
BRANCH  17  20
ATOM     20  N   LIG d   1       3.583  -1.507 -12.909  0.00  0.00     0.233 N 
ATOM     21  H   LIG d   1       3.704  -1.431 -13.926  0.00  0.00     0.203 HD
BRANCH  20  22
ATOM     22  C   LIG d   1       4.007  -0.238 -12.280  0.00  0.00    -0.043 C 
ATOM     23  H   LIG d   1       3.966  -0.318 -11.194  0.00  0.00     0.078 H 
ATOM     24  H   LIG d   1       5.028  -0.014 -12.589  0.00  0.00     0.078 H 
ATOM     25  H   LIG d   1       3.343   0.560 -12.611  0.00  0.00     0.078 H 
ENDBRANCH  20  22
BRANCH  20  26
ATOM     26  C   LIG d   1       4.414  -2.622 -12.408  0.00  0.00    -0.043 C 
ATOM     27  H   LIG d   1       4.864  -3.135 -13.259  0.00  0.00     0.078 H 
ATOM     28  H   LIG d   1       5.200  -2.219 -11.771  0.00  0.00     0.078 H 
ATOM     29  H   LIG d   1       3.807  -3.325 -11.838  0.00  0.00     0.078 H 
ENDBRANCH  20  26
ENDBRANCH  17  20
ENDBRANCH  14  17
ENDBRANCH  13  14
ENDBRANCH   7  13
ENDBRANCH   2   3
BRANCH   2  30
ATOM     30  C   LIG d   1       4.644  -0.927  -4.624  0.00  0.00    -0.014 A 
ATOM     31  C   LIG d   1       4.286   0.221  -3.917  0.00  0.00    -0.012 A 
ATOM     32  C   LIG d   1       3.840   0.113  -2.610  0.00  0.00     0.117 A 
ATOM     33  H   LIG d   1       4.358   1.191  -4.387  0.00  0.00     0.066 H 
ATOM     34  C   LIG d   1       3.754  -1.134  -2.006  0.00  0.00    -0.020 A 
ATOM     35  C   LIG d   1       4.103  -2.274  -2.708  0.00  0.00    -0.058 A 
ATOM     36  H   LIG d   1       3.410  -1.215  -0.986  0.00  0.00     0.065 H 
ATOM     37  C   LIG d   1       4.549  -2.177  -4.011  0.00  0.00    -0.054 A 
ATOM     38  H   LIG d   1       4.030  -3.241  -2.234  0.00  0.00     0.062 H 
ATOM     39  H   LIG d   1       4.825  -3.068  -4.555  0.00  0.00     0.062 H 
BRANCH  32  40
ATOM     40  O   LIG d   1       3.491   1.229  -1.917  0.00  0.00    -0.507 OA
ATOM     41  H   LIG d   1       4.230   1.658  -1.464  0.00  0.00     0.292 HD
ENDBRANCH  32  40
ENDBRANCH   2  30
BRANCH   1  42
ATOM     42  C   LIG d   1       7.398  -0.391  -5.136  0.00  0.00    -0.029 C 
ATOM     43  H   LIG d   1       6.938  -0.765  -4.220  0.00  0.00     0.031 H 
ATOM     44  H   LIG d   1       8.286  -0.979  -5.362  0.00  0.00     0.031 H 
BRANCH  42  45
ATOM     45  C   LIG d   1       7.790   1.076  -4.948  0.00  0.00    -0.061 C 
ATOM     46  H   LIG d   1       6.910   1.655  -4.672  0.00  0.00     0.023 H 
ATOM     47  H   LIG d   1       8.538   1.154  -4.160  0.00  0.00     0.023 H 
ATOM     48  H   LIG d   1       8.202   1.463  -5.880  0.00  0.00     0.023 H 
ENDBRANCH  42  45
ENDBRANCH   1  42
BRANCH   1  49
ATOM     49  C   LIG d   1       6.862  -0.284  -7.657  0.00  0.00    -0.021 A 
ATOM     50  C   LIG d   1       7.552  -1.289  -8.343  0.00  0.00    -0.054 A 
ATOM     51  C   LIG d   1       7.967  -1.072  -9.640  0.00  0.00    -0.061 A 
ATOM     52  H   LIG d   1       7.760  -2.232  -7.859  0.00  0.00     0.062 H 
ATOM     53  C   LIG d   1       7.701   0.135 -10.263  0.00  0.00    -0.062 A 
ATOM     54  H   LIG d   1       8.500  -1.846 -10.172  0.00  0.00     0.062 H 
ATOM     55  C   LIG d   1       7.018   1.133  -9.591  0.00  0.00    -0.061 A 
ATOM     56  H   LIG d   1       8.028   0.298 -11.279  0.00  0.00     0.062 H 
ATOM     57  C   LIG d   1       6.593   0.931  -8.295  0.00  0.00    -0.054 A 
ATOM     58  H   LIG d   1       6.814   2.072 -10.084  0.00  0.00     0.062 H 
ATOM     59  H   LIG d   1       6.056   1.710  -7.773  0.00  0.00     0.062 H 
ENDBRANCH   1  49
TORSDOF 12
ENDMDL
MODEL 6
REMARK VINA RESULT:      -5.4      1.187      1.755
REMARK  12 active torsions:
REMARK  status: ('A' for Active; 'I' for Inactive)
REMARK    1  A    between atoms: C_1  and  C_2 
REMARK    2  A    between atoms: C_2  and  C_3 
REMARK    3  A    between atoms: C_3  and  C_23 
REMARK    4  A    between atoms: C_4  and  C_5 
REMARK    5  A    between atoms: C_4  and  C_16 
REMARK    6  A    between atoms: C_8  and  O_11 
REMARK    7  A    between atoms: O_11  and  C_12 
REMARK    8  A    between atoms: C_12  and  C_13 
REMARK    9  A    between atoms: C_13  and  N_58 
REMARK   10  A    between atoms: C_14  and  N_58 
REMARK   11  A    between atoms: C_15  and  N_58 
REMARK   12  A    between atoms: C_20  and  O_22 
ROOT
ATOM      1  C   LIG d   1       3.393  -0.240  -5.461  0.00  0.00    -0.032 C 
ATOM      2  C   LIG d   1       4.083  -0.745  -6.513  0.00  0.00    -0.007 C 
ENDROOT
BRANCH   2   3
ATOM      3  C   LIG d   1       5.223  -1.659  -6.280  0.00  0.00    -0.017 A 
ATOM      4  C   LIG d   1       5.004  -3.031  -6.153  0.00  0.00    -0.051 A 
ATOM      5  C   LIG d   1       6.069  -3.880  -5.937  0.00  0.00    -0.019 A 
ATOM      6  H   LIG d   1       4.002  -3.428  -6.224  0.00  0.00     0.062 H 
ATOM      7  C   LIG d   1       7.358  -3.371  -5.846  0.00  0.00     0.121 A 
ATOM      8  H   LIG d   1       5.900  -4.942  -5.839  0.00  0.00     0.065 H 
ATOM      9  C   LIG d   1       7.579  -2.006  -5.971  0.00  0.00    -0.019 A 
ATOM     10  C   LIG d   1       6.520  -1.151  -6.193  0.00  0.00    -0.051 A 
ATOM     11  H   LIG d   1       8.582  -1.614  -5.900  0.00  0.00     0.065 H 
ATOM     12  H   LIG d   1       6.694  -0.090  -6.294  0.00  0.00     0.062 H 
BRANCH   7  13
ATOM     13  O   LIG d   1       8.404  -4.211  -5.633  0.00  0.00    -0.487 OA
BRANCH  13  14
ATOM     14  C   LIG d   1       8.105  -5.491  -5.072  0.00  0.00     0.129 C 
ATOM     15  H   LIG d   1       7.082  -5.492  -4.696  0.00  0.00     0.075 H 
ATOM     16  H   LIG d   1       8.212  -6.258  -5.838  0.00  0.00     0.075 H 
BRANCH  14  17
ATOM     17  C   LIG d   1       9.072  -5.782  -3.922  0.00  0.00     0.003 C 
ATOM     18  H   LIG d   1       8.568  -5.609  -2.971  0.00  0.00     0.085 H 
ATOM     19  H   LIG d   1       9.400  -6.820  -3.977  0.00  0.00     0.085 H 
BRANCH  17  20
ATOM     20  N   LIG d   1      10.248  -4.896  -4.054  0.00  0.00     0.233 N 
ATOM     21  H   LIG d   1      10.063  -4.201  -4.786  0.00  0.00     0.203 HD
BRANCH  20  22
ATOM     22  C   LIG d   1      10.495  -4.192  -2.777  0.00  0.00    -0.043 C 
ATOM     23  H   LIG d   1      10.722  -3.142  -2.958  0.00  0.00     0.078 H 
ATOM     24  H   LIG d   1       9.604  -4.269  -2.152  0.00  0.00     0.078 H 
ATOM     25  H   LIG d   1      11.337  -4.664  -2.270  0.00  0.00     0.078 H 
ENDBRANCH  20  22
BRANCH  20  26
ATOM     26  C   LIG d   1      11.438  -5.688  -4.433  0.00  0.00    -0.043 C 
ATOM     27  H   LIG d   1      11.598  -6.463  -3.683  0.00  0.00     0.078 H 
ATOM     28  H   LIG d   1      11.260  -6.152  -5.402  0.00  0.00     0.078 H 
ATOM     29  H   LIG d   1      12.318  -5.049  -4.491  0.00  0.00     0.078 H 
ENDBRANCH  20  26
ENDBRANCH  17  20
ENDBRANCH  14  17
ENDBRANCH  13  14
ENDBRANCH   7  13
ENDBRANCH   2   3
BRANCH   2  30
ATOM     30  C   LIG d   1       3.696  -0.382  -7.894  0.00  0.00    -0.014 A 
ATOM     31  C   LIG d   1       4.192   0.785  -8.475  0.00  0.00    -0.012 A 
ATOM     32  C   LIG d   1       3.826   1.119  -9.769  0.00  0.00     0.117 A 
ATOM     33  H   LIG d   1       4.858   1.428  -7.918  0.00  0.00     0.066 H 
ATOM     34  C   LIG d   1       2.965   0.295 -10.482  0.00  0.00    -0.020 A 
ATOM     35  C   LIG d   1       2.477  -0.865  -9.908  0.00  0.00    -0.058 A 
ATOM     36  H   LIG d   1       2.678   0.559 -11.489  0.00  0.00     0.065 H 
ATOM     37  C   LIG d   1       2.836  -1.207  -8.620  0.00  0.00    -0.054 A 
ATOM     38  H   LIG d   1       1.811  -1.504 -10.469  0.00  0.00     0.062 H 
ATOM     39  H   LIG d   1       2.450  -2.111  -8.174  0.00  0.00     0.062 H 
BRANCH  32  40
ATOM     40  O   LIG d   1       4.306   2.255 -10.340  0.00  0.00    -0.507 OA
ATOM     41  H   LIG d   1       4.673   2.889  -9.707  0.00  0.00     0.292 HD
ENDBRANCH  32  40
ENDBRANCH   2  30
BRANCH   1  42
ATOM     42  C   LIG d   1       2.159   0.592  -5.698  0.00  0.00    -0.029 C 
ATOM     43  H   LIG d   1       2.048   0.778  -6.767  0.00  0.00     0.031 H 
ATOM     44  H   LIG d   1       1.284   0.056  -5.330  0.00  0.00     0.031 H 
BRANCH  42  45
ATOM     45  C   LIG d   1       2.291   1.925  -4.958  0.00  0.00    -0.061 C 
ATOM     46  H   LIG d   1       1.300   2.305  -4.715  0.00  0.00     0.023 H 
ATOM     47  H   LIG d   1       2.859   1.776  -4.041  0.00  0.00     0.023 H 
ATOM     48  H   LIG d   1       2.809   2.642  -5.594  0.00  0.00     0.023 H 
ENDBRANCH  42  45
ENDBRANCH   1  42
BRANCH   1  49
ATOM     49  C   LIG d   1       3.850  -0.504  -4.088  0.00  0.00    -0.021 A 
ATOM     50  C   LIG d   1       4.719   0.389  -3.452  0.00  0.00    -0.054 A 
ATOM     51  C   LIG d   1       5.141   0.134  -2.165  0.00  0.00    -0.061 A 
ATOM     52  H   LIG d   1       5.058   1.275  -3.968  0.00  0.00     0.062 H 
ATOM     53  C   LIG d   1       4.708  -1.001  -1.501  0.00  0.00    -0.062 A 
ATOM     54  H   LIG d   1       5.813   0.822  -1.672  0.00  0.00     0.062 H 
ATOM     55  C   LIG d   1       3.847  -1.887  -2.123  0.00  0.00    -0.061 A 
ATOM     56  H   LIG d   1       5.042  -1.193  -0.493  0.00  0.00     0.062 H 
ATOM     57  C   LIG d   1       3.412  -1.646  -3.408  0.00  0.00    -0.054 A 
ATOM     58  H   LIG d   1       3.512  -2.770  -1.598  0.00  0.00     0.062 H 
ATOM     59  H   LIG d   1       2.737  -2.338  -3.891  0.00  0.00     0.062 H 
ENDBRANCH   1  49
TORSDOF 12
ENDMDL
MODEL 7
REMARK VINA RESULT:      -5.3      4.351      6.995
REMARK  12 active torsions:
REMARK  status: ('A' for Active; 'I' for Inactive)
REMARK    1  A    between atoms: C_1  and  C_2 
REMARK    2  A    between atoms: C_2  and  C_3 
REMARK    3  A    between atoms: C_3  and  C_23 
REMARK    4  A    between atoms: C_4  and  C_5 
REMARK    5  A    between atoms: C_4  and  C_16 
REMARK    6  A    between atoms: C_8  and  O_11 
REMARK    7  A    between atoms: O_11  and  C_12 
REMARK    8  A    between atoms: C_12  and  C_13 
REMARK    9  A    between atoms: C_13  and  N_58 
REMARK   10  A    between atoms: C_14  and  N_58 
REMARK   11  A    between atoms: C_15  and  N_58 
REMARK   12  A    between atoms: C_20  and  O_22 
ROOT
ATOM      1  C   LIG d   1       7.307  -2.070  -5.291  0.00  0.00    -0.032 C 
ATOM      2  C   LIG d   1       6.751  -0.940  -4.791  0.00  0.00    -0.007 C 
ENDROOT
BRANCH   2   3
ATOM      3  C   LIG d   1       7.442   0.358  -4.950  0.00  0.00    -0.017 A 
ATOM      4  C   LIG d   1       7.639   0.895  -6.223  0.00  0.00    -0.051 A 
ATOM      5  C   LIG d   1       8.283   2.105  -6.367  0.00  0.00    -0.019 A 
ATOM      6  H   LIG d   1       7.287   0.362  -7.095  0.00  0.00     0.062 H 
ATOM      7  C   LIG d   1       8.736   2.791  -5.248  0.00  0.00     0.121 A 
ATOM      8  H   LIG d   1       8.436   2.521  -7.352  0.00  0.00     0.065 H 
ATOM      9  C   LIG d   1       8.542   2.259  -3.979  0.00  0.00    -0.019 A 
ATOM     10  C   LIG d   1       7.894   1.052  -3.827  0.00  0.00    -0.051 A 
ATOM     11  H   LIG d   1       8.895   2.796  -3.110  0.00  0.00     0.065 H 
ATOM     12  H   LIG d   1       7.740   0.643  -2.839  0.00  0.00     0.062 H 
BRANCH   7  13
ATOM     13  O   LIG d   1       9.370   3.983  -5.394  0.00  0.00    -0.487 OA
BRANCH  13  14
ATOM     14  C   LIG d   1       9.971   4.546  -4.225  0.00  0.00     0.129 C 
ATOM     15  H   LIG d   1       9.683   3.961  -3.352  0.00  0.00     0.075 H 
ATOM     16  H   LIG d   1      11.056   4.531  -4.331  0.00  0.00     0.075 H 
BRANCH  14  17
ATOM     17  C   LIG d   1       9.496   5.990  -4.053  0.00  0.00     0.003 C 
ATOM     18  H   LIG d   1      10.141   6.655  -4.627  0.00  0.00     0.085 H 
ATOM     19  H   LIG d   1       8.470   6.080  -4.409  0.00  0.00     0.085 H 
BRANCH  17  20
ATOM     20  N   LIG d   1       9.541   6.337  -2.616  0.00  0.00     0.233 N 
ATOM     21  H   LIG d   1       8.586   6.321  -2.239  0.00  0.00     0.203 HD
BRANCH  20  22
ATOM     22  C   LIG d   1      10.363   5.351  -1.884  0.00  0.00    -0.043 C 
ATOM     23  H   LIG d   1      10.035   4.337  -2.110  0.00  0.00     0.078 H 
ATOM     24  H   LIG d   1      11.406   5.469  -2.180  0.00  0.00     0.078 H 
ATOM     25  H   LIG d   1      10.266   5.535  -0.814  0.00  0.00     0.078 H 
ENDBRANCH  20  22
BRANCH  20  26
ATOM     26  C   LIG d   1      10.103   7.693  -2.441  0.00  0.00    -0.043 C 
ATOM     27  H   LIG d   1       9.297   8.422  -2.524  0.00  0.00     0.078 H 
ATOM     28  H   LIG d   1      10.556   7.764  -1.453  0.00  0.00     0.078 H 
ATOM     29  H   LIG d   1      10.856   7.895  -3.203  0.00  0.00     0.078 H 
ENDBRANCH  20  26
ENDBRANCH  17  20
ENDBRANCH  14  17
ENDBRANCH  13  14
ENDBRANCH   7  13
ENDBRANCH   2   3
BRANCH   2  30
ATOM     30  C   LIG d   1       5.451  -1.004  -4.086  0.00  0.00    -0.014 A 
ATOM     31  C   LIG d   1       4.293  -0.544  -4.711  0.00  0.00    -0.012 A 
ATOM     32  C   LIG d   1       3.080  -0.607  -4.045  0.00  0.00     0.117 A 
ATOM     33  H   LIG d   1       4.341  -0.138  -5.711  0.00  0.00     0.066 H 
ATOM     34  C   LIG d   1       3.019  -1.124  -2.758  0.00  0.00    -0.020 A 
ATOM     35  C   LIG d   1       4.167  -1.586  -2.139  0.00  0.00    -0.058 A 
ATOM     36  H   LIG d   1       2.073  -1.169  -2.239  0.00  0.00     0.065 H 
ATOM     37  C   LIG d   1       5.381  -1.528  -2.793  0.00  0.00    -0.054 A 
ATOM     38  H   LIG d   1       4.114  -1.991  -1.139  0.00  0.00     0.062 H 
ATOM     39  H   LIG d   1       6.276  -1.885  -2.306  0.00  0.00     0.062 H 
BRANCH  32  40
ATOM     40  O   LIG d   1       1.948  -0.159  -4.650  0.00  0.00    -0.507 OA
ATOM     41  H   LIG d   1       1.692   0.738  -4.392  0.00  0.00     0.292 HD
ENDBRANCH  32  40
ENDBRANCH   2  30
BRANCH   1  42
ATOM     42  C   LIG d   1       6.548  -3.371  -5.238  0.00  0.00    -0.029 C 
ATOM     43  H   LIG d   1       5.741  -3.290  -4.509  0.00  0.00     0.031 H 
ATOM     44  H   LIG d   1       6.130  -3.587  -6.221  0.00  0.00     0.031 H 
BRANCH  42  45
ATOM     45  C   LIG d   1       7.496  -4.499  -4.826  0.00  0.00    -0.061 C 
ATOM     46  H   LIG d   1       8.389  -4.469  -5.449  0.00  0.00     0.023 H 
ATOM     47  H   LIG d   1       7.776  -4.374  -3.781  0.00  0.00     0.023 H 
ATOM     48  H   LIG d   1       6.995  -5.459  -4.956  0.00  0.00     0.023 H 
ENDBRANCH  42  45
ENDBRANCH   1  42
BRANCH   1  49
ATOM     49  C   LIG d   1       8.652  -2.026  -5.886  0.00  0.00    -0.021 A 
ATOM     50  C   LIG d   1       8.809  -2.107  -7.274  0.00  0.00    -0.054 A 
ATOM     51  C   LIG d   1      10.072  -2.065  -7.824  0.00  0.00    -0.061 A 
ATOM     52  H   LIG d   1       7.943  -2.204  -7.912  0.00  0.00     0.062 H 
ATOM     53  C   LIG d   1      11.184  -1.942  -7.007  0.00  0.00    -0.062 A 
ATOM     54  H   LIG d   1      10.196  -2.128  -8.895  0.00  0.00     0.062 H 
ATOM     55  C   LIG d   1      11.036  -1.860  -5.634  0.00  0.00    -0.061 A 
ATOM     56  H   LIG d   1      12.169  -1.909  -7.444  0.00  0.00     0.062 H 
ATOM     57  C   LIG d   1       9.779  -1.897  -5.068  0.00  0.00    -0.054 A 
ATOM     58  H   LIG d   1      11.907  -1.763  -5.003  0.00  0.00     0.062 H 
ATOM     59  H   LIG d   1       9.665  -1.829  -3.996  0.00  0.00     0.062 H 
ENDBRANCH   1  49
TORSDOF 12
ENDMDL
MODEL 8
REMARK VINA RESULT:      -5.2      3.831      6.302
REMARK  12 active torsions:
REMARK  status: ('A' for Active; 'I' for Inactive)
REMARK    1  A    between atoms: C_1  and  C_2 
REMARK    2  A    between atoms: C_2  and  C_3 
REMARK    3  A    between atoms: C_3  and  C_23 
REMARK    4  A    between atoms: C_4  and  C_5 
REMARK    5  A    between atoms: C_4  and  C_16 
REMARK    6  A    between atoms: C_8  and  O_11 
REMARK    7  A    between atoms: O_11  and  C_12 
REMARK    8  A    between atoms: C_12  and  C_13 
REMARK    9  A    between atoms: C_13  and  N_58 
REMARK   10  A    between atoms: C_14  and  N_58 
REMARK   11  A    between atoms: C_15  and  N_58 
REMARK   12  A    between atoms: C_20  and  O_22 
ROOT
ATOM      1  C   LIG d   1       4.794  -1.906  -6.731  0.00  0.00    -0.032 C 
ATOM      2  C   LIG d   1       5.008  -2.573  -5.570  0.00  0.00    -0.007 C 
ENDROOT
BRANCH   2   3
ATOM      3  C   LIG d   1       5.386  -4.003  -5.599  0.00  0.00    -0.017 A 
ATOM      4  C   LIG d   1       6.727  -4.374  -5.491  0.00  0.00    -0.051 A 
ATOM      5  C   LIG d   1       7.075  -5.708  -5.517  0.00  0.00    -0.019 A 
ATOM      6  H   LIG d   1       7.491  -3.618  -5.389  0.00  0.00     0.062 H 
ATOM      7  C   LIG d   1       6.094  -6.682  -5.649  0.00  0.00     0.121 A 
ATOM      8  H   LIG d   1       8.113  -5.996  -5.434  0.00  0.00     0.065 H 
ATOM      9  C   LIG d   1       4.758  -6.316  -5.756  0.00  0.00    -0.019 A 
ATOM     10  C   LIG d   1       4.402  -4.984  -5.726  0.00  0.00    -0.051 A 
ATOM     11  H   LIG d   1       3.998  -7.075  -5.858  0.00  0.00     0.065 H 
ATOM     12  H   LIG d   1       3.362  -4.702  -5.805  0.00  0.00     0.062 H 
BRANCH   7  13
ATOM     13  O   LIG d   1       6.441  -7.995  -5.673  0.00  0.00    -0.487 OA
BRANCH  13  14
ATOM     14  C   LIG d   1       6.474  -8.680  -4.420  0.00  0.00     0.129 C 
ATOM     15  H   LIG d   1       7.498  -8.980  -4.197  0.00  0.00     0.075 H 
ATOM     16  H   LIG d   1       6.109  -8.019  -3.634  0.00  0.00     0.075 H 
BRANCH  14  17
ATOM     17  C   LIG d   1       5.584  -9.922  -4.494  0.00  0.00     0.003 C 
ATOM     18  H   LIG d   1       4.931  -9.850  -5.364  0.00  0.00     0.085 H 
ATOM     19  H   LIG d   1       6.207 -10.812  -4.579  0.00  0.00     0.085 H 
BRANCH  17  20
ATOM     20  N   LIG d   1       4.785 -10.010  -3.253  0.00  0.00     0.233 N 
ATOM     21  H   LIG d   1       4.521  -9.063  -2.958  0.00  0.00     0.203 HD
BRANCH  20  22
ATOM     22  C   LIG d   1       3.556 -10.794  -3.499  0.00  0.00    -0.043 C 
ATOM     23  H   LIG d   1       3.530 -11.675  -2.857  0.00  0.00     0.078 H 
ATOM     24  H   LIG d   1       2.688 -10.167  -3.289  0.00  0.00     0.078 H 
ATOM     25  H   LIG d   1       3.536 -11.104  -4.544  0.00  0.00     0.078 H 
ENDBRANCH  20  22
BRANCH  20  26
ATOM     26  C   LIG d   1       5.582 -10.643  -2.182  0.00  0.00    -0.043 C 
ATOM     27  H   LIG d   1       6.227  -9.889  -1.730  0.00  0.00     0.078 H 
ATOM     28  H   LIG d   1       4.907 -11.042  -1.426  0.00  0.00     0.078 H 
ATOM     29  H   LIG d   1       6.193 -11.449  -2.586  0.00  0.00     0.078 H 
ENDBRANCH  20  26
ENDBRANCH  17  20
ENDBRANCH  14  17
ENDBRANCH  13  14
ENDBRANCH   7  13
ENDBRANCH   2   3
BRANCH   2  30
ATOM     30  C   LIG d   1       4.863  -1.871  -4.275  0.00  0.00    -0.014 A 
ATOM     31  C   LIG d   1       5.501  -0.649  -4.067  0.00  0.00    -0.012 A 
ATOM     32  C   LIG d   1       5.361   0.002  -2.853  0.00  0.00     0.117 A 
ATOM     33  H   LIG d   1       6.104  -0.212  -4.850  0.00  0.00     0.066 H 
ATOM     34  C   LIG d   1       4.590  -0.563  -1.845  0.00  0.00    -0.020 A 
ATOM     35  C   LIG d   1       3.952  -1.773  -2.054  0.00  0.00    -0.058 A 
ATOM     36  H   LIG d   1       4.485  -0.055  -0.899  0.00  0.00     0.065 H 
ATOM     37  C   LIG d   1       4.085  -2.430  -3.260  0.00  0.00    -0.054 A 
ATOM     38  H   LIG d   1       3.351  -2.206  -1.268  0.00  0.00     0.062 H 
ATOM     39  H   LIG d   1       3.590  -3.376  -3.417  0.00  0.00     0.062 H 
BRANCH  32  40
ATOM     40  O   LIG d   1       5.981   1.194  -2.645  0.00  0.00    -0.507 OA
ATOM     41  H   LIG d   1       6.165   1.689  -3.456  0.00  0.00     0.292 HD
ENDBRANCH  32  40
ENDBRANCH   2  30
BRANCH   1  42
ATOM     42  C   LIG d   1       4.530  -0.422  -6.709  0.00  0.00    -0.029 C 
ATOM     43  H   LIG d   1       4.844  -0.012  -5.748  0.00  0.00     0.031 H 
ATOM     44  H   LIG d   1       5.091   0.058  -7.509  0.00  0.00     0.031 H 
BRANCH  42  45
ATOM     45  C   LIG d   1       3.034  -0.167  -6.908  0.00  0.00    -0.061 C 
ATOM     46  H   LIG d   1       2.887   0.465  -7.783  0.00  0.00     0.023 H 
ATOM     47  H   LIG d   1       2.520  -1.116  -7.054  0.00  0.00     0.023 H 
ATOM     48  H   LIG d   1       2.631   0.333  -6.027  0.00  0.00     0.023 H 
ENDBRANCH  42  45
ENDBRANCH   1  42
BRANCH   1  49
ATOM     49  C   LIG d   1       4.821  -2.630  -8.011  0.00  0.00    -0.021 A 
ATOM     50  C   LIG d   1       6.023  -2.771  -8.713  0.00  0.00    -0.054 A 
ATOM     51  C   LIG d   1       6.040  -3.451  -9.912  0.00  0.00    -0.061 A 
ATOM     52  H   LIG d   1       6.935  -2.347  -8.318  0.00  0.00     0.062 H 
ATOM     53  C   LIG d   1       4.873  -3.995 -10.421  0.00  0.00    -0.062 A 
ATOM     54  H   LIG d   1       6.967  -3.560 -10.456  0.00  0.00     0.062 H 
ATOM     55  C   LIG d   1       3.682  -3.861  -9.731  0.00  0.00    -0.061 A 
ATOM     56  H   LIG d   1       4.894  -4.527 -11.359  0.00  0.00     0.062 H 
ATOM     57  C   LIG d   1       3.647  -3.187  -8.529  0.00  0.00    -0.054 A 
ATOM     58  H   LIG d   1       2.775  -4.288 -10.134  0.00  0.00     0.062 H 
ATOM     59  H   LIG d   1       2.717  -3.086  -7.990  0.00  0.00     0.062 H 
ENDBRANCH   1  49
TORSDOF 12
ENDMDL
MODEL 9
REMARK VINA RESULT:      -5.2      3.447      6.694
REMARK  12 active torsions:
REMARK  status: ('A' for Active; 'I' for Inactive)
REMARK    1  A    between atoms: C_1  and  C_2 
REMARK    2  A    between atoms: C_2  and  C_3 
REMARK    3  A    between atoms: C_3  and  C_23 
REMARK    4  A    between atoms: C_4  and  C_5 
REMARK    5  A    between atoms: C_4  and  C_16 
REMARK    6  A    between atoms: C_8  and  O_11 
REMARK    7  A    between atoms: O_11  and  C_12 
REMARK    8  A    between atoms: C_12  and  C_13 
REMARK    9  A    between atoms: C_13  and  N_58 
REMARK   10  A    between atoms: C_14  and  N_58 
REMARK   11  A    between atoms: C_15  and  N_58 
REMARK   12  A    between atoms: C_20  and  O_22 
ROOT
ATOM      1  C   LIG d   1       6.409  -1.285  -3.954  0.00  0.00    -0.032 C 
ATOM      2  C   LIG d   1       6.853  -2.382  -4.615  0.00  0.00    -0.007 C 
ENDROOT
BRANCH   2   3
ATOM      3  C   LIG d   1       5.905  -3.213  -5.390  0.00  0.00    -0.017 A 
ATOM      4  C   LIG d   1       5.315  -4.333  -4.803  0.00  0.00    -0.051 A 
ATOM      5  C   LIG d   1       4.432  -5.104  -5.528  0.00  0.00    -0.019 A 
ATOM      6  H   LIG d   1       5.552  -4.597  -3.783  0.00  0.00     0.062 H 
ATOM      7  C   LIG d   1       4.127  -4.767  -6.840  0.00  0.00     0.121 A 
ATOM      8  H   LIG d   1       3.975  -5.971  -5.074  0.00  0.00     0.065 H 
ATOM      9  C   LIG d   1       4.712  -3.652  -7.427  0.00  0.00    -0.019 A 
ATOM     10  C   LIG d   1       5.593  -2.873  -6.707  0.00  0.00    -0.051 A 
ATOM     11  H   LIG d   1       4.473  -3.392  -8.448  0.00  0.00     0.065 H 
ATOM     12  H   LIG d   1       6.044  -2.005  -7.164  0.00  0.00     0.062 H 
BRANCH   7  13
ATOM     13  O   LIG d   1       3.256  -5.529  -7.551  0.00  0.00    -0.487 OA
BRANCH  13  14
ATOM     14  C   LIG d   1       3.399  -5.522  -8.973  0.00  0.00     0.129 C 
ATOM     15  H   LIG d   1       2.413  -5.515  -9.437  0.00  0.00     0.075 H 
ATOM     16  H   LIG d   1       3.951  -4.633  -9.279  0.00  0.00     0.075 H 
BRANCH  14  17
ATOM     17  C   LIG d   1       4.163  -6.771  -9.415  0.00  0.00     0.003 C 
ATOM     18  H   LIG d   1       4.238  -6.786 -10.502  0.00  0.00     0.085 H 
ATOM     19  H   LIG d   1       5.163  -6.759  -8.981  0.00  0.00     0.085 H 
BRANCH  17  20
ATOM     20  N   LIG d   1       3.441  -7.967  -8.930  0.00  0.00     0.233 N 
ATOM     21  H   LIG d   1       2.650  -7.667  -8.348  0.00  0.00     0.203 HD
BRANCH  20  22
ATOM     22  C   LIG d   1       2.924  -8.744 -10.076  0.00  0.00    -0.043 C 
ATOM     23  H   LIG d   1       3.740  -9.040 -10.736  0.00  0.00     0.078 H 
ATOM     24  H   LIG d   1       2.419  -9.636  -9.701  0.00  0.00     0.078 H 
ATOM     25  H   LIG d   1       2.214  -8.130 -10.629  0.00  0.00     0.078 H 
ENDBRANCH  20  22
BRANCH  20  26
ATOM     26  C   LIG d   1       4.344  -8.808  -8.115  0.00  0.00    -0.043 C 
ATOM     27  H   LIG d   1       5.285  -8.935  -8.651  0.00  0.00     0.078 H 
ATOM     28  H   LIG d   1       4.532  -8.308  -7.166  0.00  0.00     0.078 H 
ATOM     29  H   LIG d   1       3.895  -9.783  -7.931  0.00  0.00     0.078 H 
ENDBRANCH  20  26
ENDBRANCH  17  20
ENDBRANCH  14  17
ENDBRANCH  13  14
ENDBRANCH   7  13
ENDBRANCH   2   3
BRANCH   2  30
ATOM     30  C   LIG d   1       8.286  -2.749  -4.563  0.00  0.00    -0.014 A 
ATOM     31  C   LIG d   1       8.776  -3.506  -3.500  0.00  0.00    -0.012 A 
ATOM     32  C   LIG d   1      10.118  -3.846  -3.457  0.00  0.00     0.117 A 
ATOM     33  H   LIG d   1       8.111  -3.826  -2.711  0.00  0.00     0.066 H 
ATOM     34  C   LIG d   1      10.973  -3.429  -4.469  0.00  0.00    -0.020 A 
ATOM     35  C   LIG d   1      10.486  -2.683  -5.527  0.00  0.00    -0.058 A 
ATOM     36  H   LIG d   1      12.019  -3.692  -4.431  0.00  0.00     0.065 H 
ATOM     37  C   LIG d   1       9.151  -2.339  -5.579  0.00  0.00    -0.054 A 
ATOM     38  H   LIG d   1      11.155  -2.365  -6.313  0.00  0.00     0.062 H 
ATOM     39  H   LIG d   1       8.776  -1.752  -6.404  0.00  0.00     0.062 H 
BRANCH  32  40
ATOM     40  O   LIG d   1      10.600  -4.584  -2.422  0.00  0.00    -0.507 OA
ATOM     41  H   LIG d   1       9.914  -5.014  -1.892  0.00  0.00     0.292 HD
ENDBRANCH  32  40
ENDBRANCH   2  30
BRANCH   1  42
ATOM     42  C   LIG d   1       7.391  -0.371  -3.267  0.00  0.00    -0.029 C 
ATOM     43  H   LIG d   1       6.995  -0.079  -2.294  0.00  0.00     0.031 H 
ATOM     44  H   LIG d   1       8.339  -0.891  -3.133  0.00  0.00     0.031 H 
BRANCH  42  45
ATOM     45  C   LIG d   1       7.611   0.878  -4.124  0.00  0.00    -0.061 C 
ATOM     46  H   LIG d   1       6.754   1.543  -4.023  0.00  0.00     0.023 H 
ATOM     47  H   LIG d   1       8.511   1.393  -3.792  0.00  0.00     0.023 H 
ATOM     48  H   LIG d   1       7.723   0.586  -5.168  0.00  0.00     0.023 H 
ENDBRANCH  42  45
ENDBRANCH   1  42
BRANCH   1  49
ATOM     49  C   LIG d   1       4.970  -0.988  -3.907  0.00  0.00    -0.021 A 
ATOM     50  C   LIG d   1       4.375  -0.233  -4.924  0.00  0.00    -0.054 A 
ATOM     51  C   LIG d   1       3.025   0.042  -4.873  0.00  0.00    -0.061 A 
ATOM     52  H   LIG d   1       4.972   0.135  -5.746  0.00  0.00     0.062 H 
ATOM     53  C   LIG d   1       2.258  -0.428  -3.821  0.00  0.00    -0.062 A 
ATOM     54  H   LIG d   1       2.564   0.624  -5.657  0.00  0.00     0.062 H 
ATOM     55  C   LIG d   1       2.839  -1.177  -2.813  0.00  0.00    -0.061 A 
ATOM     56  H   LIG d   1       1.201  -0.210  -3.788  0.00  0.00     0.062 H 
ATOM     57  C   LIG d   1       4.187  -1.463  -2.850  0.00  0.00    -0.054 A 
ATOM     58  H   LIG d   1       2.234  -1.540  -1.995  0.00  0.00     0.062 H 
ATOM     59  H   LIG d   1       4.638  -2.051  -2.064  0.00  0.00     0.062 H 
ENDBRANCH   1  49
TORSDOF 12
ENDMDL
MODEL 10
REMARK VINA RESULT:      -5.2      3.684      6.602
REMARK  12 active torsions:
REMARK  status: ('A' for Active; 'I' for Inactive)
REMARK    1  A    between atoms: C_1  and  C_2 
REMARK    2  A    between atoms: C_2  and  C_3 
REMARK    3  A    between atoms: C_3  and  C_23 
REMARK    4  A    between atoms: C_4  and  C_5 
REMARK    5  A    between atoms: C_4  and  C_16 
REMARK    6  A    between atoms: C_8  and  O_11 
REMARK    7  A    between atoms: O_11  and  C_12 
REMARK    8  A    between atoms: C_12  and  C_13 
REMARK    9  A    between atoms: C_13  and  N_58 
REMARK   10  A    between atoms: C_14  and  N_58 
REMARK   11  A    between atoms: C_15  and  N_58 
REMARK   12  A    between atoms: C_20  and  O_22 
ROOT
ATOM      1  C   LIG d   1       5.442  -2.599  -4.765  0.00  0.00    -0.032 C 
ATOM      2  C   LIG d   1       6.757  -2.268  -4.773  0.00  0.00    -0.007 C 
ENDROOT
BRANCH   2   3
ATOM      3  C   LIG d   1       7.162  -0.845  -4.737  0.00  0.00    -0.017 A 
ATOM      4  C   LIG d   1       6.959  -0.090  -3.582  0.00  0.00    -0.051 A 
ATOM      5  C   LIG d   1       7.339   1.235  -3.552  0.00  0.00    -0.019 A 
ATOM      6  H   LIG d   1       6.505  -0.541  -2.712  0.00  0.00     0.062 H 
ATOM      7  C   LIG d   1       7.923   1.818  -4.669  0.00  0.00     0.121 A 
ATOM      8  H   LIG d   1       7.182   1.821  -2.658  0.00  0.00     0.065 H 
ATOM      9  C   LIG d   1       8.125   1.068  -5.821  0.00  0.00    -0.019 A 
ATOM     10  C   LIG d   1       7.753  -0.259  -5.856  0.00  0.00    -0.051 A 
ATOM     11  H   LIG d   1       8.581   1.525  -6.687  0.00  0.00     0.065 H 
ATOM     12  H   LIG d   1       7.916  -0.841  -6.751  0.00  0.00     0.062 H 
BRANCH   7  13
ATOM     13  O   LIG d   1       8.296   3.124  -4.635  0.00  0.00    -0.487 OA
BRANCH  13  14
ATOM     14  C   LIG d   1       9.684   3.397  -4.435  0.00  0.00     0.129 C 
ATOM     15  H   LIG d   1      10.261   2.487  -4.601  0.00  0.00     0.075 H 
ATOM     16  H   LIG d   1      10.008   4.166  -5.136  0.00  0.00     0.075 H 
BRANCH  14  17
ATOM     17  C   LIG d   1       9.906   3.888  -3.003  0.00  0.00     0.003 C 
ATOM     18  H   LIG d   1       8.944   3.976  -2.496  0.00  0.00     0.085 H 
ATOM     19  H   LIG d   1      10.535   3.176  -2.468  0.00  0.00     0.085 H 
BRANCH  17  20
ATOM     20  N   LIG d   1      10.589   5.198  -3.048  0.00  0.00     0.233 N 
ATOM     21  H   LIG d   1      11.479   5.128  -2.542  0.00  0.00     0.203 HD
BRANCH  20  22
ATOM     22  C   LIG d   1      10.865   5.575  -4.451  0.00  0.00    -0.043 C 
ATOM     23  H   LIG d   1      10.233   5.004  -5.131  0.00  0.00     0.078 H 
ATOM     24  H   LIG d   1      10.664   6.640  -4.578  0.00  0.00     0.078 H 
ATOM     25  H   LIG d   1      11.913   5.374  -4.672  0.00  0.00     0.078 H 
ENDBRANCH  20  22
BRANCH  20  26
ATOM     26  C   LIG d   1       9.749   6.229  -2.404  0.00  0.00    -0.043 C 
ATOM     27  H   LIG d   1       9.056   5.741  -1.718  0.00  0.00     0.078 H 
ATOM     28  H   LIG d   1      10.391   6.910  -1.846  0.00  0.00     0.078 H 
ATOM     29  H   LIG d   1       9.188   6.788  -3.152  0.00  0.00     0.078 H 
ENDBRANCH  20  26
ENDBRANCH  17  20
ENDBRANCH  14  17
ENDBRANCH  13  14
ENDBRANCH   7  13
ENDBRANCH   2   3
BRANCH   2  30
ATOM     30  C   LIG d   1       7.787  -3.330  -4.818  0.00  0.00    -0.014 A 
ATOM     31  C   LIG d   1       8.074  -3.976  -6.019  0.00  0.00    -0.012 A 
ATOM     32  C   LIG d   1       9.039  -4.968  -6.054  0.00  0.00     0.117 A 
ATOM     33  H   LIG d   1       7.544  -3.704  -6.921  0.00  0.00     0.066 H 
ATOM     34  C   LIG d   1       9.715  -5.321  -4.894  0.00  0.00    -0.020 A 
ATOM     35  C   LIG d   1       9.435  -4.676  -3.702  0.00  0.00    -0.058 A 
ATOM     36  H   LIG d   1      10.465  -6.097  -4.922  0.00  0.00     0.065 H 
ATOM     37  C   LIG d   1       8.475  -3.686  -3.657  0.00  0.00    -0.054 A 
ATOM     38  H   LIG d   1       9.968  -4.952  -2.803  0.00  0.00     0.062 H 
ATOM     39  H   LIG d   1       8.256  -3.188  -2.724  0.00  0.00     0.062 H 
BRANCH  32  40
ATOM     40  O   LIG d   1       9.322  -5.601  -7.223  0.00  0.00    -0.507 OA
ATOM     41  H   LIG d   1       8.542  -5.929  -7.692  0.00  0.00     0.292 HD
ENDBRANCH  32  40
ENDBRANCH   2  30
BRANCH   1  42
ATOM     42  C   LIG d   1       5.030  -4.046  -4.678  0.00  0.00    -0.029 C 
ATOM     43  H   LIG d   1       5.901  -4.657  -4.440  0.00  0.00     0.031 H 
ATOM     44  H   LIG d   1       4.280  -4.163  -3.897  0.00  0.00     0.031 H 
BRANCH  42  45
ATOM     45  C   LIG d   1       4.444  -4.492  -6.020  0.00  0.00    -0.061 C 
ATOM     46  H   LIG d   1       4.480  -3.663  -6.725  0.00  0.00     0.023 H 
ATOM     47  H   LIG d   1       5.025  -5.327  -6.410  0.00  0.00     0.023 H 
ATOM     48  H   LIG d   1       3.409  -4.804  -5.878  0.00  0.00     0.023 H 
ENDBRANCH  42  45
ENDBRANCH   1  42
BRANCH   1  49
ATOM     49  C   LIG d   1       4.419  -1.545  -4.841  0.00  0.00    -0.021 A 
ATOM     50  C   LIG d   1       3.663  -1.217  -3.711  0.00  0.00    -0.054 A 
ATOM     51  C   LIG d   1       2.706  -0.228  -3.790  0.00  0.00    -0.061 A 
ATOM     52  H   LIG d   1       3.828  -1.737  -2.779  0.00  0.00     0.062 H 
ATOM     53  C   LIG d   1       2.492   0.441  -4.983  0.00  0.00    -0.062 A 
ATOM     54  H   LIG d   1       2.121   0.027  -2.918  0.00  0.00     0.062 H 
ATOM     55  C   LIG d   1       3.237   0.123  -6.105  0.00  0.00    -0.061 A 
ATOM     56  H   LIG d   1       1.742   1.214  -5.038  0.00  0.00     0.062 H 
ATOM     57  C   LIG d   1       4.200  -0.861  -6.042  0.00  0.00    -0.054 A 
ATOM     58  H   LIG d   1       3.065   0.649  -7.032  0.00  0.00     0.062 H 
ATOM     59  H   LIG d   1       4.783  -1.106  -6.918  0.00  0.00     0.062 H 
ENDBRANCH   1  49
TORSDOF 12
ENDMDL
