MODEL 1
REMARK VINA RESULT:      -6.2      0.000      0.000
REMARK  1 active torsions:
REMARK  status: ('A' for Active; 'I' for Inactive)
REMARK    1  A    between atoms: C_8  and  C_14 
ROOT
ATOM      1  C   LIG d   1       9.846   3.550  -3.317  0.00  0.00     0.020 C 
ATOM      2  C   LIG d   1       9.675   4.384  -4.585  0.00  0.00     0.004 C 
ATOM      3  N   LIG d   1      10.130   5.779  -4.298  0.00  0.00    -0.311 N 
ATOM      4  C   LIG d   1       9.253   6.679  -5.109  0.00  0.00     0.036 C 
ATOM      5  C   LIG d   1       9.773   8.110  -4.977  0.00  0.00    -0.021 C 
ATOM      6  N   LIG d   1       9.588   8.578  -3.595  0.00  0.00     0.229 N 
ATOM      7  C   LIG d   1      10.892   8.663  -2.924  0.00  0.00    -0.021 C 
ATOM      8  C   LIG d   1      10.721   8.379  -1.433  0.00  0.00     0.036 C 
ATOM      9  N   LIG d   1      11.868   7.543  -0.967  0.00  0.00    -0.306 N 
ATOM     10  C   LIG d   1      11.282   6.357  -0.271  0.00  0.00     0.036 C 
ATOM     11  C   LIG d   1      11.993   5.099  -0.767  0.00  0.00    -0.021 C 
ATOM     12  N   LIG d   1      11.000   4.122  -1.235  0.00  0.00     0.228 N 
ATOM     13  C   LIG d   1      11.197   3.855  -2.667  0.00  0.00    -0.029 C 
ATOM     14  H   LIG d   1       9.042   3.779  -2.617  0.00  0.00     0.037 H 
ATOM     15  H   LIG d   1      10.286   3.984  -5.388  0.00  0.00     0.043 H 
ATOM     16  H   LIG d   1       8.630   4.417  -4.874  0.00  0.00     0.043 H 
ATOM     17  H   LIG d   1       9.304   6.357  -6.144  0.00  0.00     0.048 H 
ATOM     18  H   LIG d   1       8.240   6.609  -4.731  0.00  0.00     0.048 H 
ATOM     19  H   LIG d   1      10.832   8.137  -5.235  0.00  0.00     0.083 H 
ATOM     20  H   LIG d   1       9.222   8.759  -5.658  0.00  0.00     0.083 H 
ATOM     21  H   LIG d   1       9.151   9.486  -3.606  0.00  0.00     0.201 HD
ATOM     22  H   LIG d   1      11.571   7.932  -3.366  0.00  0.00     0.083 H 
ATOM     23  H   LIG d   1      11.305   9.664  -3.058  0.00  0.00     0.083 H 
ATOM     24  H   LIG d   1      10.737   9.312  -0.872  0.00  0.00     0.048 H 
ATOM     25  H   LIG d   1       9.797   7.845  -1.253  0.00  0.00     0.048 H 
ATOM     26  H   LIG d   1      12.211   7.112  -1.880  0.00  0.00     0.122 HD
ATOM     27  H   LIG d   1      11.447   6.475   0.797  0.00  0.00     0.048 H 
ATOM     28  H   LIG d   1      10.223   6.303  -0.493  0.00  0.00     0.048 H 
ATOM     29  H   LIG d   1      12.666   5.349  -1.586  0.00  0.00     0.083 H 
ATOM     30  H   LIG d   1      12.571   4.659   0.048  0.00  0.00     0.083 H 
ATOM     31  H   LIG d   1      11.112   3.259  -0.721  0.00  0.00     0.201 HD
ATOM     32  H   LIG d   1      11.855   2.991  -2.782  0.00  0.00     0.082 H 
ATOM     33  H   LIG d   1      11.650   4.722  -3.145  0.00  0.00     0.082 H 
ATOM     34  H   LIG d   1       9.750   5.932  -3.315  0.00  0.00     0.122 HD
ATOM     35  H   LIG d   1      10.071   4.480  -1.080  0.00  0.00     0.201 HD
ATOM     36  H   LIG d   1       8.996   7.926  -3.101  0.00  0.00     0.201 HD
ENDROOT
BRANCH   1  37
ATOM     37  C   LIG d   1       9.787   2.062  -3.675  0.00  0.00     0.020 C 
ATOM     38  C   LIG d   1       8.454   1.754  -4.359  0.00  0.00     0.004 C 
ATOM     39  N   LIG d   1       7.601   0.983  -3.444  0.00  0.00    -0.314 N 
ATOM     40  H   LIG d   1       8.635   1.173  -5.264  0.00  0.00     0.043 H 
ATOM     41  H   LIG d   1       7.955   2.688  -4.621  0.00  0.00     0.043 H 
ATOM     42  C   LIG d   1       6.871  -0.067  -4.165  0.00  0.00     0.009 C 
ATOM     43  H   LIG d   1       6.966   1.589  -2.946  0.00  0.00     0.122 HD
ATOM     44  C   LIG d   1       7.266  -1.436  -3.608  0.00  0.00     0.009 C 
ATOM     45  H   LIG d   1       7.119  -0.020  -5.225  0.00  0.00     0.044 H 
ATOM     46  H   LIG d   1       5.798   0.082  -4.036  0.00  0.00     0.044 H 
ATOM     47  N   LIG d   1       8.378  -1.983  -4.398  0.00  0.00    -0.314 N 
ATOM     48  H   LIG d   1       6.413  -2.112  -3.666  0.00  0.00     0.044 H 
ATOM     49  H   LIG d   1       7.576  -1.331  -2.569  0.00  0.00     0.044 H 
ATOM     50  C   LIG d   1       8.874  -3.236  -3.812  0.00  0.00     0.009 C 
ATOM     51  H   LIG d   1       9.122  -1.308  -4.490  0.00  0.00     0.122 HD
ATOM     52  C   LIG d   1      10.399  -3.283  -3.920  0.00  0.00     0.009 C 
ATOM     53  H   LIG d   1       8.445  -4.083  -4.350  0.00  0.00     0.044 H 
ATOM     54  H   LIG d   1       8.582  -3.287  -2.763  0.00  0.00     0.044 H 
ATOM     55  N   LIG d   1      10.868  -2.136  -4.709  0.00  0.00    -0.310 N 
ATOM     56  H   LIG d   1      10.835  -3.240  -2.923  0.00  0.00     0.044 H 
ATOM     57  H   LIG d   1      10.700  -4.208  -4.410  0.00  0.00     0.044 H 
ATOM     58  C   LIG d   1      12.066  -1.537  -4.105  0.00  0.00     0.036 C 
ATOM     59  H   LIG d   1      11.041  -2.402  -5.667  0.00  0.00     0.122 HD
ATOM     60  C   LIG d   1      12.366  -0.199  -4.786  0.00  0.00    -0.021 C 
ATOM     61  H   LIG d   1      12.914  -2.209  -4.236  0.00  0.00     0.048 H 
ATOM     62  H   LIG d   1      11.893  -1.372  -3.042  0.00  0.00     0.048 H 
ATOM     63  N   LIG d   1      11.930   0.902  -3.917  0.00  0.00     0.228 N 
ATOM     64  H   LIG d   1      11.831  -0.147  -5.735  0.00  0.00     0.083 H 
ATOM     65  H   LIG d   1      13.437  -0.117  -4.968  0.00  0.00     0.083 H 
ATOM     66  C   LIG d   1      10.938   1.722  -4.624  0.00  0.00    -0.029 C 
ATOM     67  H   LIG d   1      12.726   1.472  -3.674  0.00  0.00     0.201 HD
ATOM     68  H   LIG d   1      11.517   0.524  -3.077  0.00  0.00     0.201 HD
ATOM     69  H   LIG d   1      10.552   1.167  -5.480  0.00  0.00     0.082 H 
ATOM     70  H   LIG d   1      11.408   2.642  -4.971  0.00  0.00     0.082 H 
ATOM     71  H   LIG d   1       9.877   1.465  -2.767  0.00  0.00     0.037 H 
ENDBRANCH   1  37
TORSDOF 1
ENDMDL
MODEL 2
REMARK VINA RESULT:      -6.1      1.427      2.974
REMARK  1 active torsions:
REMARK  status: ('A' for Active; 'I' for Inactive)
REMARK    1  A    between atoms: C_8  and  C_14 
ROOT
ATOM      1  C   LIG d   1       9.695   4.564  -3.757  0.00  0.00     0.020 C 
ATOM      2  C   LIG d   1       9.843   5.297  -5.089  0.00  0.00     0.004 C 
ATOM      3  N   LIG d   1      10.130   6.737  -4.806  0.00  0.00    -0.311 N 
ATOM      4  C   LIG d   1       9.470   7.516  -5.898  0.00  0.00     0.036 C 
ATOM      5  C   LIG d   1       9.860   8.986  -5.748  0.00  0.00    -0.021 C 
ATOM      6  N   LIG d   1       9.275   9.531  -4.515  0.00  0.00     0.229 N 
ATOM      7  C   LIG d   1      10.335   9.752  -3.521  0.00  0.00    -0.021 C 
ATOM      8  C   LIG d   1       9.770   9.557  -2.115  0.00  0.00     0.036 C 
ATOM      9  N   LIG d   1      10.781   8.837  -1.286  0.00  0.00    -0.306 N 
ATOM     10  C   LIG d   1      10.085   7.662  -0.680  0.00  0.00     0.036 C 
ATOM     11  C   LIG d   1      10.967   6.427  -0.855  0.00  0.00    -0.021 C 
ATOM     12  N   LIG d   1      10.194   5.354  -1.494  0.00  0.00     0.228 N 
ATOM     13  C   LIG d   1      10.795   5.006  -2.790  0.00  0.00    -0.029 C 
ATOM     14  H   LIG d   1       8.718   4.781  -3.326  0.00  0.00     0.037 H 
ATOM     15  H   LIG d   1      10.672   4.889  -5.657  0.00  0.00     0.043 H 
ATOM     16  H   LIG d   1       8.919   5.237  -5.654  0.00  0.00     0.043 H 
ATOM     17  H   LIG d   1       9.823   7.131  -6.849  0.00  0.00     0.048 H 
ATOM     18  H   LIG d   1       8.396   7.400  -5.808  0.00  0.00     0.048 H 
ATOM     19  H   LIG d   1      10.947   9.071  -5.708  0.00  0.00     0.083 H 
ATOM     20  H   LIG d   1       9.489   9.548  -6.606  0.00  0.00     0.083 H 
ATOM     21  H   LIG d   1       8.813  10.403  -4.720  0.00  0.00     0.201 HD
ATOM     22  H   LIG d   1      11.145   9.044  -3.697  0.00  0.00     0.083 H 
ATOM     23  H   LIG d   1      10.718  10.770  -3.620  0.00  0.00     0.083 H 
ATOM     24  H   LIG d   1       9.582  10.524  -1.651  0.00  0.00     0.048 H 
ATOM     25  H   LIG d   1       8.859   8.972  -2.151  0.00  0.00     0.048 H 
ATOM     26  H   LIG d   1      11.386   8.372  -2.030  0.00  0.00     0.122 HD
ATOM     27  H   LIG d   1       9.940   7.862   0.379  0.00  0.00     0.048 H 
ATOM     28  H   LIG d   1       9.134   7.519  -1.178  0.00  0.00     0.048 H 
ATOM     29  H   LIG d   1      11.829   6.669  -1.477  0.00  0.00     0.083 H 
ATOM     30  H   LIG d   1      11.317   6.084   0.121  0.00  0.00     0.083 H 
ATOM     31  H   LIG d   1      10.201   4.537  -0.899  0.00  0.00     0.201 HD
ATOM     32  H   LIG d   1      11.501   4.185  -2.647  0.00  0.00     0.082 H 
ATOM     33  H   LIG d   1      11.319   5.869  -3.196  0.00  0.00     0.082 H 
ATOM     34  H   LIG d   1       9.484   6.928  -3.981  0.00  0.00     0.122 HD
ATOM     35  H   LIG d   1       9.242   5.654  -1.629  0.00  0.00     0.201 HD
ATOM     36  H   LIG d   1       8.601   8.873  -4.148  0.00  0.00     0.201 HD
ENDROOT
BRANCH   1  37
ATOM     37  C   LIG d   1       9.813   3.054  -3.992  0.00  0.00     0.020 C 
ATOM     38  C   LIG d   1      10.988   2.502  -3.183  0.00  0.00     0.004 C 
ATOM     39  N   LIG d   1      12.088   2.155  -4.093  0.00  0.00    -0.314 N 
ATOM     40  H   LIG d   1      10.670   1.612  -2.641  0.00  0.00     0.043 H 
ATOM     41  H   LIG d   1      11.328   3.258  -2.474  0.00  0.00     0.043 H 
ATOM     42  C   LIG d   1      12.739   0.905  -3.678  0.00  0.00     0.009 C 
ATOM     43  H   LIG d   1      12.757   2.908  -4.155  0.00  0.00     0.122 HD
ATOM     44  C   LIG d   1      12.604  -0.134  -4.793  0.00  0.00     0.009 C 
ATOM     45  H   LIG d   1      12.262   0.531  -2.772  0.00  0.00     0.044 H 
ATOM     46  H   LIG d   1      13.795   1.094  -3.482  0.00  0.00     0.044 H 
ATOM     47  N   LIG d   1      11.404  -0.948  -4.561  0.00  0.00    -0.314 N 
ATOM     48  H   LIG d   1      13.483  -0.777  -4.797  0.00  0.00     0.044 H 
ATOM     49  H   LIG d   1      12.520   0.373  -5.753  0.00  0.00     0.044 H 
ATOM     50  C   LIG d   1      11.167  -1.869  -5.680  0.00  0.00     0.009 C 
ATOM     51  H   LIG d   1      10.597  -0.363  -4.397  0.00  0.00     0.122 HD
ATOM     52  C   LIG d   1       9.666  -1.955  -5.963  0.00  0.00     0.009 C 
ATOM     53  H   LIG d   1      11.545  -2.858  -5.423  0.00  0.00     0.044 H 
ATOM     54  H   LIG d   1      11.684  -1.502  -6.568  0.00  0.00     0.044 H 
ATOM     55  N   LIG d   1       8.930  -1.211  -4.931  0.00  0.00    -0.310 N 
ATOM     56  H   LIG d   1       9.455  -1.522  -6.941  0.00  0.00     0.044 H 
ATOM     57  H   LIG d   1       9.353  -2.998  -5.951  0.00  0.00     0.044 H 
ATOM     58  C   LIG d   1       7.842  -0.423  -5.525  0.00  0.00     0.036 C 
ATOM     59  H   LIG d   1       8.579  -1.834  -4.219  0.00  0.00     0.122 HD
ATOM     60  C   LIG d   1       7.278   0.538  -4.477  0.00  0.00    -0.021 C 
ATOM     61  H   LIG d   1       7.053  -1.093  -5.867  0.00  0.00     0.048 H 
ATOM     62  H   LIG d   1       8.227   0.147  -6.371  0.00  0.00     0.048 H 
ATOM     63  N   LIG d   1       7.787   1.892  -4.728  0.00  0.00     0.228 N 
ATOM     64  H   LIG d   1       7.585   0.212  -3.483  0.00  0.00     0.083 H 
ATOM     65  H   LIG d   1       6.189   0.541  -4.537  0.00  0.00     0.083 H 
ATOM     66  C   LIG d   1       8.520   2.367  -3.548  0.00  0.00    -0.029 C 
ATOM     67  H   LIG d   1       7.014   2.512  -4.916  0.00  0.00     0.201 HD
ATOM     68  H   LIG d   1       8.406   1.876  -5.525  0.00  0.00     0.201 HD
ATOM     69  H   LIG d   1       8.761   1.521  -2.905  0.00  0.00     0.082 H 
ATOM     70  H   LIG d   1       7.901   3.077  -2.997  0.00  0.00     0.082 H 
ATOM     71  H   LIG d   1       9.979   2.864  -5.052  0.00  0.00     0.037 H 
ENDBRANCH   1  37
TORSDOF 1
ENDMDL
MODEL 3
REMARK VINA RESULT:      -6.1      2.627      8.800
REMARK  1 active torsions:
REMARK  status: ('A' for Active; 'I' for Inactive)
REMARK    1  A    between atoms: C_8  and  C_14 
ROOT
ATOM      1  C   LIG d   1      11.010   5.413  -3.399  0.00  0.00     0.020 C 
ATOM      2  C   LIG d   1      12.527   5.549  -3.286  0.00  0.00     0.004 C 
ATOM      3  N   LIG d   1      13.148   4.249  -3.686  0.00  0.00    -0.311 N 
ATOM      4  C   LIG d   1      14.370   4.092  -2.838  0.00  0.00     0.036 C 
ATOM      5  C   LIG d   1      15.133   2.855  -3.311  0.00  0.00    -0.021 C 
ATOM      6  N   LIG d   1      14.343   1.649  -3.028  0.00  0.00     0.229 N 
ATOM      7  C   LIG d   1      13.825   1.092  -4.286  0.00  0.00    -0.021 C 
ATOM      8  C   LIG d   1      12.483   0.407  -4.030  0.00  0.00     0.036 C 
ATOM      9  N   LIG d   1      11.564   0.711  -5.167  0.00  0.00    -0.306 N 
ATOM     10  C   LIG d   1      10.303   1.248  -4.570  0.00  0.00     0.036 C 
ATOM     11  C   LIG d   1       9.893   2.501  -5.343  0.00  0.00    -0.021 C 
ATOM     12  N   LIG d   1       9.690   3.615  -4.407  0.00  0.00     0.228 N 
ATOM     13  C   LIG d   1      10.644   4.695  -4.700  0.00  0.00    -0.029 C 
ATOM     14  H   LIG d   1      10.628   4.850  -2.548  0.00  0.00     0.037 H 
ATOM     15  H   LIG d   1      12.891   6.321  -3.955  0.00  0.00     0.043 H 
ATOM     16  H   LIG d   1      12.809   5.762  -2.260  0.00  0.00     0.043 H 
ATOM     17  H   LIG d   1      14.983   4.979  -2.961  0.00  0.00     0.048 H 
ATOM     18  H   LIG d   1      14.063   3.974  -1.805  0.00  0.00     0.048 H 
ATOM     19  H   LIG d   1      15.318   2.931  -4.383  0.00  0.00     0.083 H 
ATOM     20  H   LIG d   1      16.087   2.797  -2.786  0.00  0.00     0.083 H 
ATOM     21  H   LIG d   1      14.926   0.966  -2.569  0.00  0.00     0.201 HD
ATOM     22  H   LIG d   1      13.699   1.898  -5.009  0.00  0.00     0.083 H 
ATOM     23  H   LIG d   1      14.535   0.362  -4.680  0.00  0.00     0.083 H 
ATOM     24  H   LIG d   1      12.618  -0.672  -3.987  0.00  0.00     0.048 H 
ATOM     25  H   LIG d   1      12.042   0.770  -3.110  0.00  0.00     0.048 H 
ATOM     26  H   LIG d   1      12.004   1.590  -5.578  0.00  0.00     0.122 HD
ATOM     27  H   LIG d   1       9.532   0.489  -4.666  0.00  0.00     0.048 H 
ATOM     28  H   LIG d   1      10.479   1.489  -3.529  0.00  0.00     0.048 H 
ATOM     29  H   LIG d   1      10.669   2.769  -6.059  0.00  0.00     0.083 H 
ATOM     30  H   LIG d   1       8.962   2.311  -5.881  0.00  0.00     0.083 H 
ATOM     31  H   LIG d   1       8.749   3.970  -4.510  0.00  0.00     0.201 HD
ATOM     32  H   LIG d   1      10.178   5.406  -5.385  0.00  0.00     0.082 H 
ATOM     33  H   LIG d   1      11.540   4.281  -5.158  0.00  0.00     0.082 H 
ATOM     34  H   LIG d   1      12.483   3.546  -3.241  0.00  0.00     0.122 HD
ATOM     35  H   LIG d   1       9.820   3.292  -3.462  0.00  0.00     0.201 HD
ATOM     36  H   LIG d   1      13.571   1.891  -2.424  0.00  0.00     0.201 HD
ENDROOT
BRANCH   1  37
ATOM     37  C   LIG d   1      10.374   6.808  -3.402  0.00  0.00     0.020 C 
ATOM     38  C   LIG d   1       9.620   7.022  -4.716  0.00  0.00     0.004 C 
ATOM     39  N   LIG d   1      10.357   7.979  -5.552  0.00  0.00    -0.314 N 
ATOM     40  H   LIG d   1       8.626   7.414  -4.504  0.00  0.00     0.043 H 
ATOM     41  H   LIG d   1       9.531   6.071  -5.243  0.00  0.00     0.043 H 
ATOM     42  C   LIG d   1       9.436   8.896  -6.237  0.00  0.00     0.009 C 
ATOM     43  H   LIG d   1      10.949   7.499  -6.214  0.00  0.00     0.122 HD
ATOM     44  C   LIG d   1       9.731  10.332  -5.801  0.00  0.00     0.009 C 
ATOM     45  H   LIG d   1       8.409   8.640  -5.978  0.00  0.00     0.044 H 
ATOM     46  H   LIG d   1       9.572   8.808  -7.316  0.00  0.00     0.044 H 
ATOM     47  N   LIG d   1       8.872  10.684  -4.662  0.00  0.00    -0.314 N 
ATOM     48  H   LIG d   1       9.530  11.012  -6.630  0.00  0.00     0.044 H 
ATOM     49  H   LIG d   1      10.776  10.416  -5.508  0.00  0.00     0.044 H 
ATOM     50  C   LIG d   1       9.218  12.009  -4.130  0.00  0.00     0.009 C 
ATOM     51  H   LIG d   1       8.924   9.980  -3.941  0.00  0.00     0.122 HD
ATOM     52  C   LIG d   1       9.131  11.986  -2.604  0.00  0.00     0.009 C 
ATOM     53  H   LIG d   1       8.522  12.751  -4.523  0.00  0.00     0.044 H 
ATOM     54  H   LIG d   1      10.234  12.268  -4.433  0.00  0.00     0.044 H 
ATOM     55  N   LIG d   1       8.583  10.695  -2.164  0.00  0.00    -0.310 N 
ATOM     56  H   LIG d   1      10.127  12.120  -2.181  0.00  0.00     0.044 H 
ATOM     57  H   LIG d   1       8.480  12.791  -2.265  0.00  0.00     0.044 H 
ATOM     58  C   LIG d   1       9.311  10.185  -0.995  0.00  0.00     0.036 C 
ATOM     59  H   LIG d   1       7.595  10.770  -1.972  0.00  0.00     0.122 HD
ATOM     60  C   LIG d   1       8.902   8.734  -0.734  0.00  0.00    -0.021 C 
ATOM     61  H   LIG d   1       9.071  10.792  -0.123  0.00  0.00     0.048 H 
ATOM     62  H   LIG d   1      10.383  10.231  -1.187  0.00  0.00     0.048 H 
ATOM     63  N   LIG d   1       9.956   7.832  -1.217  0.00  0.00     0.228 N 
ATOM     64  H   LIG d   1       7.971   8.518  -1.258  0.00  0.00     0.083 H 
ATOM     65  H   LIG d   1       8.759   8.584   0.336  0.00  0.00     0.083 H 
ATOM     66  C   LIG d   1       9.399   6.925  -2.229  0.00  0.00    -0.029 C 
ATOM     67  H   LIG d   1      10.318   7.294  -0.445  0.00  0.00     0.201 HD
ATOM     68  H   LIG d   1      10.702   8.376  -1.627  0.00  0.00     0.201 HD
ATOM     69  H   LIG d   1       8.447   7.319  -2.585  0.00  0.00     0.082 H 
ATOM     70  H   LIG d   1       9.242   5.940  -1.786  0.00  0.00     0.082 H 
ATOM     71  H   LIG d   1      11.154   7.563  -3.302  0.00  0.00     0.037 H 
ENDBRANCH   1  37
TORSDOF 1
ENDMDL
MODEL 4
REMARK VINA RESULT:      -6.0      7.961      9.397
REMARK  1 active torsions:
REMARK  status: ('A' for Active; 'I' for Inactive)
REMARK    1  A    between atoms: C_8  and  C_14 
ROOT
ATOM      1  C   LIG d   1       4.901  -4.172  -5.499  0.00  0.00     0.020 C 
ATOM      2  C   LIG d   1       5.027  -3.584  -6.903  0.00  0.00     0.004 C 
ATOM      3  N   LIG d   1       4.492  -2.188  -6.880  0.00  0.00    -0.311 N 
ATOM      4  C   LIG d   1       3.857  -1.963  -8.215  0.00  0.00     0.036 C 
ATOM      5  C   LIG d   1       3.430  -0.498  -8.307  0.00  0.00    -0.021 C 
ATOM      6  N   LIG d   1       2.347  -0.238  -7.347  0.00  0.00     0.229 N 
ATOM      7  C   LIG d   1       2.856   0.587  -6.242  0.00  0.00    -0.021 C 
ATOM      8  C   LIG d   1       2.103   0.245  -4.957  0.00  0.00     0.036 C 
ATOM      9  N   LIG d   1       3.072   0.231  -3.821  0.00  0.00    -0.306 N 
ATOM     10  C   LIG d   1       2.899  -1.079  -3.123  0.00  0.00     0.036 C 
ATOM     11  C   LIG d   1       4.280  -1.683  -2.867  0.00  0.00    -0.021 C 
ATOM     12  N   LIG d   1       4.328  -3.051  -3.400  0.00  0.00     0.228 N 
ATOM     13  C   LIG d   1       5.344  -3.142  -4.458  0.00  0.00    -0.029 C 
ATOM     14  H   LIG d   1       3.867  -4.461  -5.314  0.00  0.00     0.037 H 
ATOM     15  H   LIG d   1       6.067  -3.546  -7.208  0.00  0.00     0.043 H 
ATOM     16  H   LIG d   1       4.438  -4.165  -7.606  0.00  0.00     0.043 H 
ATOM     17  H   LIG d   1       4.593  -2.186  -8.981  0.00  0.00     0.048 H 
ATOM     18  H   LIG d   1       2.995  -2.614  -8.305  0.00  0.00     0.048 H 
ATOM     19  H   LIG d   1       4.282   0.144  -8.083  0.00  0.00     0.083 H 
ATOM     20  H   LIG d   1       3.078  -0.287  -9.318  0.00  0.00     0.083 H 
ATOM     21  H   LIG d   1       1.595   0.245  -7.813  0.00  0.00     0.201 HD
ATOM     22  H   LIG d   1       3.921   0.394  -6.111  0.00  0.00     0.083 H 
ATOM     23  H   LIG d   1       2.708   1.642  -6.478  0.00  0.00     0.083 H 
ATOM     24  H   LIG d   1       1.354   1.007  -4.750  0.00  0.00     0.048 H 
ATOM     25  H   LIG d   1       1.638  -0.730  -5.039  0.00  0.00     0.048 H 
ATOM     26  H   LIG d   1       4.001   0.089  -4.324  0.00  0.00     0.122 HD
ATOM     27  H   LIG d   1       2.398  -0.896  -2.176  0.00  0.00     0.048 H 
ATOM     28  H   LIG d   1       2.311  -1.739  -3.748  0.00  0.00     0.048 H 
ATOM     29  H   LIG d   1       5.046  -1.080  -3.353  0.00  0.00     0.083 H 
ATOM     30  H   LIG d   1       4.475  -1.709  -1.793  0.00  0.00     0.083 H 
ATOM     31  H   LIG d   1       4.570  -3.691  -2.656  0.00  0.00     0.201 HD
ATOM     32  H   LIG d   1       6.291  -3.459  -4.017  0.00  0.00     0.082 H 
ATOM     33  H   LIG d   1       5.471  -2.170  -4.931  0.00  0.00     0.082 H 
ATOM     34  H   LIG d   1       3.640  -2.294  -6.249  0.00  0.00     0.122 HD
ATOM     35  H   LIG d   1       3.426  -3.303  -3.771  0.00  0.00     0.201 HD
ATOM     36  H   LIG d   1       2.007  -1.116  -6.983  0.00  0.00     0.201 HD
ENDROOT
BRANCH   1  37
ATOM     37  C   LIG d   1       5.795  -5.412  -5.386  0.00  0.00     0.020 C 
ATOM     38  C   LIG d   1       5.189  -6.553  -6.206  0.00  0.00     0.004 C 
ATOM     39  N   LIG d   1       4.637  -7.568  -5.299  0.00  0.00    -0.314 N 
ATOM     40  H   LIG d   1       5.962  -7.003  -6.828  0.00  0.00     0.043 H 
ATOM     41  H   LIG d   1       4.393  -6.162  -6.841  0.00  0.00     0.043 H 
ATOM     42  C   LIG d   1       4.909  -8.923  -5.798  0.00  0.00     0.009 C 
ATOM     43  H   LIG d   1       3.648  -7.426  -5.156  0.00  0.00     0.122 HD
ATOM     44  C   LIG d   1       5.759  -9.681  -4.776  0.00  0.00     0.009 C 
ATOM     45  H   LIG d   1       5.446  -8.860  -6.744  0.00  0.00     0.044 H 
ATOM     46  H   LIG d   1       3.966  -9.450  -5.948  0.00  0.00     0.044 H 
ATOM     47  N   LIG d   1       7.181  -9.519  -5.107  0.00  0.00    -0.314 N 
ATOM     48  H   LIG d   1       5.499 -10.739  -4.801  0.00  0.00     0.044 H 
ATOM     49  H   LIG d   1       5.570  -9.284  -3.780  0.00  0.00     0.044 H 
ATOM     50  C   LIG d   1       8.034 -10.122  -4.074  0.00  0.00     0.009 C 
ATOM     51  H   LIG d   1       7.411  -8.546  -5.244  0.00  0.00     0.122 HD
ATOM     52  C   LIG d   1       9.258  -9.235  -3.840  0.00  0.00     0.009 C 
ATOM     53  H   LIG d   1       8.359 -11.110  -4.403  0.00  0.00     0.044 H 
ATOM     54  H   LIG d   1       7.470 -10.215  -3.146  0.00  0.00     0.044 H 
ATOM     55  N   LIG d   1       9.268  -8.146  -4.827  0.00  0.00    -0.310 N 
ATOM     56  H   LIG d   1       9.215  -8.814  -2.836  0.00  0.00     0.044 H 
ATOM     57  H   LIG d   1      10.164  -9.830  -3.946  0.00  0.00     0.044 H 
ATOM     58  C   LIG d   1       9.640  -6.871  -4.199  0.00  0.00     0.036 C 
ATOM     59  H   LIG d   1       9.883  -8.363  -5.597  0.00  0.00     0.122 HD
ATOM     60  C   LIG d   1       9.380  -5.725  -5.179  0.00  0.00    -0.021 C 
ATOM     61  H   LIG d   1      10.697  -6.890  -3.936  0.00  0.00     0.048 H 
ATOM     62  H   LIG d   1       9.043  -6.722  -3.299  0.00  0.00     0.048 H 
ATOM     63  N   LIG d   1       8.142  -5.030  -4.804  0.00  0.00     0.228 N 
ATOM     64  H   LIG d   1       9.279  -6.126  -6.188  0.00  0.00     0.083 H 
ATOM     65  H   LIG d   1      10.214  -5.025  -5.149  0.00  0.00     0.083 H 
ATOM     66  C   LIG d   1       7.190  -5.084  -5.920  0.00  0.00    -0.029 C 
ATOM     67  H   LIG d   1       8.350  -4.067  -4.586  0.00  0.00     0.201 HD
ATOM     68  H   LIG d   1       7.737  -5.477  -3.994  0.00  0.00     0.201 HD
ATOM     69  H   LIG d   1       7.500  -5.857  -6.624  0.00  0.00     0.082 H 
ATOM     70  H   LIG d   1       7.169  -4.119  -6.427  0.00  0.00     0.082 H 
ATOM     71  H   LIG d   1       5.867  -5.713  -4.341  0.00  0.00     0.037 H 
ENDBRANCH   1  37
TORSDOF 1
ENDMDL
MODEL 5
REMARK VINA RESULT:      -6.0      3.137      7.678
REMARK  1 active torsions:
REMARK  status: ('A' for Active; 'I' for Inactive)
REMARK    1  A    between atoms: C_8  and  C_14 
ROOT
ATOM      1  C   LIG d   1       7.930   1.888  -5.176  0.00  0.00     0.020 C 
ATOM      2  C   LIG d   1       7.396   1.580  -3.778  0.00  0.00     0.004 C 
ATOM      3  N   LIG d   1       6.082   0.881  -3.919  0.00  0.00    -0.311 N 
ATOM      4  C   LIG d   1       5.247   1.324  -2.760  0.00  0.00     0.036 C 
ATOM      5  C   LIG d   1       3.947   0.522  -2.765  0.00  0.00    -0.021 C 
ATOM      6  N   LIG d   1       3.146   0.884  -3.943  0.00  0.00     0.229 N 
ATOM      7  C   LIG d   1       3.151  -0.228  -4.904  0.00  0.00    -0.021 C 
ATOM      8  C   LIG d   1       3.046   0.322  -6.326  0.00  0.00     0.036 C 
ATOM      9  N   LIG d   1       3.950  -0.467  -7.215  0.00  0.00    -0.306 N 
ATOM     10  C   LIG d   1       4.812   0.518  -7.936  0.00  0.00     0.036 C 
ATOM     11  C   LIG d   1       6.261   0.035  -7.876  0.00  0.00    -0.021 C 
ATOM     12  N   LIG d   1       7.117   1.106  -7.348  0.00  0.00     0.228 N 
ATOM     13  C   LIG d   1       7.740   0.675  -6.089  0.00  0.00    -0.029 C 
ATOM     14  H   LIG d   1       7.401   2.746  -5.589  0.00  0.00     0.037 H 
ATOM     15  H   LIG d   1       8.077   0.923  -3.247  0.00  0.00     0.043 H 
ATOM     16  H   LIG d   1       7.237   2.500  -3.227  0.00  0.00     0.043 H 
ATOM     17  H   LIG d   1       5.803   1.130  -1.849  0.00  0.00     0.048 H 
ATOM     18  H   LIG d   1       5.038   2.383  -2.868  0.00  0.00     0.048 H 
ATOM     19  H   LIG d   1       4.177  -0.543  -2.790  0.00  0.00     0.083 H 
ATOM     20  H   LIG d   1       3.381   0.745  -1.859  0.00  0.00     0.083 H 
ATOM     21  H   LIG d   1       2.199   1.082  -3.657  0.00  0.00     0.201 HD
ATOM     22  H   LIG d   1       4.077  -0.793  -4.793  0.00  0.00     0.083 H 
ATOM     23  H   LIG d   1       2.302  -0.884  -4.705  0.00  0.00     0.083 H 
ATOM     24  H   LIG d   1       2.028   0.207  -6.695  0.00  0.00     0.048 H 
ATOM     25  H   LIG d   1       3.343   1.363  -6.352  0.00  0.00     0.048 H 
ATOM     26  H   LIG d   1       4.636  -0.887  -6.516  0.00  0.00     0.122 HD
ATOM     27  H   LIG d   1       4.483   0.564  -8.971  0.00  0.00     0.048 H 
ATOM     28  H   LIG d   1       4.718   1.486  -7.460  0.00  0.00     0.048 H 
ATOM     29  H   LIG d   1       6.336  -0.838  -7.229  0.00  0.00     0.083 H 
ATOM     30  H   LIG d   1       6.600  -0.233  -8.878  0.00  0.00     0.083 H 
ATOM     31  H   LIG d   1       7.843   1.314  -8.020  0.00  0.00     0.201 HD
ATOM     32  H   LIG d   1       8.714   0.231  -6.306  0.00  0.00     0.082 H 
ATOM     33  H   LIG d   1       7.107  -0.062  -5.598  0.00  0.00     0.082 H 
ATOM     34  H   LIG d   1       5.638   1.416  -4.725  0.00  0.00     0.122 HD
ATOM     35  H   LIG d   1       6.567   1.935  -7.190  0.00  0.00     0.201 HD
ATOM     36  H   LIG d   1       3.544   1.706  -4.376  0.00  0.00     0.201 HD
ENDROOT
BRANCH   1  37
ATOM     37  C   LIG d   1       9.424   2.218  -5.087  0.00  0.00     0.020 C 
ATOM     38  C   LIG d   1      10.243   0.988  -5.485  0.00  0.00     0.004 C 
ATOM     39  N   LIG d   1      10.879   0.416  -4.292  0.00  0.00    -0.314 N 
ATOM     40  H   LIG d   1      11.010   1.279  -6.203  0.00  0.00     0.043 H 
ATOM     41  H   LIG d   1       9.585   0.245  -5.938  0.00  0.00     0.043 H 
ATOM     42  C   LIG d   1      12.245  -0.034  -4.589  0.00  0.00     0.009 C 
ATOM     43  H   LIG d   1      10.324  -0.337  -3.912  0.00  0.00     0.122 HD
ATOM     44  C   LIG d   1      13.238   0.740  -3.719  0.00  0.00     0.009 C 
ATOM     45  H   LIG d   1      12.466   0.145  -5.641  0.00  0.00     0.044 H 
ATOM     46  H   LIG d   1      12.330  -1.100  -4.376  0.00  0.00     0.044 H 
ATOM     47  N   LIG d   1      13.711   1.922  -4.451  0.00  0.00    -0.314 N 
ATOM     48  H   LIG d   1      14.085   0.100  -3.477  0.00  0.00     0.044 H 
ATOM     49  H   LIG d   1      12.746   1.055  -2.799  0.00  0.00     0.044 H 
ATOM     50  C   LIG d   1      14.563   2.763  -3.600  0.00  0.00     0.009 C 
ATOM     51  H   LIG d   1      12.936   2.452  -4.822  0.00  0.00     0.122 HD
ATOM     52  C   LIG d   1      14.267   4.238  -3.877  0.00  0.00     0.009 C 
ATOM     53  H   LIG d   1      15.612   2.556  -3.818  0.00  0.00     0.044 H 
ATOM     54  H   LIG d   1      14.360   2.542  -2.552  0.00  0.00     0.044 H 
ATOM     55  N   LIG d   1      13.339   4.345  -5.011  0.00  0.00    -0.310 N 
ATOM     56  H   LIG d   1      13.815   4.690  -2.994  0.00  0.00     0.044 H 
ATOM     57  H   LIG d   1      15.195   4.756  -4.117  0.00  0.00     0.044 H 
ATOM     58  C   LIG d   1      12.310   5.362  -4.754  0.00  0.00     0.036 C 
ATOM     59  H   LIG d   1      13.835   4.541  -5.867  0.00  0.00     0.122 HD
ATOM     60  C   LIG d   1      11.215   5.259  -5.818  0.00  0.00    -0.021 C 
ATOM     61  H   LIG d   1      12.761   6.353  -4.792  0.00  0.00     0.048 H 
ATOM     62  H   LIG d   1      11.875   5.198  -3.769  0.00  0.00     0.048 H 
ATOM     63  N   LIG d   1      10.042   4.582  -5.251  0.00  0.00     0.228 N 
ATOM     64  H   LIG d   1      11.588   4.690  -6.670  0.00  0.00     0.083 H 
ATOM     65  H   LIG d   1      10.933   6.260  -6.147  0.00  0.00     0.083 H 
ATOM     66  C   LIG d   1       9.747   3.375  -6.034  0.00  0.00    -0.029 C 
ATOM     67  H   LIG d   1       9.248   5.203  -5.280  0.00  0.00     0.201 HD
ATOM     68  H   LIG d   1      10.233   4.323  -4.294  0.00  0.00     0.201 HD
ATOM     69  H   LIG d   1      10.614   3.115  -6.643  0.00  0.00     0.082 H 
ATOM     70  H   LIG d   1       8.891   3.563  -6.683  0.00  0.00     0.082 H 
ATOM     71  H   LIG d   1       9.673   2.505  -4.065  0.00  0.00     0.037 H 
ENDBRANCH   1  37
TORSDOF 1
ENDMDL
MODEL 6
REMARK VINA RESULT:      -5.9      2.357      4.966
REMARK  1 active torsions:
REMARK  status: ('A' for Active; 'I' for Inactive)
REMARK    1  A    between atoms: C_8  and  C_14 
ROOT
ATOM      1  C   LIG d   1      10.687   6.483  -3.555  0.00  0.00     0.020 C 
ATOM      2  C   LIG d   1       9.979   6.717  -2.222  0.00  0.00     0.004 C 
ATOM      3  N   LIG d   1       9.350   8.073  -2.254  0.00  0.00    -0.311 N 
ATOM      4  C   LIG d   1       9.430   8.603  -0.859  0.00  0.00     0.036 C 
ATOM      5  C   LIG d   1       8.662   9.923  -0.797  0.00  0.00    -0.021 C 
ATOM      6  N   LIG d   1       9.354  10.937  -1.606  0.00  0.00     0.229 N 
ATOM      7  C   LIG d   1       8.575  11.214  -2.821  0.00  0.00    -0.021 C 
ATOM      8  C   LIG d   1       9.519  11.592  -3.961  0.00  0.00     0.036 C 
ATOM      9  N   LIG d   1       9.030  10.958  -5.222  0.00  0.00    -0.306 N 
ATOM     10  C   LIG d   1      10.186  10.212  -5.805  0.00  0.00     0.036 C 
ATOM     11  C   LIG d   1       9.710   8.819  -6.218  0.00  0.00    -0.021 C 
ATOM     12  N   LIG d   1      10.579   7.800  -5.616  0.00  0.00     0.228 N 
ATOM     13  C   LIG d   1       9.797   6.946  -4.710  0.00  0.00    -0.029 C 
ATOM     14  H   LIG d   1      11.628   7.033  -3.572  0.00  0.00     0.037 H 
ATOM     15  H   LIG d   1       9.197   5.981  -2.072  0.00  0.00     0.043 H 
ATOM     16  H   LIG d   1      10.696   6.692  -1.408  0.00  0.00     0.043 H 
ATOM     17  H   LIG d   1       8.977   7.876  -0.194  0.00  0.00     0.048 H 
ATOM     18  H   LIG d   1      10.473   8.762  -0.606  0.00  0.00     0.048 H 
ATOM     19  H   LIG d   1       7.652   9.774  -1.180  0.00  0.00     0.083 H 
ATOM     20  H   LIG d   1       8.606  10.261   0.239  0.00  0.00     0.083 H 
ATOM     21  H   LIG d   1       9.456  11.783  -1.067  0.00  0.00     0.201 HD
ATOM     22  H   LIG d   1       8.004  10.325  -3.091  0.00  0.00     0.083 H 
ATOM     23  H   LIG d   1       7.887  12.040  -2.631  0.00  0.00     0.083 H 
ATOM     24  H   LIG d   1       9.516  12.671  -4.105  0.00  0.00     0.048 H 
ATOM     25  H   LIG d   1      10.523  11.241  -3.753  0.00  0.00     0.048 H 
ATOM     26  H   LIG d   1       8.424  10.164  -4.848  0.00  0.00     0.122 HD
ATOM     27  H   LIG d   1      10.534  10.755  -6.680  0.00  0.00     0.048 H 
ATOM     28  H   LIG d   1      10.970  10.136  -5.063  0.00  0.00     0.048 H 
ATOM     29  H   LIG d   1       8.685   8.661  -5.885  0.00  0.00     0.083 H 
ATOM     30  H   LIG d   1       9.750   8.726  -7.306  0.00  0.00     0.083 H 
ATOM     31  H   LIG d   1      10.978   7.227  -6.346  0.00  0.00     0.201 HD
ATOM     32  H   LIG d   1       9.439   6.075  -5.262  0.00  0.00     0.082 H 
ATOM     33  H   LIG d   1       8.947   7.504  -4.321  0.00  0.00     0.082 H 
ATOM     34  H   LIG d   1      10.098   8.647  -2.749  0.00  0.00     0.122 HD
ATOM     35  H   LIG d   1      11.323   8.248  -5.104  0.00  0.00     0.201 HD
ATOM     36  H   LIG d   1      10.267  10.591  -1.863  0.00  0.00     0.201 HD
ENDROOT
BRANCH   1  37
ATOM     37  C   LIG d   1      10.980   4.987  -3.719  0.00  0.00     0.020 C 
ATOM     38  C   LIG d   1      12.297   4.646  -3.020  0.00  0.00     0.004 C 
ATOM     39  N   LIG d   1      13.331   4.377  -4.028  0.00  0.00    -0.314 N 
ATOM     40  H   LIG d   1      12.159   3.763  -2.396  0.00  0.00     0.043 H 
ATOM     41  H   LIG d   1      12.606   5.486  -2.397  0.00  0.00     0.043 H 
ATOM     42  C   LIG d   1      14.182   3.252  -3.622  0.00  0.00     0.009 C 
ATOM     43  H   LIG d   1      13.883   5.203  -4.209  0.00  0.00     0.122 HD
ATOM     44  C   LIG d   1      14.070   2.129  -4.655  0.00  0.00     0.009 C 
ATOM     45  H   LIG d   1      13.859   2.885  -2.648  0.00  0.00     0.044 H 
ATOM     46  H   LIG d   1      15.219   3.585  -3.559  0.00  0.00     0.044 H 
ATOM     47  N   LIG d   1      13.020   1.188  -4.243  0.00  0.00    -0.314 N 
ATOM     48  H   LIG d   1      15.022   1.603  -4.724  0.00  0.00     0.044 H 
ATOM     49  H   LIG d   1      13.817   2.553  -5.626  0.00  0.00     0.044 H 
ATOM     50  C   LIG d   1      12.790   0.169  -5.275  0.00  0.00     0.009 C 
ATOM     51  H   LIG d   1      12.165   1.676  -4.020  0.00  0.00     0.122 HD
ATOM     52  C   LIG d   1      11.293  -0.125  -5.379  0.00  0.00     0.009 C 
ATOM     53  H   LIG d   1      13.323  -0.745  -5.008  0.00  0.00     0.044 H 
ATOM     54  H   LIG d   1      13.157   0.535  -6.235  0.00  0.00     0.044 H 
ATOM     55  N   LIG d   1      10.579   0.589  -4.313  0.00  0.00    -0.310 N 
ATOM     56  H   LIG d   1      10.924   0.208  -6.349  0.00  0.00     0.044 H 
ATOM     57  H   LIG d   1      11.125  -1.197  -5.274  0.00  0.00     0.044 H 
ATOM     58  C   LIG d   1       9.339   1.191  -4.822  0.00  0.00     0.036 C 
ATOM     59  H   LIG d   1      10.391  -0.021  -3.532  0.00  0.00     0.122 HD
ATOM     60  C   LIG d   1       8.765   2.143  -3.771  0.00  0.00    -0.021 C 
ATOM     61  H   LIG d   1       8.614   0.405  -5.033  0.00  0.00     0.048 H 
ATOM     62  H   LIG d   1       9.552   1.745  -5.736  0.00  0.00     0.048 H 
ATOM     63  N   LIG d   1       9.060   3.530  -4.153  0.00  0.00     0.228 N 
ATOM     64  H   LIG d   1       9.217   1.930  -2.802  0.00  0.00     0.083 H 
ATOM     65  H   LIG d   1       7.686   2.005  -3.706  0.00  0.00     0.083 H 
ATOM     66  C   LIG d   1       9.844   4.175  -3.092  0.00  0.00    -0.029 C 
ATOM     67  H   LIG d   1       8.196   4.033  -4.285  0.00  0.00     0.201 HD
ATOM     68  H   LIG d   1       9.588   3.537  -5.013  0.00  0.00     0.201 HD
ATOM     69  H   LIG d   1      10.263   3.413  -2.435  0.00  0.00     0.082 H 
ATOM     70  H   LIG d   1       9.199   4.838  -2.515  0.00  0.00     0.082 H 
ATOM     71  H   LIG d   1      11.057   4.746  -4.779  0.00  0.00     0.037 H 
ENDBRANCH   1  37
TORSDOF 1
ENDMDL
MODEL 7
REMARK VINA RESULT:      -5.9      2.863      5.628
REMARK  1 active torsions:
REMARK  status: ('A' for Active; 'I' for Inactive)
REMARK    1  A    between atoms: C_8  and  C_14 
ROOT
ATOM      1  C   LIG d   1       9.224   1.831  -4.961  0.00  0.00     0.020 C 
ATOM      2  C   LIG d   1      10.221   0.708  -5.243  0.00  0.00     0.004 C 
ATOM      3  N   LIG d   1      11.550   1.105  -4.684  0.00  0.00    -0.311 N 
ATOM      4  C   LIG d   1      12.578   0.532  -5.606  0.00  0.00     0.036 C 
ATOM      5  C   LIG d   1      13.960   0.773  -5.000  0.00  0.00    -0.021 C 
ATOM      6  N   LIG d   1      14.251   2.213  -4.988  0.00  0.00     0.229 N 
ATOM      7  C   LIG d   1      14.202   2.716  -3.608  0.00  0.00    -0.021 C 
ATOM      8  C   LIG d   1      13.733   4.170  -3.608  0.00  0.00     0.036 C 
ATOM      9  N   LIG d   1      12.803   4.376  -2.458  0.00  0.00    -0.306 N 
ATOM     10  C   LIG d   1      11.559   4.990  -3.014  0.00  0.00     0.036 C 
ATOM     11  C   LIG d   1      10.351   4.254  -2.437  0.00  0.00    -0.021 C 
ATOM     12  N   LIG d   1       9.480   3.800  -3.529  0.00  0.00     0.228 N 
ATOM     13  C   LIG d   1       9.393   2.333  -3.525  0.00  0.00    -0.029 C 
ATOM     14  H   LIG d   1       9.390   2.651  -5.659  0.00  0.00     0.037 H 
ATOM     15  H   LIG d   1       9.907  -0.210  -4.758  0.00  0.00     0.043 H 
ATOM     16  H   LIG d   1      10.329   0.564  -6.313  0.00  0.00     0.043 H 
ATOM     17  H   LIG d   1      12.392  -0.533  -5.701  0.00  0.00     0.048 H 
ATOM     18  H   LIG d   1      12.497   1.026  -6.567  0.00  0.00     0.048 H 
ATOM     19  H   LIG d   1      13.982   0.385  -3.981  0.00  0.00     0.083 H 
ATOM     20  H   LIG d   1      14.712   0.254  -5.597  0.00  0.00     0.083 H 
ATOM     21  H   LIG d   1      15.169   2.372  -5.375  0.00  0.00     0.201 HD
ATOM     22  H   LIG d   1      13.511   2.103  -3.028  0.00  0.00     0.083 H 
ATOM     23  H   LIG d   1      15.197   2.655  -3.163  0.00  0.00     0.083 H 
ATOM     24  H   LIG d   1      14.584   4.836  -3.474  0.00  0.00     0.048 H 
ATOM     25  H   LIG d   1      13.214   4.401  -4.530  0.00  0.00     0.048 H 
ATOM     26  H   LIG d   1      12.482   3.380  -2.253  0.00  0.00     0.122 HD
ATOM     27  H   LIG d   1      11.531   6.033  -2.712  0.00  0.00     0.048 H 
ATOM     28  H   LIG d   1      11.573   4.902  -4.093  0.00  0.00     0.048 H 
ATOM     29  H   LIG d   1      10.681   3.392  -1.858  0.00  0.00     0.083 H 
ATOM     30  H   LIG d   1       9.788   4.926  -1.786  0.00  0.00     0.083 H 
ATOM     31  H   LIG d   1       8.554   4.185  -3.400  0.00  0.00     0.201 HD
ATOM     32  H   LIG d   1       8.528   2.028  -2.933  0.00  0.00     0.082 H 
ATOM     33  H   LIG d   1      10.298   1.912  -3.091  0.00  0.00     0.082 H 
ATOM     34  H   LIG d   1      11.588   2.140  -4.931  0.00  0.00     0.122 HD
ATOM     35  H   LIG d   1       9.848   4.118  -4.412  0.00  0.00     0.201 HD
ATOM     36  H   LIG d   1      13.563   2.696  -5.548  0.00  0.00     0.201 HD
ENDROOT
BRANCH   1  37
ATOM     37  C   LIG d   1       7.798   1.301  -5.141  0.00  0.00     0.020 C 
ATOM     38  C   LIG d   1       7.749   0.372  -6.355  0.00  0.00     0.004 C 
ATOM     39  N   LIG d   1       7.031   1.036  -7.451  0.00  0.00    -0.314 N 
ATOM     40  H   LIG d   1       7.231  -0.549  -6.087  0.00  0.00     0.043 H 
ATOM     41  H   LIG d   1       8.764   0.137  -6.675  0.00  0.00     0.043 H 
ATOM     42  C   LIG d   1       6.166   0.087  -8.164  0.00  0.00     0.009 C 
ATOM     43  H   LIG d   1       7.676   1.485  -8.085  0.00  0.00     0.122 HD
ATOM     44  C   LIG d   1       4.710   0.544  -8.054  0.00  0.00     0.009 C 
ATOM     45  H   LIG d   1       6.271  -0.903  -7.722  0.00  0.00     0.044 H 
ATOM     46  H   LIG d   1       6.456   0.050  -9.215  0.00  0.00     0.044 H 
ATOM     47  N   LIG d   1       4.080  -0.103  -6.895  0.00  0.00    -0.314 N 
ATOM     48  H   LIG d   1       4.172   0.267  -8.960  0.00  0.00     0.044 H 
ATOM     49  H   LIG d   1       4.676   1.626  -7.928  0.00  0.00     0.044 H 
ATOM     50  C   LIG d   1       2.722   0.412  -6.677  0.00  0.00     0.009 C 
ATOM     51  H   LIG d   1       4.646   0.009  -6.067  0.00  0.00     0.122 HD
ATOM     52  C   LIG d   1       2.465   0.558  -5.177  0.00  0.00     0.009 C 
ATOM     53  H   LIG d   1       1.997  -0.283  -7.104  0.00  0.00     0.044 H 
ATOM     54  H   LIG d   1       2.620   1.384  -7.160  0.00  0.00     0.044 H 
ATOM     55  N   LIG d   1       3.597  -0.005  -4.429  0.00  0.00    -0.310 N 
ATOM     56  H   LIG d   1       2.355   1.614  -4.928  0.00  0.00     0.044 H 
ATOM     57  H   LIG d   1       1.553   0.024  -4.910  0.00  0.00     0.044 H 
ATOM     58  C   LIG d   1       3.961   0.857  -3.296  0.00  0.00     0.036 C 
ATOM     59  H   LIG d   1       3.395  -0.944  -4.120  0.00  0.00     0.122 HD
ATOM     60  C   LIG d   1       5.296   0.393  -2.710  0.00  0.00    -0.021 C 
ATOM     61  H   LIG d   1       3.187   0.795  -2.531  0.00  0.00     0.048 H 
ATOM     62  H   LIG d   1       4.053   1.887  -3.639  0.00  0.00     0.048 H 
ATOM     63  N   LIG d   1       6.366   1.294  -3.154  0.00  0.00     0.228 N 
ATOM     64  H   LIG d   1       5.509  -0.621  -3.051  0.00  0.00     0.083 H 
ATOM     65  H   LIG d   1       5.238   0.404  -1.622  0.00  0.00     0.083 H 
ATOM     66  C   LIG d   1       7.381   0.528  -3.888  0.00  0.00    -0.029 C 
ATOM     67  H   LIG d   1       6.792   1.732  -2.351  0.00  0.00     0.201 HD
ATOM     68  H   LIG d   1       5.979   2.005  -3.758  0.00  0.00     0.201 HD
ATOM     69  H   LIG d   1       6.966  -0.438  -4.179  0.00  0.00     0.082 H 
ATOM     70  H   LIG d   1       8.251   0.372  -3.250  0.00  0.00     0.082 H 
ATOM     71  H   LIG d   1       7.116   2.138  -5.295  0.00  0.00     0.037 H 
ENDBRANCH   1  37
TORSDOF 1
ENDMDL
MODEL 8
REMARK VINA RESULT:      -5.9      5.530      7.994
REMARK  1 active torsions:
REMARK  status: ('A' for Active; 'I' for Inactive)
REMARK    1  A    between atoms: C_8  and  C_14 
ROOT
ATOM      1  C   LIG d   1       9.708   8.438  -6.171  0.00  0.00     0.020 C 
ATOM      2  C   LIG d   1       9.653   9.935  -5.871  0.00  0.00     0.004 C 
ATOM      3  N   LIG d   1       9.664  10.121  -4.388  0.00  0.00    -0.311 N 
ATOM      4  C   LIG d   1       8.818  11.322  -4.111  0.00  0.00     0.036 C 
ATOM      5  C   LIG d   1       8.919  11.654  -2.623  0.00  0.00    -0.021 C 
ATOM      6  N   LIG d   1       8.292  10.584  -1.834  0.00  0.00     0.229 N 
ATOM      7  C   LIG d   1       9.329   9.812  -1.135  0.00  0.00    -0.021 C 
ATOM      8  C   LIG d   1       8.874   8.362  -0.981  0.00  0.00     0.036 C 
ATOM      9  N   LIG d   1      10.042   7.463  -1.222  0.00  0.00    -0.306 N 
ATOM     10  C   LIG d   1       9.615   6.470  -2.255  0.00  0.00     0.036 C 
ATOM     11  C   LIG d   1      10.714   6.361  -3.311  0.00  0.00    -0.021 C 
ATOM     12  N   LIG d   1      10.140   6.572  -4.646  0.00  0.00     0.228 N 
ATOM     13  C   LIG d   1      10.741   7.761  -5.267  0.00  0.00    -0.029 C 
ATOM     14  H   LIG d   1       8.727   7.995  -6.004  0.00  0.00     0.037 H 
ATOM     15  H   LIG d   1      10.521  10.438  -6.285  0.00  0.00     0.043 H 
ATOM     16  H   LIG d   1       8.736  10.362  -6.263  0.00  0.00     0.043 H 
ATOM     17  H   LIG d   1       9.199  12.147  -4.704  0.00  0.00     0.048 H 
ATOM     18  H   LIG d   1       7.793  11.094  -4.378  0.00  0.00     0.048 H 
ATOM     19  H   LIG d   1       9.969  11.750  -2.342  0.00  0.00     0.083 H 
ATOM     20  H   LIG d   1       8.409  12.598  -2.427  0.00  0.00     0.083 H 
ATOM     21  H   LIG d   1       7.660  10.991  -1.162  0.00  0.00     0.201 HD
ATOM     22  H   LIG d   1      10.254   9.852  -1.711  0.00  0.00     0.083 H 
ATOM     23  H   LIG d   1       9.501  10.245  -0.148  0.00  0.00     0.083 H 
ATOM     24  H   LIG d   1       8.521   8.188   0.034  0.00  0.00     0.048 H 
ATOM     25  H   LIG d   1       8.095   8.132  -1.697  0.00  0.00     0.048 H 
ATOM     26  H   LIG d   1      10.694   8.093  -1.782  0.00  0.00     0.122 HD
ATOM     27  H   LIG d   1       9.479   5.509  -1.766  0.00  0.00     0.048 H 
ATOM     28  H   LIG d   1       8.690   6.805  -2.708  0.00  0.00     0.048 H 
ATOM     29  H   LIG d   1      11.484   7.109  -3.127  0.00  0.00     0.083 H 
ATOM     30  H   LIG d   1      11.165   5.367  -3.269  0.00  0.00     0.083 H 
ATOM     31  H   LIG d   1      10.332   5.766  -5.224  0.00  0.00     0.201 HD
ATOM     32  H   LIG d   1      11.599   7.454  -5.868  0.00  0.00     0.082 H 
ATOM     33  H   LIG d   1      11.068   8.455  -4.495  0.00  0.00     0.082 H 
ATOM     34  H   LIG d   1       9.029   9.328  -4.066  0.00  0.00     0.122 HD
ATOM     35  H   LIG d   1       9.142   6.694  -4.572  0.00  0.00     0.201 HD
ATOM     36  H   LIG d   1       7.776   9.974  -2.452  0.00  0.00     0.201 HD
ENDROOT
BRANCH   1  37
ATOM     37  C   LIG d   1      10.110   8.228  -7.634  0.00  0.00     0.020 C 
ATOM     38  C   LIG d   1       8.910   7.693  -8.420  0.00  0.00     0.004 C 
ATOM     39  N   LIG d   1       9.132   6.279  -8.749  0.00  0.00    -0.314 N 
ATOM     40  H   LIG d   1       8.794   8.267  -9.340  0.00  0.00     0.043 H 
ATOM     41  H   LIG d   1       8.008   7.789  -7.816  0.00  0.00     0.043 H 
ATOM     42  C   LIG d   1       8.664   5.976 -10.108  0.00  0.00     0.009 C 
ATOM     43  H   LIG d   1       8.689   5.677  -8.071  0.00  0.00     0.122 HD
ATOM     44  C   LIG d   1       9.842   5.490 -10.955  0.00  0.00     0.009 C 
ATOM     45  H   LIG d   1       8.241   6.875 -10.556  0.00  0.00     0.044 H 
ATOM     46  H   LIG d   1       7.902   5.197 -10.064  0.00  0.00     0.044 H 
ATOM     47  N   LIG d   1      10.441   6.630 -11.660  0.00  0.00    -0.314 N 
ATOM     48  H   LIG d   1       9.489   4.759 -11.682  0.00  0.00     0.044 H 
ATOM     49  H   LIG d   1      10.588   5.029 -10.310  0.00  0.00     0.044 H 
ATOM     50  C   LIG d   1      11.657   6.226 -12.380  0.00  0.00     0.009 C 
ATOM     51  H   LIG d   1      10.634   7.388 -11.022  0.00  0.00     0.122 HD
ATOM     52  C   LIG d   1      12.711   7.327 -12.262  0.00  0.00     0.009 C 
ATOM     53  H   LIG d   1      11.418   6.061 -13.431  0.00  0.00     0.044 H 
ATOM     54  H   LIG d   1      12.045   5.303 -11.947  0.00  0.00     0.044 H 
ATOM     55  N   LIG d   1      12.122   8.500 -11.601  0.00  0.00    -0.310 N 
ATOM     56  H   LIG d   1      13.553   6.963 -11.674  0.00  0.00     0.044 H 
ATOM     57  H   LIG d   1      13.057   7.607 -13.257  0.00  0.00     0.044 H 
ATOM     58  C   LIG d   1      13.055   9.076 -10.623  0.00  0.00     0.036 C 
ATOM     59  H   LIG d   1      11.835   9.190 -12.278  0.00  0.00     0.122 HD
ATOM     60  C   LIG d   1      12.322  10.111  -9.768  0.00  0.00    -0.021 C 
ATOM     61  H   LIG d   1      13.880   9.557 -11.147  0.00  0.00     0.048 H 
ATOM     62  H   LIG d   1      13.443   8.285  -9.981  0.00  0.00     0.048 H 
ATOM     63  N   LIG d   1      12.013   9.533  -8.454  0.00  0.00     0.228 N 
ATOM     64  H   LIG d   1      11.396  10.402 -10.264  0.00  0.00     0.083 H 
ATOM     65  H   LIG d   1      12.955  10.989  -9.639  0.00  0.00     0.083 H 
ATOM     66  C   LIG d   1      10.561   9.561  -8.235  0.00  0.00    -0.029 C 
ATOM     67  H   LIG d   1      12.472  10.070  -7.734  0.00  0.00     0.201 HD
ATOM     68  H   LIG d   1      12.340   8.578  -8.422  0.00  0.00     0.201 HD
ATOM     69  H   LIG d   1      10.053   9.720  -9.187  0.00  0.00     0.082 H 
ATOM     70  H   LIG d   1      10.312  10.371  -7.550  0.00  0.00     0.082 H 
ATOM     71  H   LIG d   1      10.928   7.510  -7.687  0.00  0.00     0.037 H 
ENDBRANCH   1  37
TORSDOF 1
ENDMDL
MODEL 9
REMARK VINA RESULT:      -5.9      5.475      8.693
REMARK  1 active torsions:
REMARK  status: ('A' for Active; 'I' for Inactive)
REMARK    1  A    between atoms: C_8  and  C_14 
ROOT
ATOM      1  C   LIG d   1       9.602   8.508  -6.406  0.00  0.00     0.020 C 
ATOM      2  C   LIG d   1       9.587   9.990  -6.034  0.00  0.00     0.004 C 
ATOM      3  N   LIG d   1       9.651  10.102  -4.544  0.00  0.00    -0.311 N 
ATOM      4  C   LIG d   1       8.839  11.305  -4.182  0.00  0.00     0.036 C 
ATOM      5  C   LIG d   1       8.995  11.561  -2.683  0.00  0.00    -0.021 C 
ATOM      6  N   LIG d   1       8.372  10.466  -1.926  0.00  0.00     0.229 N 
ATOM      7  C   LIG d   1       9.415   9.642  -1.301  0.00  0.00    -0.021 C 
ATOM      8  C   LIG d   1       8.935   8.195  -1.202  0.00  0.00     0.036 C 
ATOM      9  N   LIG d   1      10.076   7.286  -1.525  0.00  0.00    -0.306 N 
ATOM     10  C   LIG d   1       9.595   6.353  -2.589  0.00  0.00     0.036 C 
ATOM     11  C   LIG d   1      10.657   6.275  -3.685  0.00  0.00    -0.021 C 
ATOM     12  N   LIG d   1      10.044   6.562  -4.988  0.00  0.00     0.228 N 
ATOM     13  C   LIG d   1      10.649   7.768  -5.572  0.00  0.00    -0.029 C 
ATOM     14  H   LIG d   1       8.617   8.076  -6.228  0.00  0.00     0.037 H 
ATOM     15  H   LIG d   1      10.451  10.495  -6.451  0.00  0.00     0.043 H 
ATOM     16  H   LIG d   1       8.667  10.452  -6.373  0.00  0.00     0.043 H 
ATOM     17  H   LIG d   1       9.217  12.150  -4.747  0.00  0.00     0.048 H 
ATOM     18  H   LIG d   1       7.801  11.110  -4.425  0.00  0.00     0.048 H 
ATOM     19  H   LIG d   1      10.055  11.623  -2.434  0.00  0.00     0.083 H 
ATOM     20  H   LIG d   1       8.511  12.504  -2.426  0.00  0.00     0.083 H 
ATOM     21  H   LIG d   1       7.770  10.852  -1.215  0.00  0.00     0.201 HD
ATOM     22  H   LIG d   1      10.321   9.692  -1.905  0.00  0.00     0.083 H 
ATOM     23  H   LIG d   1       9.628  10.023  -0.300  0.00  0.00     0.083 H 
ATOM     24  H   LIG d   1       8.612   7.979  -0.185  0.00  0.00     0.048 H 
ATOM     25  H   LIG d   1       8.129   8.015  -1.902  0.00  0.00     0.048 H 
ATOM     26  H   LIG d   1      10.722   7.931  -2.075  0.00  0.00     0.122 HD
ATOM     27  H   LIG d   1       9.455   5.372  -2.142  0.00  0.00     0.048 H 
ATOM     28  H   LIG d   1       8.663   6.728  -2.994  0.00  0.00     0.048 H 
ATOM     29  H   LIG d   1      11.448   6.998  -3.491  0.00  0.00     0.083 H 
ATOM     30  H   LIG d   1      11.088   5.272  -3.706  0.00  0.00     0.083 H 
ATOM     31  H   LIG d   1      10.201   5.782  -5.611  0.00  0.00     0.201 HD
ATOM     32  H   LIG d   1      11.481   7.474  -6.215  0.00  0.00     0.082 H 
ATOM     33  H   LIG d   1      11.015   8.417  -4.778  0.00  0.00     0.082 H 
ATOM     34  H   LIG d   1       9.010   9.307  -4.240  0.00  0.00     0.122 HD
ATOM     35  H   LIG d   1       9.052   6.699  -4.875  0.00  0.00     0.201 HD
ATOM     36  H   LIG d   1       7.824   9.897  -2.556  0.00  0.00     0.201 HD
ENDROOT
BRANCH   1  37
ATOM     37  C   LIG d   1       9.951   8.362  -7.891  0.00  0.00     0.020 C 
ATOM     38  C   LIG d   1      11.374   8.868  -8.133  0.00  0.00     0.004 C 
ATOM     39  N   LIG d   1      11.323  10.145  -8.856  0.00  0.00    -0.314 N 
ATOM     40  H   LIG d   1      11.924   8.136  -8.725  0.00  0.00     0.043 H 
ATOM     41  H   LIG d   1      11.876   9.011  -7.176  0.00  0.00     0.043 H 
ATOM     42  C   LIG d   1      12.382  10.218  -9.871  0.00  0.00     0.009 C 
ATOM     43  H   LIG d   1      11.379  10.925  -8.217  0.00  0.00     0.122 HD
ATOM     44  C   LIG d   1      11.751  10.369 -11.256  0.00  0.00     0.009 C 
ATOM     45  H   LIG d   1      12.978   9.306  -9.840  0.00  0.00     0.044 H 
ATOM     46  H   LIG d   1      13.022  11.078  -9.667  0.00  0.00     0.044 H 
ATOM     47  N   LIG d   1      11.576   9.042 -11.861  0.00  0.00    -0.314 N 
ATOM     48  H   LIG d   1      12.402  10.973 -11.888  0.00  0.00     0.044 H 
ATOM     49  H   LIG d   1      10.782  10.857 -11.163  0.00  0.00     0.044 H 
ATOM     50  C   LIG d   1      10.852   9.136 -13.136  0.00  0.00     0.009 C 
ATOM     51  H   LIG d   1      11.109   8.414 -11.225  0.00  0.00     0.122 HD
ATOM     52  C   LIG d   1       9.882   7.960 -13.260  0.00  0.00     0.009 C 
ATOM     53  H   LIG d   1      11.564   9.109 -13.961  0.00  0.00     0.044 H 
ATOM     54  H   LIG d   1      10.294  10.072 -13.169  0.00  0.00     0.044 H 
ATOM     55  N   LIG d   1      10.093   7.031 -12.142  0.00  0.00    -0.310 N 
ATOM     56  H   LIG d   1       8.857   8.329 -13.237  0.00  0.00     0.044 H 
ATOM     57  H   LIG d   1      10.060   7.440 -14.202  0.00  0.00     0.044 H 
ATOM     58  C   LIG d   1       8.812   6.557 -11.602  0.00  0.00     0.036 C 
ATOM     59  H   LIG d   1      10.678   6.257 -12.420  0.00  0.00     0.122 HD
ATOM     60  C   LIG d   1       9.055   5.819 -10.284  0.00  0.00    -0.021 C 
ATOM     61  H   LIG d   1       8.345   5.880 -12.317  0.00  0.00     0.048 H 
ATOM     62  H   LIG d   1       8.155   7.409 -11.425  0.00  0.00     0.048 H 
ATOM     63  N   LIG d   1       8.689   6.689  -9.160  0.00  0.00     0.228 N 
ATOM     64  H   LIG d   1      10.109   5.550 -10.208  0.00  0.00     0.083 H 
ATOM     65  H   LIG d   1       8.447   4.915 -10.257  0.00  0.00     0.083 H 
ATOM     66  C   LIG d   1       9.858   6.888  -8.293  0.00  0.00    -0.029 C 
ATOM     67  H   LIG d   1       7.946   6.259  -8.630  0.00  0.00     0.201 HD
ATOM     68  H   LIG d   1       8.376   7.582  -9.513  0.00  0.00     0.201 HD
ATOM     69  H   LIG d   1      10.762   6.600  -8.830  0.00  0.00     0.082 H 
ATOM     70  H   LIG d   1       9.755   6.273  -7.398  0.00  0.00     0.082 H 
ATOM     71  H   LIG d   1       9.250   8.946  -8.488  0.00  0.00     0.037 H 
ENDBRANCH   1  37
TORSDOF 1
ENDMDL
MODEL 10
REMARK VINA RESULT:      -5.8      1.196      8.224
REMARK  1 active torsions:
REMARK  status: ('A' for Active; 'I' for Inactive)
REMARK    1  A    between atoms: C_8  and  C_14 
ROOT
ATOM      1  C   LIG d   1       9.632   2.592  -4.501  0.00  0.00     0.020 C 
ATOM      2  C   LIG d   1       8.298   2.267  -3.831  0.00  0.00     0.004 C 
ATOM      3  N   LIG d   1       8.177   0.781  -3.718  0.00  0.00    -0.311 N 
ATOM      4  C   LIG d   1       6.724   0.468  -3.884  0.00  0.00     0.036 C 
ATOM      5  C   LIG d   1       6.518  -1.024  -3.622  0.00  0.00    -0.021 C 
ATOM      6  N   LIG d   1       7.177  -1.807  -4.677  0.00  0.00     0.229 N 
ATOM      7  C   LIG d   1       8.367  -2.472  -4.128  0.00  0.00    -0.021 C 
ATOM      8  C   LIG d   1       9.427  -2.611  -5.219  0.00  0.00     0.036 C 
ATOM      9  N   LIG d   1      10.768  -2.331  -4.625  0.00  0.00    -0.306 N 
ATOM     10  C   LIG d   1      11.412  -1.291  -5.485  0.00  0.00     0.036 C 
ATOM     11  C   LIG d   1      12.007  -0.211  -4.582  0.00  0.00    -0.021 C 
ATOM     12  N   LIG d   1      11.514   1.108  -4.998  0.00  0.00     0.228 N 
ATOM     13  C   LIG d   1      10.742   1.722  -3.908  0.00  0.00    -0.029 C 
ATOM     14  H   LIG d   1       9.557   2.413  -5.573  0.00  0.00     0.037 H 
ATOM     15  H   LIG d   1       8.261   2.690  -2.833  0.00  0.00     0.043 H 
ATOM     16  H   LIG d   1       7.476   2.633  -4.437  0.00  0.00     0.043 H 
ATOM     17  H   LIG d   1       6.167   1.055  -3.162  0.00  0.00     0.048 H 
ATOM     18  H   LIG d   1       6.428   0.717  -4.897  0.00  0.00     0.048 H 
ATOM     19  H   LIG d   1       6.941  -1.284  -2.652  0.00  0.00     0.083 H 
ATOM     20  H   LIG d   1       5.450  -1.245  -3.618  0.00  0.00     0.083 H 
ATOM     21  H   LIG d   1       6.534  -2.499  -5.031  0.00  0.00     0.201 HD
ATOM     22  H   LIG d   1       8.760  -1.878  -3.302  0.00  0.00     0.083 H 
ATOM     23  H   LIG d   1       8.093  -3.462  -3.760  0.00  0.00     0.083 H 
ATOM     24  H   LIG d   1       9.436  -3.630  -5.602  0.00  0.00     0.048 H 
ATOM     25  H   LIG d   1       9.240  -1.907  -6.020  0.00  0.00     0.048 H 
ATOM     26  H   LIG d   1      10.512  -1.769  -3.757  0.00  0.00     0.122 HD
ATOM     27  H   LIG d   1      12.203  -1.767  -6.058  0.00  0.00     0.048 H 
ATOM     28  H   LIG d   1      10.665  -0.863  -6.141  0.00  0.00     0.048 H 
ATOM     29  H   LIG d   1      11.722  -0.392  -3.546  0.00  0.00     0.083 H 
ATOM     30  H   LIG d   1      13.096  -0.228  -4.660  0.00  0.00     0.083 H 
ATOM     31  H   LIG d   1      12.300   1.704  -5.220  0.00  0.00     0.201 HD
ATOM     32  H   LIG d   1      11.407   2.345  -3.307  0.00  0.00     0.082 H 
ATOM     33  H   LIG d   1      10.307   0.945  -3.282  0.00  0.00     0.082 H 
ATOM     34  H   LIG d   1       8.577   0.460  -4.651  0.00  0.00     0.122 HD
ATOM     35  H   LIG d   1      10.933   1.011  -5.816  0.00  0.00     0.201 HD
ATOM     36  H   LIG d   1       7.452  -1.190  -5.427  0.00  0.00     0.201 HD
ENDROOT
BRANCH   1  37
ATOM     37  C   LIG d   1       9.973   4.067  -4.264  0.00  0.00     0.020 C 
ATOM     38  C   LIG d   1      10.929   4.185  -3.075  0.00  0.00     0.004 C 
ATOM     39  N   LIG d   1      10.214   4.754  -1.926  0.00  0.00    -0.314 N 
ATOM     40  H   LIG d   1      11.763   4.834  -3.343  0.00  0.00     0.043 H 
ATOM     41  H   LIG d   1      11.308   3.196  -2.814  0.00  0.00     0.043 H 
ATOM     42  C   LIG d   1      11.063   5.706  -1.196  0.00  0.00     0.009 C 
ATOM     43  H   LIG d   1       9.876   4.026  -1.313  0.00  0.00     0.122 HD
ATOM     44  C   LIG d   1      10.412   7.090  -1.220  0.00  0.00     0.009 C 
ATOM     45  H   LIG d   1      12.042   5.756  -1.671  0.00  0.00     0.044 H 
ATOM     46  H   LIG d   1      11.175   5.374  -0.163  0.00  0.00     0.044 H 
ATOM     47  N   LIG d   1      10.929   7.854  -2.362  0.00  0.00    -0.314 N 
ATOM     48  H   LIG d   1      10.646   7.617  -0.295  0.00  0.00     0.044 H 
ATOM     49  H   LIG d   1       9.332   6.983  -1.313  0.00  0.00     0.044 H 
ATOM     50  C   LIG d   1      10.231   9.140  -2.496  0.00  0.00     0.009 C 
ATOM     51  H   LIG d   1      10.864   7.318  -3.215  0.00  0.00     0.122 HD
ATOM     52  C   LIG d   1       9.999   9.444  -3.977  0.00  0.00     0.009 C 
ATOM     53  H   LIG d   1      10.837   9.930  -2.053  0.00  0.00     0.044 H 
ATOM     54  H   LIG d   1       9.270   9.087  -1.982  0.00  0.00     0.044 H 
ATOM     55  N   LIG d   1      10.682   8.434  -4.797  0.00  0.00    -0.310 N 
ATOM     56  H   LIG d   1       8.930   9.423  -4.190  0.00  0.00     0.044 H 
ATOM     57  H   LIG d   1      10.397  10.432  -4.211  0.00  0.00     0.044 H 
ATOM     58  C   LIG d   1       9.838   8.012  -5.922  0.00  0.00     0.036 C 
ATOM     59  H   LIG d   1      11.574   8.776  -5.122  0.00  0.00     0.122 HD
ATOM     60  C   LIG d   1      10.455   6.780  -6.588  0.00  0.00    -0.021 C 
ATOM     61  H   LIG d   1       9.768   8.821  -6.649  0.00  0.00     0.048 H 
ATOM     62  H   LIG d   1       8.841   7.765  -5.556  0.00  0.00     0.048 H 
ATOM     63  N   LIG d   1       9.720   5.578  -6.174  0.00  0.00     0.228 N 
ATOM     64  H   LIG d   1      11.499   6.689  -6.287  0.00  0.00     0.083 H 
ATOM     65  H   LIG d   1      10.398   6.886  -7.672  0.00  0.00     0.083 H 
ATOM     66  C   LIG d   1      10.640   4.643  -5.515  0.00  0.00    -0.029 C 
ATOM     67  H   LIG d   1       9.315   5.136  -6.985  0.00  0.00     0.201 HD
ATOM     68  H   LIG d   1       8.986   5.838  -5.531  0.00  0.00     0.201 HD
ATOM     69  H   LIG d   1      11.551   5.170  -5.230  0.00  0.00     0.082 H 
ATOM     70  H   LIG d   1      10.888   3.833  -6.200  0.00  0.00     0.082 H 
ATOM     71  H   LIG d   1       9.059   4.622  -4.052  0.00  0.00     0.037 H 
ENDBRANCH   1  37
TORSDOF 1
ENDMDL
