MODEL 1
REMARK VINA RESULT:      -7.2      0.000      0.000
REMARK  4 active torsions:
REMARK  status: ('A' for Active; 'I' for Inactive)
REMARK    1  A    between atoms: C_1  and  C_2 
REMARK    2  A    between atoms: C_3  and  C_28 
REMARK    3  A    between atoms: C_12  and  C_13 
REMARK    4  A    between atoms: N_16  and  C_18 
ROOT
ATOM      1  C   LIG d   1       4.239  -0.817  -3.262  0.00  0.00    -0.030 A 
ATOM      2  C   LIG d   1       4.772   0.406  -3.003  0.00  0.00     0.037 A 
ATOM      3  C   LIG d   1       6.092   0.689  -3.404  0.00  0.00     0.340 A 
ATOM      4  O   LIG d   1       6.551   1.792  -3.162  0.00  0.00    -0.245 OA
ATOM      5  O   LIG d   1       6.864  -0.200  -4.036  0.00  0.00    -0.422 OA
ATOM      6  C   LIG d   1       6.390  -1.430  -4.320  0.00  0.00     0.146 A 
ATOM      7  C   LIG d   1       5.081  -1.794  -3.956  0.00  0.00     0.022 A 
ATOM      8  C   LIG d   1       4.600  -3.072  -4.255  0.00  0.00    -0.043 A 
ATOM      9  C   LIG d   1       5.401  -3.971  -4.903  0.00  0.00     0.013 A 
ATOM     10  C   LIG d   1       6.697  -3.618  -5.269  0.00  0.00     0.134 A 
ATOM     11  C   LIG d   1       7.189  -2.353  -4.978  0.00  0.00     0.035 A 
ATOM     12  O   LIG d   1       7.499  -4.502  -5.920  0.00  0.00    -0.473 OA
ATOM     13  C   LIG d   1       7.116  -5.878  -5.884  0.00  0.00     0.157 C 
ATOM     14  N   LIG d   1       5.692  -5.978  -6.247  0.00  0.00    -0.293 NA
ATOM     15  C   LIG d   1       4.861  -5.344  -5.214  0.00  0.00     0.044 C 
ATOM     16  H   LIG d   1       3.595  -3.350  -3.974  0.00  0.00     0.063 H 
ATOM     17  H   LIG d   1       7.266  -6.274  -4.880  0.00  0.00     0.091 H 
ATOM     18  H   LIG d   1       7.715  -6.443  -6.598  0.00  0.00     0.091 H 
ATOM     19  H   LIG d   1       3.836  -5.257  -5.576  0.00  0.00     0.051 H 
ATOM     20  H   LIG d   1       4.877  -5.953  -4.311  0.00  0.00     0.051 H 
ENDROOT
BRANCH  14  21
ATOM     21  C   LIG d   1       5.318  -7.312  -6.442  0.00  0.00     0.036 A 
ATOM     22  C   LIG d   1       5.043  -8.123  -5.350  0.00  0.00     0.005 A 
ATOM     23  C   LIG d   1       4.671  -9.445  -5.543  0.00  0.00     0.164 A 
ATOM     24  H   LIG d   1       5.119  -7.724  -4.349  0.00  0.00     0.067 H 
ATOM     25  C   LIG d   1       4.573  -9.955  -6.831  0.00  0.00     0.162 A 
ATOM     26  O   LIG d   1       4.408 -10.228  -4.461  0.00  0.00    -0.485 OA
ATOM     27  C   LIG d   1       4.846  -9.141  -7.921  0.00  0.00    -0.015 A 
ATOM     28  O   LIG d   1       4.204 -11.250  -7.042  0.00  0.00    -0.485 OA
ATOM     29  C   LIG d   1       5.220  -7.826  -7.729  0.00  0.00    -0.037 A 
ATOM     30  H   LIG d   1       4.771  -9.539  -8.922  0.00  0.00     0.066 H 
ATOM     31  H   LIG d   1       5.435  -7.196  -8.579  0.00  0.00     0.064 H 
ATOM     32  C   LIG d   1       4.296 -12.136  -5.921  0.00  0.00     0.124 C 
ATOM     33  C   LIG d   1       3.676 -11.435  -4.704  0.00  0.00     0.124 C 
ATOM     34  H   LIG d   1       5.342 -12.366  -5.719  0.00  0.00     0.073 H 
ATOM     35  H   LIG d   1       3.750 -13.055  -6.132  0.00  0.00     0.073 H 
ATOM     36  H   LIG d   1       3.742 -12.086  -3.832  0.00  0.00     0.073 H 
ATOM     37  H   LIG d   1       2.633 -11.198  -4.907  0.00  0.00     0.073 H 
ENDBRANCH  14  21
BRANCH  11  38
ATOM     38  C   LIG d   1       8.595  -1.983  -5.377  0.00  0.00    -0.033 C 
ATOM     39  H   LIG d   1       8.598  -0.985  -5.813  0.00  0.00     0.028 H 
ATOM     40  H   LIG d   1       9.238  -1.996  -4.495  0.00  0.00     0.028 H 
ATOM     41  H   LIG d   1       8.966  -2.702  -6.107  0.00  0.00     0.028 H 
ENDBRANCH  11  38
BRANCH   1  42
ATOM     42  C   LIG d   1       2.829  -1.156  -2.849  0.00  0.00    -0.039 C 
ATOM     43  H   LIG d   1       2.304  -1.610  -3.689  0.00  0.00     0.028 H 
ATOM     44  H   LIG d   1       2.854  -1.856  -2.014  0.00  0.00     0.028 H 
ATOM     45  H   LIG d   1       2.311  -0.247  -2.545  0.00  0.00     0.028 H 
ENDBRANCH   1  42
BRANCH   2  46
ATOM     46  C   LIG d   1       3.954   1.455  -2.293  0.00  0.00    -0.033 C 
ATOM     47  H   LIG d   1       4.520   1.844  -1.447  0.00  0.00     0.028 H 
ATOM     48  H   LIG d   1       3.726   2.266  -2.983  0.00  0.00     0.028 H 
ATOM     49  H   LIG d   1       3.026   1.009  -1.936  0.00  0.00     0.028 H 
ENDBRANCH   2  46
TORSDOF 4
ENDMDL
MODEL 2
REMARK VINA RESULT:      -6.9      5.290     11.486
REMARK  4 active torsions:
REMARK  status: ('A' for Active; 'I' for Inactive)
REMARK    1  A    between atoms: C_1  and  C_2 
REMARK    2  A    between atoms: C_3  and  C_28 
REMARK    3  A    between atoms: C_12  and  C_13 
REMARK    4  A    between atoms: N_16  and  C_18 
ROOT
ATOM      1  C   LIG d   1       5.214  -0.573  -2.844  0.00  0.00    -0.030 A 
ATOM      2  C   LIG d   1       4.691  -1.795  -3.127  0.00  0.00     0.037 A 
ATOM      3  C   LIG d   1       5.227  -2.555  -4.185  0.00  0.00     0.340 A 
ATOM      4  O   LIG d   1       4.742  -3.647  -4.422  0.00  0.00    -0.245 OA
ATOM      5  O   LIG d   1       6.243  -2.128  -4.941  0.00  0.00    -0.422 OA
ATOM      6  C   LIG d   1       6.804  -0.924  -4.708  0.00  0.00     0.146 A 
ATOM      7  C   LIG d   1       6.330  -0.102  -3.670  0.00  0.00     0.022 A 
ATOM      8  C   LIG d   1       6.918   1.144  -3.437  0.00  0.00    -0.043 A 
ATOM      9  C   LIG d   1       7.957   1.567  -4.218  0.00  0.00     0.013 A 
ATOM     10  C   LIG d   1       8.434   0.759  -5.247  0.00  0.00     0.134 A 
ATOM     11  C   LIG d   1       7.859  -0.481  -5.491  0.00  0.00     0.035 A 
ATOM     12  O   LIG d   1       9.471   1.167  -6.025  0.00  0.00    -0.473 OA
ATOM     13  C   LIG d   1       9.799   2.558  -5.997  0.00  0.00     0.157 C 
ATOM     14  N   LIG d   1       9.895   2.990  -4.593  0.00  0.00    -0.293 NA
ATOM     15  C   LIG d   1       8.576   2.915  -3.949  0.00  0.00     0.044 C 
ATOM     16  H   LIG d   1       6.552   1.773  -2.639  0.00  0.00     0.063 H 
ATOM     17  H   LIG d   1       9.019   3.128  -6.503  0.00  0.00     0.091 H 
ATOM     18  H   LIG d   1      10.755   2.718  -6.495  0.00  0.00     0.091 H 
ATOM     19  H   LIG d   1       8.688   3.055  -2.874  0.00  0.00     0.051 H 
ATOM     20  H   LIG d   1       7.931   3.697  -4.351  0.00  0.00     0.051 H 
ENDROOT
BRANCH  14  21
ATOM     21  C   LIG d   1      10.425   4.281  -4.501  0.00  0.00     0.036 A 
ATOM     22  C   LIG d   1       9.911   5.178  -3.576  0.00  0.00     0.005 A 
ATOM     23  C   LIG d   1      10.436   6.458  -3.484  0.00  0.00     0.164 A 
ATOM     24  H   LIG d   1       9.100   4.879  -2.928  0.00  0.00     0.067 H 
ATOM     25  C   LIG d   1      11.479   6.840  -4.318  0.00  0.00     0.162 A 
ATOM     26  O   LIG d   1       9.918   7.328  -2.573  0.00  0.00    -0.485 OA
ATOM     27  C   LIG d   1      11.993   5.940  -5.240  0.00  0.00    -0.015 A 
ATOM     28  O   LIG d   1      12.013   8.092  -4.239  0.00  0.00    -0.485 OA
ATOM     29  C   LIG d   1      11.467   4.667  -5.335  0.00  0.00    -0.037 A 
ATOM     30  H   LIG d   1      12.803   6.238  -5.889  0.00  0.00     0.066 H 
ATOM     31  H   LIG d   1      11.868   3.969  -6.055  0.00  0.00     0.064 H 
ATOM     32  C   LIG d   1      11.232   9.082  -3.561  0.00  0.00     0.124 C 
ATOM     33  C   LIG d   1      10.715   8.472  -2.251  0.00  0.00     0.124 C 
ATOM     34  H   LIG d   1      10.389   9.377  -4.187  0.00  0.00     0.073 H 
ATOM     35  H   LIG d   1      11.851   9.952  -3.343  0.00  0.00     0.073 H 
ATOM     36  H   LIG d   1      10.108   9.206  -1.719  0.00  0.00     0.073 H 
ATOM     37  H   LIG d   1      11.557   8.171  -1.628  0.00  0.00     0.073 H 
ENDBRANCH  14  21
BRANCH  11  38
ATOM     38  C   LIG d   1       8.382  -1.345  -6.609  0.00  0.00    -0.033 C 
ATOM     39  H   LIG d   1       8.986  -0.740  -7.284  0.00  0.00     0.028 H 
ATOM     40  H   LIG d   1       8.995  -2.147  -6.193  0.00  0.00     0.028 H 
ATOM     41  H   LIG d   1       7.545  -1.776  -7.157  0.00  0.00     0.028 H 
ENDBRANCH  11  38
BRANCH   1  42
ATOM     42  C   LIG d   1       4.668   0.268  -1.719  0.00  0.00    -0.039 C 
ATOM     43  H   LIG d   1       3.654  -0.055  -1.484  0.00  0.00     0.028 H 
ATOM     44  H   LIG d   1       5.300   0.151  -0.838  0.00  0.00     0.028 H 
ATOM     45  H   LIG d   1       4.656   1.315  -2.020  0.00  0.00     0.028 H 
ENDBRANCH   1  42
BRANCH   2  46
ATOM     46  C   LIG d   1       3.543  -2.335  -2.312  0.00  0.00    -0.033 C 
ATOM     47  H   LIG d   1       2.961  -1.506  -1.911  0.00  0.00     0.028 H 
ATOM     48  H   LIG d   1       2.908  -2.953  -2.946  0.00  0.00     0.028 H 
ATOM     49  H   LIG d   1       3.933  -2.937  -1.492  0.00  0.00     0.028 H 
ENDBRANCH   2  46
TORSDOF 4
ENDMDL
MODEL 3
REMARK VINA RESULT:      -6.8      9.761     14.630
REMARK  4 active torsions:
REMARK  status: ('A' for Active; 'I' for Inactive)
REMARK    1  A    between atoms: C_1  and  C_2 
REMARK    2  A    between atoms: C_3  and  C_28 
REMARK    3  A    between atoms: C_12  and  C_13 
REMARK    4  A    between atoms: N_16  and  C_18 
ROOT
ATOM      1  C   LIG d   1       9.609   6.364  -8.228  0.00  0.00    -0.030 A 
ATOM      2  C   LIG d   1       9.318   5.569  -9.291  0.00  0.00     0.037 A 
ATOM      3  C   LIG d   1       9.131   4.186  -9.098  0.00  0.00     0.340 A 
ATOM      4  O   LIG d   1       8.871   3.492 -10.064  0.00  0.00    -0.245 OA
ATOM      5  O   LIG d   1       9.227   3.604  -7.899  0.00  0.00    -0.422 OA
ATOM      6  C   LIG d   1       9.513   4.341  -6.806  0.00  0.00     0.146 A 
ATOM      7  C   LIG d   1       9.714   5.729  -6.912  0.00  0.00     0.022 A 
ATOM      8  C   LIG d   1      10.011   6.483  -5.773  0.00  0.00    -0.043 A 
ATOM      9  C   LIG d   1      10.105   5.873  -4.554  0.00  0.00     0.013 A 
ATOM     10  C   LIG d   1       9.906   4.500  -4.440  0.00  0.00     0.134 A 
ATOM     11  C   LIG d   1       9.612   3.737  -5.561  0.00  0.00     0.035 A 
ATOM     12  O   LIG d   1       9.991   3.885  -3.230  0.00  0.00    -0.473 OA
ATOM     13  C   LIG d   1      10.637   4.604  -2.178  0.00  0.00     0.157 C 
ATOM     14  N   LIG d   1      10.073   5.963  -2.122  0.00  0.00    -0.293 NA
ATOM     15  C   LIG d   1      10.427   6.708  -3.339  0.00  0.00     0.044 C 
ATOM     16  H   LIG d   1      10.165   7.549  -5.857  0.00  0.00     0.063 H 
ATOM     17  H   LIG d   1      11.707   4.659  -2.376  0.00  0.00     0.091 H 
ATOM     18  H   LIG d   1      10.463   4.097  -1.228  0.00  0.00     0.091 H 
ATOM     19  H   LIG d   1       9.857   7.636  -3.375  0.00  0.00     0.051 H 
ATOM     20  H   LIG d   1      11.493   6.936  -3.328  0.00  0.00     0.051 H 
ENDROOT
BRANCH  14  21
ATOM     21  C   LIG d   1      10.508   6.639  -0.977  0.00  0.00     0.036 A 
ATOM     22  C   LIG d   1      10.695   8.013  -1.012  0.00  0.00     0.005 A 
ATOM     23  C   LIG d   1      11.126   8.685   0.122  0.00  0.00     0.164 A 
ATOM     24  H   LIG d   1      10.506   8.561  -1.924  0.00  0.00     0.067 H 
ATOM     25  C   LIG d   1      11.367   7.979   1.294  0.00  0.00     0.162 A 
ATOM     26  O   LIG d   1      11.308  10.033   0.071  0.00  0.00    -0.485 OA
ATOM     27  C   LIG d   1      11.176   6.605   1.327  0.00  0.00    -0.015 A 
ATOM     28  O   LIG d   1      11.785   8.621   2.421  0.00  0.00    -0.485 OA
ATOM     29  C   LIG d   1      10.752   5.936   0.196  0.00  0.00    -0.037 A 
ATOM     30  H   LIG d   1      11.366   6.057   2.238  0.00  0.00     0.066 H 
ATOM     31  H   LIG d   1      10.607   4.867   0.224  0.00  0.00     0.064 H 
ATOM     32  C   LIG d   1      12.318   9.939   2.250  0.00  0.00     0.124 C 
ATOM     33  C   LIG d   1      11.377  10.721   1.324  0.00  0.00     0.124 C 
ATOM     34  H   LIG d   1      13.310   9.879   1.801  0.00  0.00     0.073 H 
ATOM     35  H   LIG d   1      12.381  10.438   3.217  0.00  0.00     0.073 H 
ATOM     36  H   LIG d   1      11.766  11.728   1.171  0.00  0.00     0.073 H 
ATOM     37  H   LIG d   1      10.384  10.775   1.769  0.00  0.00     0.073 H 
ENDBRANCH  14  21
BRANCH  11  38
ATOM     38  C   LIG d   1       9.400   2.252  -5.426  0.00  0.00    -0.033 C 
ATOM     39  H   LIG d   1      10.019   1.728  -6.154  0.00  0.00     0.028 H 
ATOM     40  H   LIG d   1       9.678   1.935  -4.419  0.00  0.00     0.028 H 
ATOM     41  H   LIG d   1       8.351   2.016  -5.604  0.00  0.00     0.028 H 
ENDBRANCH  11  38
BRANCH   1  42
ATOM     42  C   LIG d   1       9.816   7.847  -8.397  0.00  0.00    -0.039 C 
ATOM     43  H   LIG d   1       9.429   8.369  -7.522  0.00  0.00     0.028 H 
ATOM     44  H   LIG d   1      10.880   8.056  -8.505  0.00  0.00     0.028 H 
ATOM     45  H   LIG d   1       9.287   8.189  -9.287  0.00  0.00     0.028 H 
ENDBRANCH   1  42
BRANCH   2  46
ATOM     46  C   LIG d   1       9.196   6.164 -10.672  0.00  0.00    -0.033 C 
ATOM     47  H   LIG d   1       8.848   5.400 -11.367  0.00  0.00     0.028 H 
ATOM     48  H   LIG d   1       8.483   6.988 -10.650  0.00  0.00     0.028 H 
ATOM     49  H   LIG d   1      10.169   6.534 -10.994  0.00  0.00     0.028 H 
ENDBRANCH   2  46
TORSDOF 4
ENDMDL
MODEL 4
REMARK VINA RESULT:      -6.5      9.997     15.341
REMARK  4 active torsions:
REMARK  status: ('A' for Active; 'I' for Inactive)
REMARK    1  A    between atoms: C_1  and  C_2 
REMARK    2  A    between atoms: C_3  and  C_28 
REMARK    3  A    between atoms: C_12  and  C_13 
REMARK    4  A    between atoms: N_16  and  C_18 
ROOT
ATOM      1  C   LIG d   1       9.702   5.668  -7.481  0.00  0.00    -0.030 A 
ATOM      2  C   LIG d   1       9.457   4.566  -8.238  0.00  0.00     0.037 A 
ATOM      3  C   LIG d   1       9.291   3.315  -7.613  0.00  0.00     0.340 A 
ATOM      4  O   LIG d   1       9.072   2.340  -8.311  0.00  0.00    -0.245 OA
ATOM      5  O   LIG d   1       9.364   3.150  -6.289  0.00  0.00    -0.422 OA
ATOM      6  C   LIG d   1       9.604   4.206  -5.486  0.00  0.00     0.146 A 
ATOM      7  C   LIG d   1       9.782   5.492  -6.029  0.00  0.00     0.022 A 
ATOM      8  C   LIG d   1      10.031   6.580  -5.187  0.00  0.00    -0.043 A 
ATOM      9  C   LIG d   1      10.102   6.397  -3.834  0.00  0.00     0.013 A 
ATOM     10  C   LIG d   1       9.926   5.128  -3.289  0.00  0.00     0.134 A 
ATOM     11  C   LIG d   1       9.679   4.038  -4.112  0.00  0.00     0.035 A 
ATOM     12  O   LIG d   1       9.988   4.936  -1.945  0.00  0.00    -0.473 OA
ATOM     13  C   LIG d   1      10.590   5.972  -1.166  0.00  0.00     0.157 C 
ATOM     14  N   LIG d   1       9.999   7.261  -1.562  0.00  0.00    -0.293 NA
ATOM     15  C   LIG d   1      10.373   7.585  -2.946  0.00  0.00     0.044 C 
ATOM     16  H   LIG d   1      10.167   7.566  -5.605  0.00  0.00     0.063 H 
ATOM     17  H   LIG d   1      11.665   5.991  -1.349  0.00  0.00     0.091 H 
ATOM     18  H   LIG d   1      10.399   5.792  -0.108  0.00  0.00     0.091 H 
ATOM     19  H   LIG d   1       9.787   8.437  -3.291  0.00  0.00     0.051 H 
ATOM     20  H   LIG d   1      11.433   7.834  -2.987  0.00  0.00     0.051 H 
ENDROOT
BRANCH  14  21
ATOM     21  C   LIG d   1      10.388   8.281  -0.687  0.00  0.00     0.036 A 
ATOM     22  C   LIG d   1      11.532   8.135   0.085  0.00  0.00     0.005 A 
ATOM     23  C   LIG d   1      11.918   9.145   0.953  0.00  0.00     0.164 A 
ATOM     24  H   LIG d   1      12.122   7.233   0.010  0.00  0.00     0.067 H 
ATOM     25  C   LIG d   1      11.157  10.304   1.047  0.00  0.00     0.162 A 
ATOM     26  O   LIG d   1      13.041   8.986   1.705  0.00  0.00    -0.485 OA
ATOM     27  C   LIG d   1      10.016  10.449   0.272  0.00  0.00    -0.015 A 
ATOM     28  O   LIG d   1      11.523  11.312   1.889  0.00  0.00    -0.485 OA
ATOM     29  C   LIG d   1       9.629   9.440  -0.589  0.00  0.00    -0.037 A 
ATOM     30  H   LIG d   1       9.425  11.349   0.347  0.00  0.00     0.066 H 
ATOM     31  H   LIG d   1       8.738   9.554  -1.188  0.00  0.00     0.064 H 
ATOM     32  C   LIG d   1      12.464  10.981   2.917  0.00  0.00     0.124 C 
ATOM     33  C   LIG d   1      13.602  10.170   2.282  0.00  0.00     0.124 C 
ATOM     34  H   LIG d   1      11.973  10.385   3.687  0.00  0.00     0.073 H 
ATOM     35  H   LIG d   1      12.865  11.894   3.356  0.00  0.00     0.073 H 
ATOM     36  H   LIG d   1      14.329   9.897   3.047  0.00  0.00     0.073 H 
ATOM     37  H   LIG d   1      14.089  10.761   1.508  0.00  0.00     0.073 H 
ENDBRANCH  14  21
BRANCH  11  38
ATOM     38  C   LIG d   1       9.493   2.669  -3.510  0.00  0.00    -0.033 C 
ATOM     39  H   LIG d   1      10.437   2.324  -3.091  0.00  0.00     0.028 H 
ATOM     40  H   LIG d   1       8.741   2.718  -2.721  0.00  0.00     0.028 H 
ATOM     41  H   LIG d   1       9.162   1.974  -4.282  0.00  0.00     0.028 H 
ENDBRANCH  11  38
BRANCH   1  42
ATOM     42  C   LIG d   1       9.885   7.024  -8.114  0.00  0.00    -0.039 C 
ATOM     43  H   LIG d   1      10.264   6.903  -9.128  0.00  0.00     0.028 H 
ATOM     44  H   LIG d   1       8.927   7.543  -8.142  0.00  0.00     0.028 H 
ATOM     45  H   LIG d   1      10.595   7.606  -7.527  0.00  0.00     0.028 H 
ENDBRANCH   1  42
BRANCH   2  46
ATOM     46  C   LIG d   1       9.363   4.683  -9.738  0.00  0.00    -0.033 C 
ATOM     47  H   LIG d   1       8.954   5.658 -10.002  0.00  0.00     0.028 H 
ATOM     48  H   LIG d   1      10.356   4.574 -10.174  0.00  0.00     0.028 H 
ATOM     49  H   LIG d   1       8.710   3.899 -10.122  0.00  0.00     0.028 H 
ENDBRANCH   2  46
TORSDOF 4
ENDMDL
MODEL 5
REMARK VINA RESULT:      -6.4      6.917     10.606
REMARK  4 active torsions:
REMARK  status: ('A' for Active; 'I' for Inactive)
REMARK    1  A    between atoms: C_1  and  C_2 
REMARK    2  A    between atoms: C_3  and  C_28 
REMARK    3  A    between atoms: C_12  and  C_13 
REMARK    4  A    between atoms: N_16  and  C_18 
ROOT
ATOM      1  C   LIG d   1      11.036   7.211   0.220  0.00  0.00    -0.030 A 
ATOM      2  C   LIG d   1      11.386   8.503   0.456  0.00  0.00     0.037 A 
ATOM      3  C   LIG d   1      11.367   9.434  -0.601  0.00  0.00     0.340 A 
ATOM      4  O   LIG d   1      11.685  10.587  -0.368  0.00  0.00    -0.245 OA
ATOM      5  O   LIG d   1      11.016   9.107  -1.848  0.00  0.00    -0.422 OA
ATOM      6  C   LIG d   1      10.658   7.841  -2.143  0.00  0.00     0.146 A 
ATOM      7  C   LIG d   1      10.649   6.849  -1.146  0.00  0.00     0.022 A 
ATOM      8  C   LIG d   1      10.276   5.540  -1.463  0.00  0.00    -0.043 A 
ATOM      9  C   LIG d   1       9.919   5.221  -2.743  0.00  0.00     0.013 A 
ATOM     10  C   LIG d   1       9.923   6.197  -3.736  0.00  0.00     0.134 A 
ATOM     11  C   LIG d   1      10.292   7.501  -3.437  0.00  0.00     0.035 A 
ATOM     12  O   LIG d   1       9.563   5.891  -5.011  0.00  0.00    -0.473 OA
ATOM     13  C   LIG d   1       9.542   4.508  -5.369  0.00  0.00     0.157 C 
ATOM     14  N   LIG d   1       8.794   3.768  -4.339  0.00  0.00    -0.293 NA
ATOM     15  C   LIG d   1       9.521   3.801  -3.062  0.00  0.00     0.044 C 
ATOM     16  H   LIG d   1      10.270   4.779  -0.696  0.00  0.00     0.063 H 
ATOM     17  H   LIG d   1      10.563   4.129  -5.422  0.00  0.00     0.091 H 
ATOM     18  H   LIG d   1       9.052   4.387  -6.334  0.00  0.00     0.091 H 
ATOM     19  H   LIG d   1       8.880   3.418  -2.269  0.00  0.00     0.051 H 
ATOM     20  H   LIG d   1      10.415   3.183  -3.138  0.00  0.00     0.051 H 
ENDROOT
BRANCH  14  21
ATOM     21  C   LIG d   1       8.553   2.451  -4.744  0.00  0.00     0.036 A 
ATOM     22  C   LIG d   1       7.907   1.569  -3.889  0.00  0.00     0.005 A 
ATOM     23  C   LIG d   1       7.668   0.263  -4.289  0.00  0.00     0.164 A 
ATOM     24  H   LIG d   1       7.592   1.900  -2.910  0.00  0.00     0.067 H 
ATOM     25  C   LIG d   1       8.074  -0.159  -5.549  0.00  0.00     0.162 A 
ATOM     26  O   LIG d   1       7.036  -0.591  -3.438  0.00  0.00    -0.485 OA
ATOM     27  C   LIG d   1       8.716   0.725  -6.403  0.00  0.00    -0.015 A 
ATOM     28  O   LIG d   1       7.842  -1.437  -5.963  0.00  0.00    -0.485 OA
ATOM     29  C   LIG d   1       8.959   2.024  -6.002  0.00  0.00    -0.037 A 
ATOM     30  H   LIG d   1       9.033   0.395  -7.381  0.00  0.00     0.066 H 
ATOM     31  H   LIG d   1       9.462   2.710  -6.667  0.00  0.00     0.064 H 
ATOM     32  C   LIG d   1       7.528  -2.396  -4.948  0.00  0.00     0.124 C 
ATOM     33  C   LIG d   1       6.479  -1.778  -4.013  0.00  0.00     0.124 C 
ATOM     34  H   LIG d   1       8.427  -2.641  -4.382  0.00  0.00     0.073 H 
ATOM     35  H   LIG d   1       7.124  -3.298  -5.406  0.00  0.00     0.073 H 
ATOM     36  H   LIG d   1       6.229  -2.486  -3.223  0.00  0.00     0.073 H 
ATOM     37  H   LIG d   1       5.583  -1.527  -4.579  0.00  0.00     0.073 H 
ENDBRANCH  14  21
BRANCH  11  38
ATOM     38  C   LIG d   1      10.295   8.549  -4.521  0.00  0.00    -0.033 C 
ATOM     39  H   LIG d   1      10.436   8.070  -5.489  0.00  0.00     0.028 H 
ATOM     40  H   LIG d   1       9.343   9.082  -4.514  0.00  0.00     0.028 H 
ATOM     41  H   LIG d   1      11.107   9.254  -4.341  0.00  0.00     0.028 H 
ENDBRANCH  11  38
BRANCH   1  42
ATOM     42  C   LIG d   1      11.043   6.187   1.325  0.00  0.00    -0.039 C 
ATOM     43  H   LIG d   1      10.774   5.212   0.919  0.00  0.00     0.028 H 
ATOM     44  H   LIG d   1      12.038   6.136   1.766  0.00  0.00     0.028 H 
ATOM     45  H   LIG d   1      10.322   6.473   2.091  0.00  0.00     0.028 H 
ENDBRANCH   1  42
BRANCH   2  46
ATOM     46  C   LIG d   1      11.793   8.937   1.841  0.00  0.00    -0.033 C 
ATOM     47  H   LIG d   1      12.082   8.064   2.425  0.00  0.00     0.028 H 
ATOM     48  H   LIG d   1      12.636   9.625   1.773  0.00  0.00     0.028 H 
ATOM     49  H   LIG d   1      10.954   9.437   2.325  0.00  0.00     0.028 H 
ENDBRANCH   2  46
TORSDOF 4
ENDMDL
MODEL 6
REMARK VINA RESULT:      -6.4     10.023     15.576
REMARK  4 active torsions:
REMARK  status: ('A' for Active; 'I' for Inactive)
REMARK    1  A    between atoms: C_1  and  C_2 
REMARK    2  A    between atoms: C_3  and  C_28 
REMARK    3  A    between atoms: C_12  and  C_13 
REMARK    4  A    between atoms: N_16  and  C_18 
ROOT
ATOM      1  C   LIG d   1       9.706   5.630  -7.468  0.00  0.00    -0.030 A 
ATOM      2  C   LIG d   1       9.460   4.514  -8.203  0.00  0.00     0.037 A 
ATOM      3  C   LIG d   1       9.303   3.273  -7.556  0.00  0.00     0.340 A 
ATOM      4  O   LIG d   1       9.082   2.285  -8.234  0.00  0.00    -0.245 OA
ATOM      5  O   LIG d   1       9.386   3.133  -6.229  0.00  0.00    -0.422 OA
ATOM      6  C   LIG d   1       9.628   4.203  -5.447  0.00  0.00     0.146 A 
ATOM      7  C   LIG d   1       9.797   5.480  -6.013  0.00  0.00     0.022 A 
ATOM      8  C   LIG d   1      10.048   6.583  -5.192  0.00  0.00    -0.043 A 
ATOM      9  C   LIG d   1      10.129   6.424  -3.837  0.00  0.00     0.013 A 
ATOM     10  C   LIG d   1       9.962   5.164  -3.268  0.00  0.00     0.134 A 
ATOM     11  C   LIG d   1       9.713   4.059  -4.070  0.00  0.00     0.035 A 
ATOM     12  O   LIG d   1      10.034   4.996  -1.921  0.00  0.00    -0.473 OA
ATOM     13  C   LIG d   1      10.638   6.048  -1.165  0.00  0.00     0.157 C 
ATOM     14  N   LIG d   1      10.040   7.327  -1.579  0.00  0.00    -0.293 NA
ATOM     15  C   LIG d   1      10.402   7.629  -2.972  0.00  0.00     0.044 C 
ATOM     16  H   LIG d   1      10.177   7.563  -5.629  0.00  0.00     0.063 H 
ATOM     17  H   LIG d   1      11.711   6.066  -1.356  0.00  0.00     0.091 H 
ATOM     18  H   LIG d   1      10.455   5.886  -0.103  0.00  0.00     0.091 H 
ATOM     19  H   LIG d   1       9.810   8.472  -3.327  0.00  0.00     0.051 H 
ATOM     20  H   LIG d   1      11.461   7.880  -3.025  0.00  0.00     0.051 H 
ENDROOT
BRANCH  14  21
ATOM     21  C   LIG d   1      10.431   8.364  -0.725  0.00  0.00     0.036 A 
ATOM     22  C   LIG d   1      10.208   9.684  -1.088  0.00  0.00     0.005 A 
ATOM     23  C   LIG d   1      10.595  10.712  -0.242  0.00  0.00     0.164 A 
ATOM     24  H   LIG d   1       9.734   9.912  -2.031  0.00  0.00     0.067 H 
ATOM     25  C   LIG d   1      11.204  10.417   0.971  0.00  0.00     0.162 A 
ATOM     26  O   LIG d   1      10.373  12.003  -0.614  0.00  0.00    -0.485 OA
ATOM     27  C   LIG d   1      11.423   9.096   1.333  0.00  0.00    -0.015 A 
ATOM     28  O   LIG d   1      11.587  11.413   1.820  0.00  0.00    -0.485 OA
ATOM     29  C   LIG d   1      11.042   8.072   0.488  0.00  0.00    -0.037 A 
ATOM     30  H   LIG d   1      11.898   8.867   2.276  0.00  0.00     0.066 H 
ATOM     31  H   LIG d   1      11.216   7.045   0.771  0.00  0.00     0.064 H 
ATOM     32  C   LIG d   1      11.687  12.728   1.264  0.00  0.00     0.124 C 
ATOM     33  C   LIG d   1      10.431  12.990   0.421  0.00  0.00     0.124 C 
ATOM     34  H   LIG d   1      12.574  12.794   0.634  0.00  0.00     0.073 H 
ATOM     35  H   LIG d   1      11.750  13.463   2.067  0.00  0.00     0.073 H 
ATOM     36  H   LIG d   1      10.487  13.984  -0.022  0.00  0.00     0.073 H 
ATOM     37  H   LIG d   1       9.544  12.917   1.049  0.00  0.00     0.073 H 
ENDBRANCH  14  21
BRANCH  11  38
ATOM     38  C   LIG d   1       9.536   2.700  -3.443  0.00  0.00    -0.033 C 
ATOM     39  H   LIG d   1       9.425   2.808  -2.365  0.00  0.00     0.028 H 
ATOM     40  H   LIG d   1       8.645   2.223  -3.855  0.00  0.00     0.028 H 
ATOM     41  H   LIG d   1      10.408   2.084  -3.659  0.00  0.00     0.028 H 
ENDBRANCH  11  38
BRANCH   1  42
ATOM     42  C   LIG d   1       9.879   6.975  -8.125  0.00  0.00    -0.039 C 
ATOM     43  H   LIG d   1      10.252   6.838  -9.140  0.00  0.00     0.028 H 
ATOM     44  H   LIG d   1       8.920   7.490  -8.156  0.00  0.00     0.028 H 
ATOM     45  H   LIG d   1      10.592   7.570  -7.554  0.00  0.00     0.028 H 
ENDBRANCH   1  42
BRANCH   2  46
ATOM     46  C   LIG d   1       9.354   4.604  -9.705  0.00  0.00    -0.033 C 
ATOM     47  H   LIG d   1       8.361   4.959  -9.978  0.00  0.00     0.028 H 
ATOM     48  H   LIG d   1      10.106   5.299 -10.080  0.00  0.00     0.028 H 
ATOM     49  H   LIG d   1       9.522   3.619 -10.139  0.00  0.00     0.028 H 
ENDBRANCH   2  46
TORSDOF 4
ENDMDL
MODEL 7
REMARK VINA RESULT:      -6.3     10.975     14.392
REMARK  4 active torsions:
REMARK  status: ('A' for Active; 'I' for Inactive)
REMARK    1  A    between atoms: C_1  and  C_2 
REMARK    2  A    between atoms: C_3  and  C_28 
REMARK    3  A    between atoms: C_12  and  C_13 
REMARK    4  A    between atoms: N_16  and  C_18 
ROOT
ATOM      1  C   LIG d   1      10.136   8.447  -2.794  0.00  0.00    -0.030 A 
ATOM      2  C   LIG d   1      10.165   7.937  -1.535  0.00  0.00     0.037 A 
ATOM      3  C   LIG d   1      10.088   6.543  -1.345  0.00  0.00     0.340 A 
ATOM      4  O   LIG d   1      10.115   6.107  -0.208  0.00  0.00    -0.245 OA
ATOM      5  O   LIG d   1       9.985   5.679  -2.359  0.00  0.00    -0.422 OA
ATOM      6  C   LIG d   1       9.952   6.125  -3.631  0.00  0.00     0.146 A 
ATOM      7  C   LIG d   1      10.025   7.502  -3.908  0.00  0.00     0.022 A 
ATOM      8  C   LIG d   1       9.989   7.954  -5.231  0.00  0.00    -0.043 A 
ATOM      9  C   LIG d   1       9.884   7.058  -6.257  0.00  0.00     0.013 A 
ATOM     10  C   LIG d   1       9.813   5.693  -5.992  0.00  0.00     0.134 A 
ATOM     11  C   LIG d   1       9.846   5.229  -4.684  0.00  0.00     0.035 A 
ATOM     12  O   LIG d   1       9.716   4.793  -7.006  0.00  0.00    -0.473 OA
ATOM     13  C   LIG d   1       9.324   5.294  -8.286  0.00  0.00     0.157 C 
ATOM     14  N   LIG d   1      10.151   6.470  -8.603  0.00  0.00    -0.293 NA
ATOM     15  C   LIG d   1       9.846   7.569  -7.676  0.00  0.00     0.044 C 
ATOM     16  H   LIG d   1      10.045   9.012  -5.442  0.00  0.00     0.063 H 
ATOM     17  H   LIG d   1       8.273   5.582  -8.260  0.00  0.00     0.091 H 
ATOM     18  H   LIG d   1       9.477   4.524  -9.043  0.00  0.00     0.091 H 
ATOM     19  H   LIG d   1      10.585   8.360  -7.796  0.00  0.00     0.051 H 
ATOM     20  H   LIG d   1       8.854   7.962  -7.893  0.00  0.00     0.051 H 
ENDROOT
BRANCH  14  21
ATOM     21  C   LIG d   1       9.966   6.869  -9.931  0.00  0.00     0.036 A 
ATOM     22  C   LIG d   1      10.449   8.097 -10.360  0.00  0.00     0.005 A 
ATOM     23  C   LIG d   1      10.266   8.494 -11.676  0.00  0.00     0.164 A 
ATOM     24  H   LIG d   1      10.967   8.745  -9.669  0.00  0.00     0.067 H 
ATOM     25  C   LIG d   1       9.600   7.659 -12.564  0.00  0.00     0.162 A 
ATOM     26  O   LIG d   1      10.743   9.703 -12.081  0.00  0.00    -0.485 OA
ATOM     27  C   LIG d   1       9.121   6.431 -12.133  0.00  0.00    -0.015 A 
ATOM     28  O   LIG d   1       9.415   8.028 -13.864  0.00  0.00    -0.485 OA
ATOM     29  C   LIG d   1       9.299   6.038 -10.822  0.00  0.00    -0.037 A 
ATOM     30  H   LIG d   1       8.601   5.783 -12.824  0.00  0.00     0.066 H 
ATOM     31  H   LIG d   1       8.922   5.082 -10.488  0.00  0.00     0.064 H 
ATOM     32  C   LIG d   1       9.583   9.417 -14.167  0.00  0.00     0.124 C 
ATOM     33  C   LIG d   1      10.873   9.904 -13.493  0.00  0.00     0.124 C 
ATOM     34  H   LIG d   1       8.732   9.982 -13.785  0.00  0.00     0.073 H 
ATOM     35  H   LIG d   1       9.659   9.551 -15.246  0.00  0.00     0.073 H 
ATOM     36  H   LIG d   1      11.019  10.964 -13.702  0.00  0.00     0.073 H 
ATOM     37  H   LIG d   1      11.722   9.335 -13.869  0.00  0.00     0.073 H 
ENDBRANCH  14  21
BRANCH  11  38
ATOM     38  C   LIG d   1       9.767   3.750  -4.409  0.00  0.00    -0.033 C 
ATOM     39  H   LIG d   1       8.725   3.430  -4.434  0.00  0.00     0.028 H 
ATOM     40  H   LIG d   1      10.332   3.207  -5.168  0.00  0.00     0.028 H 
ATOM     41  H   LIG d   1      10.187   3.540  -3.426  0.00  0.00     0.028 H 
ENDBRANCH  11  38
BRANCH   1  42
ATOM     42  C   LIG d   1      10.217   9.932  -3.036  0.00  0.00    -0.039 C 
ATOM     43  H   LIG d   1       9.337  10.258  -3.590  0.00  0.00     0.028 H 
ATOM     44  H   LIG d   1      10.260  10.454  -2.080  0.00  0.00     0.028 H 
ATOM     45  H   LIG d   1      11.114  10.158  -3.612  0.00  0.00     0.028 H 
ENDBRANCH   1  42
BRANCH   2  46
ATOM     46  C   LIG d   1      10.280   8.858  -0.346  0.00  0.00    -0.033 C 
ATOM     47  H   LIG d   1       9.284   9.153  -0.018  0.00  0.00     0.028 H 
ATOM     48  H   LIG d   1      10.792   8.341   0.465  0.00  0.00     0.028 H 
ATOM     49  H   LIG d   1      10.848   9.744  -0.628  0.00  0.00     0.028 H 
ENDBRANCH   2  46
TORSDOF 4
ENDMDL
MODEL 8
REMARK VINA RESULT:      -6.2      3.968     10.552
REMARK  4 active torsions:
REMARK  status: ('A' for Active; 'I' for Inactive)
REMARK    1  A    between atoms: C_1  and  C_2 
REMARK    2  A    between atoms: C_3  and  C_28 
REMARK    3  A    between atoms: C_12  and  C_13 
REMARK    4  A    between atoms: N_16  and  C_18 
ROOT
ATOM      1  C   LIG d   1       7.066  -4.511  -5.663  0.00  0.00    -0.030 A 
ATOM      2  C   LIG d   1       6.095  -5.461  -5.660  0.00  0.00     0.037 A 
ATOM      3  C   LIG d   1       4.801  -5.135  -5.207  0.00  0.00     0.340 A 
ATOM      4  O   LIG d   1       3.946  -6.002  -5.214  0.00  0.00    -0.245 OA
ATOM      5  O   LIG d   1       4.473  -3.916  -4.770  0.00  0.00    -0.422 OA
ATOM      6  C   LIG d   1       5.393  -2.931  -4.750  0.00  0.00     0.146 A 
ATOM      7  C   LIG d   1       6.709  -3.172  -5.185  0.00  0.00     0.022 A 
ATOM      8  C   LIG d   1       7.656  -2.144  -5.159  0.00  0.00    -0.043 A 
ATOM      9  C   LIG d   1       7.305  -0.902  -4.710  0.00  0.00     0.013 A 
ATOM     10  C   LIG d   1       6.004  -0.654  -4.278  0.00  0.00     0.134 A 
ATOM     11  C   LIG d   1       5.054  -1.665  -4.297  0.00  0.00     0.035 A 
ATOM     12  O   LIG d   1       5.644   0.580  -3.836  0.00  0.00    -0.473 OA
ATOM     13  C   LIG d   1       6.697   1.481  -3.487  0.00  0.00     0.157 C 
ATOM     14  N   LIG d   1       7.681   1.499  -4.583  0.00  0.00    -0.293 NA
ATOM     15  C   LIG d   1       8.344   0.191  -4.689  0.00  0.00     0.044 C 
ATOM     16  H   LIG d   1       8.665  -2.331  -5.494  0.00  0.00     0.063 H 
ATOM     17  H   LIG d   1       7.178   1.144  -2.569  0.00  0.00     0.091 H 
ATOM     18  H   LIG d   1       6.289   2.482  -3.346  0.00  0.00     0.091 H 
ATOM     19  H   LIG d   1       8.927   0.154  -5.609  0.00  0.00     0.051 H 
ATOM     20  H   LIG d   1       9.004   0.048  -3.834  0.00  0.00     0.051 H 
ENDROOT
BRANCH  14  21
ATOM     21  C   LIG d   1       8.617   2.522  -4.398  0.00  0.00     0.036 A 
ATOM     22  C   LIG d   1       8.689   3.569  -5.305  0.00  0.00     0.005 A 
ATOM     23  C   LIG d   1       9.617   4.583  -5.123  0.00  0.00     0.164 A 
ATOM     24  H   LIG d   1       8.022   3.595  -6.154  0.00  0.00     0.067 H 
ATOM     25  C   LIG d   1      10.473   4.549  -4.029  0.00  0.00     0.162 A 
ATOM     26  O   LIG d   1       9.677   5.603  -6.023  0.00  0.00    -0.485 OA
ATOM     27  C   LIG d   1      10.397   3.503  -3.123  0.00  0.00    -0.015 A 
ATOM     28  O   LIG d   1      11.388   5.540  -3.829  0.00  0.00    -0.485 OA
ATOM     29  C   LIG d   1       9.476   2.490  -3.307  0.00  0.00    -0.037 A 
ATOM     30  H   LIG d   1      11.064   3.476  -2.273  0.00  0.00     0.066 H 
ATOM     31  H   LIG d   1       9.421   1.675  -2.601  0.00  0.00     0.064 H 
ATOM     32  C   LIG d   1      11.685   6.378  -4.952  0.00  0.00     0.124 C 
ATOM     33  C   LIG d   1      10.359   6.790  -5.606  0.00  0.00     0.124 C 
ATOM     34  H   LIG d   1      12.294   5.828  -5.669  0.00  0.00     0.073 H 
ATOM     35  H   LIG d   1      12.221   7.265  -4.617  0.00  0.00     0.073 H 
ATOM     36  H   LIG d   1      10.559   7.423  -6.472  0.00  0.00     0.073 H 
ATOM     37  H   LIG d   1       9.747   7.333  -4.888  0.00  0.00     0.073 H 
ENDBRANCH  14  21
BRANCH  11  38
ATOM     38  C   LIG d   1       3.650  -1.386  -3.825  0.00  0.00    -0.033 C 
ATOM     39  H   LIG d   1       3.685  -0.827  -2.891  0.00  0.00     0.028 H 
ATOM     40  H   LIG d   1       3.122  -0.800  -4.580  0.00  0.00     0.028 H 
ATOM     41  H   LIG d   1       3.126  -2.328  -3.667  0.00  0.00     0.028 H 
ENDBRANCH  11  38
BRANCH   1  42
ATOM     42  C   LIG d   1       8.461  -4.822  -6.141  0.00  0.00    -0.039 C 
ATOM     43  H   LIG d   1       9.159  -4.725  -5.310  0.00  0.00     0.028 H 
ATOM     44  H   LIG d   1       8.493  -5.840  -6.527  0.00  0.00     0.028 H 
ATOM     45  H   LIG d   1       8.738  -4.125  -6.931  0.00  0.00     0.028 H 
ENDBRANCH   1  42
BRANCH   2  46
ATOM     46  C   LIG d   1       6.399  -6.858  -6.141  0.00  0.00    -0.033 C 
ATOM     47  H   LIG d   1       5.753  -7.568  -5.626  0.00  0.00     0.028 H 
ATOM     48  H   LIG d   1       6.225  -6.918  -7.215  0.00  0.00     0.028 H 
ATOM     49  H   LIG d   1       7.442  -7.094  -5.929  0.00  0.00     0.028 H 
ENDBRANCH   2  46
TORSDOF 4
ENDMDL
MODEL 9
REMARK VINA RESULT:      -6.1      5.702     11.931
REMARK  4 active torsions:
REMARK  status: ('A' for Active; 'I' for Inactive)
REMARK    1  A    between atoms: C_1  and  C_2 
REMARK    2  A    between atoms: C_3  and  C_28 
REMARK    3  A    between atoms: C_12  and  C_13 
REMARK    4  A    between atoms: N_16  and  C_18 
ROOT
ATOM      1  C   LIG d   1       6.073  -0.800  -4.310  0.00  0.00    -0.030 A 
ATOM      2  C   LIG d   1       5.519  -1.661  -5.203  0.00  0.00     0.037 A 
ATOM      3  C   LIG d   1       5.788  -1.509  -6.578  0.00  0.00     0.340 A 
ATOM      4  O   LIG d   1       5.281  -2.291  -7.361  0.00  0.00    -0.245 OA
ATOM      5  O   LIG d   1       6.575  -0.541  -7.059  0.00  0.00    -0.422 OA
ATOM      6  C   LIG d   1       7.153   0.343  -6.221  0.00  0.00     0.146 A 
ATOM      7  C   LIG d   1       6.937   0.261  -4.834  0.00  0.00     0.022 A 
ATOM      8  C   LIG d   1       7.541   1.184  -3.974  0.00  0.00    -0.043 A 
ATOM      9  C   LIG d   1       8.344   2.167  -4.481  0.00  0.00     0.013 A 
ATOM     10  C   LIG d   1       8.564   2.254  -5.853  0.00  0.00     0.134 A 
ATOM     11  C   LIG d   1       7.970   1.347  -6.719  0.00  0.00     0.035 A 
ATOM     12  O   LIG d   1       9.366   3.225  -6.366  0.00  0.00    -0.473 OA
ATOM     13  C   LIG d   1       9.663   4.339  -5.522  0.00  0.00     0.157 C 
ATOM     14  N   LIG d   1      10.099   3.831  -4.211  0.00  0.00    -0.293 NA
ATOM     15  C   LIG d   1       8.984   3.152  -3.535  0.00  0.00     0.044 C 
ATOM     16  H   LIG d   1       7.374   1.119  -2.909  0.00  0.00     0.063 H 
ATOM     17  H   LIG d   1       8.771   4.953  -5.398  0.00  0.00     0.091 H 
ATOM     18  H   LIG d   1      10.462   4.933  -5.967  0.00  0.00     0.091 H 
ATOM     19  H   LIG d   1       9.359   2.622  -2.659  0.00  0.00     0.051 H 
ATOM     20  H   LIG d   1       8.245   3.889  -3.224  0.00  0.00     0.051 H 
ENDROOT
BRANCH  14  21
ATOM     21  C   LIG d   1      10.611   4.864  -3.418  0.00  0.00     0.036 A 
ATOM     22  C   LIG d   1      10.205   4.990  -2.097  0.00  0.00     0.005 A 
ATOM     23  C   LIG d   1      10.712   6.014  -1.310  0.00  0.00     0.164 A 
ATOM     24  H   LIG d   1       9.494   4.292  -1.681  0.00  0.00     0.067 H 
ATOM     25  C   LIG d   1      11.627   6.910  -1.847  0.00  0.00     0.162 A 
ATOM     26  O   LIG d   1      10.302   6.127  -0.017  0.00  0.00    -0.485 OA
ATOM     27  C   LIG d   1      12.033   6.779  -3.166  0.00  0.00    -0.015 A 
ATOM     28  O   LIG d   1      12.141   7.920  -1.088  0.00  0.00    -0.485 OA
ATOM     29  C   LIG d   1      11.525   5.763  -3.951  0.00  0.00    -0.037 A 
ATOM     30  H   LIG d   1      12.744   7.478  -3.583  0.00  0.00     0.066 H 
ATOM     31  H   LIG d   1      11.840   5.665  -4.979  0.00  0.00     0.064 H 
ATOM     32  C   LIG d   1      11.437   8.242   0.116  0.00  0.00     0.124 C 
ATOM     33  C   LIG d   1      11.111   6.932   0.847  0.00  0.00     0.124 C 
ATOM     34  H   LIG d   1      10.513   8.767  -0.128  0.00  0.00     0.073 H 
ATOM     35  H   LIG d   1      12.062   8.870   0.751  0.00  0.00     0.073 H 
ATOM     36  H   LIG d   1      10.566   7.150   1.765  0.00  0.00     0.073 H 
ATOM     37  H   LIG d   1      12.034   6.403   1.085  0.00  0.00     0.073 H 
ENDBRANCH  14  21
BRANCH  11  38
ATOM     38  C   LIG d   1       8.214   1.453  -8.202  0.00  0.00    -0.033 C 
ATOM     39  H   LIG d   1       9.223   1.822  -8.380  0.00  0.00     0.028 H 
ATOM     40  H   LIG d   1       8.101   0.469  -8.661  0.00  0.00     0.028 H 
ATOM     41  H   LIG d   1       7.492   2.142  -8.641  0.00  0.00     0.028 H 
ENDBRANCH  11  38
BRANCH   1  42
ATOM     42  C   LIG d   1       5.809  -0.933  -2.832  0.00  0.00    -0.039 C 
ATOM     43  H   LIG d   1       5.608   0.051  -2.410  0.00  0.00     0.028 H 
ATOM     44  H   LIG d   1       4.947  -1.580  -2.674  0.00  0.00     0.028 H 
ATOM     45  H   LIG d   1       6.682  -1.366  -2.344  0.00  0.00     0.028 H 
ENDBRANCH   1  42
BRANCH   2  46
ATOM     46  C   LIG d   1       4.622  -2.775  -4.726  0.00  0.00    -0.033 C 
ATOM     47  H   LIG d   1       4.556  -3.543  -5.496  0.00  0.00     0.028 H 
ATOM     48  H   LIG d   1       5.034  -3.208  -3.814  0.00  0.00     0.028 H 
ATOM     49  H   LIG d   1       3.628  -2.377  -4.523  0.00  0.00     0.028 H 
ENDBRANCH   2  46
TORSDOF 4
ENDMDL
