MODEL 1
REMARK VINA RESULT:      -5.5      0.000      0.000
REMARK  5 active torsions:
REMARK  status: ('A' for Active; 'I' for Inactive)
REMARK    1  A    between atoms: C_1  and  N_2 
REMARK    2  A    between atoms: N_2  and  C_3 
REMARK    3  A    between atoms: C_4  and  N_5 
REMARK    4  A    between atoms: C_4  and  C_12 
REMARK    5  A    between atoms: N_5  and  C_6 
ROOT
ATOM      1  N   LIG d   1       5.578  -2.458  -5.505  0.00  0.00    -0.267 N 
ATOM      2  C   LIG d   1       4.684  -1.512  -5.522  0.00  0.00     0.277 C 
ENDROOT
BRANCH   2   3
ATOM      3  N   LIG d   1       3.892  -1.329  -6.636  0.00  0.00    -0.203 N 
ATOM      4  H   LIG d   1       3.257  -2.013  -6.898  0.00  0.00     0.298 HD
BRANCH   3   5
ATOM      5  C   LIG d   1       4.005  -0.159  -7.386  0.00  0.00     0.130 A 
ATOM      6  C   LIG d   1       5.223   0.211  -7.954  0.00  0.00     0.047 A 
ATOM      7  C   LIG d   1       5.293   1.375  -8.692  0.00  0.00     0.173 A 
ATOM      8  H   LIG d   1       6.100  -0.406  -7.822  0.00  0.00     0.072 H 
ATOM      9  N   LIG d   1       4.228   2.138  -8.854  0.00  0.00    -0.217 N 
ATOM     10  H   LIG d   1       6.231   1.667  -9.140  0.00  0.00     0.138 H 
ATOM     11  C   LIG d   1       3.059   1.825  -8.328  0.00  0.00     0.173 A 
ATOM     12  H   LIG d   1       4.307   2.952  -9.375  0.00  0.00     0.452 HD
ATOM     13  C   LIG d   1       2.905   0.675  -7.581  0.00  0.00     0.047 A 
ATOM     14  H   LIG d   1       2.212   2.476  -8.484  0.00  0.00     0.138 H 
ATOM     15  H   LIG d   1       1.945   0.424  -7.153  0.00  0.00     0.072 H 
ENDBRANCH   3   5
ENDBRANCH   2   3
BRANCH   2  16
ATOM     16  C   LIG d   1       4.518  -0.630  -4.343  0.00  0.00     0.062 A 
ATOM     17  C   LIG d   1       3.318  -0.632  -3.631  0.00  0.00    -0.047 A 
ATOM     18  C   LIG d   1       3.171   0.187  -2.530  0.00  0.00    -0.061 A 
ATOM     19  H   LIG d   1       2.509  -1.277  -3.938  0.00  0.00     0.063 H 
ATOM     20  C   LIG d   1       4.207   1.017  -2.139  0.00  0.00    -0.062 A 
ATOM     21  H   LIG d   1       2.246   0.183  -1.975  0.00  0.00     0.062 H 
ATOM     22  C   LIG d   1       5.397   1.028  -2.845  0.00  0.00    -0.061 A 
ATOM     23  H   LIG d   1       4.086   1.660  -1.280  0.00  0.00     0.062 H 
ATOM     24  C   LIG d   1       5.558   0.210  -3.943  0.00  0.00    -0.047 A 
ATOM     25  H   LIG d   1       6.202   1.678  -2.535  0.00  0.00     0.062 H 
ATOM     26  H   LIG d   1       6.488   0.218  -4.494  0.00  0.00     0.063 H 
ENDBRANCH   2  16
BRANCH   1  27
ATOM     27  C   LIG d   1       6.308  -2.756  -4.270  0.00  0.00     0.076 C 
ATOM     28  H   LIG d   1       6.413  -1.845  -3.682  0.00  0.00     0.071 H 
ATOM     29  H   LIG d   1       5.759  -3.500  -3.694  0.00  0.00     0.071 H 
ATOM     30  H   LIG d   1       7.296  -3.146  -4.517  0.00  0.00     0.071 H 
ENDBRANCH   1  27
BRANCH   1  31
ATOM     31  C   LIG d   1       5.855  -3.225  -6.723  0.00  0.00     0.076 C 
ATOM     32  H   LIG d   1       5.187  -4.084  -6.771  0.00  0.00     0.071 H 
ATOM     33  H   LIG d   1       5.697  -2.591  -7.595  0.00  0.00     0.071 H 
ATOM     34  H   LIG d   1       6.889  -3.570  -6.708  0.00  0.00     0.071 H 
ENDBRANCH   1  31
TORSDOF 5
ENDMDL
MODEL 2
REMARK VINA RESULT:      -5.4      0.133      1.636
REMARK  5 active torsions:
REMARK  status: ('A' for Active; 'I' for Inactive)
REMARK    1  A    between atoms: C_1  and  N_2 
REMARK    2  A    between atoms: N_2  and  C_3 
REMARK    3  A    between atoms: C_4  and  N_5 
REMARK    4  A    between atoms: C_4  and  C_12 
REMARK    5  A    between atoms: N_5  and  C_6 
ROOT
ATOM      1  N   LIG d   1       5.715  -2.473  -5.406  0.00  0.00    -0.267 N 
ATOM      2  C   LIG d   1       4.788  -1.560  -5.447  0.00  0.00     0.277 C 
ENDROOT
BRANCH   2   3
ATOM      3  N   LIG d   1       4.002  -1.423  -6.573  0.00  0.00    -0.203 N 
ATOM      4  H   LIG d   1       3.410  -2.142  -6.842  0.00  0.00     0.298 HD
BRANCH   3   5
ATOM      5  C   LIG d   1       4.058  -0.249  -7.322  0.00  0.00     0.130 A 
ATOM      6  C   LIG d   1       2.939   0.571  -7.453  0.00  0.00     0.047 A 
ATOM      7  C   LIG d   1       3.038   1.727  -8.200  0.00  0.00     0.173 A 
ATOM      8  H   LIG d   1       2.008   0.308  -6.973  0.00  0.00     0.072 H 
ATOM      9  N   LIG d   1       4.171   2.053  -8.794  0.00  0.00    -0.217 N 
ATOM     10  H   LIG d   1       2.177   2.370  -8.304  0.00  0.00     0.138 H 
ATOM     11  C   LIG d   1       5.251   1.301  -8.699  0.00  0.00     0.173 A 
ATOM     12  H   LIG d   1       4.210   2.870  -9.316  0.00  0.00     0.452 HD
ATOM     13  C   LIG d   1       5.235   0.132  -7.965  0.00  0.00     0.047 A 
ATOM     14  H   LIG d   1       6.157   1.605  -9.200  0.00  0.00     0.138 H 
ATOM     15  H   LIG d   1       6.123  -0.478  -7.891  0.00  0.00     0.072 H 
ENDBRANCH   3   5
ENDBRANCH   2   3
BRANCH   2  16
ATOM     16  C   LIG d   1       4.576  -0.667  -4.284  0.00  0.00     0.062 A 
ATOM     17  C   LIG d   1       5.562   0.247  -3.915  0.00  0.00    -0.047 A 
ATOM     18  C   LIG d   1       5.357   1.080  -2.834  0.00  0.00    -0.061 A 
ATOM     19  H   LIG d   1       6.483   0.306  -4.476  0.00  0.00     0.063 H 
ATOM     20  C   LIG d   1       4.179   1.003  -2.111  0.00  0.00    -0.062 A 
ATOM     21  H   LIG d   1       6.117   1.792  -2.550  0.00  0.00     0.062 H 
ATOM     22  C   LIG d   1       3.199   0.094  -2.470  0.00  0.00    -0.061 A 
ATOM     23  H   LIG d   1       4.024   1.654  -1.264  0.00  0.00     0.062 H 
ATOM     24  C   LIG d   1       3.391  -0.740  -3.551  0.00  0.00    -0.047 A 
ATOM     25  H   LIG d   1       2.282   0.038  -1.902  0.00  0.00     0.062 H 
ATOM     26  H   LIG d   1       2.625  -1.450  -3.831  0.00  0.00     0.063 H 
ENDBRANCH   2  16
BRANCH   1  27
ATOM     27  C   LIG d   1       6.441  -2.726  -4.160  0.00  0.00     0.076 C 
ATOM     28  H   LIG d   1       5.739  -2.734  -3.326  0.00  0.00     0.071 H 
ATOM     29  H   LIG d   1       6.944  -3.690  -4.221  0.00  0.00     0.071 H 
ATOM     30  H   LIG d   1       7.180  -1.939  -4.004  0.00  0.00     0.071 H 
ENDBRANCH   1  27
BRANCH   1  31
ATOM     31  C   LIG d   1       6.033  -3.247  -6.609  0.00  0.00     0.076 C 
ATOM     32  H   LIG d   1       5.202  -3.187  -7.310  0.00  0.00     0.071 H 
ATOM     33  H   LIG d   1       6.932  -2.843  -7.073  0.00  0.00     0.071 H 
ATOM     34  H   LIG d   1       6.203  -4.289  -6.337  0.00  0.00     0.071 H 
ENDBRANCH   1  31
TORSDOF 5
ENDMDL
MODEL 3
REMARK VINA RESULT:      -5.2      1.841      2.488
REMARK  5 active torsions:
REMARK  status: ('A' for Active; 'I' for Inactive)
REMARK    1  A    between atoms: C_1  and  N_2 
REMARK    2  A    between atoms: N_2  and  C_3 
REMARK    3  A    between atoms: C_4  and  N_5 
REMARK    4  A    between atoms: C_4  and  C_12 
REMARK    5  A    between atoms: N_5  and  C_6 
ROOT
ATOM      1  N   LIG d   1       7.434  -0.752  -5.605  0.00  0.00    -0.267 N 
ATOM      2  C   LIG d   1       6.198  -0.367  -5.468  0.00  0.00     0.277 C 
ENDROOT
BRANCH   2   3
ATOM      3  N   LIG d   1       5.568   0.312  -6.490  0.00  0.00    -0.203 N 
ATOM      4  H   LIG d   1       5.824   1.224  -6.697  0.00  0.00     0.298 HD
BRANCH   3   5
ATOM      5  C   LIG d   1       4.563  -0.315  -7.225  0.00  0.00     0.130 A 
ATOM      6  C   LIG d   1       4.749  -1.594  -7.745  0.00  0.00     0.047 A 
ATOM      7  C   LIG d   1       3.727  -2.182  -8.464  0.00  0.00     0.173 A 
ATOM      8  H   LIG d   1       5.677  -2.122  -7.583  0.00  0.00     0.072 H 
ATOM      9  N   LIG d   1       2.591  -1.542  -8.670  0.00  0.00    -0.217 N 
ATOM     10  H   LIG d   1       3.861  -3.174  -8.866  0.00  0.00     0.138 H 
ATOM     11  C   LIG d   1       2.379  -0.327  -8.200  0.00  0.00     0.173 A 
ATOM     12  H   LIG d   1       1.892  -1.977  -9.182  0.00  0.00     0.452 HD
ATOM     13  C   LIG d   1       3.348   0.326  -7.467  0.00  0.00     0.047 A 
ATOM     14  H   LIG d   1       1.435   0.161  -8.391  0.00  0.00     0.138 H 
ATOM     15  H   LIG d   1       3.167   1.320  -7.084  0.00  0.00     0.072 H 
ENDBRANCH   3   5
ENDBRANCH   2   3
BRANCH   2  16
ATOM     16  C   LIG d   1       5.466  -0.658  -4.213  0.00  0.00     0.062 A 
ATOM     17  C   LIG d   1       5.410   0.297  -3.198  0.00  0.00    -0.047 A 
ATOM     18  C   LIG d   1       4.722   0.023  -2.033  0.00  0.00    -0.061 A 
ATOM     19  H   LIG d   1       5.900   1.251  -3.325  0.00  0.00     0.063 H 
ATOM     20  C   LIG d   1       4.098  -1.201  -1.868  0.00  0.00    -0.062 A 
ATOM     21  H   LIG d   1       4.673   0.763  -1.249  0.00  0.00     0.062 H 
ATOM     22  C   LIG d   1       4.155  -2.155  -2.868  0.00  0.00    -0.061 A 
ATOM     23  H   LIG d   1       3.564  -1.413  -0.953  0.00  0.00     0.062 H 
ATOM     24  C   LIG d   1       4.835  -1.890  -4.039  0.00  0.00    -0.047 A 
ATOM     25  H   LIG d   1       3.666  -3.108  -2.734  0.00  0.00     0.062 H 
ATOM     26  H   LIG d   1       4.879  -2.635  -4.821  0.00  0.00     0.063 H 
ENDBRANCH   2  16
BRANCH   1  27
ATOM     27  C   LIG d   1       8.052  -1.608  -4.589  0.00  0.00     0.076 C 
ATOM     28  H   LIG d   1       7.538  -1.472  -3.638  0.00  0.00     0.071 H 
ATOM     29  H   LIG d   1       7.978  -2.650  -4.898  0.00  0.00     0.071 H 
ATOM     30  H   LIG d   1       9.102  -1.337  -4.477  0.00  0.00     0.071 H 
ENDBRANCH   1  27
BRANCH   1  31
ATOM     31  C   LIG d   1       8.207  -0.327  -6.774  0.00  0.00     0.076 C 
ATOM     32  H   LIG d   1       8.421  -1.191  -7.402  0.00  0.00     0.071 H 
ATOM     33  H   LIG d   1       7.633   0.404  -7.343  0.00  0.00     0.071 H 
ATOM     34  H   LIG d   1       9.145   0.123  -6.447  0.00  0.00     0.071 H 
ENDBRANCH   1  31
TORSDOF 5
ENDMDL
MODEL 4
REMARK VINA RESULT:      -5.1      1.644      4.552
REMARK  5 active torsions:
REMARK  status: ('A' for Active; 'I' for Inactive)
REMARK    1  A    between atoms: C_1  and  N_2 
REMARK    2  A    between atoms: N_2  and  C_3 
REMARK    3  A    between atoms: C_4  and  N_5 
REMARK    4  A    between atoms: C_4  and  C_12 
REMARK    5  A    between atoms: N_5  and  C_6 
ROOT
ATOM      1  N   LIG d   1       4.728  -2.047  -7.492  0.00  0.00    -0.267 N 
ATOM      2  C   LIG d   1       4.140  -0.986  -7.020  0.00  0.00     0.277 C 
ENDROOT
BRANCH   2   3
ATOM      3  N   LIG d   1       3.575  -1.011  -5.761  0.00  0.00    -0.203 N 
ATOM      4  H   LIG d   1       2.826  -1.599  -5.577  0.00  0.00     0.298 HD
BRANCH   3   5
ATOM      5  C   LIG d   1       4.082  -0.191  -4.754  0.00  0.00     0.130 A 
ATOM      6  C   LIG d   1       5.445  -0.177  -4.462  0.00  0.00     0.047 A 
ATOM      7  C   LIG d   1       5.908   0.652  -3.461  0.00  0.00     0.173 A 
ATOM      8  H   LIG d   1       6.131  -0.803  -5.015  0.00  0.00     0.072 H 
ATOM      9  N   LIG d   1       5.077   1.416  -2.778  0.00  0.00    -0.217 N 
ATOM     10  H   LIG d   1       6.963   0.673  -3.231  0.00  0.00     0.138 H 
ATOM     11  C   LIG d   1       3.780   1.427  -3.020  0.00  0.00     0.173 A 
ATOM     12  H   LIG d   1       5.429   1.986  -2.077  0.00  0.00     0.452 HD
ATOM     13  C   LIG d   1       3.238   0.631  -4.009  0.00  0.00     0.047 A 
ATOM     14  H   LIG d   1       3.134   2.067  -2.438  0.00  0.00     0.138 H 
ATOM     15  H   LIG d   1       2.176   0.645  -4.202  0.00  0.00     0.072 H 
ENDBRANCH   3   5
ENDBRANCH   2   3
BRANCH   2  16
ATOM     16  C   LIG d   1       4.076   0.250  -7.834  0.00  0.00     0.062 A 
ATOM     17  C   LIG d   1       2.840   0.798  -8.179  0.00  0.00    -0.047 A 
ATOM     18  C   LIG d   1       2.788   1.953  -8.933  0.00  0.00    -0.061 A 
ATOM     19  H   LIG d   1       1.928   0.322  -7.854  0.00  0.00     0.063 H 
ATOM     20  C   LIG d   1       3.957   2.562  -9.354  0.00  0.00    -0.062 A 
ATOM     21  H   LIG d   1       1.833   2.381  -9.197  0.00  0.00     0.062 H 
ATOM     22  C   LIG d   1       5.185   2.020  -9.019  0.00  0.00    -0.061 A 
ATOM     23  H   LIG d   1       3.911   3.463  -9.947  0.00  0.00     0.062 H 
ATOM     24  C   LIG d   1       5.251   0.869  -8.262  0.00  0.00    -0.047 A 
ATOM     25  H   LIG d   1       6.094   2.499  -9.350  0.00  0.00     0.062 H 
ATOM     26  H   LIG d   1       6.210   0.446  -8.000  0.00  0.00     0.063 H 
ENDBRANCH   2  16
BRANCH   1  27
ATOM     27  C   LIG d   1       5.463  -1.976  -8.757  0.00  0.00     0.076 C 
ATOM     28  H   LIG d   1       5.790  -0.950  -8.929  0.00  0.00     0.071 H 
ATOM     29  H   LIG d   1       6.332  -2.631  -8.710  0.00  0.00     0.071 H 
ATOM     30  H   LIG d   1       4.814  -2.292  -9.573  0.00  0.00     0.071 H 
ENDBRANCH   1  27
BRANCH   1  31
ATOM     31  C   LIG d   1       4.652  -3.314  -6.759  0.00  0.00     0.076 C 
ATOM     32  H   LIG d   1       4.442  -4.124  -7.456  0.00  0.00     0.071 H 
ATOM     33  H   LIG d   1       5.601  -3.500  -6.258  0.00  0.00     0.071 H 
ATOM     34  H   LIG d   1       3.855  -3.258  -6.018  0.00  0.00     0.071 H 
ENDBRANCH   1  31
TORSDOF 5
ENDMDL
MODEL 5
REMARK VINA RESULT:      -4.9      2.667      3.527
REMARK  5 active torsions:
REMARK  status: ('A' for Active; 'I' for Inactive)
REMARK    1  A    between atoms: C_1  and  N_2 
REMARK    2  A    between atoms: N_2  and  C_3 
REMARK    3  A    between atoms: C_4  and  N_5 
REMARK    4  A    between atoms: C_4  and  C_12 
REMARK    5  A    between atoms: N_5  and  C_6 
ROOT
ATOM      1  N   LIG d   1       5.993  -3.466  -5.521  0.00  0.00    -0.267 N 
ATOM      2  C   LIG d   1       6.091  -2.397  -4.784  0.00  0.00     0.277 C 
ENDROOT
BRANCH   2   3
ATOM      3  N   LIG d   1       7.329  -1.840  -4.536  0.00  0.00    -0.203 N 
ATOM      4  H   LIG d   1       8.047  -2.389  -4.184  0.00  0.00     0.298 HD
BRANCH   3   5
ATOM      5  C   LIG d   1       7.547  -0.487  -4.792  0.00  0.00     0.130 A 
ATOM      6  C   LIG d   1       7.527   0.449  -3.760  0.00  0.00     0.047 A 
ATOM      7  C   LIG d   1       7.752   1.778  -4.054  0.00  0.00     0.173 A 
ATOM      8  H   LIG d   1       7.345   0.138  -2.741  0.00  0.00     0.072 H 
ATOM      9  N   LIG d   1       7.971   2.167  -5.297  0.00  0.00    -0.217 N 
ATOM     10  H   LIG d   1       7.743   2.509  -3.260  0.00  0.00     0.138 H 
ATOM     11  C   LIG d   1       7.991   1.313  -6.302  0.00  0.00     0.173 A 
ATOM     12  H   LIG d   1       8.121   3.108  -5.475  0.00  0.00     0.452 HD
ATOM     13  C   LIG d   1       7.782  -0.034  -6.090  0.00  0.00     0.047 A 
ATOM     14  H   LIG d   1       8.174   1.673  -7.303  0.00  0.00     0.138 H 
ATOM     15  H   LIG d   1       7.800  -0.728  -6.918  0.00  0.00     0.072 H 
ENDBRANCH   3   5
ENDBRANCH   2   3
BRANCH   2  16
ATOM     16  C   LIG d   1       4.874  -1.779  -4.209  0.00  0.00     0.062 A 
ATOM     17  C   LIG d   1       4.422  -2.165  -2.947  0.00  0.00    -0.047 A 
ATOM     18  C   LIG d   1       3.290  -1.581  -2.415  0.00  0.00    -0.061 A 
ATOM     19  H   LIG d   1       4.959  -2.915  -2.387  0.00  0.00     0.063 H 
ATOM     20  C   LIG d   1       2.599  -0.623  -3.135  0.00  0.00    -0.062 A 
ATOM     21  H   LIG d   1       2.942  -1.875  -1.437  0.00  0.00     0.062 H 
ATOM     22  C   LIG d   1       3.039  -0.240  -4.390  0.00  0.00    -0.061 A 
ATOM     23  H   LIG d   1       1.712  -0.171  -2.716  0.00  0.00     0.062 H 
ATOM     24  C   LIG d   1       4.172  -0.812  -4.930  0.00  0.00    -0.047 A 
ATOM     25  H   LIG d   1       2.496   0.508  -4.947  0.00  0.00     0.062 H 
ATOM     26  H   LIG d   1       4.516  -0.513  -5.910  0.00  0.00     0.063 H 
ENDBRANCH   2  16
BRANCH   1  27
ATOM     27  C   LIG d   1       4.674  -3.965  -5.916  0.00  0.00     0.076 C 
ATOM     28  H   LIG d   1       4.225  -4.503  -5.081  0.00  0.00     0.071 H 
ATOM     29  H   LIG d   1       4.036  -3.128  -6.195  0.00  0.00     0.071 H 
ATOM     30  H   LIG d   1       4.781  -4.639  -6.766  0.00  0.00     0.071 H 
ENDBRANCH   1  27
BRANCH   1  31
ATOM     31  C   LIG d   1       7.203  -4.169  -5.956  0.00  0.00     0.076 C 
ATOM     32  H   LIG d   1       6.986  -5.231  -6.065  0.00  0.00     0.071 H 
ATOM     33  H   LIG d   1       7.534  -3.765  -6.912  0.00  0.00     0.071 H 
ATOM     34  H   LIG d   1       7.989  -4.034  -5.213  0.00  0.00     0.071 H 
ENDBRANCH   1  31
TORSDOF 5
ENDMDL
MODEL 6
REMARK VINA RESULT:      -4.8      2.370      3.808
REMARK  5 active torsions:
REMARK  status: ('A' for Active; 'I' for Inactive)
REMARK    1  A    between atoms: C_1  and  N_2 
REMARK    2  A    between atoms: N_2  and  C_3 
REMARK    3  A    between atoms: C_4  and  N_5 
REMARK    4  A    between atoms: C_4  and  C_12 
REMARK    5  A    between atoms: N_5  and  C_6 
ROOT
ATOM      1  N   LIG d   1       3.861  -0.337  -6.594  0.00  0.00    -0.267 N 
ATOM      2  C   LIG d   1       4.816  -0.834  -5.863  0.00  0.00     0.277 C 
ENDROOT
BRANCH   2   3
ATOM      3  N   LIG d   1       5.959  -1.326  -6.459  0.00  0.00    -0.203 N 
ATOM      4  H   LIG d   1       5.913  -2.118  -7.016  0.00  0.00     0.298 HD
BRANCH   3   5
ATOM      5  C   LIG d   1       7.179  -0.682  -6.261  0.00  0.00     0.130 A 
ATOM      6  C   LIG d   1       7.392   0.610  -6.737  0.00  0.00     0.047 A 
ATOM      7  C   LIG d   1       8.612   1.215  -6.516  0.00  0.00     0.173 A 
ATOM      8  H   LIG d   1       6.610   1.135  -7.267  0.00  0.00     0.072 H 
ATOM      9  N   LIG d   1       9.575   0.579  -5.873  0.00  0.00    -0.217 N 
ATOM     10  H   LIG d   1       8.784   2.217  -6.878  0.00  0.00     0.138 H 
ATOM     11  C   LIG d   1       9.415  -0.647  -5.413  0.00  0.00     0.173 A 
ATOM     12  H   LIG d   1      10.424   1.027  -5.736  0.00  0.00     0.452 HD
ATOM     13  C   LIG d   1       8.222  -1.318  -5.587  0.00  0.00     0.047 A 
ATOM     14  H   LIG d   1      10.227  -1.130  -4.892  0.00  0.00     0.138 H 
ATOM     15  H   LIG d   1       8.097  -2.321  -5.207  0.00  0.00     0.072 H 
ENDBRANCH   3   5
ENDBRANCH   2   3
BRANCH   2  16
ATOM     16  C   LIG d   1       4.676  -0.873  -4.389  0.00  0.00     0.062 A 
ATOM     17  C   LIG d   1       5.084   0.215  -3.617  0.00  0.00    -0.047 A 
ATOM     18  C   LIG d   1       4.946   0.175  -2.245  0.00  0.00    -0.061 A 
ATOM     19  H   LIG d   1       5.504   1.088  -4.094  0.00  0.00     0.063 H 
ATOM     20  C   LIG d   1       4.413  -0.946  -1.633  0.00  0.00    -0.062 A 
ATOM     21  H   LIG d   1       5.257   1.018  -1.647  0.00  0.00     0.062 H 
ATOM     22  C   LIG d   1       4.012  -2.031  -2.392  0.00  0.00    -0.061 A 
ATOM     23  H   LIG d   1       4.311  -0.974  -0.558  0.00  0.00     0.062 H 
ATOM     24  C   LIG d   1       4.140  -2.000  -3.765  0.00  0.00    -0.047 A 
ATOM     25  H   LIG d   1       3.597  -2.903  -1.909  0.00  0.00     0.062 H 
ATOM     26  H   LIG d   1       3.825  -2.847  -4.358  0.00  0.00     0.063 H 
ENDBRANCH   2  16
BRANCH   1  27
ATOM     27  C   LIG d   1       2.721   0.328  -5.958  0.00  0.00     0.076 C 
ATOM     28  H   LIG d   1       1.793  -0.056  -6.384  0.00  0.00     0.071 H 
ATOM     29  H   LIG d   1       2.737   0.133  -4.887  0.00  0.00     0.071 H 
ATOM     30  H   LIG d   1       2.784   1.403  -6.133  0.00  0.00     0.071 H 
ENDBRANCH   1  27
BRANCH   1  31
ATOM     31  C   LIG d   1       3.925  -0.443  -8.054  0.00  0.00     0.076 C 
ATOM     32  H   LIG d   1       4.895  -0.844  -8.347  0.00  0.00     0.071 H 
ATOM     33  H   LIG d   1       3.136  -1.107  -8.405  0.00  0.00     0.071 H 
ATOM     34  H   LIG d   1       3.792   0.544  -8.497  0.00  0.00     0.071 H 
ENDBRANCH   1  31
TORSDOF 5
ENDMDL
MODEL 7
REMARK VINA RESULT:      -4.8      3.307      4.299
REMARK  5 active torsions:
REMARK  status: ('A' for Active; 'I' for Inactive)
REMARK    1  A    between atoms: C_1  and  N_2 
REMARK    2  A    between atoms: N_2  and  C_3 
REMARK    3  A    between atoms: C_4  and  N_5 
REMARK    4  A    between atoms: C_4  and  C_12 
REMARK    5  A    between atoms: N_5  and  C_6 
ROOT
ATOM      1  N   LIG d   1       7.528  -1.160  -4.547  0.00  0.00    -0.267 N 
ATOM      2  C   LIG d   1       6.820  -0.078  -4.698  0.00  0.00     0.277 C 
ENDROOT
BRANCH   2   3
ATOM      3  N   LIG d   1       7.230   0.899  -5.582  0.00  0.00    -0.203 N 
ATOM      4  H   LIG d   1       6.857   0.931  -6.476  0.00  0.00     0.298 HD
BRANCH   3   5
ATOM      5  C   LIG d   1       8.181   1.839  -5.188  0.00  0.00     0.130 A 
ATOM      6  C   LIG d   1       8.404   2.108  -3.839  0.00  0.00     0.047 A 
ATOM      7  C   LIG d   1       9.358   3.043  -3.491  0.00  0.00     0.173 A 
ATOM      8  H   LIG d   1       7.843   1.589  -3.076  0.00  0.00     0.072 H 
ATOM      9  N   LIG d   1      10.045   3.685  -4.417  0.00  0.00    -0.217 N 
ATOM     10  H   LIG d   1       9.541   3.255  -2.448  0.00  0.00     0.138 H 
ATOM     11  C   LIG d   1       9.858   3.463  -5.704  0.00  0.00     0.173 A 
ATOM     12  H   LIG d   1      10.705   4.340  -4.143  0.00  0.00     0.452 HD
ATOM     13  C   LIG d   1       8.928   2.540  -6.135  0.00  0.00     0.047 A 
ATOM     14  H   LIG d   1      10.441   4.010  -6.429  0.00  0.00     0.138 H 
ATOM     15  H   LIG d   1       8.781   2.362  -7.190  0.00  0.00     0.072 H 
ENDBRANCH   3   5
ENDBRANCH   2   3
BRANCH   2  16
ATOM     16  C   LIG d   1       5.574   0.106  -3.919  0.00  0.00     0.062 A 
ATOM     17  C   LIG d   1       4.342  -0.231  -4.479  0.00  0.00    -0.047 A 
ATOM     18  C   LIG d   1       3.185  -0.063  -3.746  0.00  0.00    -0.061 A 
ATOM     19  H   LIG d   1       4.294  -0.626  -5.482  0.00  0.00     0.063 H 
ATOM     20  C   LIG d   1       3.244   0.448  -2.461  0.00  0.00    -0.062 A 
ATOM     21  H   LIG d   1       2.231  -0.327  -4.176  0.00  0.00     0.062 H 
ATOM     22  C   LIG d   1       4.463   0.789  -1.902  0.00  0.00    -0.061 A 
ATOM     23  H   LIG d   1       2.336   0.582  -1.893  0.00  0.00     0.062 H 
ATOM     24  C   LIG d   1       5.627   0.620  -2.623  0.00  0.00    -0.047 A 
ATOM     25  H   LIG d   1       4.504   1.187  -0.899  0.00  0.00     0.062 H 
ATOM     26  H   LIG d   1       6.579   0.886  -2.185  0.00  0.00     0.063 H 
ENDBRANCH   2  16
BRANCH   1  27
ATOM     27  C   LIG d   1       7.016  -2.264  -3.732  0.00  0.00     0.076 C 
ATOM     28  H   LIG d   1       7.215  -2.062  -2.680  0.00  0.00     0.071 H 
ATOM     29  H   LIG d   1       5.942  -2.363  -3.887  0.00  0.00     0.071 H 
ATOM     30  H   LIG d   1       7.510  -3.191  -4.024  0.00  0.00     0.071 H 
ENDBRANCH   1  27
BRANCH   1  31
ATOM     31  C   LIG d   1       8.839  -1.274  -5.193  0.00  0.00     0.076 C 
ATOM     32  H   LIG d   1       8.940  -2.263  -5.638  0.00  0.00     0.071 H 
ATOM     33  H   LIG d   1       8.928  -0.514  -5.969  0.00  0.00     0.071 H 
ATOM     34  H   LIG d   1       9.624  -1.128  -4.451  0.00  0.00     0.071 H 
ENDBRANCH   1  31
TORSDOF 5
ENDMDL
MODEL 8
REMARK VINA RESULT:      -4.6      2.557      3.560
REMARK  5 active torsions:
REMARK  status: ('A' for Active; 'I' for Inactive)
REMARK    1  A    between atoms: C_1  and  N_2 
REMARK    2  A    between atoms: N_2  and  C_3 
REMARK    3  A    between atoms: C_4  and  N_5 
REMARK    4  A    between atoms: C_4  and  C_12 
REMARK    5  A    between atoms: N_5  and  C_6 
ROOT
ATOM      1  N   LIG d   1       7.361  -2.560  -5.295  0.00  0.00    -0.267 N 
ATOM      2  C   LIG d   1       6.193  -1.988  -5.353  0.00  0.00     0.277 C 
ENDROOT
BRANCH   2   3
ATOM      3  N   LIG d   1       5.582  -1.786  -6.574  0.00  0.00    -0.203 N 
ATOM      4  H   LIG d   1       5.714  -0.951  -7.049  0.00  0.00     0.298 HD
BRANCH   3   5
ATOM      5  C   LIG d   1       4.776  -2.782  -7.122  0.00  0.00     0.130 A 
ATOM      6  C   LIG d   1       4.612  -4.005  -6.476  0.00  0.00     0.047 A 
ATOM      7  C   LIG d   1       3.802  -4.964  -7.050  0.00  0.00     0.173 A 
ATOM      8  H   LIG d   1       5.107  -4.200  -5.536  0.00  0.00     0.072 H 
ATOM      9  N   LIG d   1       3.196  -4.736  -8.200  0.00  0.00    -0.217 N 
ATOM     10  H   LIG d   1       3.665  -5.913  -6.554  0.00  0.00     0.138 H 
ATOM     11  C   LIG d   1       3.331  -3.594  -8.846  0.00  0.00     0.173 A 
ATOM     12  H   LIG d   1       2.636  -5.429  -8.582  0.00  0.00     0.452 HD
ATOM     13  C   LIG d   1       4.119  -2.582  -8.336  0.00  0.00     0.047 A 
ATOM     14  H   LIG d   1       2.818  -3.448  -9.784  0.00  0.00     0.138 H 
ATOM     15  H   LIG d   1       4.224  -1.649  -8.869  0.00  0.00     0.072 H 
ENDBRANCH   3   5
ENDBRANCH   2   3
BRANCH   2  16
ATOM     16  C   LIG d   1       5.518  -1.555  -4.108  0.00  0.00     0.062 A 
ATOM     17  C   LIG d   1       5.783  -0.295  -3.569  0.00  0.00    -0.047 A 
ATOM     18  C   LIG d   1       5.147   0.105  -2.412  0.00  0.00    -0.061 A 
ATOM     19  H   LIG d   1       6.482   0.366  -4.060  0.00  0.00     0.063 H 
ATOM     20  C   LIG d   1       4.255  -0.743  -1.781  0.00  0.00    -0.062 A 
ATOM     21  H   LIG d   1       5.347   1.081  -1.997  0.00  0.00     0.062 H 
ATOM     22  C   LIG d   1       3.991  -1.996  -2.307  0.00  0.00    -0.061 A 
ATOM     23  H   LIG d   1       3.762  -0.427  -0.873  0.00  0.00     0.062 H 
ATOM     24  C   LIG d   1       4.617  -2.406  -3.466  0.00  0.00    -0.047 A 
ATOM     25  H   LIG d   1       3.294  -2.654  -1.810  0.00  0.00     0.062 H 
ATOM     26  H   LIG d   1       4.411  -3.383  -3.877  0.00  0.00     0.063 H 
ENDBRANCH   2  16
BRANCH   1  27
ATOM     27  C   LIG d   1       7.938  -2.919  -3.998  0.00  0.00     0.076 C 
ATOM     28  H   LIG d   1       8.193  -3.979  -3.994  0.00  0.00     0.071 H 
ATOM     29  H   LIG d   1       8.836  -2.328  -3.823  0.00  0.00     0.071 H 
ATOM     30  H   LIG d   1       7.212  -2.717  -3.209  0.00  0.00     0.071 H 
ENDBRANCH   1  27
BRANCH   1  31
ATOM     31  C   LIG d   1       8.100  -2.843  -6.528  0.00  0.00     0.076 C 
ATOM     32  H   LIG d   1       8.084  -3.914  -6.724  0.00  0.00     0.071 H 
ATOM     33  H   LIG d   1       7.634  -2.314  -7.360  0.00  0.00     0.071 H 
ATOM     34  H   LIG d   1       9.132  -2.509  -6.419  0.00  0.00     0.071 H 
ENDBRANCH   1  31
TORSDOF 5
ENDMDL
MODEL 9
REMARK VINA RESULT:      -4.1      1.749      2.173
REMARK  5 active torsions:
REMARK  status: ('A' for Active; 'I' for Inactive)
REMARK    1  A    between atoms: C_1  and  N_2 
REMARK    2  A    between atoms: N_2  and  C_3 
REMARK    3  A    between atoms: C_4  and  N_5 
REMARK    4  A    between atoms: C_4  and  C_12 
REMARK    5  A    between atoms: N_5  and  C_6 
ROOT
ATOM      1  N   LIG d   1       5.291  -4.050  -6.273  0.00  0.00    -0.267 N 
ATOM      2  C   LIG d   1       5.254  -2.765  -6.068  0.00  0.00     0.277 C 
ENDROOT
BRANCH   2   3
ATOM      3  N   LIG d   1       5.438  -1.891  -7.120  0.00  0.00    -0.203 N 
ATOM      4  H   LIG d   1       6.329  -1.727  -7.464  0.00  0.00     0.298 HD
BRANCH   3   5
ATOM      5  C   LIG d   1       4.341  -1.245  -7.687  0.00  0.00     0.130 A 
ATOM      6  C   LIG d   1       3.503  -1.910  -8.581  0.00  0.00     0.047 A 
ATOM      7  C   LIG d   1       2.425  -1.236  -9.117  0.00  0.00     0.173 A 
ATOM      8  H   LIG d   1       3.691  -2.940  -8.846  0.00  0.00     0.072 H 
ATOM      9  N   LIG d   1       2.190   0.024  -8.803  0.00  0.00    -0.217 N 
ATOM     10  H   LIG d   1       1.767  -1.745  -9.806  0.00  0.00     0.138 H 
ATOM     11  C   LIG d   1       2.964   0.690  -7.966  0.00  0.00     0.173 A 
ATOM     12  H   LIG d   1       1.428   0.474  -9.198  0.00  0.00     0.452 HD
ATOM     13  C   LIG d   1       4.058   0.085  -7.382  0.00  0.00     0.047 A 
ATOM     14  H   LIG d   1       2.737   1.720  -7.735  0.00  0.00     0.138 H 
ATOM     15  H   LIG d   1       4.687   0.636  -6.697  0.00  0.00     0.072 H 
ENDBRANCH   3   5
ENDBRANCH   2   3
BRANCH   2  16
ATOM     16  C   LIG d   1       5.014  -2.240  -4.704  0.00  0.00     0.062 A 
ATOM     17  C   LIG d   1       3.710  -2.041  -4.249  0.00  0.00    -0.047 A 
ATOM     18  C   LIG d   1       3.494  -1.557  -2.975  0.00  0.00    -0.061 A 
ATOM     19  H   LIG d   1       2.873  -2.270  -4.891  0.00  0.00     0.063 H 
ATOM     20  C   LIG d   1       4.566  -1.259  -2.153  0.00  0.00    -0.062 A 
ATOM     21  H   LIG d   1       2.485  -1.407  -2.620  0.00  0.00     0.062 H 
ATOM     22  C   LIG d   1       5.862  -1.448  -2.601  0.00  0.00    -0.061 A 
ATOM     23  H   LIG d   1       4.392  -0.876  -1.158  0.00  0.00     0.062 H 
ATOM     24  C   LIG d   1       6.091  -1.937  -3.870  0.00  0.00    -0.047 A 
ATOM     25  H   LIG d   1       6.695  -1.214  -1.955  0.00  0.00     0.062 H 
ATOM     26  H   LIG d   1       7.103  -2.086  -4.219  0.00  0.00     0.063 H 
ENDBRANCH   2  16
BRANCH   1  27
ATOM     27  C   LIG d   1       4.939  -4.975  -5.193  0.00  0.00     0.076 C 
ATOM     28  H   LIG d   1       5.819  -5.553  -4.910  0.00  0.00     0.071 H 
ATOM     29  H   LIG d   1       4.582  -4.411  -4.332  0.00  0.00     0.071 H 
ATOM     30  H   LIG d   1       4.155  -5.652  -5.535  0.00  0.00     0.071 H 
ENDBRANCH   1  27
BRANCH   1  31
ATOM     31  C   LIG d   1       5.686  -4.571  -7.584  0.00  0.00     0.076 C 
ATOM     32  H   LIG d   1       4.925  -5.261  -7.945  0.00  0.00     0.071 H 
ATOM     33  H   LIG d   1       5.792  -3.745  -8.286  0.00  0.00     0.071 H 
ATOM     34  H   LIG d   1       6.638  -5.095  -7.496  0.00  0.00     0.071 H 
ENDBRANCH   1  31
TORSDOF 5
ENDMDL
