MODEL 1
REMARK VINA RESULT:      -4.9      0.000      0.000
REMARK  15 active torsions:
REMARK  status: ('A' for Active; 'I' for Inactive)
REMARK    1  A    between atoms: C_1  and  C_2 
REMARK    2  A    between atoms: C_2  and  C_3 
REMARK    3  A    between atoms: C_2  and  C_4 
REMARK    4  A    between atoms: C_4  and  C_6 
REMARK    5  A    between atoms: C_4  and  C_19 
REMARK    6  A    between atoms: C_6  and  C_7 
REMARK    7  A    between atoms: C_7  and  N_62 
REMARK    8  A    between atoms: C_8  and  C_9 
REMARK    9  A    between atoms: C_8  and  N_62 
REMARK   10  A    between atoms: C_12  and  O_17 
REMARK   11  A    between atoms: C_13  and  O_15 
REMARK   12  A    between atoms: O_15  and  C_16 
REMARK   13  A    between atoms: O_17  and  C_18 
REMARK   14  A    between atoms: C_24  and  C_26 
REMARK   15  A    between atoms: C_24  and  C_27 
ROOT
ATOM      1  C   LIG d   1       6.698  -1.779  -4.723  0.00  0.00    -0.031 C 
ATOM      2  H   LIG d   1       6.420  -1.749  -5.776  0.00  0.00     0.031 H 
ENDROOT
BRANCH   1   3
ATOM      3  C   LIG d   1       6.985  -3.224  -4.312  0.00  0.00    -0.043 C 
ATOM      4  H   LIG d   1       6.277  -3.530  -3.540  0.00  0.00     0.030 H 
BRANCH   3   5
ATOM      5  C   LIG d   1       6.840  -4.140  -5.528  0.00  0.00    -0.062 C 
ATOM      6  H   LIG d   1       7.211  -3.627  -6.416  0.00  0.00     0.023 H 
ATOM      7  H   LIG d   1       7.414  -5.052  -5.368  0.00  0.00     0.023 H 
ATOM      8  H   LIG d   1       5.789  -4.393  -5.670  0.00  0.00     0.023 H 
ENDBRANCH   3   5
BRANCH   3   9
ATOM      9  C   LIG d   1       8.410  -3.326  -3.765  0.00  0.00    -0.062 C 
ATOM     10  H   LIG d   1       9.099  -2.840  -4.457  0.00  0.00     0.023 H 
ATOM     11  H   LIG d   1       8.464  -2.833  -2.795  0.00  0.00     0.023 H 
ATOM     12  H   LIG d   1       8.684  -4.375  -3.657  0.00  0.00     0.023 H 
ENDBRANCH   3   9
ENDBRANCH   1   3
BRANCH   1  13
ATOM     13  C   LIG d   1       7.949  -0.927  -4.501  0.00  0.00    -0.009 C 
ATOM     14  H   LIG d   1       7.757  -0.197  -3.715  0.00  0.00     0.032 H 
ATOM     15  H   LIG d   1       8.778  -1.570  -4.203  0.00  0.00     0.032 H 
BRANCH  13  16
ATOM     16  C   LIG d   1       8.307  -0.200  -5.798  0.00  0.00    -0.033 C 
ATOM     17  H   LIG d   1       7.561   0.567  -6.002  0.00  0.00     0.081 H 
ATOM     18  H   LIG d   1       9.287   0.265  -5.695  0.00  0.00     0.081 H 
BRANCH  16  19
ATOM     19  N   LIG d   1       8.334  -1.174  -6.907  0.00  0.00     0.230 N 
ATOM     20  H   LIG d   1       7.705  -1.954  -6.686  0.00  0.00     0.202 HD
ATOM     21  H   LIG d   1       9.290  -1.529  -7.023  0.00  0.00     0.202 HD
BRANCH  19  22
ATOM     22  C   LIG d   1       7.895  -0.533  -8.161  0.00  0.00    -0.008 C 
ATOM     23  H   LIG d   1       8.262   0.493  -8.195  0.00  0.00     0.087 H 
ATOM     24  H   LIG d   1       8.287  -1.088  -9.012  0.00  0.00     0.087 H 
BRANCH  22  25
ATOM     25  C   LIG d   1       6.389  -0.530  -8.212  0.00  0.00     0.001 A 
ATOM     26  C   LIG d   1       5.703   0.669  -8.262  0.00  0.00    -0.008 A 
ATOM     27  C   LIG d   1       4.318   0.674  -8.310  0.00  0.00     0.162 A 
ATOM     28  H   LIG d   1       6.246   1.603  -8.264  0.00  0.00     0.066 H 
ATOM     29  C   LIG d   1       3.621  -0.531  -8.308  0.00  0.00     0.162 A 
ATOM     30  C   LIG d   1       4.315  -1.729  -8.258  0.00  0.00    -0.016 A 
ATOM     31  C   LIG d   1       5.697  -1.727  -8.216  0.00  0.00    -0.050 A 
ATOM     32  H   LIG d   1       3.777  -2.666  -8.257  0.00  0.00     0.066 H 
ATOM     33  H   LIG d   1       6.237  -2.662  -8.183  0.00  0.00     0.062 H 
BRANCH  27  34
ATOM     34  O   LIG d   1       3.642   1.852  -8.357  0.00  0.00    -0.491 OA
BRANCH  34  35
ATOM     35  C   LIG d   1       3.640   2.550  -9.605  0.00  0.00     0.079 C 
ATOM     36  H   LIG d   1       3.148   3.515  -9.480  0.00  0.00     0.066 H 
ATOM     37  H   LIG d   1       4.666   2.704  -9.936  0.00  0.00     0.066 H 
ATOM     38  H   LIG d   1       3.102   1.961 -10.349  0.00  0.00     0.066 H 
ENDBRANCH  34  35
ENDBRANCH  27  34
BRANCH  29  39
ATOM     39  O   LIG d   1       2.262  -0.532  -8.355  0.00  0.00    -0.491 OA
BRANCH  39  40
ATOM     40  C   LIG d   1       1.657  -0.807  -9.620  0.00  0.00     0.079 C 
ATOM     41  H   LIG d   1       1.995  -0.073 -10.352  0.00  0.00     0.066 H 
ATOM     42  H   LIG d   1       1.943  -1.806  -9.951  0.00  0.00     0.066 H 
ATOM     43  H   LIG d   1       0.573  -0.752  -9.525  0.00  0.00     0.066 H 
ENDBRANCH  39  40
ENDBRANCH  29  39
ENDBRANCH  22  25
ENDBRANCH  19  22
ENDBRANCH  16  19
ENDBRANCH  13  16
ENDBRANCH   1  13
BRANCH   1  44
ATOM     44  C   LIG d   1       5.548  -1.227  -3.875  0.00  0.00    -0.033 C 
ATOM     45  H   LIG d   1       5.948  -0.579  -3.096  0.00  0.00     0.030 H 
ATOM     46  C   LIG d   1       4.593  -0.428  -4.767  0.00  0.00    -0.021 C 
ATOM     47  C   LIG d   1       3.407   0.054  -3.927  0.00  0.00     0.064 C 
ATOM     48  H   LIG d   1       4.233  -1.063  -5.576  0.00  0.00     0.029 H 
ATOM     49  H   LIG d   1       5.117   0.433  -5.184  0.00  0.00     0.029 H 
ATOM     50  O   LIG d   1       2.755  -1.072  -3.336  0.00  0.00    -0.374 OA
ATOM     51  C   LIG d   1       3.586  -1.831  -2.455  0.00  0.00     0.049 C 
ATOM     52  C   LIG d   1       4.781  -2.388  -3.235  0.00  0.00    -0.026 C 
ATOM     53  H   LIG d   1       3.946  -1.188  -1.651  0.00  0.00     0.056 H 
ATOM     54  H   LIG d   1       3.012  -2.655  -2.033  0.00  0.00     0.056 H 
ATOM     55  H   LIG d   1       5.439  -2.930  -2.556  0.00  0.00     0.029 H 
ATOM     56  H   LIG d   1       4.424  -3.063  -4.014  0.00  0.00     0.029 H 
BRANCH  47  57
ATOM     57  C   LIG d   1       2.418   0.802  -4.823  0.00  0.00    -0.036 C 
ATOM     58  H   LIG d   1       1.634   1.245  -4.208  0.00  0.00     0.026 H 
ATOM     59  H   LIG d   1       2.943   1.589  -5.366  0.00  0.00     0.026 H 
ATOM     60  H   LIG d   1       1.973   0.106  -5.533  0.00  0.00     0.026 H 
ENDBRANCH  47  57
BRANCH  47  61
ATOM     61  C   LIG d   1       3.908   0.990  -2.826  0.00  0.00    -0.036 C 
ATOM     62  H   LIG d   1       3.950   0.450  -1.881  0.00  0.00     0.026 H 
ATOM     63  H   LIG d   1       4.904   1.352  -3.082  0.00  0.00     0.026 H 
ATOM     64  H   LIG d   1       3.227   1.836  -2.730  0.00  0.00     0.026 H 
ENDBRANCH  47  61
ENDBRANCH   1  44
TORSDOF 15
ENDMDL
MODEL 2
REMARK VINA RESULT:      -4.8      1.645      2.694
REMARK  15 active torsions:
REMARK  status: ('A' for Active; 'I' for Inactive)
REMARK    1  A    between atoms: C_1  and  C_2 
REMARK    2  A    between atoms: C_2  and  C_3 
REMARK    3  A    between atoms: C_2  and  C_4 
REMARK    4  A    between atoms: C_4  and  C_6 
REMARK    5  A    between atoms: C_4  and  C_19 
REMARK    6  A    between atoms: C_6  and  C_7 
REMARK    7  A    between atoms: C_7  and  N_62 
REMARK    8  A    between atoms: C_8  and  C_9 
REMARK    9  A    between atoms: C_8  and  N_62 
REMARK   10  A    between atoms: C_12  and  O_17 
REMARK   11  A    between atoms: C_13  and  O_15 
REMARK   12  A    between atoms: O_15  and  C_16 
REMARK   13  A    between atoms: O_17  and  C_18 
REMARK   14  A    between atoms: C_24  and  C_26 
REMARK   15  A    between atoms: C_24  and  C_27 
ROOT
ATOM      1  C   LIG d   1       6.105  -1.376  -5.777  0.00  0.00    -0.031 C 
ATOM      2  H   LIG d   1       6.082  -1.285  -6.863  0.00  0.00     0.031 H 
ENDROOT
BRANCH   1   3
ATOM      3  C   LIG d   1       6.408  -2.824  -5.392  0.00  0.00    -0.043 C 
ATOM      4  H   LIG d   1       6.889  -3.331  -6.229  0.00  0.00     0.030 H 
BRANCH   3   5
ATOM      5  C   LIG d   1       7.341  -2.847  -4.179  0.00  0.00    -0.062 C 
ATOM      6  H   LIG d   1       8.187  -2.183  -4.360  0.00  0.00     0.023 H 
ATOM      7  H   LIG d   1       6.798  -2.511  -3.296  0.00  0.00     0.023 H 
ATOM      8  H   LIG d   1       7.704  -3.862  -4.018  0.00  0.00     0.023 H 
ENDBRANCH   3   5
BRANCH   3   9
ATOM      9  C   LIG d   1       5.103  -3.543  -5.042  0.00  0.00    -0.062 C 
ATOM     10  H   LIG d   1       5.083  -3.760  -3.974  0.00  0.00     0.023 H 
ATOM     11  H   LIG d   1       4.257  -2.905  -5.298  0.00  0.00     0.023 H 
ATOM     12  H   LIG d   1       5.039  -4.474  -5.604  0.00  0.00     0.023 H 
ENDBRANCH   3   9
ENDBRANCH   1   3
BRANCH   1  13
ATOM     13  C   LIG d   1       7.193  -0.460  -5.212  0.00  0.00    -0.009 C 
ATOM     14  H   LIG d   1       6.735   0.298  -4.577  0.00  0.00     0.032 H 
ATOM     15  H   LIG d   1       7.896  -1.050  -4.624  0.00  0.00     0.032 H 
BRANCH  13  16
ATOM     16  C   LIG d   1       7.936   0.220  -6.364  0.00  0.00    -0.033 C 
ATOM     17  H   LIG d   1       8.935   0.505  -6.034  0.00  0.00     0.081 H 
ATOM     18  H   LIG d   1       8.014  -0.470  -7.203  0.00  0.00     0.081 H 
BRANCH  16  19
ATOM     19  N   LIG d   1       7.189   1.423  -6.778  0.00  0.00     0.230 N 
ATOM     20  H   LIG d   1       7.557   2.239  -6.276  0.00  0.00     0.202 HD
ATOM     21  H   LIG d   1       6.196   1.301  -6.549  0.00  0.00     0.202 HD
BRANCH  19  22
ATOM     22  C   LIG d   1       7.331   1.639  -8.230  0.00  0.00    -0.008 C 
ATOM     23  H   LIG d   1       7.481   2.700  -8.430  0.00  0.00     0.087 H 
ATOM     24  H   LIG d   1       8.185   1.073  -8.603  0.00  0.00     0.087 H 
BRANCH  22  25
ATOM     25  C   LIG d   1       6.077   1.170  -8.923  0.00  0.00     0.001 A 
ATOM     26  C   LIG d   1       5.958  -0.149  -9.316  0.00  0.00    -0.008 A 
ATOM     27  C   LIG d   1       4.807  -0.582  -9.953  0.00  0.00     0.162 A 
ATOM     28  H   LIG d   1       6.764  -0.844  -9.127  0.00  0.00     0.066 H 
ATOM     29  C   LIG d   1       3.770   0.316 -10.195  0.00  0.00     0.162 A 
ATOM     30  C   LIG d   1       3.896   1.637  -9.798  0.00  0.00    -0.016 A 
ATOM     31  C   LIG d   1       5.046   2.061  -9.158  0.00  0.00    -0.050 A 
ATOM     32  H   LIG d   1       3.094   2.336  -9.985  0.00  0.00     0.066 H 
ATOM     33  H   LIG d   1       5.140   3.090  -8.845  0.00  0.00     0.062 H 
BRANCH  27  34
ATOM     34  O   LIG d   1       4.689  -1.879 -10.342  0.00  0.00    -0.491 OA
BRANCH  34  35
ATOM     35  C   LIG d   1       5.089  -2.877  -9.401  0.00  0.00     0.079 C 
ATOM     36  H   LIG d   1       4.453  -3.756  -9.511  0.00  0.00     0.066 H 
ATOM     37  H   LIG d   1       6.126  -3.154  -9.583  0.00  0.00     0.066 H 
ATOM     38  H   LIG d   1       4.990  -2.483  -8.389  0.00  0.00     0.066 H 
ENDBRANCH  34  35
ENDBRANCH  27  34
BRANCH  29  39
ATOM     39  O   LIG d   1       2.637  -0.104 -10.820  0.00  0.00    -0.491 OA
BRANCH  39  40
ATOM     40  C   LIG d   1       1.563  -0.545  -9.987  0.00  0.00     0.079 C 
ATOM     41  H   LIG d   1       1.862  -0.476  -8.941  0.00  0.00     0.066 H 
ATOM     42  H   LIG d   1       0.689   0.084 -10.157  0.00  0.00     0.066 H 
ATOM     43  H   LIG d   1       1.319  -1.580 -10.227  0.00  0.00     0.066 H 
ENDBRANCH  39  40
ENDBRANCH  29  39
ENDBRANCH  22  25
ENDBRANCH  19  22
ENDBRANCH  16  19
ENDBRANCH  13  16
ENDBRANCH   1  13
BRANCH   1  44
ATOM     44  C   LIG d   1       4.746  -0.968  -5.203  0.00  0.00    -0.033 C 
ATOM     45  H   LIG d   1       4.193  -1.860  -4.908  0.00  0.00     0.030 H 
ATOM     46  C   LIG d   1       4.955  -0.068  -3.981  0.00  0.00    -0.021 C 
ATOM     47  C   LIG d   1       3.593   0.398  -3.462  0.00  0.00     0.064 C 
ATOM     48  H   LIG d   1       5.553   0.798  -4.266  0.00  0.00     0.029 H 
ATOM     49  H   LIG d   1       5.472  -0.626  -3.200  0.00  0.00     0.029 H 
ATOM     50  O   LIG d   1       2.895   1.081  -4.505  0.00  0.00    -0.374 OA
ATOM     51  C   LIG d   1       2.629   0.275  -5.654  0.00  0.00     0.049 C 
ATOM     52  C   LIG d   1       3.953  -0.197  -6.263  0.00  0.00    -0.026 C 
ATOM     53  H   LIG d   1       2.035  -0.592  -5.361  0.00  0.00     0.056 H 
ATOM     54  H   LIG d   1       2.080   0.860  -6.390  0.00  0.00     0.056 H 
ATOM     55  H   LIG d   1       3.752  -0.848  -7.113  0.00  0.00     0.029 H 
ATOM     56  H   LIG d   1       4.530   0.667  -6.592  0.00  0.00     0.029 H 
BRANCH  47  57
ATOM     57  C   LIG d   1       3.796   1.346  -2.278  0.00  0.00    -0.036 C 
ATOM     58  H   LIG d   1       3.296   0.941  -1.398  0.00  0.00     0.026 H 
ATOM     59  H   LIG d   1       4.862   1.450  -2.075  0.00  0.00     0.026 H 
ATOM     60  H   LIG d   1       3.375   2.322  -2.518  0.00  0.00     0.026 H 
ENDBRANCH  47  57
BRANCH  47  61
ATOM     61  C   LIG d   1       2.777  -0.815  -3.010  0.00  0.00    -0.036 C 
ATOM     62  H   LIG d   1       2.094  -1.110  -3.806  0.00  0.00     0.026 H 
ATOM     63  H   LIG d   1       3.450  -1.642  -2.784  0.00  0.00     0.026 H 
ATOM     64  H   LIG d   1       2.205  -0.557  -2.119  0.00  0.00     0.026 H 
ENDBRANCH  47  61
ENDBRANCH   1  44
TORSDOF 15
ENDMDL
MODEL 3
REMARK VINA RESULT:      -4.8      2.380      4.347
REMARK  15 active torsions:
REMARK  status: ('A' for Active; 'I' for Inactive)
REMARK    1  A    between atoms: C_1  and  C_2 
REMARK    2  A    between atoms: C_2  and  C_3 
REMARK    3  A    between atoms: C_2  and  C_4 
REMARK    4  A    between atoms: C_4  and  C_6 
REMARK    5  A    between atoms: C_4  and  C_19 
REMARK    6  A    between atoms: C_6  and  C_7 
REMARK    7  A    between atoms: C_7  and  N_62 
REMARK    8  A    between atoms: C_8  and  C_9 
REMARK    9  A    between atoms: C_8  and  N_62 
REMARK   10  A    between atoms: C_12  and  O_17 
REMARK   11  A    between atoms: C_13  and  O_15 
REMARK   12  A    between atoms: O_15  and  C_16 
REMARK   13  A    between atoms: O_17  and  C_18 
REMARK   14  A    between atoms: C_24  and  C_26 
REMARK   15  A    between atoms: C_24  and  C_27 
ROOT
ATOM      1  C   LIG d   1       4.786  -0.126  -3.891  0.00  0.00    -0.031 C 
ATOM      2  H   LIG d   1       5.023   0.900  -4.173  0.00  0.00     0.031 H 
ENDROOT
BRANCH   1   3
ATOM      3  C   LIG d   1       5.075  -0.326  -2.403  0.00  0.00    -0.043 C 
ATOM      4  H   LIG d   1       6.147  -0.466  -2.257  0.00  0.00     0.030 H 
BRANCH   3   5
ATOM      5  C   LIG d   1       4.611   0.905  -1.622  0.00  0.00    -0.062 C 
ATOM      6  H   LIG d   1       4.252   1.663  -2.318  0.00  0.00     0.023 H 
ATOM      7  H   LIG d   1       3.805   0.623  -0.945  0.00  0.00     0.023 H 
ATOM      8  H   LIG d   1       5.445   1.307  -1.046  0.00  0.00     0.023 H 
ENDBRANCH   3   5
BRANCH   3   9
ATOM      9  C   LIG d   1       4.326  -1.561  -1.899  0.00  0.00    -0.062 C 
ATOM     10  H   LIG d   1       4.592  -1.747  -0.858  0.00  0.00     0.023 H 
ATOM     11  H   LIG d   1       3.252  -1.391  -1.974  0.00  0.00     0.023 H 
ATOM     12  H   LIG d   1       4.601  -2.424  -2.504  0.00  0.00     0.023 H 
ENDBRANCH   3   9
ENDBRANCH   1   3
BRANCH   1  13
ATOM     13  C   LIG d   1       3.306  -0.402  -4.165  0.00  0.00    -0.009 C 
ATOM     14  H   LIG d   1       3.216  -1.139  -4.962  0.00  0.00     0.032 H 
ATOM     15  H   LIG d   1       2.835  -0.785  -3.261  0.00  0.00     0.032 H 
BRANCH  13  16
ATOM     16  C   LIG d   1       2.616   0.896  -4.590  0.00  0.00    -0.033 C 
ATOM     17  H   LIG d   1       1.544   0.813  -4.409  0.00  0.00     0.081 H 
ATOM     18  H   LIG d   1       3.018   1.727  -4.012  0.00  0.00     0.081 H 
BRANCH  16  19
ATOM     19  N   LIG d   1       2.861   1.126  -6.027  0.00  0.00     0.230 N 
ATOM     20  H   LIG d   1       3.866   1.262  -6.181  0.00  0.00     0.202 HD
ATOM     21  H   LIG d   1       2.352   1.965  -6.327  0.00  0.00     0.202 HD
BRANCH  19  22
ATOM     22  C   LIG d   1       2.399  -0.032  -6.815  0.00  0.00    -0.008 C 
ATOM     23  H   LIG d   1       2.786  -0.952  -6.377  0.00  0.00     0.087 H 
ATOM     24  H   LIG d   1       1.310  -0.061  -6.821  0.00  0.00     0.087 H 
BRANCH  22  25
ATOM     25  C   LIG d   1       2.904   0.101  -8.229  0.00  0.00     0.001 A 
ATOM     26  C   LIG d   1       4.134   0.685  -8.470  0.00  0.00    -0.008 A 
ATOM     27  C   LIG d   1       4.600   0.809  -9.769  0.00  0.00     0.162 A 
ATOM     28  H   LIG d   1       4.732   1.045  -7.645  0.00  0.00     0.066 H 
ATOM     29  C   LIG d   1       3.827   0.343 -10.829  0.00  0.00     0.162 A 
ATOM     30  C   LIG d   1       2.596  -0.241 -10.581  0.00  0.00    -0.016 A 
ATOM     31  C   LIG d   1       2.139  -0.366  -9.282  0.00  0.00    -0.050 A 
ATOM     32  H   LIG d   1       1.995  -0.603 -11.401  0.00  0.00     0.066 H 
ATOM     33  H   LIG d   1       1.181  -0.826  -9.090  0.00  0.00     0.062 H 
BRANCH  27  34
ATOM     34  O   LIG d   1       5.809   1.384 -10.007  0.00  0.00    -0.491 OA
BRANCH  34  35
ATOM     35  C   LIG d   1       6.534   1.864  -8.873  0.00  0.00     0.079 C 
ATOM     36  H   LIG d   1       7.117   2.740  -9.160  0.00  0.00     0.066 H 
ATOM     37  H   LIG d   1       5.835   2.136  -8.083  0.00  0.00     0.066 H 
ATOM     38  H   LIG d   1       7.204   1.083  -8.514  0.00  0.00     0.066 H 
ENDBRANCH  34  35
ENDBRANCH  27  34
BRANCH  29  39
ATOM     39  O   LIG d   1       4.281   0.461 -12.106  0.00  0.00    -0.491 OA
BRANCH  39  40
ATOM     40  C   LIG d   1       4.851  -0.705 -12.703  0.00  0.00     0.079 C 
ATOM     41  H   LIG d   1       5.291  -0.442 -13.665  0.00  0.00     0.066 H 
ATOM     42  H   LIG d   1       5.624  -1.108 -12.048  0.00  0.00     0.066 H 
ATOM     43  H   LIG d   1       4.074  -1.454 -12.851  0.00  0.00     0.066 H 
ENDBRANCH  39  40
ENDBRANCH  29  39
ENDBRANCH  22  25
ENDBRANCH  19  22
ENDBRANCH  16  19
ENDBRANCH  13  16
ENDBRANCH   1  13
BRANCH   1  44
ATOM     44  C   LIG d   1       5.645  -1.091  -4.712  0.00  0.00    -0.033 C 
ATOM     45  H   LIG d   1       6.346  -1.605  -4.054  0.00  0.00     0.030 H 
ATOM     46  C   LIG d   1       4.744  -2.119  -5.403  0.00  0.00    -0.021 C 
ATOM     47  C   LIG d   1       5.603  -3.030  -6.282  0.00  0.00     0.064 C 
ATOM     48  H   LIG d   1       4.010  -1.602  -6.021  0.00  0.00     0.029 H 
ATOM     49  H   LIG d   1       4.230  -2.717  -4.651  0.00  0.00     0.029 H 
ATOM     50  O   LIG d   1       6.319  -2.237  -7.232  0.00  0.00    -0.374 OA
ATOM     51  C   LIG d   1       7.213  -1.290  -6.644  0.00  0.00     0.049 C 
ATOM     52  C   LIG d   1       6.419  -0.308  -5.777  0.00  0.00    -0.026 C 
ATOM     53  H   LIG d   1       7.942  -1.814  -6.023  0.00  0.00     0.056 H 
ATOM     54  H   LIG d   1       7.732  -0.742  -7.430  0.00  0.00     0.056 H 
ATOM     55  H   LIG d   1       7.104   0.388  -5.293  0.00  0.00     0.029 H 
ATOM     56  H   LIG d   1       5.719   0.245  -6.404  0.00  0.00     0.029 H 
BRANCH  47  57
ATOM     57  C   LIG d   1       4.703  -4.021  -7.023  0.00  0.00    -0.036 C 
ATOM     58  H   LIG d   1       4.978  -4.043  -8.077  0.00  0.00     0.026 H 
ATOM     59  H   LIG d   1       4.827  -5.015  -6.594  0.00  0.00     0.026 H 
ATOM     60  H   LIG d   1       3.663  -3.710  -6.926  0.00  0.00     0.026 H 
ENDBRANCH  47  57
BRANCH  47  61
ATOM     61  C   LIG d   1       6.596  -3.797  -5.406  0.00  0.00    -0.036 C 
ATOM     62  H   LIG d   1       6.282  -4.837  -5.327  0.00  0.00     0.026 H 
ATOM     63  H   LIG d   1       7.588  -3.749  -5.855  0.00  0.00     0.026 H 
ATOM     64  H   LIG d   1       6.625  -3.350  -4.412  0.00  0.00     0.026 H 
ENDBRANCH  47  61
ENDBRANCH   1  44
TORSDOF 15
ENDMDL
MODEL 4
REMARK VINA RESULT:      -4.7      2.421      3.829
REMARK  15 active torsions:
REMARK  status: ('A' for Active; 'I' for Inactive)
REMARK    1  A    between atoms: C_1  and  C_2 
REMARK    2  A    between atoms: C_2  and  C_3 
REMARK    3  A    between atoms: C_2  and  C_4 
REMARK    4  A    between atoms: C_4  and  C_6 
REMARK    5  A    between atoms: C_4  and  C_19 
REMARK    6  A    between atoms: C_6  and  C_7 
REMARK    7  A    between atoms: C_7  and  N_62 
REMARK    8  A    between atoms: C_8  and  C_9 
REMARK    9  A    between atoms: C_8  and  N_62 
REMARK   10  A    between atoms: C_12  and  O_17 
REMARK   11  A    between atoms: C_13  and  O_15 
REMARK   12  A    between atoms: O_15  and  C_16 
REMARK   13  A    between atoms: O_17  and  C_18 
REMARK   14  A    between atoms: C_24  and  C_26 
REMARK   15  A    between atoms: C_24  and  C_27 
ROOT
ATOM      1  C   LIG d   1       4.785  -0.868  -7.246  0.00  0.00    -0.031 C 
ATOM      2  H   LIG d   1       4.100  -0.486  -8.002  0.00  0.00     0.031 H 
ENDROOT
BRANCH   1   3
ATOM      3  C   LIG d   1       5.149  -2.317  -7.571  0.00  0.00    -0.043 C 
ATOM      4  H   LIG d   1       6.233  -2.434  -7.546  0.00  0.00     0.030 H 
BRANCH   3   5
ATOM      5  C   LIG d   1       4.511  -3.249  -6.539  0.00  0.00    -0.062 C 
ATOM      6  H   LIG d   1       3.756  -2.702  -5.974  0.00  0.00     0.023 H 
ATOM      7  H   LIG d   1       4.045  -4.091  -7.049  0.00  0.00     0.023 H 
ATOM      8  H   LIG d   1       5.279  -3.616  -5.858  0.00  0.00     0.023 H 
ENDBRANCH   3   5
BRANCH   3   9
ATOM      9  C   LIG d   1       4.631  -2.672  -8.966  0.00  0.00    -0.062 C 
ATOM     10  H   LIG d   1       4.213  -3.680  -8.952  0.00  0.00     0.023 H 
ATOM     11  H   LIG d   1       3.857  -1.963  -9.258  0.00  0.00     0.023 H 
ATOM     12  H   LIG d   1       5.452  -2.630  -9.681  0.00  0.00     0.023 H 
ENDBRANCH   3   9
ENDBRANCH   1   3
BRANCH   1  13
ATOM     13  C   LIG d   1       6.055  -0.014  -7.230  0.00  0.00    -0.009 C 
ATOM     14  H   LIG d   1       6.098   0.556  -6.303  0.00  0.00     0.032 H 
ATOM     15  H   LIG d   1       6.929  -0.661  -7.298  0.00  0.00     0.032 H 
BRANCH  13  16
ATOM     16  C   LIG d   1       6.037   0.947  -8.421  0.00  0.00    -0.033 C 
ATOM     17  H   LIG d   1       6.897   1.615  -8.361  0.00  0.00     0.081 H 
ATOM     18  H   LIG d   1       6.085   0.377  -9.348  0.00  0.00     0.081 H 
BRANCH  16  19
ATOM     19  N   LIG d   1       4.792   1.737  -8.386  0.00  0.00     0.230 N 
ATOM     20  H   LIG d   1       4.958   2.607  -7.868  0.00  0.00     0.202 HD
ATOM     21  H   LIG d   1       4.059   1.193  -7.915  0.00  0.00     0.202 HD
BRANCH  19  22
ATOM     22  C   LIG d   1       4.353   2.060  -9.757  0.00  0.00    -0.008 C 
ATOM     23  H   LIG d   1       3.744   2.964  -9.743  0.00  0.00     0.087 H 
ATOM     24  H   LIG d   1       5.224   2.219 -10.392  0.00  0.00     0.087 H 
BRANCH  22  25
ATOM     25  C   LIG d   1       3.539   0.913 -10.298  0.00  0.00     0.001 A 
ATOM     26  C   LIG d   1       3.905   0.306 -11.483  0.00  0.00    -0.008 A 
ATOM     27  C   LIG d   1       3.158  -0.749 -11.983  0.00  0.00     0.162 A 
ATOM     28  H   LIG d   1       4.776   0.653 -12.022  0.00  0.00     0.066 H 
ATOM     29  C   LIG d   1       2.038  -1.194 -11.286  0.00  0.00     0.162 A 
ATOM     30  C   LIG d   1       1.677  -0.581 -10.098  0.00  0.00    -0.016 A 
ATOM     31  C   LIG d   1       2.430   0.467  -9.603  0.00  0.00    -0.050 A 
ATOM     32  H   LIG d   1       0.808  -0.925  -9.555  0.00  0.00     0.066 H 
ATOM     33  H   LIG d   1       2.149   0.941  -8.674  0.00  0.00     0.062 H 
BRANCH  27  34
ATOM     34  O   LIG d   1       3.517  -1.347 -13.150  0.00  0.00    -0.491 OA
BRANCH  34  35
ATOM     35  C   LIG d   1       4.402  -0.621 -14.005  0.00  0.00     0.079 C 
ATOM     36  H   LIG d   1       4.132   0.436 -13.995  0.00  0.00     0.066 H 
ATOM     37  H   LIG d   1       5.426  -0.738 -13.653  0.00  0.00     0.066 H 
ATOM     38  H   LIG d   1       4.321  -1.006 -15.022  0.00  0.00     0.066 H 
ENDBRANCH  34  35
ENDBRANCH  27  34
BRANCH  29  39
ATOM     39  O   LIG d   1       1.302  -2.230 -11.771  0.00  0.00    -0.491 OA
BRANCH  39  40
ATOM     40  C   LIG d   1       0.185  -1.900 -12.599  0.00  0.00     0.079 C 
ATOM     41  H   LIG d   1      -0.494  -1.247 -12.050  0.00  0.00     0.066 H 
ATOM     42  H   LIG d   1       0.536  -1.388 -13.495  0.00  0.00     0.066 H 
ATOM     43  H   LIG d   1      -0.339  -2.812 -12.883  0.00  0.00     0.066 H 
ENDBRANCH  39  40
ENDBRANCH  29  39
ENDBRANCH  22  25
ENDBRANCH  19  22
ENDBRANCH  16  19
ENDBRANCH  13  16
ENDBRANCH   1  13
BRANCH   1  44
ATOM     44  C   LIG d   1       4.113  -0.807  -5.872  0.00  0.00    -0.033 C 
ATOM     45  H   LIG d   1       3.803  -1.809  -5.573  0.00  0.00     0.030 H 
ATOM     46  C   LIG d   1       5.101  -0.249  -4.842  0.00  0.00    -0.021 C 
ATOM     47  C   LIG d   1       4.397  -0.119  -3.490  0.00  0.00     0.064 C 
ATOM     48  H   LIG d   1       5.451   0.731  -5.168  0.00  0.00     0.029 H 
ATOM     49  H   LIG d   1       5.950  -0.926  -4.747  0.00  0.00     0.029 H 
ATOM     50  O   LIG d   1       3.252   0.724  -3.630  0.00  0.00    -0.374 OA
ATOM     51  C   LIG d   1       2.271   0.230  -4.544  0.00  0.00     0.049 C 
ATOM     52  C   LIG d   1       2.890   0.112  -5.940  0.00  0.00    -0.026 C 
ATOM     53  H   LIG d   1       1.930  -0.752  -4.215  0.00  0.00     0.056 H 
ATOM     54  H   LIG d   1       1.426   0.916  -4.578  0.00  0.00     0.056 H 
ATOM     55  H   LIG d   1       2.157  -0.306  -6.630  0.00  0.00     0.029 H 
ATOM     56  H   LIG d   1       3.195   1.100  -6.287  0.00  0.00     0.029 H 
BRANCH  47  57
ATOM     57  C   LIG d   1       5.359   0.494  -2.471  0.00  0.00    -0.036 C 
ATOM     58  H   LIG d   1       5.586   1.521  -2.758  0.00  0.00     0.026 H 
ATOM     59  H   LIG d   1       4.897   0.487  -1.484  0.00  0.00     0.026 H 
ATOM     60  H   LIG d   1       6.280  -0.087  -2.444  0.00  0.00     0.026 H 
ENDBRANCH  47  57
BRANCH  47  61
ATOM     61  C   LIG d   1       3.956  -1.502  -3.008  0.00  0.00    -0.036 C 
ATOM     62  H   LIG d   1       3.130  -1.397  -2.306  0.00  0.00     0.026 H 
ATOM     63  H   LIG d   1       3.634  -2.099  -3.862  0.00  0.00     0.026 H 
ATOM     64  H   LIG d   1       4.792  -1.999  -2.513  0.00  0.00     0.026 H 
ENDBRANCH  47  61
ENDBRANCH   1  44
TORSDOF 15
ENDMDL
MODEL 5
REMARK VINA RESULT:      -4.7      2.177      4.038
REMARK  15 active torsions:
REMARK  status: ('A' for Active; 'I' for Inactive)
REMARK    1  A    between atoms: C_1  and  C_2 
REMARK    2  A    between atoms: C_2  and  C_3 
REMARK    3  A    between atoms: C_2  and  C_4 
REMARK    4  A    between atoms: C_4  and  C_6 
REMARK    5  A    between atoms: C_4  and  C_19 
REMARK    6  A    between atoms: C_6  and  C_7 
REMARK    7  A    between atoms: C_7  and  N_62 
REMARK    8  A    between atoms: C_8  and  C_9 
REMARK    9  A    between atoms: C_8  and  N_62 
REMARK   10  A    between atoms: C_12  and  O_17 
REMARK   11  A    between atoms: C_13  and  O_15 
REMARK   12  A    between atoms: O_15  and  C_16 
REMARK   13  A    between atoms: O_17  and  C_18 
REMARK   14  A    between atoms: C_24  and  C_26 
REMARK   15  A    between atoms: C_24  and  C_27 
ROOT
ATOM      1  C   LIG d   1       5.031  -1.345  -4.260  0.00  0.00    -0.031 C 
ATOM      2  H   LIG d   1       4.453  -1.337  -5.183  0.00  0.00     0.031 H 
ENDROOT
BRANCH   1   3
ATOM      3  C   LIG d   1       4.202  -0.726  -3.133  0.00  0.00    -0.043 C 
ATOM      4  H   LIG d   1       4.643   0.228  -2.841  0.00  0.00     0.030 H 
BRANCH   3   5
ATOM      5  C   LIG d   1       2.770  -0.498  -3.618  0.00  0.00    -0.062 C 
ATOM      6  H   LIG d   1       2.228   0.100  -2.885  0.00  0.00     0.023 H 
ATOM      7  H   LIG d   1       2.788   0.027  -4.573  0.00  0.00     0.023 H 
ATOM      8  H   LIG d   1       2.270  -1.459  -3.742  0.00  0.00     0.023 H 
ENDBRANCH   3   5
BRANCH   3   9
ATOM      9  C   LIG d   1       4.188  -1.671  -1.931  0.00  0.00    -0.062 C 
ATOM     10  H   LIG d   1       3.537  -2.520  -2.145  0.00  0.00     0.023 H 
ATOM     11  H   LIG d   1       5.199  -2.029  -1.737  0.00  0.00     0.023 H 
ATOM     12  H   LIG d   1       3.816  -1.140  -1.055  0.00  0.00     0.023 H 
ENDBRANCH   3   9
ENDBRANCH   1   3
BRANCH   1  13
ATOM     13  C   LIG d   1       5.389  -2.788  -3.896  0.00  0.00    -0.009 C 
ATOM     14  H   LIG d   1       6.441  -2.841  -3.616  0.00  0.00     0.032 H 
ATOM     15  H   LIG d   1       4.774  -3.114  -3.057  0.00  0.00     0.032 H 
BRANCH  13  16
ATOM     16  C   LIG d   1       5.135  -3.696  -5.100  0.00  0.00    -0.033 C 
ATOM     17  H   LIG d   1       6.047  -3.780  -5.691  0.00  0.00     0.081 H 
ATOM     18  H   LIG d   1       4.834  -4.684  -4.753  0.00  0.00     0.081 H 
BRANCH  16  19
ATOM     19  N   LIG d   1       4.061  -3.112  -5.927  0.00  0.00     0.230 N 
ATOM     20  H   LIG d   1       3.966  -2.115  -5.703  0.00  0.00     0.202 HD
ATOM     21  H   LIG d   1       3.178  -3.594  -5.725  0.00  0.00     0.202 HD
BRANCH  19  22
ATOM     22  C   LIG d   1       4.381  -3.261  -7.360  0.00  0.00    -0.008 C 
ATOM     23  H   LIG d   1       5.409  -3.604  -7.472  0.00  0.00     0.087 H 
ATOM     24  H   LIG d   1       3.704  -3.985  -7.813  0.00  0.00     0.087 H 
BRANCH  22  25
ATOM     25  C   LIG d   1       4.219  -1.927  -8.042  0.00  0.00     0.001 A 
ATOM     26  C   LIG d   1       5.005  -1.611  -9.134  0.00  0.00    -0.008 A 
ATOM     27  C   LIG d   1       4.859  -0.386  -9.763  0.00  0.00     0.162 A 
ATOM     28  H   LIG d   1       5.735  -2.320  -9.498  0.00  0.00     0.066 H 
ATOM     29  C   LIG d   1       3.917   0.525  -9.293  0.00  0.00     0.162 A 
ATOM     30  C   LIG d   1       3.132   0.202  -8.199  0.00  0.00    -0.016 A 
ATOM     31  C   LIG d   1       3.280  -1.025  -7.579  0.00  0.00    -0.050 A 
ATOM     32  H   LIG d   1       2.401   0.907  -7.831  0.00  0.00     0.066 H 
ATOM     33  H   LIG d   1       2.664  -1.277  -6.728  0.00  0.00     0.062 H 
BRANCH  27  34
ATOM     34  O   LIG d   1       5.632  -0.073 -10.837  0.00  0.00    -0.491 OA
BRANCH  34  35
ATOM     35  C   LIG d   1       5.488  -0.891 -12.000  0.00  0.00     0.079 C 
ATOM     36  H   LIG d   1       5.474  -1.941 -11.707  0.00  0.00     0.066 H 
ATOM     37  H   LIG d   1       4.557  -0.642 -12.506  0.00  0.00     0.066 H 
ATOM     38  H   LIG d   1       6.327  -0.713 -12.675  0.00  0.00     0.066 H 
ENDBRANCH  34  35
ENDBRANCH  27  34
BRANCH  29  39
ATOM     39  O   LIG d   1       3.768   1.730  -9.907  0.00  0.00    -0.491 OA
BRANCH  39  40
ATOM     40  C   LIG d   1       4.319   2.869  -9.244  0.00  0.00     0.079 C 
ATOM     41  H   LIG d   1       5.400   2.881  -9.382  0.00  0.00     0.066 H 
ATOM     42  H   LIG d   1       3.890   3.778  -9.666  0.00  0.00     0.066 H 
ATOM     43  H   LIG d   1       4.088   2.818  -8.181  0.00  0.00     0.066 H 
ENDBRANCH  39  40
ENDBRANCH  29  39
ENDBRANCH  22  25
ENDBRANCH  19  22
ENDBRANCH  16  19
ENDBRANCH  13  16
ENDBRANCH   1  13
BRANCH   1  44
ATOM     44  C   LIG d   1       6.315  -0.534  -4.454  0.00  0.00    -0.033 C 
ATOM     45  H   LIG d   1       7.178  -1.158  -4.225  0.00  0.00     0.030 H 
ATOM     46  C   LIG d   1       6.401  -0.051  -5.905  0.00  0.00    -0.021 C 
ATOM     47  C   LIG d   1       7.646   0.824  -6.069  0.00  0.00     0.064 C 
ATOM     48  H   LIG d   1       5.512   0.531  -6.148  0.00  0.00     0.029 H 
ATOM     49  H   LIG d   1       6.468  -0.910  -6.572  0.00  0.00     0.029 H 
ATOM     50  O   LIG d   1       7.582   1.919  -5.153  0.00  0.00    -0.374 OA
ATOM     51  C   LIG d   1       7.547   1.529  -3.779  0.00  0.00     0.049 C 
ATOM     52  C   LIG d   1       6.297   0.682  -3.522  0.00  0.00    -0.026 C 
ATOM     53  H   LIG d   1       8.436   0.944  -3.544  0.00  0.00     0.056 H 
ATOM     54  H   LIG d   1       7.518   2.418  -3.149  0.00  0.00     0.056 H 
ATOM     55  H   LIG d   1       6.291   0.346  -2.485  0.00  0.00     0.029 H 
ATOM     56  H   LIG d   1       5.406   1.279  -3.718  0.00  0.00     0.029 H 
BRANCH  47  57
ATOM     57  C   LIG d   1       7.707   1.360  -7.501  0.00  0.00    -0.036 C 
ATOM     58  H   LIG d   1       8.592   1.986  -7.617  0.00  0.00     0.026 H 
ATOM     59  H   LIG d   1       7.759   0.525  -8.200  0.00  0.00     0.026 H 
ATOM     60  H   LIG d   1       6.815   1.951  -7.706  0.00  0.00     0.026 H 
ENDBRANCH  47  57
BRANCH  47  61
ATOM     61  C   LIG d   1       8.897  -0.009  -5.782  0.00  0.00    -0.036 C 
ATOM     62  H   LIG d   1       9.637   0.610  -5.277  0.00  0.00     0.026 H 
ATOM     63  H   LIG d   1       8.633  -0.853  -5.144  0.00  0.00     0.026 H 
ATOM     64  H   LIG d   1       9.312  -0.378  -6.720  0.00  0.00     0.026 H 
ENDBRANCH  47  61
ENDBRANCH   1  44
TORSDOF 15
ENDMDL
MODEL 6
REMARK VINA RESULT:      -4.7      2.412      4.527
REMARK  15 active torsions:
REMARK  status: ('A' for Active; 'I' for Inactive)
REMARK    1  A    between atoms: C_1  and  C_2 
REMARK    2  A    between atoms: C_2  and  C_3 
REMARK    3  A    between atoms: C_2  and  C_4 
REMARK    4  A    between atoms: C_4  and  C_6 
REMARK    5  A    between atoms: C_4  and  C_19 
REMARK    6  A    between atoms: C_6  and  C_7 
REMARK    7  A    between atoms: C_7  and  N_62 
REMARK    8  A    between atoms: C_8  and  C_9 
REMARK    9  A    between atoms: C_8  and  N_62 
REMARK   10  A    between atoms: C_12  and  O_17 
REMARK   11  A    between atoms: C_13  and  O_15 
REMARK   12  A    between atoms: O_15  and  C_16 
REMARK   13  A    between atoms: O_17  and  C_18 
REMARK   14  A    between atoms: C_24  and  C_26 
REMARK   15  A    between atoms: C_24  and  C_27 
ROOT
ATOM      1  C   LIG d   1       5.529  -1.294  -3.810  0.00  0.00    -0.031 C 
ATOM      2  H   LIG d   1       5.518  -0.271  -4.187  0.00  0.00     0.031 H 
ENDROOT
BRANCH   1   3
ATOM      3  C   LIG d   1       5.028  -1.310  -2.365  0.00  0.00    -0.043 C 
ATOM      4  H   LIG d   1       5.812  -1.698  -1.713  0.00  0.00     0.030 H 
BRANCH   3   5
ATOM      5  C   LIG d   1       4.664   0.112  -1.934  0.00  0.00    -0.062 C 
ATOM      6  H   LIG d   1       3.839   0.076  -1.221  0.00  0.00     0.023 H 
ATOM      7  H   LIG d   1       5.528   0.583  -1.466  0.00  0.00     0.023 H 
ATOM      8  H   LIG d   1       4.363   0.691  -2.807  0.00  0.00     0.023 H 
ENDBRANCH   3   5
BRANCH   3   9
ATOM      9  C   LIG d   1       3.792  -2.205  -2.263  0.00  0.00    -0.062 C 
ATOM     10  H   LIG d   1       3.286  -2.236  -3.229  0.00  0.00     0.023 H 
ATOM     11  H   LIG d   1       4.095  -3.213  -1.980  0.00  0.00     0.023 H 
ATOM     12  H   LIG d   1       3.113  -1.804  -1.510  0.00  0.00     0.023 H 
ENDBRANCH   3   9
ENDBRANCH   1   3
BRANCH   1  13
ATOM     13  C   LIG d   1       4.617  -2.166  -4.675  0.00  0.00    -0.009 C 
ATOM     14  H   LIG d   1       5.137  -3.087  -4.938  0.00  0.00     0.032 H 
ATOM     15  H   LIG d   1       3.711  -2.407  -4.120  0.00  0.00     0.032 H 
BRANCH  13  16
ATOM     16  C   LIG d   1       4.247  -1.407  -5.951  0.00  0.00    -0.033 C 
ATOM     17  H   LIG d   1       5.113  -1.362  -6.611  0.00  0.00     0.081 H 
ATOM     18  H   LIG d   1       3.431  -1.923  -6.457  0.00  0.00     0.081 H 
BRANCH  16  19
ATOM     19  N   LIG d   1       3.824  -0.039  -5.594  0.00  0.00     0.230 N 
ATOM     20  H   LIG d   1       4.591   0.613  -5.789  0.00  0.00     0.202 HD
ATOM     21  H   LIG d   1       3.592  -0.006  -4.595  0.00  0.00     0.202 HD
BRANCH  19  22
ATOM     22  C   LIG d   1       2.639   0.351  -6.382  0.00  0.00    -0.008 C 
ATOM     23  H   LIG d   1       1.856  -0.397  -6.261  0.00  0.00     0.087 H 
ATOM     24  H   LIG d   1       2.275   1.319  -6.040  0.00  0.00     0.087 H 
BRANCH  22  25
ATOM     25  C   LIG d   1       3.024   0.446  -7.836  0.00  0.00     0.001 A 
ATOM     26  C   LIG d   1       4.171   1.122  -8.205  0.00  0.00    -0.008 A 
ATOM     27  C   LIG d   1       4.526   1.210  -9.541  0.00  0.00     0.162 A 
ATOM     28  H   LIG d   1       4.793   1.583  -7.450  0.00  0.00     0.066 H 
ATOM     29  C   LIG d   1       3.724   0.615 -10.511  0.00  0.00     0.162 A 
ATOM     30  C   LIG d   1       2.576  -0.062 -10.135  0.00  0.00    -0.016 A 
ATOM     31  C   LIG d   1       2.230  -0.150  -8.799  0.00  0.00    -0.050 A 
ATOM     32  H   LIG d   1       1.951  -0.525 -10.885  0.00  0.00     0.066 H 
ATOM     33  H   LIG d   1       1.337  -0.682  -8.508  0.00  0.00     0.062 H 
BRANCH  27  34
ATOM     34  O   LIG d   1       5.654   1.876  -9.904  0.00  0.00    -0.491 OA
BRANCH  34  35
ATOM     35  C   LIG d   1       6.706   1.947  -8.939  0.00  0.00     0.079 C 
ATOM     36  H   LIG d   1       6.539   2.802  -8.284  0.00  0.00     0.066 H 
ATOM     37  H   LIG d   1       6.718   1.032  -8.347  0.00  0.00     0.066 H 
ATOM     38  H   LIG d   1       7.662   2.062  -9.450  0.00  0.00     0.066 H 
ENDBRANCH  34  35
ENDBRANCH  27  34
BRANCH  29  39
ATOM     39  O   LIG d   1       4.068   0.697 -11.824  0.00  0.00    -0.491 OA
BRANCH  39  40
ATOM     40  C   LIG d   1       4.501  -0.508 -12.458  0.00  0.00     0.079 C 
ATOM     41  H   LIG d   1       4.982  -1.153 -11.722  0.00  0.00     0.066 H 
ATOM     42  H   LIG d   1       3.641  -1.024 -12.885  0.00  0.00     0.066 H 
ATOM     43  H   LIG d   1       5.211  -0.268 -13.249  0.00  0.00     0.066 H 
ENDBRANCH  39  40
ENDBRANCH  29  39
ENDBRANCH  22  25
ENDBRANCH  19  22
ENDBRANCH  16  19
ENDBRANCH  13  16
ENDBRANCH   1  13
BRANCH   1  44
ATOM     44  C   LIG d   1       6.957  -1.842  -3.861  0.00  0.00    -0.033 C 
ATOM     45  H   LIG d   1       7.405  -1.785  -2.869  0.00  0.00     0.030 H 
ATOM     46  C   LIG d   1       6.930  -3.300  -4.328  0.00  0.00    -0.021 C 
ATOM     47  C   LIG d   1       8.366  -3.815  -4.451  0.00  0.00     0.064 C 
ATOM     48  H   LIG d   1       6.435  -3.363  -5.297  0.00  0.00     0.029 H 
ATOM     49  H   LIG d   1       6.387  -3.906  -3.602  0.00  0.00     0.029 H 
ATOM     50  O   LIG d   1       9.092  -2.986  -5.361  0.00  0.00    -0.374 OA
ATOM     51  C   LIG d   1       9.191  -1.620  -4.953  0.00  0.00     0.049 C 
ATOM     52  C   LIG d   1       7.787  -1.016  -4.849  0.00  0.00    -0.026 C 
ATOM     53  H   LIG d   1       9.682  -1.565  -3.981  0.00  0.00     0.056 H 
ATOM     54  H   LIG d   1       9.772  -1.062  -5.686  0.00  0.00     0.056 H 
ATOM     55  H   LIG d   1       7.858   0.013  -4.495  0.00  0.00     0.029 H 
ATOM     56  H   LIG d   1       7.310  -1.033  -5.829  0.00  0.00     0.029 H 
BRANCH  47  57
ATOM     57  C   LIG d   1       8.349  -5.252  -4.975  0.00  0.00    -0.036 C 
ATOM     58  H   LIG d   1       7.768  -5.296  -5.896  0.00  0.00     0.026 H 
ATOM     59  H   LIG d   1       9.371  -5.578  -5.174  0.00  0.00     0.026 H 
ATOM     60  H   LIG d   1       7.898  -5.906  -4.229  0.00  0.00     0.026 H 
ENDBRANCH  47  57
BRANCH  47  61
ATOM     61  C   LIG d   1       9.041  -3.779  -3.079  0.00  0.00    -0.036 C 
ATOM     62  H   LIG d   1       9.234  -2.745  -2.795  0.00  0.00     0.026 H 
ATOM     63  H   LIG d   1       8.387  -4.243  -2.340  0.00  0.00     0.026 H 
ATOM     64  H   LIG d   1       9.984  -4.325  -3.122  0.00  0.00     0.026 H 
ENDBRANCH  47  61
ENDBRANCH   1  44
TORSDOF 15
ENDMDL
MODEL 7
REMARK VINA RESULT:      -4.6      2.212      5.570
REMARK  15 active torsions:
REMARK  status: ('A' for Active; 'I' for Inactive)
REMARK    1  A    between atoms: C_1  and  C_2 
REMARK    2  A    between atoms: C_2  and  C_3 
REMARK    3  A    between atoms: C_2  and  C_4 
REMARK    4  A    between atoms: C_4  and  C_6 
REMARK    5  A    between atoms: C_4  and  C_19 
REMARK    6  A    between atoms: C_6  and  C_7 
REMARK    7  A    between atoms: C_7  and  N_62 
REMARK    8  A    between atoms: C_8  and  C_9 
REMARK    9  A    between atoms: C_8  and  N_62 
REMARK   10  A    between atoms: C_12  and  O_17 
REMARK   11  A    between atoms: C_13  and  O_15 
REMARK   12  A    between atoms: O_15  and  C_16 
REMARK   13  A    between atoms: O_17  and  C_18 
REMARK   14  A    between atoms: C_24  and  C_26 
REMARK   15  A    between atoms: C_24  and  C_27 
ROOT
ATOM      1  C   LIG d   1       4.844  -3.423  -8.566  0.00  0.00    -0.031 C 
ATOM      2  H   LIG d   1       5.837  -3.804  -8.330  0.00  0.00     0.031 H 
ENDROOT
BRANCH   1   3
ATOM      3  C   LIG d   1       4.522  -3.710 -10.034  0.00  0.00    -0.043 C 
ATOM      4  H   LIG d   1       3.702  -4.426 -10.092  0.00  0.00     0.030 H 
BRANCH   3   5
ATOM      5  C   LIG d   1       4.116  -2.411 -10.731  0.00  0.00    -0.062 C 
ATOM      6  H   LIG d   1       4.418  -1.560 -10.120  0.00  0.00     0.023 H 
ATOM      7  H   LIG d   1       4.604  -2.352 -11.704  0.00  0.00     0.023 H 
ATOM      8  H   LIG d   1       3.034  -2.393 -10.867  0.00  0.00     0.023 H 
ENDBRANCH   3   5
BRANCH   3   9
ATOM      9  C   LIG d   1       5.758  -4.292 -10.723  0.00  0.00    -0.062 C 
ATOM     10  H   LIG d   1       6.480  -4.607  -9.968  0.00  0.00     0.023 H 
ATOM     11  H   LIG d   1       5.467  -5.152 -11.326  0.00  0.00     0.023 H 
ATOM     12  H   LIG d   1       6.209  -3.534 -11.362  0.00  0.00     0.023 H 
ENDBRANCH   3   9
ENDBRANCH   1   3
BRANCH   1  13
ATOM     13  C   LIG d   1       3.809  -4.109  -7.673  0.00  0.00    -0.009 C 
ATOM     14  H   LIG d   1       3.331  -3.367  -7.035  0.00  0.00     0.032 H 
ATOM     15  H   LIG d   1       3.055  -4.591  -8.295  0.00  0.00     0.032 H 
BRANCH  13  16
ATOM     16  C   LIG d   1       4.502  -5.160  -6.804  0.00  0.00    -0.033 C 
ATOM     17  H   LIG d   1       3.972  -6.109  -6.889  0.00  0.00     0.081 H 
ATOM     18  H   LIG d   1       5.531  -5.288  -7.139  0.00  0.00     0.081 H 
BRANCH  16  19
ATOM     19  N   LIG d   1       4.490  -4.710  -5.399  0.00  0.00     0.230 N 
ATOM     20  H   LIG d   1       4.393  -5.525  -4.783  0.00  0.00     0.202 HD
ATOM     21  H   LIG d   1       3.696  -4.075  -5.253  0.00  0.00     0.202 HD
BRANCH  19  22
ATOM     22  C   LIG d   1       5.744  -4.002  -5.078  0.00  0.00    -0.008 C 
ATOM     23  H   LIG d   1       6.426  -4.680  -4.564  0.00  0.00     0.087 H 
ATOM     24  H   LIG d   1       6.209  -3.646  -5.997  0.00  0.00     0.087 H 
BRANCH  22  25
ATOM     25  C   LIG d   1       5.434  -2.829  -4.185  0.00  0.00     0.001 A 
ATOM     26  C   LIG d   1       6.343  -1.795  -4.063  0.00  0.00    -0.008 A 
ATOM     27  C   LIG d   1       6.060  -0.715  -3.242  0.00  0.00     0.162 A 
ATOM     28  H   LIG d   1       7.275  -1.828  -4.608  0.00  0.00     0.066 H 
ATOM     29  C   LIG d   1       4.857  -0.675  -2.542  0.00  0.00     0.162 A 
ATOM     30  C   LIG d   1       3.951  -1.715  -2.668  0.00  0.00    -0.016 A 
ATOM     31  C   LIG d   1       4.237  -2.786  -3.493  0.00  0.00    -0.050 A 
ATOM     32  H   LIG d   1       3.017  -1.686  -2.126  0.00  0.00     0.066 H 
ATOM     33  H   LIG d   1       3.527  -3.593  -3.595  0.00  0.00     0.062 H 
BRANCH  27  34
ATOM     34  O   LIG d   1       6.954   0.302  -3.121  0.00  0.00    -0.491 OA
BRANCH  34  35
ATOM     35  C   LIG d   1       7.783   0.575  -4.252  0.00  0.00     0.079 C 
ATOM     36  H   LIG d   1       8.278   1.537  -4.115  0.00  0.00     0.066 H 
ATOM     37  H   LIG d   1       8.533  -0.209  -4.351  0.00  0.00     0.066 H 
ATOM     38  H   LIG d   1       7.169   0.608  -5.153  0.00  0.00     0.066 H 
ENDBRANCH  34  35
ENDBRANCH  27  34
BRANCH  29  39
ATOM     39  O   LIG d   1       4.574   0.383  -1.735  0.00  0.00    -0.491 OA
BRANCH  39  40
ATOM     40  C   LIG d   1       3.711   1.390  -2.266  0.00  0.00     0.079 C 
ATOM     41  H   LIG d   1       4.142   1.792  -3.182  0.00  0.00     0.066 H 
ATOM     42  H   LIG d   1       2.735   0.955  -2.485  0.00  0.00     0.066 H 
ATOM     43  H   LIG d   1       3.595   2.191  -1.536  0.00  0.00     0.066 H 
ENDBRANCH  39  40
ENDBRANCH  29  39
ENDBRANCH  22  25
ENDBRANCH  19  22
ENDBRANCH  16  19
ENDBRANCH  13  16
ENDBRANCH   1  13
BRANCH   1  44
ATOM     44  C   LIG d   1       4.807  -1.912  -8.323  0.00  0.00    -0.033 C 
ATOM     45  H   LIG d   1       4.516  -1.402  -9.240  0.00  0.00     0.030 H 
ATOM     46  C   LIG d   1       3.794  -1.596  -7.217  0.00  0.00    -0.021 C 
ATOM     47  C   LIG d   1       3.821  -0.094  -6.926  0.00  0.00     0.064 C 
ATOM     48  H   LIG d   1       4.056  -2.148  -6.315  0.00  0.00     0.029 H 
ATOM     49  H   LIG d   1       2.795  -1.886  -7.544  0.00  0.00     0.029 H 
ATOM     50  O   LIG d   1       5.144   0.294  -6.552  0.00  0.00    -0.374 OA
ATOM     51  C   LIG d   1       6.127   0.066  -7.564  0.00  0.00     0.049 C 
ATOM     52  C   LIG d   1       6.193  -1.430  -7.882  0.00  0.00    -0.026 C 
ATOM     53  H   LIG d   1       5.855   0.617  -8.465  0.00  0.00     0.056 H 
ATOM     54  H   LIG d   1       7.100   0.405  -7.210  0.00  0.00     0.056 H 
ATOM     55  H   LIG d   1       6.910  -1.601  -8.685  0.00  0.00     0.029 H 
ATOM     56  H   LIG d   1       6.504  -1.978  -6.992  0.00  0.00     0.029 H 
BRANCH  47  57
ATOM     57  C   LIG d   1       2.855   0.221  -5.782  0.00  0.00    -0.036 C 
ATOM     58  H   LIG d   1       3.422   0.521  -4.901  0.00  0.00     0.026 H 
ATOM     59  H   LIG d   1       2.190   1.032  -6.080  0.00  0.00     0.026 H 
ATOM     60  H   LIG d   1       2.266  -0.666  -5.549  0.00  0.00     0.026 H 
ENDBRANCH  47  57
BRANCH  47  61
ATOM     61  C   LIG d   1       3.398   0.676  -8.178  0.00  0.00    -0.036 C 
ATOM     62  H   LIG d   1       2.312   0.757  -8.206  0.00  0.00     0.026 H 
ATOM     63  H   LIG d   1       3.836   1.675  -8.156  0.00  0.00     0.026 H 
ATOM     64  H   LIG d   1       3.745   0.147  -9.066  0.00  0.00     0.026 H 
ENDBRANCH  47  61
ENDBRANCH   1  44
TORSDOF 15
ENDMDL
MODEL 8
REMARK VINA RESULT:      -4.6      2.540      4.706
REMARK  15 active torsions:
REMARK  status: ('A' for Active; 'I' for Inactive)
REMARK    1  A    between atoms: C_1  and  C_2 
REMARK    2  A    between atoms: C_2  and  C_3 
REMARK    3  A    between atoms: C_2  and  C_4 
REMARK    4  A    between atoms: C_4  and  C_6 
REMARK    5  A    between atoms: C_4  and  C_19 
REMARK    6  A    between atoms: C_6  and  C_7 
REMARK    7  A    between atoms: C_7  and  N_62 
REMARK    8  A    between atoms: C_8  and  C_9 
REMARK    9  A    between atoms: C_8  and  N_62 
REMARK   10  A    between atoms: C_12  and  O_17 
REMARK   11  A    between atoms: C_13  and  O_15 
REMARK   12  A    between atoms: O_15  and  C_16 
REMARK   13  A    between atoms: O_17  and  C_18 
REMARK   14  A    between atoms: C_24  and  C_26 
REMARK   15  A    between atoms: C_24  and  C_27 
ROOT
ATOM      1  C   LIG d   1       4.816  -0.142  -3.994  0.00  0.00    -0.031 C 
ATOM      2  H   LIG d   1       4.870   0.916  -4.252  0.00  0.00     0.031 H 
ENDROOT
BRANCH   1   3
ATOM      3  C   LIG d   1       5.040  -0.312  -2.491  0.00  0.00    -0.043 C 
ATOM      4  H   LIG d   1       6.104  -0.448  -2.296  0.00  0.00     0.030 H 
BRANCH   3   5
ATOM      5  C   LIG d   1       4.541   0.932  -1.755  0.00  0.00    -0.062 C 
ATOM      6  H   LIG d   1       4.927   0.931  -0.735  0.00  0.00     0.023 H 
ATOM      7  H   LIG d   1       4.888   1.825  -2.274  0.00  0.00     0.023 H 
ATOM      8  H   LIG d   1       3.451   0.928  -1.730  0.00  0.00     0.023 H 
ENDBRANCH   3   5
BRANCH   3   9
ATOM      9  C   LIG d   1       4.270  -1.539  -1.996  0.00  0.00    -0.062 C 
ATOM     10  H   LIG d   1       4.784  -1.966  -1.134  0.00  0.00     0.023 H 
ATOM     11  H   LIG d   1       3.262  -1.243  -1.708  0.00  0.00     0.023 H 
ATOM     12  H   LIG d   1       4.219  -2.281  -2.792  0.00  0.00     0.023 H 
ENDBRANCH   3   9
ENDBRANCH   1   3
BRANCH   1  13
ATOM     13  C   LIG d   1       3.438  -0.689  -4.370  0.00  0.00    -0.009 C 
ATOM     14  H   LIG d   1       3.556  -1.569  -5.002  0.00  0.00     0.032 H 
ATOM     15  H   LIG d   1       2.896  -0.964  -3.465  0.00  0.00     0.032 H 
BRANCH  13  16
ATOM     16  C   LIG d   1       2.653   0.383  -5.129  0.00  0.00    -0.033 C 
ATOM     17  H   LIG d   1       1.668   0.500  -4.677  0.00  0.00     0.081 H 
ATOM     18  H   LIG d   1       3.190   1.329  -5.080  0.00  0.00     0.081 H 
BRANCH  16  19
ATOM     19  N   LIG d   1       2.506  -0.032  -6.537  0.00  0.00     0.230 N 
ATOM     20  H   LIG d   1       1.528  -0.289  -6.714  0.00  0.00     0.202 HD
ATOM     21  H   LIG d   1       3.110  -0.843  -6.717  0.00  0.00     0.202 HD
BRANCH  19  22
ATOM     22  C   LIG d   1       2.891   1.071  -7.438  0.00  0.00    -0.008 C 
ATOM     23  H   LIG d   1       2.156   1.872  -7.371  0.00  0.00     0.087 H 
ATOM     24  H   LIG d   1       3.872   1.451  -7.153  0.00  0.00     0.087 H 
BRANCH  22  25
ATOM     25  C   LIG d   1       2.944   0.556  -8.854  0.00  0.00     0.001 A 
ATOM     26  C   LIG d   1       2.075  -0.440  -9.259  0.00  0.00    -0.008 A 
ATOM     27  C   LIG d   1       2.122  -0.915 -10.559  0.00  0.00     0.162 A 
ATOM     28  H   LIG d   1       1.358  -0.848  -8.561  0.00  0.00     0.066 H 
ATOM     29  C   LIG d   1       3.046  -0.386 -11.456  0.00  0.00     0.162 A 
ATOM     30  C   LIG d   1       3.914   0.611 -11.044  0.00  0.00    -0.016 A 
ATOM     31  C   LIG d   1       3.858   1.084  -9.746  0.00  0.00    -0.050 A 
ATOM     32  H   LIG d   1       4.632   1.024 -11.738  0.00  0.00     0.066 H 
ATOM     33  H   LIG d   1       4.532   1.866  -9.428  0.00  0.00     0.062 H 
BRANCH  27  34
ATOM     34  O   LIG d   1       1.268  -1.895 -10.959  0.00  0.00    -0.491 OA
BRANCH  34  35
ATOM     35  C   LIG d   1       1.416  -3.175 -10.341  0.00  0.00     0.079 C 
ATOM     36  H   LIG d   1       2.336  -3.643 -10.691  0.00  0.00     0.066 H 
ATOM     37  H   LIG d   1       1.458  -3.054  -9.259  0.00  0.00     0.066 H 
ATOM     38  H   LIG d   1       0.565  -3.805 -10.603  0.00  0.00     0.066 H 
ENDBRANCH  34  35
ENDBRANCH  27  34
BRANCH  29  39
ATOM     39  O   LIG d   1       3.096  -0.848 -12.735  0.00  0.00    -0.491 OA
BRANCH  39  40
ATOM     40  C   LIG d   1       4.302  -0.612 -13.463  0.00  0.00     0.079 C 
ATOM     41  H   LIG d   1       5.125  -0.466 -12.764  0.00  0.00     0.066 H 
ATOM     42  H   LIG d   1       4.515  -1.471 -14.101  0.00  0.00     0.066 H 
ATOM     43  H   LIG d   1       4.186   0.279 -14.080  0.00  0.00     0.066 H 
ENDBRANCH  39  40
ENDBRANCH  29  39
ENDBRANCH  22  25
ENDBRANCH  19  22
ENDBRANCH  16  19
ENDBRANCH  13  16
ENDBRANCH   1  13
BRANCH   1  44
ATOM     44  C   LIG d   1       5.896  -0.909  -4.761  0.00  0.00    -0.033 C 
ATOM     45  H   LIG d   1       5.607  -1.956  -4.848  0.00  0.00     0.030 H 
ATOM     46  C   LIG d   1       6.059  -0.305  -6.159  0.00  0.00    -0.021 C 
ATOM     47  C   LIG d   1       7.194  -1.027  -6.889  0.00  0.00     0.064 C 
ATOM     48  H   LIG d   1       6.298   0.755  -6.072  0.00  0.00     0.029 H 
ATOM     49  H   LIG d   1       5.131  -0.425  -6.719  0.00  0.00     0.029 H 
ATOM     50  O   LIG d   1       8.397  -0.916  -6.125  0.00  0.00    -0.374 OA
ATOM     51  C   LIG d   1       8.319  -1.505  -4.826  0.00  0.00     0.049 C 
ATOM     52  C   LIG d   1       7.228  -0.803  -4.012  0.00  0.00    -0.026 C 
ATOM     53  H   LIG d   1       8.076  -2.564  -4.921  0.00  0.00     0.056 H 
ATOM     54  H   LIG d   1       9.277  -1.396  -4.319  0.00  0.00     0.056 H 
ATOM     55  H   LIG d   1       7.137  -1.280  -3.036  0.00  0.00     0.029 H 
ATOM     56  H   LIG d   1       7.491   0.247  -3.883  0.00  0.00     0.029 H 
BRANCH  47  57
ATOM     57  C   LIG d   1       7.403  -0.389  -8.264  0.00  0.00    -0.036 C 
ATOM     58  H   LIG d   1       6.510  -0.537  -8.872  0.00  0.00     0.026 H 
ATOM     59  H   LIG d   1       7.589   0.678  -8.145  0.00  0.00     0.026 H 
ATOM     60  H   LIG d   1       8.257  -0.854  -8.755  0.00  0.00     0.026 H 
ENDBRANCH  47  57
BRANCH  47  61
ATOM     61  C   LIG d   1       6.833  -2.503  -7.060  0.00  0.00    -0.036 C 
ATOM     62  H   LIG d   1       5.854  -2.692  -6.621  0.00  0.00     0.026 H 
ATOM     63  H   LIG d   1       6.809  -2.751  -8.122  0.00  0.00     0.026 H 
ATOM     64  H   LIG d   1       7.580  -3.121  -6.561  0.00  0.00     0.026 H 
ENDBRANCH  47  61
ENDBRANCH   1  44
TORSDOF 15
ENDMDL
MODEL 9
REMARK VINA RESULT:      -4.6      4.609      7.178
REMARK  15 active torsions:
REMARK  status: ('A' for Active; 'I' for Inactive)
REMARK    1  A    between atoms: C_1  and  C_2 
REMARK    2  A    between atoms: C_2  and  C_3 
REMARK    3  A    between atoms: C_2  and  C_4 
REMARK    4  A    between atoms: C_4  and  C_6 
REMARK    5  A    between atoms: C_4  and  C_19 
REMARK    6  A    between atoms: C_6  and  C_7 
REMARK    7  A    between atoms: C_7  and  N_62 
REMARK    8  A    between atoms: C_8  and  C_9 
REMARK    9  A    between atoms: C_8  and  N_62 
REMARK   10  A    between atoms: C_12  and  O_17 
REMARK   11  A    between atoms: C_13  and  O_15 
REMARK   12  A    between atoms: O_15  and  C_16 
REMARK   13  A    between atoms: O_17  and  C_18 
REMARK   14  A    between atoms: C_24  and  C_26 
REMARK   15  A    between atoms: C_24  and  C_27 
ROOT
ATOM      1  C   LIG d   1       5.938  -7.745  -6.495  0.00  0.00    -0.031 C 
ATOM      2  H   LIG d   1       5.697  -7.668  -7.555  0.00  0.00     0.031 H 
ENDROOT
BRANCH   1   3
ATOM      3  C   LIG d   1       7.437  -7.516  -6.293  0.00  0.00    -0.043 C 
ATOM      4  H   LIG d   1       7.852  -7.029  -7.176  0.00  0.00     0.030 H 
BRANCH   3   5
ATOM      5  C   LIG d   1       7.658  -6.626  -5.069  0.00  0.00    -0.062 C 
ATOM      6  H   LIG d   1       7.051  -6.991  -4.240  0.00  0.00     0.023 H 
ATOM      7  H   LIG d   1       8.710  -6.650  -4.787  0.00  0.00     0.023 H 
ATOM      8  H   LIG d   1       7.368  -5.602  -5.307  0.00  0.00     0.023 H 
ENDBRANCH   3   5
BRANCH   3   9
ATOM      9  C   LIG d   1       8.134  -8.861  -6.077  0.00  0.00    -0.062 C 
ATOM     10  H   LIG d   1       7.392  -9.616  -5.815  0.00  0.00     0.023 H 
ATOM     11  H   LIG d   1       8.644  -9.157  -6.994  0.00  0.00     0.023 H 
ATOM     12  H   LIG d   1       8.859  -8.769  -5.270  0.00  0.00     0.023 H 
ENDBRANCH   3   9
ENDBRANCH   1   3
BRANCH   1  13
ATOM     13  C   LIG d   1       5.151  -6.690  -5.715  0.00  0.00    -0.009 C 
ATOM     14  H   LIG d   1       4.479  -7.183  -5.013  0.00  0.00     0.032 H 
ATOM     15  H   LIG d   1       5.844  -6.052  -5.166  0.00  0.00     0.032 H 
BRANCH  13  16
ATOM     16  C   LIG d   1       4.336  -5.837  -6.690  0.00  0.00    -0.033 C 
ATOM     17  H   LIG d   1       4.954  -5.577  -7.549  0.00  0.00     0.081 H 
ATOM     18  H   LIG d   1       3.467  -6.401  -7.026  0.00  0.00     0.081 H 
BRANCH  16  19
ATOM     19  N   LIG d   1       3.896  -4.607  -6.005  0.00  0.00     0.230 N 
ATOM     20  H   LIG d   1       3.102  -4.826  -5.393  0.00  0.00     0.202 HD
ATOM     21  H   LIG d   1       3.608  -3.914  -6.705  0.00  0.00     0.202 HD
BRANCH  19  22
ATOM     22  C   LIG d   1       4.997  -4.052  -5.194  0.00  0.00    -0.008 C 
ATOM     23  H   LIG d   1       5.294  -4.776  -4.436  0.00  0.00     0.087 H 
ATOM     24  H   LIG d   1       5.847  -3.827  -5.837  0.00  0.00     0.087 H 
BRANCH  22  25
ATOM     25  C   LIG d   1       4.526  -2.787  -4.523  0.00  0.00     0.001 A 
ATOM     26  C   LIG d   1       4.253  -1.664  -5.281  0.00  0.00    -0.008 A 
ATOM     27  C   LIG d   1       3.820  -0.500  -4.667  0.00  0.00     0.162 A 
ATOM     28  H   LIG d   1       4.379  -1.693  -6.355  0.00  0.00     0.066 H 
ATOM     29  C   LIG d   1       3.660  -0.466  -3.285  0.00  0.00     0.162 A 
ATOM     30  C   LIG d   1       3.934  -1.595  -2.531  0.00  0.00    -0.016 A 
ATOM     31  C   LIG d   1       4.360  -2.755  -3.151  0.00  0.00    -0.050 A 
ATOM     32  H   LIG d   1       3.810  -1.572  -1.458  0.00  0.00     0.066 H 
ATOM     33  H   LIG d   1       4.569  -3.636  -2.562  0.00  0.00     0.062 H 
BRANCH  27  34
ATOM     34  O   LIG d   1       3.553   0.605  -5.412  0.00  0.00    -0.491 OA
BRANCH  34  35
ATOM     35  C   LIG d   1       2.901   0.401  -6.667  0.00  0.00     0.079 C 
ATOM     36  H   LIG d   1       2.492   1.347  -7.022  0.00  0.00     0.066 H 
ATOM     37  H   LIG d   1       3.619   0.020  -7.392  0.00  0.00     0.066 H 
ATOM     38  H   LIG d   1       2.092  -0.320  -6.542  0.00  0.00     0.066 H 
ENDBRANCH  34  35
ENDBRANCH  27  34
BRANCH  29  39
ATOM     39  O   LIG d   1       3.234   0.673  -2.676  0.00  0.00    -0.491 OA
BRANCH  39  40
ATOM     40  C   LIG d   1       4.188   1.381  -1.883  0.00  0.00     0.079 C 
ATOM     41  H   LIG d   1       4.771   0.671  -1.297  0.00  0.00     0.066 H 
ATOM     42  H   LIG d   1       4.855   1.946  -2.535  0.00  0.00     0.066 H 
ATOM     43  H   LIG d   1       3.668   2.066  -1.213  0.00  0.00     0.066 H 
ENDBRANCH  39  40
ENDBRANCH  29  39
ENDBRANCH  22  25
ENDBRANCH  19  22
ENDBRANCH  16  19
ENDBRANCH  13  16
ENDBRANCH   1  13
BRANCH   1  44
ATOM     44  C   LIG d   1       5.562  -9.140  -5.987  0.00  0.00    -0.033 C 
ATOM     45  H   LIG d   1       6.467  -9.691  -5.733  0.00  0.00     0.030 H 
ATOM     46  C   LIG d   1       4.675  -9.011  -4.745  0.00  0.00    -0.021 C 
ATOM     47  C   LIG d   1       4.241 -10.407  -4.292  0.00  0.00     0.064 C 
ATOM     48  H   LIG d   1       3.795  -8.415  -4.987  0.00  0.00     0.029 H 
ATOM     49  H   LIG d   1       5.235  -8.526  -3.945  0.00  0.00     0.029 H 
ATOM     50  O   LIG d   1       3.555 -11.062  -5.361  0.00  0.00    -0.374 OA
ATOM     51  C   LIG d   1       4.351 -11.252  -6.533  0.00  0.00     0.049 C 
ATOM     52  C   LIG d   1       4.791  -9.890  -7.077  0.00  0.00    -0.026 C 
ATOM     53  H   LIG d   1       5.231 -11.845  -6.283  0.00  0.00     0.056 H 
ATOM     54  H   LIG d   1       3.765 -11.773  -7.290  0.00  0.00     0.056 H 
ATOM     55  H   LIG d   1       5.434 -10.035  -7.945  0.00  0.00     0.029 H 
ATOM     56  H   LIG d   1       3.912  -9.313  -7.365  0.00  0.00     0.029 H 
BRANCH  47  57
ATOM     57  C   LIG d   1       3.305 -10.283  -3.088  0.00  0.00    -0.036 C 
ATOM     58  H   LIG d   1       3.180 -11.261  -2.623  0.00  0.00     0.026 H 
ATOM     59  H   LIG d   1       3.733  -9.589  -2.364  0.00  0.00     0.026 H 
ATOM     60  H   LIG d   1       2.335  -9.911  -3.417  0.00  0.00     0.026 H 
ENDBRANCH  47  57
BRANCH  47  61
ATOM     61  C   LIG d   1       5.473 -11.223  -3.899  0.00  0.00    -0.036 C 
ATOM     62  H   LIG d   1       5.165 -12.089  -3.315  0.00  0.00     0.026 H 
ATOM     63  H   LIG d   1       5.990 -11.556  -4.800  0.00  0.00     0.026 H 
ATOM     64  H   LIG d   1       6.145 -10.604  -3.303  0.00  0.00     0.026 H 
ENDBRANCH  47  61
ENDBRANCH   1  44
TORSDOF 15
ENDMDL
