MODEL 1
REMARK VINA RESULT:      -7.1      0.000      0.000
REMARK  7 active torsions:
REMARK  status: ('A' for Active; 'I' for Inactive)
REMARK    1  A    between atoms: C_1  and  C_2 
REMARK    2  A    between atoms: C_2  and  O_3 
REMARK    3  A    between atoms: O_3  and  C_4 
REMARK    4  A    between atoms: C_7  and  N_10 
REMARK       I    between atoms: N_10  and  C_11 
REMARK       I    between atoms: C_11  and  N_13 
REMARK    5  A    between atoms: N_13  and  C_14 
REMARK    6  A    between atoms: C_14  and  C_15 
REMARK    7  A    between atoms: C_14  and  C_19 
ROOT
ATOM      1  C   LIG d   1       3.597   0.492 -10.585  0.00  0.00     0.121 A 
ATOM      2  C   LIG d   1       3.478   1.602  -9.760  0.00  0.00    -0.018 A 
ATOM      3  C   LIG d   1       3.143   1.441  -8.431  0.00  0.00    -0.037 A 
ATOM      4  C   LIG d   1       2.924   0.171  -7.918  0.00  0.00     0.035 A 
ATOM      5  C   LIG d   1       3.047  -0.940  -8.742  0.00  0.00    -0.037 A 
ATOM      6  C   LIG d   1       3.378  -0.779 -10.073  0.00  0.00    -0.018 A 
ATOM      7  H   LIG d   1       3.649   2.591 -10.159  0.00  0.00     0.066 H 
ATOM      8  H   LIG d   1       3.051   2.306  -7.789  0.00  0.00     0.064 H 
ATOM      9  H   LIG d   1       2.882  -1.930  -8.343  0.00  0.00     0.064 H 
ATOM     10  H   LIG d   1       3.470  -1.642 -10.715  0.00  0.00     0.066 H 
ENDROOT
BRANCH   4  11
ATOM     11  N   LIG d   1       2.583   0.007  -6.569  0.00  0.00    -0.270 N 
ATOM     12  C   LIG d   1       3.549  -0.046  -5.631  0.00  0.00     0.305 C 
ATOM     13  O   LIG d   1       4.719  -0.047  -5.962  0.00  0.00    -0.253 OA
ATOM     14  N   LIG d   1       3.219  -0.100  -4.325  0.00  0.00    -0.281 N 
ATOM     15  H   LIG d   1       2.286  -0.099  -4.061  0.00  0.00     0.151 HD
ATOM     16  H   LIG d   1       1.651  -0.071  -6.310  0.00  0.00     0.156 HD
BRANCH  14  17
ATOM     17  C   LIG d   1       4.270  -0.158  -3.306  0.00  0.00     0.215 C 
ATOM     18  H   LIG d   1       5.246  -0.179  -3.791  0.00  0.00     0.068 H 
BRANCH  17  19
ATOM     19  C   LIG d   1       4.175   1.075  -2.404  0.00  0.00     0.416 C 
ATOM     20  F   LIG d   1       5.056   0.934  -1.328  0.00  0.00    -0.168 F 
ATOM     21  F   LIG d   1       4.513   2.216  -3.139  0.00  0.00    -0.168 F 
ATOM     22  F   LIG d   1       2.867   1.201  -1.924  0.00  0.00    -0.168 F 
ENDBRANCH  17  19
BRANCH  17  23
ATOM     23  C   LIG d   1       4.092  -1.422  -2.461  0.00  0.00     0.416 C 
ATOM     24  F   LIG d   1       4.540  -1.177  -1.159  0.00  0.00    -0.168 F 
ATOM     25  F   LIG d   1       2.739  -1.774  -2.429  0.00  0.00    -0.168 F 
ATOM     26  F   LIG d   1       4.833  -2.466  -3.022  0.00  0.00    -0.168 F 
ENDBRANCH  17  23
ENDBRANCH  14  17
ENDBRANCH   4  11
BRANCH   1  27
ATOM     27  O   LIG d   1       3.927   0.650 -11.894  0.00  0.00    -0.492 OA
BRANCH  27  28
ATOM     28  C   LIG d   1       4.706  -0.385 -12.496  0.00  0.00     0.087 C 
ATOM     29  H   LIG d   1       5.705  -0.008 -12.715  0.00  0.00     0.069 H 
ATOM     30  H   LIG d   1       4.779  -1.231 -11.811  0.00  0.00     0.069 H 
BRANCH  28  31
ATOM     31  C   LIG d   1       4.036  -0.839 -13.795  0.00  0.00    -0.031 C 
ATOM     32  H   LIG d   1       3.047  -0.387 -13.870  0.00  0.00     0.026 H 
ATOM     33  H   LIG d   1       4.644  -0.528 -14.644  0.00  0.00     0.026 H 
ATOM     34  H   LIG d   1       3.941  -1.925 -13.794  0.00  0.00     0.026 H 
ENDBRANCH  28  31
ENDBRANCH  27  28
ENDBRANCH   1  27
TORSDOF 7
ENDMDL
MODEL 2
REMARK VINA RESULT:      -7.1      0.028      1.573
REMARK  7 active torsions:
REMARK  status: ('A' for Active; 'I' for Inactive)
REMARK    1  A    between atoms: C_1  and  C_2 
REMARK    2  A    between atoms: C_2  and  O_3 
REMARK    3  A    between atoms: O_3  and  C_4 
REMARK    4  A    between atoms: C_7  and  N_10 
REMARK       I    between atoms: N_10  and  C_11 
REMARK       I    between atoms: C_11  and  N_13 
REMARK    5  A    between atoms: N_13  and  C_14 
REMARK    6  A    between atoms: C_14  and  C_15 
REMARK    7  A    between atoms: C_14  and  C_19 
ROOT
ATOM      1  C   LIG d   1       3.587   0.486 -10.572  0.00  0.00     0.121 A 
ATOM      2  C   LIG d   1       3.362  -0.786 -10.065  0.00  0.00    -0.018 A 
ATOM      3  C   LIG d   1       3.029  -0.950  -8.735  0.00  0.00    -0.037 A 
ATOM      4  C   LIG d   1       2.918   0.157  -7.905  0.00  0.00     0.035 A 
ATOM      5  C   LIG d   1       3.137   1.430  -8.414  0.00  0.00    -0.037 A 
ATOM      6  C   LIG d   1       3.476   1.594  -9.742  0.00  0.00    -0.018 A 
ATOM      7  H   LIG d   1       3.448  -1.646 -10.711  0.00  0.00     0.066 H 
ATOM      8  H   LIG d   1       2.854  -1.940  -8.341  0.00  0.00     0.064 H 
ATOM      9  H   LIG d   1       3.047   2.292  -7.770  0.00  0.00     0.064 H 
ATOM     10  H   LIG d   1       3.651   2.583 -10.137  0.00  0.00     0.066 H 
ENDROOT
BRANCH   4  11
ATOM     11  N   LIG d   1       2.580  -0.010  -6.555  0.00  0.00    -0.270 N 
ATOM     12  C   LIG d   1       3.547  -0.062  -5.619  0.00  0.00     0.305 C 
ATOM     13  O   LIG d   1       4.717  -0.058  -5.953  0.00  0.00    -0.253 OA
ATOM     14  N   LIG d   1       3.220  -0.118  -4.313  0.00  0.00    -0.281 N 
ATOM     15  H   LIG d   1       2.287  -0.121  -4.047  0.00  0.00     0.151 HD
ATOM     16  H   LIG d   1       1.649  -0.091  -6.296  0.00  0.00     0.156 HD
BRANCH  14  17
ATOM     17  C   LIG d   1       4.272  -0.175  -3.296  0.00  0.00     0.215 C 
ATOM     18  H   LIG d   1       5.248  -0.189  -3.782  0.00  0.00     0.068 H 
BRANCH  17  19
ATOM     19  C   LIG d   1       4.172   1.054  -2.389  0.00  0.00     0.416 C 
ATOM     20  F   LIG d   1       2.864   1.174  -1.909  0.00  0.00    -0.168 F 
ATOM     21  F   LIG d   1       5.053   0.912  -1.313  0.00  0.00    -0.168 F 
ATOM     22  F   LIG d   1       4.509   2.199  -3.119  0.00  0.00    -0.168 F 
ENDBRANCH  17  19
BRANCH  17  23
ATOM     23  C   LIG d   1       4.102  -1.443  -2.456  0.00  0.00     0.416 C 
ATOM     24  F   LIG d   1       4.849  -2.481  -3.024  0.00  0.00    -0.168 F 
ATOM     25  F   LIG d   1       4.554  -1.203  -1.154  0.00  0.00    -0.168 F 
ATOM     26  F   LIG d   1       2.752  -1.803  -2.423  0.00  0.00    -0.168 F 
ENDBRANCH  17  23
ENDBRANCH  14  17
ENDBRANCH   4  11
BRANCH   1  27
ATOM     27  O   LIG d   1       3.915   0.648 -11.881  0.00  0.00    -0.492 OA
BRANCH  27  28
ATOM     28  C   LIG d   1       4.707  -0.377 -12.483  0.00  0.00     0.087 C 
ATOM     29  H   LIG d   1       5.717  -0.005 -12.650  0.00  0.00     0.069 H 
ATOM     30  H   LIG d   1       4.742  -1.244 -11.822  0.00  0.00     0.069 H 
BRANCH  28  31
ATOM     31  C   LIG d   1       4.085  -0.783 -13.821  0.00  0.00    -0.031 C 
ATOM     32  H   LIG d   1       3.004  -0.646 -13.776  0.00  0.00     0.026 H 
ATOM     33  H   LIG d   1       4.497  -0.161 -14.616  0.00  0.00     0.026 H 
ATOM     34  H   LIG d   1       4.310  -1.830 -14.025  0.00  0.00     0.026 H 
ENDBRANCH  28  31
ENDBRANCH  27  28
ENDBRANCH   1  27
TORSDOF 7
ENDMDL
MODEL 3
REMARK VINA RESULT:      -6.6      1.724      2.899
REMARK  7 active torsions:
REMARK  status: ('A' for Active; 'I' for Inactive)
REMARK    1  A    between atoms: C_1  and  C_2 
REMARK    2  A    between atoms: C_2  and  O_3 
REMARK    3  A    between atoms: O_3  and  C_4 
REMARK    4  A    between atoms: C_7  and  N_10 
REMARK       I    between atoms: N_10  and  C_11 
REMARK       I    between atoms: C_11  and  N_13 
REMARK    5  A    between atoms: N_13  and  C_14 
REMARK    6  A    between atoms: C_14  and  C_15 
REMARK    7  A    between atoms: C_14  and  C_19 
ROOT
ATOM      1  C   LIG d   1       1.970  -0.611 -10.243  0.00  0.00     0.121 A 
ATOM      2  C   LIG d   1       2.483  -1.743  -9.626  0.00  0.00    -0.018 A 
ATOM      3  C   LIG d   1       3.310  -1.616  -8.527  0.00  0.00    -0.037 A 
ATOM      4  C   LIG d   1       3.628  -0.356  -8.040  0.00  0.00     0.035 A 
ATOM      5  C   LIG d   1       3.111   0.776  -8.655  0.00  0.00    -0.037 A 
ATOM      6  C   LIG d   1       2.288   0.649  -9.756  0.00  0.00    -0.018 A 
ATOM      7  H   LIG d   1       2.235  -2.723 -10.005  0.00  0.00     0.066 H 
ATOM      8  H   LIG d   1       3.709  -2.498  -8.047  0.00  0.00     0.064 H 
ATOM      9  H   LIG d   1       3.354   1.757  -8.273  0.00  0.00     0.064 H 
ATOM     10  H   LIG d   1       1.889   1.529 -10.237  0.00  0.00     0.066 H 
ENDROOT
BRANCH   4  11
ATOM     11  N   LIG d   1       4.467  -0.227  -6.925  0.00  0.00    -0.270 N 
ATOM     12  C   LIG d   1       3.939  -0.160  -5.687  0.00  0.00     0.305 C 
ATOM     13  O   LIG d   1       2.733  -0.118  -5.543  0.00  0.00    -0.253 OA
ATOM     14  N   LIG d   1       4.748  -0.139  -4.609  0.00  0.00    -0.281 N 
ATOM     15  H   LIG d   1       5.710  -0.173  -4.725  0.00  0.00     0.151 HD
ATOM     16  H   LIG d   1       5.429  -0.182  -7.045  0.00  0.00     0.156 HD
BRANCH  14  17
ATOM     17  C   LIG d   1       4.173  -0.065  -3.264  0.00  0.00     0.215 C 
ATOM     18  H   LIG d   1       3.086  -0.006  -3.336  0.00  0.00     0.068 H 
BRANCH  17  19
ATOM     19  C   LIG d   1       4.564  -1.316  -2.473  0.00  0.00     0.416 C 
ATOM     20  F   LIG d   1       5.878  -1.676  -2.790  0.00  0.00    -0.168 F 
ATOM     21  F   LIG d   1       4.470  -1.050  -1.104  0.00  0.00    -0.168 F 
ATOM     22  F   LIG d   1       3.700  -2.365  -2.805  0.00  0.00    -0.168 F 
ENDBRANCH  17  19
BRANCH  17  23
ATOM     23  C   LIG d   1       4.706   1.177  -2.548  0.00  0.00     0.416 C 
ATOM     24  F   LIG d   1       4.110   2.320  -3.093  0.00  0.00    -0.168 F 
ATOM     25  F   LIG d   1       4.401   1.097  -1.186  0.00  0.00    -0.168 F 
ATOM     26  F   LIG d   1       6.093   1.251  -2.712  0.00  0.00    -0.168 F 
ENDBRANCH  17  23
ENDBRANCH  14  17
ENDBRANCH   4  11
BRANCH   1  27
ATOM     27  O   LIG d   1       1.156  -0.737 -11.325  0.00  0.00    -0.492 OA
BRANCH  27  28
ATOM     28  C   LIG d   1       0.986  -2.050 -11.860  0.00  0.00     0.087 C 
ATOM     29  H   LIG d   1       1.930  -2.396 -12.281  0.00  0.00     0.069 H 
ATOM     30  H   LIG d   1       0.671  -2.729 -11.066  0.00  0.00     0.069 H 
BRANCH  28  31
ATOM     31  C   LIG d   1      -0.081  -2.020 -12.957  0.00  0.00    -0.031 C 
ATOM     32  H   LIG d   1      -0.948  -2.597 -12.636  0.00  0.00     0.026 H 
ATOM     33  H   LIG d   1      -0.378  -0.989 -13.145  0.00  0.00     0.026 H 
ATOM     34  H   LIG d   1       0.325  -2.454 -13.871  0.00  0.00     0.026 H 
ENDBRANCH  28  31
ENDBRANCH  27  28
ENDBRANCH   1  27
TORSDOF 7
ENDMDL
MODEL 4
REMARK VINA RESULT:      -6.2      4.718      5.812
REMARK  7 active torsions:
REMARK  status: ('A' for Active; 'I' for Inactive)
REMARK    1  A    between atoms: C_1  and  C_2 
REMARK    2  A    between atoms: C_2  and  O_3 
REMARK    3  A    between atoms: O_3  and  C_4 
REMARK    4  A    between atoms: C_7  and  N_10 
REMARK       I    between atoms: N_10  and  C_11 
REMARK       I    between atoms: C_11  and  N_13 
REMARK    5  A    between atoms: N_13  and  C_14 
REMARK    6  A    between atoms: C_14  and  C_15 
REMARK    7  A    between atoms: C_14  and  C_19 
ROOT
ATOM      1  C   LIG d   1      10.694   2.568  -6.846  0.00  0.00     0.121 A 
ATOM      2  C   LIG d   1       9.932   3.451  -6.094  0.00  0.00    -0.018 A 
ATOM      3  C   LIG d   1       9.159   2.981  -5.051  0.00  0.00    -0.037 A 
ATOM      4  C   LIG d   1       9.144   1.625  -4.754  0.00  0.00     0.035 A 
ATOM      5  C   LIG d   1       9.911   0.743  -5.503  0.00  0.00    -0.037 A 
ATOM      6  C   LIG d   1      10.680   1.212  -6.549  0.00  0.00    -0.018 A 
ATOM      7  H   LIG d   1       9.943   4.505  -6.326  0.00  0.00     0.066 H 
ATOM      8  H   LIG d   1       8.566   3.668  -4.467  0.00  0.00     0.064 H 
ATOM      9  H   LIG d   1       9.905  -0.312  -5.269  0.00  0.00     0.064 H 
ATOM     10  H   LIG d   1      11.274   0.526  -7.134  0.00  0.00     0.066 H 
ENDROOT
BRANCH   4  11
ATOM     11  N   LIG d   1       8.360   1.147  -3.696  0.00  0.00    -0.270 N 
ATOM     12  C   LIG d   1       7.072   0.812  -3.908  0.00  0.00     0.305 C 
ATOM     13  O   LIG d   1       6.564   1.011  -4.995  0.00  0.00    -0.253 OA
ATOM     14  N   LIG d   1       6.347   0.257  -2.917  0.00  0.00    -0.281 N 
ATOM     15  H   LIG d   1       6.753   0.098  -2.050  0.00  0.00     0.151 HD
ATOM     16  H   LIG d   1       8.743   1.061  -2.809  0.00  0.00     0.156 HD
BRANCH  14  17
ATOM     17  C   LIG d   1       4.947  -0.107  -3.149  0.00  0.00     0.215 C 
ATOM     18  H   LIG d   1       4.727  -0.042  -4.215  0.00  0.00     0.068 H 
BRANCH  17  19
ATOM     19  C   LIG d   1       4.706  -1.539  -2.666  0.00  0.00     0.416 C 
ATOM     20  F   LIG d   1       4.510  -1.537  -1.281  0.00  0.00    -0.168 F 
ATOM     21  F   LIG d   1       3.572  -2.059  -3.296  0.00  0.00    -0.168 F 
ATOM     22  F   LIG d   1       5.817  -2.330  -2.979  0.00  0.00    -0.168 F 
ENDBRANCH  17  19
BRANCH  17  23
ATOM     23  C   LIG d   1       4.036   0.851  -2.379  0.00  0.00     0.416 C 
ATOM     24  F   LIG d   1       4.561   1.064  -1.099  0.00  0.00    -0.168 F 
ATOM     25  F   LIG d   1       3.959   2.070  -3.059  0.00  0.00    -0.168 F 
ATOM     26  F   LIG d   1       2.758   0.294  -2.272  0.00  0.00    -0.168 F 
ENDBRANCH  17  23
ENDBRANCH  14  17
ENDBRANCH   4  11
BRANCH   1  27
ATOM     27  O   LIG d   1      11.456   3.031  -7.873  0.00  0.00    -0.492 OA
BRANCH  27  28
ATOM     28  C   LIG d   1      10.812   3.879  -8.826  0.00  0.00     0.087 C 
ATOM     29  H   LIG d   1      10.168   4.587  -8.306  0.00  0.00     0.069 H 
ATOM     30  H   LIG d   1      11.565   4.423  -9.397  0.00  0.00     0.069 H 
BRANCH  28  31
ATOM     31  C   LIG d   1       9.969   3.027  -9.778  0.00  0.00    -0.031 C 
ATOM     32  H   LIG d   1       9.927   2.002  -9.409  0.00  0.00     0.026 H 
ATOM     33  H   LIG d   1       8.960   3.435  -9.833  0.00  0.00     0.026 H 
ATOM     34  H   LIG d   1      10.420   3.037 -10.771  0.00  0.00     0.026 H 
ENDBRANCH  28  31
ENDBRANCH  27  28
ENDBRANCH   1  27
TORSDOF 7
ENDMDL
MODEL 5
REMARK VINA RESULT:      -6.1      1.513      2.116
REMARK  7 active torsions:
REMARK  status: ('A' for Active; 'I' for Inactive)
REMARK    1  A    between atoms: C_1  and  C_2 
REMARK    2  A    between atoms: C_2  and  O_3 
REMARK    3  A    between atoms: O_3  and  C_4 
REMARK    4  A    between atoms: C_7  and  N_10 
REMARK       I    between atoms: N_10  and  C_11 
REMARK       I    between atoms: C_11  and  N_13 
REMARK    5  A    between atoms: N_13  and  C_14 
REMARK    6  A    between atoms: C_14  and  C_15 
REMARK    7  A    between atoms: C_14  and  C_19 
ROOT
ATOM      1  C   LIG d   1       3.327  -0.786 -11.140  0.00  0.00     0.121 A 
ATOM      2  C   LIG d   1       2.266  -0.575 -10.270  0.00  0.00    -0.018 A 
ATOM      3  C   LIG d   1       2.398  -0.886  -8.932  0.00  0.00    -0.037 A 
ATOM      4  C   LIG d   1       3.591  -1.411  -8.455  0.00  0.00     0.035 A 
ATOM      5  C   LIG d   1       4.654  -1.617  -9.324  0.00  0.00    -0.037 A 
ATOM      6  C   LIG d   1       4.520  -1.310 -10.664  0.00  0.00    -0.018 A 
ATOM      7  H   LIG d   1       1.338  -0.166 -10.642  0.00  0.00     0.066 H 
ATOM      8  H   LIG d   1       1.572  -0.722  -8.256  0.00  0.00     0.064 H 
ATOM      9  H   LIG d   1       5.585  -2.021  -8.953  0.00  0.00     0.064 H 
ATOM     10  H   LIG d   1       5.345  -1.475 -11.340  0.00  0.00     0.066 H 
ENDROOT
BRANCH   4  11
ATOM     11  N   LIG d   1       3.725  -1.728  -7.096  0.00  0.00    -0.270 N 
ATOM     12  C   LIG d   1       3.971  -0.754  -6.198  0.00  0.00     0.305 C 
ATOM     13  O   LIG d   1       4.170   0.384  -6.575  0.00  0.00    -0.253 OA
ATOM     14  N   LIG d   1       3.998  -1.042  -4.882  0.00  0.00    -0.281 N 
ATOM     15  H   LIG d   1       3.839  -1.951  -4.581  0.00  0.00     0.151 HD
ATOM     16  H   LIG d   1       3.643  -2.649  -6.804  0.00  0.00     0.156 HD
BRANCH  14  17
ATOM     17  C   LIG d   1       4.267   0.016  -3.906  0.00  0.00     0.215 C 
ATOM     18  H   LIG d   1       4.082   0.988  -4.364  0.00  0.00     0.068 H 
BRANCH  17  19
ATOM     19  C   LIG d   1       3.346  -0.161  -2.696  0.00  0.00     0.416 C 
ATOM     20  F   LIG d   1       3.962  -0.996  -1.759  0.00  0.00    -0.168 F 
ATOM     21  F   LIG d   1       3.095   1.086  -2.115  0.00  0.00    -0.168 F 
ATOM     22  F   LIG d   1       2.139  -0.733  -3.110  0.00  0.00    -0.168 F 
ENDBRANCH  17  19
BRANCH  17  23
ATOM     23  C   LIG d   1       5.726  -0.066  -3.452  0.00  0.00     0.416 C 
ATOM     24  F   LIG d   1       5.894   0.692  -2.288  0.00  0.00    -0.168 F 
ATOM     25  F   LIG d   1       6.058  -1.399  -3.191  0.00  0.00    -0.168 F 
ATOM     26  F   LIG d   1       6.557   0.433  -4.459  0.00  0.00    -0.168 F 
ENDBRANCH  17  23
ENDBRANCH  14  17
ENDBRANCH   4  11
BRANCH   1  27
ATOM     27  O   LIG d   1       3.197  -0.479 -12.458  0.00  0.00    -0.492 OA
BRANCH  27  28
ATOM     28  C   LIG d   1       3.398  -1.539 -13.393  0.00  0.00     0.087 C 
ATOM     29  H   LIG d   1       3.742  -1.127 -14.342  0.00  0.00     0.069 H 
ATOM     30  H   LIG d   1       4.146  -2.231 -13.005  0.00  0.00     0.069 H 
BRANCH  28  31
ATOM     31  C   LIG d   1       2.078  -2.285 -13.609  0.00  0.00    -0.031 C 
ATOM     32  H   LIG d   1       1.291  -1.569 -13.844  0.00  0.00     0.026 H 
ATOM     33  H   LIG d   1       2.190  -2.987 -14.435  0.00  0.00     0.026 H 
ATOM     34  H   LIG d   1       1.816  -2.829 -12.702  0.00  0.00     0.026 H 
ENDBRANCH  28  31
ENDBRANCH  27  28
ENDBRANCH   1  27
TORSDOF 7
ENDMDL
MODEL 6
REMARK VINA RESULT:      -6.1      1.635      2.750
REMARK  7 active torsions:
REMARK  status: ('A' for Active; 'I' for Inactive)
REMARK    1  A    between atoms: C_1  and  C_2 
REMARK    2  A    between atoms: C_2  and  O_3 
REMARK    3  A    between atoms: O_3  and  C_4 
REMARK    4  A    between atoms: C_7  and  N_10 
REMARK       I    between atoms: N_10  and  C_11 
REMARK       I    between atoms: C_11  and  N_13 
REMARK    5  A    between atoms: N_13  and  C_14 
REMARK    6  A    between atoms: C_14  and  C_15 
REMARK    7  A    between atoms: C_14  and  C_19 
ROOT
ATOM      1  C   LIG d   1       4.601   0.110 -11.550  0.00  0.00     0.121 A 
ATOM      2  C   LIG d   1       5.446  -0.755 -10.869  0.00  0.00    -0.018 A 
ATOM      3  C   LIG d   1       5.616  -0.625  -9.506  0.00  0.00    -0.037 A 
ATOM      4  C   LIG d   1       4.942   0.372  -8.814  0.00  0.00     0.035 A 
ATOM      5  C   LIG d   1       4.092   1.234  -9.494  0.00  0.00    -0.037 A 
ATOM      6  C   LIG d   1       3.927   1.107 -10.859  0.00  0.00    -0.018 A 
ATOM      7  H   LIG d   1       5.970  -1.531 -11.408  0.00  0.00     0.066 H 
ATOM      8  H   LIG d   1       6.273  -1.299  -8.977  0.00  0.00     0.064 H 
ATOM      9  H   LIG d   1       3.563   2.008  -8.956  0.00  0.00     0.064 H 
ATOM     10  H   LIG d   1       3.270   1.780 -11.388  0.00  0.00     0.066 H 
ENDROOT
BRANCH   4  11
ATOM     11  N   LIG d   1       5.114   0.505  -7.430  0.00  0.00    -0.270 N 
ATOM     12  C   LIG d   1       4.377  -0.242  -6.584  0.00  0.00     0.305 C 
ATOM     13  O   LIG d   1       3.498  -0.962  -7.016  0.00  0.00    -0.253 OA
ATOM     14  N   LIG d   1       4.613  -0.190  -5.258  0.00  0.00    -0.281 N 
ATOM     15  H   LIG d   1       5.315   0.385  -4.912  0.00  0.00     0.151 HD
ATOM     16  H   LIG d   1       5.762   1.137  -7.080  0.00  0.00     0.156 HD
BRANCH  14  17
ATOM     17  C   LIG d   1       3.812  -1.001  -4.339  0.00  0.00     0.215 C 
ATOM     18  H   LIG d   1       3.334  -1.811  -4.890  0.00  0.00     0.068 H 
BRANCH  17  19
ATOM     19  C   LIG d   1       4.718  -1.588  -3.254  0.00  0.00     0.416 C 
ATOM     20  F   LIG d   1       4.952  -0.623  -2.269  0.00  0.00    -0.168 F 
ATOM     21  F   LIG d   1       4.096  -2.701  -2.679  0.00  0.00    -0.168 F 
ATOM     22  F   LIG d   1       5.935  -1.977  -3.825  0.00  0.00    -0.168 F 
ENDBRANCH  17  19
BRANCH  17  23
ATOM     23  C   LIG d   1       2.740  -0.125  -3.687  0.00  0.00     0.416 C 
ATOM     24  F   LIG d   1       1.706   0.104  -4.602  0.00  0.00    -0.168 F 
ATOM     25  F   LIG d   1       2.229  -0.775  -2.559  0.00  0.00    -0.168 F 
ATOM     26  F   LIG d   1       3.304   1.097  -3.305  0.00  0.00    -0.168 F 
ENDBRANCH  17  23
ENDBRANCH  14  17
ENDBRANCH   4  11
BRANCH   1  27
ATOM     27  O   LIG d   1       4.434  -0.018 -12.893  0.00  0.00    -0.492 OA
BRANCH  27  28
ATOM     28  C   LIG d   1       4.072  -1.312 -13.380  0.00  0.00     0.087 C 
ATOM     29  H   LIG d   1       4.192  -1.339 -14.463  0.00  0.00     0.069 H 
ATOM     30  H   LIG d   1       4.714  -2.066 -12.924  0.00  0.00     0.069 H 
BRANCH  28  31
ATOM     31  C   LIG d   1       2.612  -1.601 -13.022  0.00  0.00    -0.031 C 
ATOM     32  H   LIG d   1       2.543  -1.867 -11.967  0.00  0.00     0.026 H 
ATOM     33  H   LIG d   1       2.009  -0.714 -13.214  0.00  0.00     0.026 H 
ATOM     34  H   LIG d   1       2.246  -2.429 -13.630  0.00  0.00     0.026 H 
ENDBRANCH  28  31
ENDBRANCH  27  28
ENDBRANCH   1  27
TORSDOF 7
ENDMDL
MODEL 7
REMARK VINA RESULT:      -6.0      4.997      6.648
REMARK  7 active torsions:
REMARK  status: ('A' for Active; 'I' for Inactive)
REMARK    1  A    between atoms: C_1  and  C_2 
REMARK    2  A    between atoms: C_2  and  O_3 
REMARK    3  A    between atoms: O_3  and  C_4 
REMARK    4  A    between atoms: C_7  and  N_10 
REMARK       I    between atoms: N_10  and  C_11 
REMARK       I    between atoms: C_11  and  N_13 
REMARK    5  A    between atoms: N_13  and  C_14 
REMARK    6  A    between atoms: C_14  and  C_15 
REMARK    7  A    between atoms: C_14  and  C_19 
ROOT
ATOM      1  C   LIG d   1      10.140   4.296  -5.325  0.00  0.00     0.121 A 
ATOM      2  C   LIG d   1       9.883   4.283  -3.961  0.00  0.00    -0.018 A 
ATOM      3  C   LIG d   1       9.301   3.176  -3.379  0.00  0.00    -0.037 A 
ATOM      4  C   LIG d   1       8.971   2.074  -4.156  0.00  0.00     0.035 A 
ATOM      5  C   LIG d   1       9.233   2.085  -5.520  0.00  0.00    -0.037 A 
ATOM      6  C   LIG d   1       9.811   3.195  -6.103  0.00  0.00    -0.018 A 
ATOM      7  H   LIG d   1      10.139   5.140  -3.357  0.00  0.00     0.066 H 
ATOM      8  H   LIG d   1       9.101   3.166  -2.317  0.00  0.00     0.064 H 
ATOM      9  H   LIG d   1       8.982   1.226  -6.125  0.00  0.00     0.064 H 
ATOM     10  H   LIG d   1      10.011   3.205  -7.164  0.00  0.00     0.066 H 
ENDROOT
BRANCH   4  11
ATOM     11  N   LIG d   1       8.380   0.950  -3.566  0.00  0.00    -0.270 N 
ATOM     12  C   LIG d   1       7.054   0.744  -3.686  0.00  0.00     0.305 C 
ATOM     13  O   LIG d   1       6.356   1.579  -4.227  0.00  0.00    -0.253 OA
ATOM     14  N   LIG d   1       6.501  -0.388  -3.207  0.00  0.00    -0.281 N 
ATOM     15  H   LIG d   1       7.058  -1.055  -2.776  0.00  0.00     0.151 HD
ATOM     16  H   LIG d   1       8.925   0.321  -3.067  0.00  0.00     0.156 HD
BRANCH  14  17
ATOM     17  C   LIG d   1       5.059  -0.611  -3.339  0.00  0.00     0.215 C 
ATOM     18  H   LIG d   1       4.655   0.061  -4.096  0.00  0.00     0.068 H 
BRANCH  17  19
ATOM     19  C   LIG d   1       4.803  -2.062  -3.755  0.00  0.00     0.416 C 
ATOM     20  F   LIG d   1       3.852  -2.631  -2.903  0.00  0.00    -0.168 F 
ATOM     21  F   LIG d   1       4.329  -2.092  -5.070  0.00  0.00    -0.168 F 
ATOM     22  F   LIG d   1       5.997  -2.787  -3.673  0.00  0.00    -0.168 F 
ENDBRANCH  17  19
BRANCH  17  23
ATOM     23  C   LIG d   1       4.376  -0.339  -1.996  0.00  0.00     0.416 C 
ATOM     24  F   LIG d   1       3.001  -0.180  -2.198  0.00  0.00    -0.168 F 
ATOM     25  F   LIG d   1       4.599  -1.417  -1.133  0.00  0.00    -0.168 F 
ATOM     26  F   LIG d   1       4.903   0.827  -1.433  0.00  0.00    -0.168 F 
ENDBRANCH  17  23
ENDBRANCH  14  17
ENDBRANCH   4  11
BRANCH   1  27
ATOM     27  O   LIG d   1      10.714   5.387  -5.899  0.00  0.00    -0.492 OA
BRANCH  27  28
ATOM     28  C   LIG d   1       9.875   6.208  -6.712  0.00  0.00     0.087 C 
ATOM     29  H   LIG d   1      10.421   6.514  -7.604  0.00  0.00     0.069 H 
ATOM     30  H   LIG d   1       8.988   5.647  -7.004  0.00  0.00     0.069 H 
BRANCH  28  31
ATOM     31  C   LIG d   1       9.455   7.449  -5.921  0.00  0.00    -0.031 C 
ATOM     32  H   LIG d   1       8.474   7.282  -5.476  0.00  0.00     0.026 H 
ATOM     33  H   LIG d   1      10.184   7.641  -5.133  0.00  0.00     0.026 H 
ATOM     34  H   LIG d   1       9.409   8.309  -6.590  0.00  0.00     0.026 H 
ENDBRANCH  28  31
ENDBRANCH  27  28
ENDBRANCH   1  27
TORSDOF 7
ENDMDL
MODEL 8
REMARK VINA RESULT:      -5.6      4.428      5.442
REMARK  7 active torsions:
REMARK  status: ('A' for Active; 'I' for Inactive)
REMARK    1  A    between atoms: C_1  and  C_2 
REMARK    2  A    between atoms: C_2  and  O_3 
REMARK    3  A    between atoms: O_3  and  C_4 
REMARK    4  A    between atoms: C_7  and  N_10 
REMARK       I    between atoms: N_10  and  C_11 
REMARK       I    between atoms: C_11  and  N_13 
REMARK    5  A    between atoms: N_13  and  C_14 
REMARK    6  A    between atoms: C_14  and  C_15 
REMARK    7  A    between atoms: C_14  and  C_19 
ROOT
ATOM      1  C   LIG d   1       5.431  -6.361  -7.710  0.00  0.00     0.121 A 
ATOM      2  C   LIG d   1       6.358  -6.127  -6.703  0.00  0.00    -0.018 A 
ATOM      3  C   LIG d   1       6.040  -5.289  -5.654  0.00  0.00    -0.037 A 
ATOM      4  C   LIG d   1       4.794  -4.679  -5.604  0.00  0.00     0.035 A 
ATOM      5  C   LIG d   1       3.865  -4.917  -6.608  0.00  0.00    -0.037 A 
ATOM      6  C   LIG d   1       4.185  -5.751  -7.661  0.00  0.00    -0.018 A 
ATOM      7  H   LIG d   1       7.327  -6.601  -6.742  0.00  0.00     0.066 H 
ATOM      8  H   LIG d   1       6.761  -5.108  -4.870  0.00  0.00     0.064 H 
ATOM      9  H   LIG d   1       2.894  -4.447  -6.569  0.00  0.00     0.064 H 
ATOM     10  H   LIG d   1       3.465  -5.933  -8.445  0.00  0.00     0.066 H 
ENDROOT
BRANCH   4  11
ATOM     11  N   LIG d   1       4.471  -3.828  -4.539  0.00  0.00    -0.270 N 
ATOM     12  C   LIG d   1       4.658  -2.499  -4.657  0.00  0.00     0.305 C 
ATOM     13  O   LIG d   1       5.192  -2.046  -5.651  0.00  0.00    -0.253 OA
ATOM     14  N   LIG d   1       4.252  -1.671  -3.674  0.00  0.00    -0.281 N 
ATOM     15  H   LIG d   1       3.826  -2.032  -2.881  0.00  0.00     0.151 HD
ATOM     16  H   LIG d   1       4.116  -4.197  -3.714  0.00  0.00     0.156 HD
BRANCH  14  17
ATOM     17  C   LIG d   1       4.455  -0.226  -3.803  0.00  0.00     0.215 C 
ATOM     18  H   LIG d   1       4.858  -0.003  -4.791  0.00  0.00     0.068 H 
BRANCH  17  19
ATOM     19  C   LIG d   1       3.117   0.495  -3.623  0.00  0.00     0.416 C 
ATOM     20  F   LIG d   1       3.350   1.830  -3.275  0.00  0.00    -0.168 F 
ATOM     21  F   LIG d   1       2.396   0.444  -4.819  0.00  0.00    -0.168 F 
ATOM     22  F   LIG d   1       2.384  -0.131  -2.609  0.00  0.00    -0.168 F 
ENDBRANCH  17  19
BRANCH  17  23
ATOM     23  C   LIG d   1       5.439   0.249  -2.731  0.00  0.00     0.416 C 
ATOM     24  F   LIG d   1       6.563  -0.583  -2.729  0.00  0.00    -0.168 F 
ATOM     25  F   LIG d   1       5.831   1.562  -3.008  0.00  0.00    -0.168 F 
ATOM     26  F   LIG d   1       4.820   0.201  -1.477  0.00  0.00    -0.168 F 
ENDBRANCH  17  23
ENDBRANCH  14  17
ENDBRANCH   4  11
BRANCH   1  27
ATOM     27  O   LIG d   1       5.744  -7.186  -8.744  0.00  0.00    -0.492 OA
BRANCH  27  28
ATOM     28  C   LIG d   1       6.069  -8.539  -8.418  0.00  0.00     0.087 C 
ATOM     29  H   LIG d   1       6.524  -9.022  -9.283  0.00  0.00     0.069 H 
ATOM     30  H   LIG d   1       6.769  -8.554  -7.582  0.00  0.00     0.069 H 
BRANCH  28  31
ATOM     31  C   LIG d   1       4.793  -9.289  -8.027  0.00  0.00    -0.031 C 
ATOM     32  H   LIG d   1       4.336  -9.718  -8.918  0.00  0.00     0.026 H 
ATOM     33  H   LIG d   1       5.042 -10.086  -7.325  0.00  0.00     0.026 H 
ATOM     34  H   LIG d   1       4.094  -8.597  -7.557  0.00  0.00     0.026 H 
ENDBRANCH  28  31
ENDBRANCH  27  28
ENDBRANCH   1  27
TORSDOF 7
ENDMDL
MODEL 9
REMARK VINA RESULT:      -5.6      4.983      7.127
REMARK  7 active torsions:
REMARK  status: ('A' for Active; 'I' for Inactive)
REMARK    1  A    between atoms: C_1  and  C_2 
REMARK    2  A    between atoms: C_2  and  O_3 
REMARK    3  A    between atoms: O_3  and  C_4 
REMARK    4  A    between atoms: C_7  and  N_10 
REMARK       I    between atoms: N_10  and  C_11 
REMARK       I    between atoms: C_11  and  N_13 
REMARK    5  A    between atoms: N_13  and  C_14 
REMARK    6  A    between atoms: C_14  and  C_15 
REMARK    7  A    between atoms: C_14  and  C_19 
ROOT
ATOM      1  C   LIG d   1      10.327   4.228  -3.886  0.00  0.00     0.121 A 
ATOM      2  C   LIG d   1       9.455   4.436  -4.945  0.00  0.00    -0.018 A 
ATOM      3  C   LIG d   1       8.531   3.467  -5.280  0.00  0.00    -0.037 A 
ATOM      4  C   LIG d   1       8.472   2.284  -4.558  0.00  0.00     0.035 A 
ATOM      5  C   LIG d   1       9.341   2.077  -3.494  0.00  0.00    -0.037 A 
ATOM      6  C   LIG d   1      10.269   3.044  -3.163  0.00  0.00    -0.018 A 
ATOM      7  H   LIG d   1       9.501   5.357  -5.507  0.00  0.00     0.066 H 
ATOM      8  H   LIG d   1       7.853   3.631  -6.105  0.00  0.00     0.064 H 
ATOM      9  H   LIG d   1       9.294   1.158  -2.928  0.00  0.00     0.064 H 
ATOM     10  H   LIG d   1      10.948   2.882  -2.339  0.00  0.00     0.066 H 
ENDROOT
BRANCH   4  11
ATOM     11  N   LIG d   1       7.535   1.300  -4.897  0.00  0.00    -0.270 N 
ATOM     12  C   LIG d   1       6.533   1.000  -4.047  0.00  0.00     0.305 C 
ATOM     13  O   LIG d   1       6.495   1.516  -2.947  0.00  0.00    -0.253 OA
ATOM     14  N   LIG d   1       5.573   0.129  -4.416  0.00  0.00    -0.281 N 
ATOM     15  H   LIG d   1       5.603  -0.282  -5.295  0.00  0.00     0.151 HD
ATOM     16  H   LIG d   1       7.609   0.831  -5.744  0.00  0.00     0.156 HD
BRANCH  14  17
ATOM     17  C   LIG d   1       4.485  -0.196  -3.492  0.00  0.00     0.215 C 
ATOM     18  H   LIG d   1       4.535   0.464  -2.625  0.00  0.00     0.068 H 
BRANCH  17  19
ATOM     19  C   LIG d   1       3.141  -0.007  -4.199  0.00  0.00     0.416 C 
ATOM     20  F   LIG d   1       2.162  -0.767  -3.552  0.00  0.00    -0.168 F 
ATOM     21  F   LIG d   1       2.782   1.344  -4.164  0.00  0.00    -0.168 F 
ATOM     22  F   LIG d   1       3.253  -0.425  -5.530  0.00  0.00    -0.168 F 
ENDBRANCH  17  19
BRANCH  17  23
ATOM     23  C   LIG d   1       4.619  -1.650  -3.035  0.00  0.00     0.416 C 
ATOM     24  F   LIG d   1       5.974  -1.971  -2.897  0.00  0.00    -0.168 F 
ATOM     25  F   LIG d   1       3.974  -1.815  -1.806  0.00  0.00    -0.168 F 
ATOM     26  F   LIG d   1       4.035  -2.493  -3.986  0.00  0.00    -0.168 F 
ENDBRANCH  17  23
ENDBRANCH  14  17
ENDBRANCH   4  11
BRANCH   1  27
ATOM     27  O   LIG d   1      11.237   5.182  -3.555  0.00  0.00    -0.492 OA
BRANCH  27  28
ATOM     28  C   LIG d   1      10.801   6.541  -3.612  0.00  0.00     0.087 C 
ATOM     29  H   LIG d   1      10.830   6.890  -4.644  0.00  0.00     0.069 H 
ATOM     30  H   LIG d   1       9.781   6.612  -3.232  0.00  0.00     0.069 H 
BRANCH  28  31
ATOM     31  C   LIG d   1      11.725   7.409  -2.755  0.00  0.00    -0.031 C 
ATOM     32  H   LIG d   1      12.438   6.773  -2.231  0.00  0.00     0.026 H 
ATOM     33  H   LIG d   1      12.262   8.109  -3.395  0.00  0.00     0.026 H 
ATOM     34  H   LIG d   1      11.131   7.964  -2.028  0.00  0.00     0.026 H 
ENDBRANCH  28  31
ENDBRANCH  27  28
ENDBRANCH   1  27
TORSDOF 7
ENDMDL
MODEL 10
REMARK VINA RESULT:      -5.5      5.265      6.408
REMARK  7 active torsions:
REMARK  status: ('A' for Active; 'I' for Inactive)
REMARK    1  A    between atoms: C_1  and  C_2 
REMARK    2  A    between atoms: C_2  and  O_3 
REMARK    3  A    between atoms: O_3  and  C_4 
REMARK    4  A    between atoms: C_7  and  N_10 
REMARK       I    between atoms: N_10  and  C_11 
REMARK       I    between atoms: C_11  and  N_13 
REMARK    5  A    between atoms: N_13  and  C_14 
REMARK    6  A    between atoms: C_14  and  C_15 
REMARK    7  A    between atoms: C_14  and  C_19 
ROOT
ATOM      1  C   LIG d   1      11.120   2.737  -6.218  0.00  0.00     0.121 A 
ATOM      2  C   LIG d   1      10.838   1.426  -6.577  0.00  0.00    -0.018 A 
ATOM      3  C   LIG d   1       9.571   0.914  -6.378  0.00  0.00    -0.037 A 
ATOM      4  C   LIG d   1       8.580   1.708  -5.819  0.00  0.00     0.035 A 
ATOM      5  C   LIG d   1       8.861   3.021  -5.466  0.00  0.00    -0.037 A 
ATOM      6  C   LIG d   1      10.129   3.532  -5.660  0.00  0.00    -0.018 A 
ATOM      7  H   LIG d   1      11.609   0.808  -7.011  0.00  0.00     0.066 H 
ATOM      8  H   LIG d   1       9.352  -0.106  -6.657  0.00  0.00     0.064 H 
ATOM      9  H   LIG d   1       8.089   3.643  -5.035  0.00  0.00     0.064 H 
ATOM     10  H   LIG d   1      10.350   4.552  -5.381  0.00  0.00     0.066 H 
ENDROOT
BRANCH   4  11
ATOM     11  N   LIG d   1       7.294   1.188  -5.617  0.00  0.00    -0.270 N 
ATOM     12  C   LIG d   1       6.928   0.752  -4.396  0.00  0.00     0.305 C 
ATOM     13  O   LIG d   1       7.740   0.723  -3.492  0.00  0.00    -0.253 OA
ATOM     14  N   LIG d   1       5.661   0.348  -4.177  0.00  0.00    -0.281 N 
ATOM     15  H   LIG d   1       5.013   0.372  -4.898  0.00  0.00     0.151 HD
ATOM     16  H   LIG d   1       6.670   1.140  -6.358  0.00  0.00     0.156 HD
BRANCH  14  17
ATOM     17  C   LIG d   1       5.263  -0.126  -2.849  0.00  0.00     0.215 C 
ATOM     18  H   LIG d   1       6.143  -0.194  -2.209  0.00  0.00     0.068 H 
BRANCH  17  19
ATOM     19  C   LIG d   1       4.260   0.855  -2.237  0.00  0.00     0.416 C 
ATOM     20  F   LIG d   1       4.240   2.032  -2.991  0.00  0.00    -0.168 F 
ATOM     21  F   LIG d   1       2.986   0.279  -2.236  0.00  0.00    -0.168 F 
ATOM     22  F   LIG d   1       4.640   1.148  -0.923  0.00  0.00    -0.168 F 
ENDBRANCH  17  19
BRANCH  17  23
ATOM     23  C   LIG d   1       4.614  -1.506  -2.974  0.00  0.00     0.416 C 
ATOM     24  F   LIG d   1       5.554  -2.420  -3.465  0.00  0.00    -0.168 F 
ATOM     25  F   LIG d   1       4.168  -1.927  -1.717  0.00  0.00    -0.168 F 
ATOM     26  F   LIG d   1       3.530  -1.434  -3.854  0.00  0.00    -0.168 F 
ENDBRANCH  17  23
ENDBRANCH  14  17
ENDBRANCH   4  11
BRANCH   1  27
ATOM     27  O   LIG d   1      12.367   3.242  -6.414  0.00  0.00    -0.492 OA
BRANCH  27  28
ATOM     28  C   LIG d   1      13.000   3.860  -5.292  0.00  0.00     0.087 C 
ATOM     29  H   LIG d   1      12.298   3.908  -4.460  0.00  0.00     0.069 H 
ATOM     30  H   LIG d   1      13.872   3.276  -4.999  0.00  0.00     0.069 H 
BRANCH  28  31
ATOM     31  C   LIG d   1      13.440   5.276  -5.671  0.00  0.00    -0.031 C 
ATOM     32  H   LIG d   1      12.718   5.996  -5.286  0.00  0.00     0.026 H 
ATOM     33  H   LIG d   1      14.421   5.478  -5.241  0.00  0.00     0.026 H 
ATOM     34  H   LIG d   1      13.494   5.361  -6.757  0.00  0.00     0.026 H 
ENDBRANCH  28  31
ENDBRANCH  27  28
ENDBRANCH   1  27
TORSDOF 7
ENDMDL
