MODEL 1
REMARK VINA RESULT:      -4.3      0.000      0.000
REMARK  8 active torsions:
REMARK  status: ('A' for Active; 'I' for Inactive)
REMARK    1  A    between atoms: C_1  and  C_2 
REMARK    2  A    between atoms: C_2  and  C_3 
REMARK    3  A    between atoms: C_2  and  S_4 
REMARK    4  A    between atoms: S_4  and  C_5 
REMARK    5  A    between atoms: C_5  and  C_6 
REMARK    6  A    between atoms: C_6  and  C_8 
REMARK    7  A    between atoms: C_6  and  N_10 
REMARK       I    between atoms: N_10  and  C_11 
REMARK    8  A    between atoms: C_11  and  C_13 
ROOT
ATOM      1  C   UNK d   1       7.218  -0.528  -4.335  0.00  0.00     0.018 C 
ATOM      2  H   UNK d   1       6.664  -0.512  -5.274  0.00  0.00     0.040 H 
ATOM      3  H   UNK d   1       8.284  -0.622  -4.545  0.00  0.00     0.040 H 
ENDROOT
BRANCH   1   4
ATOM      4  S   UNK d   1       6.673  -1.940  -3.335  0.00  0.00    -0.156 SA
BRANCH   4   5
ATOM      5  C   UNK d   1       4.977  -2.250  -3.899  0.00  0.00    -0.000 C 
ATOM      6  H   UNK d   1       4.672  -1.458  -4.584  0.00  0.00     0.041 H 
BRANCH   5   7
ATOM      7  C   UNK d   1       4.918  -3.598  -4.621  0.00  0.00    -0.054 C 
ATOM      8  H   UNK d   1       5.117  -4.399  -3.909  0.00  0.00     0.024 H 
ATOM      9  H   UNK d   1       3.926  -3.735  -5.052  0.00  0.00     0.024 H 
ATOM     10  H   UNK d   1       5.666  -3.620  -5.413  0.00  0.00     0.024 H 
ENDBRANCH   5   7
BRANCH   5  11
ATOM     11  C   UNK d   1       4.035  -2.273  -2.694  0.00  0.00    -0.054 C 
ATOM     12  H   UNK d   1       4.608  -2.109  -1.782  0.00  0.00     0.024 H 
ATOM     13  H   UNK d   1       3.289  -1.486  -2.801  0.00  0.00     0.024 H 
ATOM     14  H   UNK d   1       3.538  -3.242  -2.641  0.00  0.00     0.024 H 
ENDBRANCH   5  11
ENDBRANCH   4   5
ENDBRANCH   1   4
BRANCH   1  15
ATOM     15  C   UNK d   1       6.962   0.770  -3.569  0.00  0.00     0.071 C 
ATOM     16  H   UNK d   1       7.154   0.610  -2.508  0.00  0.00     0.057 H 
BRANCH  15  17
ATOM     17  C   UNK d   1       7.877   1.850  -4.088  0.00  0.00     0.063 C 
ATOM     18  O   UNK d   1       8.621   2.426  -3.331  0.00  0.00    -0.548 OA
ATOM     19  O   UNK d   1       7.868   2.166  -5.392  0.00  0.00    -0.548 OA
ENDBRANCH  15  17
BRANCH  15  20
ATOM     20  N   UNK d   1       5.568   1.180  -3.756  0.00  0.00    -0.307 N 
ATOM     21  C   UNK d   0       4.752   1.302  -2.689  0.00  0.00     0.210 C 
ATOM     22  O   UNK d   0       5.172   1.072  -1.575  0.00  0.00    -0.276 OA
ATOM     23  H   UNK d   1       5.231   1.363  -4.646  0.00  0.00     0.149 HD
BRANCH  21  24
ATOM     24  C   UNK d   0       3.318   1.723  -2.881  0.00  0.00     0.012 C 
ATOM     25  H   UNK d   0       2.891   1.185  -3.728  0.00  0.00     0.032 H 
ATOM     26  H   UNK d   0       2.749   1.494  -1.981  0.00  0.00     0.032 H 
ATOM     27  H   UNK d   0       3.277   2.795  -3.074  0.00  0.00     0.032 H 
ENDBRANCH  21  24
ENDBRANCH  15  20
ENDBRANCH   1  15
TORSDOF 8
ENDMDL
MODEL 2
REMARK VINA RESULT:      -4.2      2.805      4.001
REMARK  8 active torsions:
REMARK  status: ('A' for Active; 'I' for Inactive)
REMARK    1  A    between atoms: C_1  and  C_2 
REMARK    2  A    between atoms: C_2  and  C_3 
REMARK    3  A    between atoms: C_2  and  S_4 
REMARK    4  A    between atoms: S_4  and  C_5 
REMARK    5  A    between atoms: C_5  and  C_6 
REMARK    6  A    between atoms: C_6  and  C_8 
REMARK    7  A    between atoms: C_6  and  N_10 
REMARK       I    between atoms: N_10  and  C_11 
REMARK    8  A    between atoms: C_11  and  C_13 
ROOT
ATOM      1  C   UNK d   1       4.309  -1.444  -4.806  0.00  0.00     0.018 C 
ATOM      2  H   UNK d   1       3.663  -2.116  -5.371  0.00  0.00     0.040 H 
ATOM      3  H   UNK d   1       4.803  -2.000  -4.009  0.00  0.00     0.040 H 
ENDROOT
BRANCH   1   4
ATOM      4  S   UNK d   1       3.313  -0.111  -4.085  0.00  0.00    -0.156 SA
BRANCH   4   5
ATOM      5  C   UNK d   1       3.629  -0.240  -2.303  0.00  0.00    -0.000 C 
ATOM      6  H   UNK d   1       2.680  -0.262  -1.767  0.00  0.00     0.041 H 
BRANCH   5   7
ATOM      7  C   UNK d   1       4.406  -1.526  -2.016  0.00  0.00    -0.054 C 
ATOM      8  H   UNK d   1       4.292  -1.792  -0.965  0.00  0.00     0.024 H 
ATOM      9  H   UNK d   1       4.018  -2.333  -2.638  0.00  0.00     0.024 H 
ATOM     10  H   UNK d   1       5.461  -1.371  -2.238  0.00  0.00     0.024 H 
ENDBRANCH   5   7
BRANCH   5  11
ATOM     11  C   UNK d   1       4.448   0.966  -1.841  0.00  0.00    -0.054 C 
ATOM     12  H   UNK d   1       5.184   1.219  -2.604  0.00  0.00     0.024 H 
ATOM     13  H   UNK d   1       3.785   1.816  -1.680  0.00  0.00     0.024 H 
ATOM     14  H   UNK d   1       4.960   0.722  -0.910  0.00  0.00     0.024 H 
ENDBRANCH   5  11
ENDBRANCH   4   5
ENDBRANCH   1   4
BRANCH   1  15
ATOM     15  C   UNK d   1       5.364  -0.846  -5.738  0.00  0.00     0.071 C 
ATOM     16  H   UNK d   1       6.156  -1.575  -5.907  0.00  0.00     0.057 H 
BRANCH  15  17
ATOM     17  C   UNK d   1       4.726  -0.484  -7.054  0.00  0.00     0.063 C 
ATOM     18  O   UNK d   1       4.075  -1.305  -7.656  0.00  0.00    -0.548 OA
ATOM     19  O   UNK d   1       4.874   0.753  -7.554  0.00  0.00    -0.548 OA
ENDBRANCH  15  17
BRANCH  15  20
ATOM     20  N   UNK d   1       5.932   0.357  -5.124  0.00  0.00    -0.307 N 
ATOM     21  C   UNK d   0       7.088   0.280  -4.433  0.00  0.00     0.210 C 
ATOM     22  O   UNK d   0       7.657  -0.785  -4.321  0.00  0.00    -0.276 OA
ATOM     23  H   UNK d   1       5.478   1.209  -5.213  0.00  0.00     0.149 HD
BRANCH  21  24
ATOM     24  C   UNK d   0       7.673   1.517  -3.802  0.00  0.00     0.012 C 
ATOM     25  H   UNK d   0       8.302   2.033  -4.528  0.00  0.00     0.032 H 
ATOM     26  H   UNK d   0       6.866   2.178  -3.485  0.00  0.00     0.032 H 
ATOM     27  H   UNK d   0       8.273   1.234  -2.937  0.00  0.00     0.032 H 
ENDBRANCH  21  24
ENDBRANCH  15  20
ENDBRANCH   1  15
TORSDOF 8
ENDMDL
MODEL 3
REMARK VINA RESULT:      -4.2      3.274      4.125
REMARK  8 active torsions:
REMARK  status: ('A' for Active; 'I' for Inactive)
REMARK    1  A    between atoms: C_1  and  C_2 
REMARK    2  A    between atoms: C_2  and  C_3 
REMARK    3  A    between atoms: C_2  and  S_4 
REMARK    4  A    between atoms: S_4  and  C_5 
REMARK    5  A    between atoms: C_5  and  C_6 
REMARK    6  A    between atoms: C_6  and  C_8 
REMARK    7  A    between atoms: C_6  and  N_10 
REMARK       I    between atoms: N_10  and  C_11 
REMARK    8  A    between atoms: C_11  and  C_13 
ROOT
ATOM      1  C   UNK d   1       4.641  -1.795  -4.684  0.00  0.00     0.018 C 
ATOM      2  H   UNK d   1       3.609  -2.006  -4.404  0.00  0.00     0.040 H 
ATOM      3  H   UNK d   1       5.090  -2.690  -5.116  0.00  0.00     0.040 H 
ENDROOT
BRANCH   1   4
ATOM      4  S   UNK d   1       5.578  -1.299  -3.212  0.00  0.00    -0.156 SA
BRANCH   4   5
ATOM      5  C   UNK d   1       4.305  -0.739  -2.049  0.00  0.00    -0.000 C 
ATOM      6  H   UNK d   1       4.388  -1.303  -1.120  0.00  0.00     0.041 H 
BRANCH   5   7
ATOM      7  C   UNK d   1       4.498   0.750  -1.758  0.00  0.00    -0.054 C 
ATOM      8  H   UNK d   1       4.346   0.935  -0.695  0.00  0.00     0.024 H 
ATOM      9  H   UNK d   1       5.509   1.047  -2.038  0.00  0.00     0.024 H 
ATOM     10  H   UNK d   1       3.777   1.330  -2.335  0.00  0.00     0.024 H 
ENDBRANCH   5   7
BRANCH   5  11
ATOM     11  C   UNK d   1       2.920  -0.965  -2.660  0.00  0.00    -0.054 C 
ATOM     12  H   UNK d   1       2.224  -0.224  -2.268  0.00  0.00     0.024 H 
ATOM     13  H   UNK d   1       2.982  -0.869  -3.744  0.00  0.00     0.024 H 
ATOM     14  H   UNK d   1       2.569  -1.965  -2.403  0.00  0.00     0.024 H 
ENDBRANCH   5  11
ENDBRANCH   4   5
ENDBRANCH   1   4
BRANCH   1  15
ATOM     15  C   UNK d   1       4.671  -0.664  -5.714  0.00  0.00     0.071 C 
ATOM     16  H   UNK d   1       4.307   0.255  -5.255  0.00  0.00     0.057 H 
BRANCH  15  17
ATOM     17  C   UNK d   1       6.084  -0.460  -6.196  0.00  0.00     0.063 C 
ATOM     18  O   UNK d   1       6.577   0.643  -6.171  0.00  0.00    -0.548 OA
ATOM     19  O   UNK d   1       6.796  -1.504  -6.647  0.00  0.00    -0.548 OA
ENDBRANCH  15  17
BRANCH  15  20
ATOM     20  N   UNK d   1       3.813  -1.016  -6.849  0.00  0.00    -0.307 N 
ATOM     21  C   UNK d   0       3.087  -0.062  -7.466  0.00  0.00     0.210 C 
ATOM     22  O   UNK d   0       3.144   1.087  -7.082  0.00  0.00    -0.276 OA
ATOM     23  H   UNK d   1       3.768  -1.934  -7.156  0.00  0.00     0.149 HD
BRANCH  21  24
ATOM     24  C   UNK d   0       2.206  -0.423  -8.634  0.00  0.00     0.012 C 
ATOM     25  H   UNK d   0       1.181  -0.561  -8.286  0.00  0.00     0.032 H 
ATOM     26  H   UNK d   0       2.234   0.378  -9.372  0.00  0.00     0.032 H 
ATOM     27  H   UNK d   0       2.563  -1.348  -9.086  0.00  0.00     0.032 H 
ENDBRANCH  21  24
ENDBRANCH  15  20
ENDBRANCH   1  15
TORSDOF 8
ENDMDL
MODEL 4
REMARK VINA RESULT:      -4.1      3.314      4.743
REMARK  8 active torsions:
REMARK  status: ('A' for Active; 'I' for Inactive)
REMARK    1  A    between atoms: C_1  and  C_2 
REMARK    2  A    between atoms: C_2  and  C_3 
REMARK    3  A    between atoms: C_2  and  S_4 
REMARK    4  A    between atoms: S_4  and  C_5 
REMARK    5  A    between atoms: C_5  and  C_6 
REMARK    6  A    between atoms: C_6  and  C_8 
REMARK    7  A    between atoms: C_6  and  N_10 
REMARK       I    between atoms: N_10  and  C_11 
REMARK    8  A    between atoms: C_11  and  C_13 
ROOT
ATOM      1  C   UNK d   1       5.624  -0.352  -5.327  0.00  0.00     0.018 C 
ATOM      2  H   UNK d   1       6.368  -0.866  -5.937  0.00  0.00     0.040 H 
ATOM      3  H   UNK d   1       5.563   0.693  -5.634  0.00  0.00     0.040 H 
ENDROOT
BRANCH   1   4
ATOM      4  S   UNK d   1       6.106  -0.442  -3.581  0.00  0.00    -0.156 SA
BRANCH   4   5
ATOM      5  C   UNK d   1       4.534  -0.321  -2.684  0.00  0.00    -0.000 C 
ATOM      6  H   UNK d   1       3.716  -0.219  -3.397  0.00  0.00     0.041 H 
BRANCH   5   7
ATOM      7  C   UNK d   1       4.326  -1.584  -1.847  0.00  0.00    -0.054 C 
ATOM      8  H   UNK d   1       3.319  -1.968  -2.014  0.00  0.00     0.024 H 
ATOM      9  H   UNK d   1       5.055  -2.340  -2.141  0.00  0.00     0.024 H 
ATOM     10  H   UNK d   1       4.454  -1.347  -0.791  0.00  0.00     0.024 H 
ENDBRANCH   5   7
BRANCH   5  11
ATOM     11  C   UNK d   1       4.564   0.902  -1.765  0.00  0.00    -0.054 C 
ATOM     12  H   UNK d   1       4.191   0.624  -0.779  0.00  0.00     0.024 H 
ATOM     13  H   UNK d   1       5.588   1.265  -1.677  0.00  0.00     0.024 H 
ATOM     14  H   UNK d   1       3.934   1.687  -2.185  0.00  0.00     0.024 H 
ENDBRANCH   5  11
ENDBRANCH   4   5
ENDBRANCH   1   4
BRANCH   1  15
ATOM     15  C   UNK d   1       4.261  -1.018  -5.516  0.00  0.00     0.071 C 
ATOM     16  H   UNK d   1       3.871  -1.330  -4.548  0.00  0.00     0.057 H 
BRANCH  15  17
ATOM     17  C   UNK d   1       3.307  -0.041  -6.152  0.00  0.00     0.063 C 
ATOM     18  O   UNK d   1       2.962   0.947  -5.547  0.00  0.00    -0.548 OA
ATOM     19  O   UNK d   1       2.846  -0.263  -7.393  0.00  0.00    -0.548 OA
ENDBRANCH  15  17
BRANCH  15  20
ATOM     20  N   UNK d   1       4.407  -2.191  -6.383  0.00  0.00    -0.307 N 
ATOM     21  C   UNK d   0       4.481  -3.424  -5.842  0.00  0.00     0.210 C 
ATOM     22  O   UNK d   0       4.425  -3.563  -4.638  0.00  0.00    -0.276 OA
ATOM     23  H   UNK d   1       4.452  -2.081  -7.345  0.00  0.00     0.149 HD
BRANCH  21  24
ATOM     24  C   UNK d   0       4.631  -4.630  -6.733  0.00  0.00     0.012 C 
ATOM     25  H   UNK d   0       3.704  -4.793  -7.283  0.00  0.00     0.032 H 
ATOM     26  H   UNK d   0       5.447  -4.463  -7.436  0.00  0.00     0.032 H 
ATOM     27  H   UNK d   0       4.851  -5.507  -6.123  0.00  0.00     0.032 H 
ENDBRANCH  21  24
ENDBRANCH  15  20
ENDBRANCH   1  15
TORSDOF 8
ENDMDL
MODEL 5
REMARK VINA RESULT:      -4.1      3.289      4.786
REMARK  8 active torsions:
REMARK  status: ('A' for Active; 'I' for Inactive)
REMARK    1  A    between atoms: C_1  and  C_2 
REMARK    2  A    between atoms: C_2  and  C_3 
REMARK    3  A    between atoms: C_2  and  S_4 
REMARK    4  A    between atoms: S_4  and  C_5 
REMARK    5  A    between atoms: C_5  and  C_6 
REMARK    6  A    between atoms: C_6  and  C_8 
REMARK    7  A    between atoms: C_6  and  N_10 
REMARK       I    between atoms: N_10  and  C_11 
REMARK    8  A    between atoms: C_11  and  C_13 
ROOT
ATOM      1  C   UNK d   1       3.501  -1.430  -3.395  0.00  0.00     0.018 C 
ATOM      2  H   UNK d   1       2.779  -0.626  -3.544  0.00  0.00     0.040 H 
ATOM      3  H   UNK d   1       2.970  -2.370  -3.244  0.00  0.00     0.040 H 
ENDROOT
BRANCH   1   4
ATOM      4  S   UNK d   1       4.516  -1.068  -1.936  0.00  0.00    -0.156 SA
BRANCH   4   5
ATOM      5  C   UNK d   1       4.733   0.732  -1.986  0.00  0.00    -0.000 C 
ATOM      6  H   UNK d   1       4.965   1.098  -0.986  0.00  0.00     0.041 H 
BRANCH   5   7
ATOM      7  C   UNK d   1       5.881   1.081  -2.934  0.00  0.00    -0.054 C 
ATOM      8  H   UNK d   1       6.832   0.847  -2.455  0.00  0.00     0.024 H 
ATOM      9  H   UNK d   1       5.785   0.499  -3.851  0.00  0.00     0.024 H 
ATOM     10  H   UNK d   1       5.846   2.144  -3.172  0.00  0.00     0.024 H 
ENDBRANCH   5   7
BRANCH   5  11
ATOM     11  C   UNK d   1       3.443   1.388  -2.483  0.00  0.00    -0.054 C 
ATOM     12  H   UNK d   1       3.037   0.808  -3.312  0.00  0.00     0.024 H 
ATOM     13  H   UNK d   1       2.716   1.419  -1.671  0.00  0.00     0.024 H 
ATOM     14  H   UNK d   1       3.658   2.402  -2.819  0.00  0.00     0.024 H 
ENDBRANCH   5  11
ENDBRANCH   4   5
ENDBRANCH   1   4
BRANCH   1  15
ATOM     15  C   UNK d   1       4.399  -1.545  -4.627  0.00  0.00     0.071 C 
ATOM     16  H   UNK d   1       5.221  -0.834  -4.545  0.00  0.00     0.057 H 
BRANCH  15  17
ATOM     17  C   UNK d   1       4.951  -2.944  -4.719  0.00  0.00     0.063 C 
ATOM     18  O   UNK d   1       4.288  -3.880  -4.340  0.00  0.00    -0.548 OA
ATOM     19  O   UNK d   1       6.176  -3.150  -5.227  0.00  0.00    -0.548 OA
ENDBRANCH  15  17
BRANCH  15  20
ATOM     20  N   UNK d   1       3.617  -1.248  -5.830  0.00  0.00    -0.307 N 
ATOM     21  C   UNK d   0       4.058  -0.328  -6.711  0.00  0.00     0.210 C 
ATOM     22  O   UNK d   0       5.103   0.255  -6.508  0.00  0.00    -0.276 OA
ATOM     23  H   UNK d   1       2.782  -1.714  -5.993  0.00  0.00     0.149 HD
BRANCH  21  24
ATOM     24  C   UNK d   0       3.254  -0.023  -7.949  0.00  0.00     0.012 C 
ATOM     25  H   UNK d   0       2.319   0.461  -7.665  0.00  0.00     0.032 H 
ATOM     26  H   UNK d   0       3.825   0.641  -8.598  0.00  0.00     0.032 H 
ATOM     27  H   UNK d   0       3.037  -0.951  -8.478  0.00  0.00     0.032 H 
ENDBRANCH  21  24
ENDBRANCH  15  20
ENDBRANCH   1  15
TORSDOF 8
ENDMDL
MODEL 6
REMARK VINA RESULT:      -4.0      3.325      4.660
REMARK  8 active torsions:
REMARK  status: ('A' for Active; 'I' for Inactive)
REMARK    1  A    between atoms: C_1  and  C_2 
REMARK    2  A    between atoms: C_2  and  C_3 
REMARK    3  A    between atoms: C_2  and  S_4 
REMARK    4  A    between atoms: S_4  and  C_5 
REMARK    5  A    between atoms: C_5  and  C_6 
REMARK    6  A    between atoms: C_6  and  C_8 
REMARK    7  A    between atoms: C_6  and  N_10 
REMARK       I    between atoms: N_10  and  C_11 
REMARK    8  A    between atoms: C_11  and  C_13 
ROOT
ATOM      1  C   UNK d   1       2.991  -0.137  -4.802  0.00  0.00     0.018 C 
ATOM      2  H   UNK d   1       2.317  -0.989  -4.708  0.00  0.00     0.040 H 
ATOM      3  H   UNK d   1       2.409   0.786  -4.812  0.00  0.00     0.040 H 
ENDROOT
BRANCH   1   4
ATOM      4  S   UNK d   1       3.930  -0.276  -6.347  0.00  0.00    -0.156 SA
BRANCH   4   5
ATOM      5  C   UNK d   1       2.704   0.067  -7.639  0.00  0.00    -0.000 C 
ATOM      6  H   UNK d   1       1.706   0.069  -7.201  0.00  0.00     0.041 H 
BRANCH   5   7
ATOM      7  C   UNK d   1       2.990   1.434  -8.263  0.00  0.00    -0.054 C 
ATOM      8  H   UNK d   1       2.372   1.563  -9.152  0.00  0.00     0.024 H 
ATOM      9  H   UNK d   1       2.756   2.219  -7.542  0.00  0.00     0.024 H 
ATOM     10  H   UNK d   1       4.042   1.496  -8.539  0.00  0.00     0.024 H 
ENDBRANCH   5   7
BRANCH   5  11
ATOM     11  C   UNK d   1       2.785  -1.014  -8.719  0.00  0.00    -0.054 C 
ATOM     12  H   UNK d   1       3.141  -0.572  -9.650  0.00  0.00     0.024 H 
ATOM     13  H   UNK d   1       3.476  -1.795  -8.400  0.00  0.00     0.024 H 
ATOM     14  H   UNK d   1       1.796  -1.445  -8.876  0.00  0.00     0.024 H 
ENDBRANCH   5  11
ENDBRANCH   4   5
ENDBRANCH   1   4
BRANCH   1  15
ATOM     15  C   UNK d   1       3.957  -0.116  -3.616  0.00  0.00     0.071 C 
ATOM     16  H   UNK d   1       3.610   0.606  -2.878  0.00  0.00     0.057 H 
BRANCH  15  17
ATOM     17  C   UNK d   1       4.016  -1.486  -2.991  0.00  0.00     0.063 C 
ATOM     18  O   UNK d   1       4.216  -1.601  -1.806  0.00  0.00    -0.548 OA
ATOM     19  O   UNK d   1       3.840  -2.578  -3.752  0.00  0.00    -0.548 OA
ENDBRANCH  15  17
BRANCH  15  20
ATOM     20  N   UNK d   1       5.292   0.267  -4.083  0.00  0.00    -0.307 N 
ATOM     21  C   UNK d   0       6.067   1.069  -3.325  0.00  0.00     0.210 C 
ATOM     22  O   UNK d   0       5.659   1.473  -2.257  0.00  0.00    -0.276 OA
ATOM     23  H   UNK d   1       5.619  -0.057  -4.937  0.00  0.00     0.149 HD
BRANCH  21  24
ATOM     24  C   UNK d   0       7.441   1.461  -3.804  0.00  0.00     0.012 C 
ATOM     25  H   UNK d   0       7.889   0.627  -4.345  0.00  0.00     0.032 H 
ATOM     26  H   UNK d   0       7.362   2.324  -4.466  0.00  0.00     0.032 H 
ATOM     27  H   UNK d   0       8.065   1.716  -2.948  0.00  0.00     0.032 H 
ENDBRANCH  21  24
ENDBRANCH  15  20
ENDBRANCH   1  15
TORSDOF 8
ENDMDL
MODEL 7
REMARK VINA RESULT:      -4.0      4.194      4.972
REMARK  8 active torsions:
REMARK  status: ('A' for Active; 'I' for Inactive)
REMARK    1  A    between atoms: C_1  and  C_2 
REMARK    2  A    between atoms: C_2  and  C_3 
REMARK    3  A    between atoms: C_2  and  S_4 
REMARK    4  A    between atoms: S_4  and  C_5 
REMARK    5  A    between atoms: C_5  and  C_6 
REMARK    6  A    between atoms: C_6  and  C_8 
REMARK    7  A    between atoms: C_6  and  N_10 
REMARK       I    between atoms: N_10  and  C_11 
REMARK    8  A    between atoms: C_11  and  C_13 
ROOT
ATOM      1  C   UNK d   1       4.409  -0.521  -6.252  0.00  0.00     0.018 C 
ATOM      2  H   UNK d   1       5.181   0.241  -6.138  0.00  0.00     0.040 H 
ATOM      3  H   UNK d   1       4.745  -1.274  -6.965  0.00  0.00     0.040 H 
ENDROOT
BRANCH   1   4
ATOM      4  S   UNK d   1       2.884   0.250  -6.861  0.00  0.00    -0.156 SA
BRANCH   4   5
ATOM      5  C   UNK d   1       3.270   0.689  -8.578  0.00  0.00    -0.000 C 
ATOM      6  H   UNK d   1       4.265   0.325  -8.831  0.00  0.00     0.041 H 
BRANCH   5   7
ATOM      7  C   UNK d   1       2.240   0.049  -9.512  0.00  0.00    -0.054 C 
ATOM      8  H   UNK d   1       1.755  -0.782  -9.001  0.00  0.00     0.024 H 
ATOM      9  H   UNK d   1       1.491   0.791  -9.790  0.00  0.00     0.024 H 
ATOM     10  H   UNK d   1       2.741  -0.317 -10.408  0.00  0.00     0.024 H 
ENDBRANCH   5   7
BRANCH   5  11
ATOM     11  C   UNK d   1       3.227   2.211  -8.737  0.00  0.00    -0.054 C 
ATOM     12  H   UNK d   1       3.741   2.494  -9.655  0.00  0.00     0.024 H 
ATOM     13  H   UNK d   1       2.190   2.542  -8.785  0.00  0.00     0.024 H 
ATOM     14  H   UNK d   1       3.720   2.679  -7.885  0.00  0.00     0.024 H 
ENDBRANCH   5  11
ENDBRANCH   4   5
ENDBRANCH   1   4
BRANCH   1  15
ATOM     15  C   UNK d   1       4.142  -1.183  -4.899  0.00  0.00     0.071 C 
ATOM     16  H   UNK d   1       3.067  -1.274  -4.745  0.00  0.00     0.057 H 
BRANCH  15  17
ATOM     17  C   UNK d   1       4.771  -2.553  -4.877  0.00  0.00     0.063 C 
ATOM     18  O   UNK d   1       4.396  -3.376  -4.076  0.00  0.00    -0.548 OA
ATOM     19  O   UNK d   1       5.742  -2.859  -5.751  0.00  0.00    -0.548 OA
ENDBRANCH  15  17
BRANCH  15  20
ATOM     20  N   UNK d   1       4.720  -0.363  -3.832  0.00  0.00    -0.307 N 
ATOM     21  C   UNK d   0       3.953   0.032  -2.795  0.00  0.00     0.210 C 
ATOM     22  O   UNK d   0       2.786  -0.292  -2.746  0.00  0.00    -0.276 OA
ATOM     23  H   UNK d   1       5.653  -0.103  -3.870  0.00  0.00     0.149 HD
BRANCH  21  24
ATOM     24  C   UNK d   0       4.548   0.876  -1.697  0.00  0.00     0.012 C 
ATOM     25  H   UNK d   0       4.042   0.656  -0.756  0.00  0.00     0.032 H 
ATOM     26  H   UNK d   0       5.610   0.650  -1.600  0.00  0.00     0.032 H 
ATOM     27  H   UNK d   0       4.421   1.931  -1.940  0.00  0.00     0.032 H 
ENDBRANCH  21  24
ENDBRANCH  15  20
ENDBRANCH   1  15
TORSDOF 8
ENDMDL
MODEL 8
REMARK VINA RESULT:      -3.9      4.364      5.150
REMARK  8 active torsions:
REMARK  status: ('A' for Active; 'I' for Inactive)
REMARK    1  A    between atoms: C_1  and  C_2 
REMARK    2  A    between atoms: C_2  and  C_3 
REMARK    3  A    between atoms: C_2  and  S_4 
REMARK    4  A    between atoms: S_4  and  C_5 
REMARK    5  A    between atoms: C_5  and  C_6 
REMARK    6  A    between atoms: C_6  and  C_8 
REMARK    7  A    between atoms: C_6  and  N_10 
REMARK       I    between atoms: N_10  and  C_11 
REMARK    8  A    between atoms: C_11  and  C_13 
ROOT
ATOM      1  C   UNK d   1       3.445  -0.146  -6.735  0.00  0.00     0.018 C 
ATOM      2  H   UNK d   1       2.422  -0.389  -6.445  0.00  0.00     0.040 H 
ATOM      3  H   UNK d   1       3.659   0.891  -6.475  0.00  0.00     0.040 H 
ENDROOT
BRANCH   1   4
ATOM      4  S   UNK d   1       3.635  -0.372  -8.525  0.00  0.00    -0.156 SA
BRANCH   4   5
ATOM      5  C   UNK d   1       3.970   1.299  -9.146  0.00  0.00    -0.000 C 
ATOM      6  H   UNK d   1       4.968   1.608  -8.837  0.00  0.00     0.041 H 
BRANCH   5   7
ATOM      7  C   UNK d   1       3.886   1.302 -10.674  0.00  0.00    -0.054 C 
ATOM      8  H   UNK d   1       2.973   0.797 -10.988  0.00  0.00     0.024 H 
ATOM      9  H   UNK d   1       3.874   2.331 -11.035  0.00  0.00     0.024 H 
ATOM     10  H   UNK d   1       4.750   0.781 -11.086  0.00  0.00     0.024 H 
ENDBRANCH   5   7
BRANCH   5  11
ATOM     11  C   UNK d   1       2.935   2.272  -8.576  0.00  0.00    -0.054 C 
ATOM     12  H   UNK d   1       2.200   2.512  -9.344  0.00  0.00     0.024 H 
ATOM     13  H   UNK d   1       2.434   1.811  -7.725  0.00  0.00     0.024 H 
ATOM     14  H   UNK d   1       3.436   3.186  -8.253  0.00  0.00     0.024 H 
ENDBRANCH   5  11
ENDBRANCH   4   5
ENDBRANCH   1   4
BRANCH   1  15
ATOM     15  C   UNK d   1       4.417  -1.067  -5.997  0.00  0.00     0.071 C 
ATOM     16  H   UNK d   1       4.266  -2.094  -6.327  0.00  0.00     0.057 H 
BRANCH  15  17
ATOM     17  C   UNK d   1       5.833  -0.646  -6.296  0.00  0.00     0.063 C 
ATOM     18  O   UNK d   1       6.172   0.501  -6.121  0.00  0.00    -0.548 OA
ATOM     19  O   UNK d   1       6.719  -1.546  -6.749  0.00  0.00    -0.548 OA
ENDBRANCH  15  17
BRANCH  15  20
ATOM     20  N   UNK d   1       4.175  -0.977  -4.555  0.00  0.00    -0.307 N 
ATOM     21  C   UNK d   0       4.143  -2.097  -3.805  0.00  0.00     0.210 C 
ATOM     22  O   UNK d   0       4.315  -3.179  -4.325  0.00  0.00    -0.276 OA
ATOM     23  H   UNK d   1       4.037  -0.111  -4.139  0.00  0.00     0.149 HD
BRANCH  21  24
ATOM     24  C   UNK d   0       3.894  -2.005  -2.322  0.00  0.00     0.012 C 
ATOM     25  H   UNK d   0       3.316  -1.105  -2.106  0.00  0.00     0.032 H 
ATOM     26  H   UNK d   0       3.337  -2.881  -1.992  0.00  0.00     0.032 H 
ATOM     27  H   UNK d   0       4.847  -1.959  -1.796  0.00  0.00     0.032 H 
ENDBRANCH  21  24
ENDBRANCH  15  20
ENDBRANCH   1  15
TORSDOF 8
ENDMDL
MODEL 9
REMARK VINA RESULT:      -3.8      3.657      4.959
REMARK  8 active torsions:
REMARK  status: ('A' for Active; 'I' for Inactive)
REMARK    1  A    between atoms: C_1  and  C_2 
REMARK    2  A    between atoms: C_2  and  C_3 
REMARK    3  A    between atoms: C_2  and  S_4 
REMARK    4  A    between atoms: S_4  and  C_5 
REMARK    5  A    between atoms: C_5  and  C_6 
REMARK    6  A    between atoms: C_6  and  C_8 
REMARK    7  A    between atoms: C_6  and  N_10 
REMARK       I    between atoms: N_10  and  C_11 
REMARK    8  A    between atoms: C_11  and  C_13 
ROOT
ATOM      1  C   UNK d   1       3.960  -0.612  -5.063  0.00  0.00     0.018 C 
ATOM      2  H   UNK d   1       3.365   0.232  -4.713  0.00  0.00     0.040 H 
ATOM      3  H   UNK d   1       3.394  -1.535  -4.930  0.00  0.00     0.040 H 
ENDROOT
BRANCH   1   4
ATOM      4  S   UNK d   1       5.499  -0.704  -4.107  0.00  0.00    -0.156 SA
BRANCH   4   5
ATOM      5  C   UNK d   1       4.940  -0.935  -2.397  0.00  0.00    -0.000 C 
ATOM      6  H   UNK d   1       5.779  -1.262  -1.782  0.00  0.00     0.041 H 
BRANCH   5   7
ATOM      7  C   UNK d   1       4.397   0.388  -1.855  0.00  0.00    -0.054 C 
ATOM      8  H   UNK d   1       3.754   0.192  -0.997  0.00  0.00     0.024 H 
ATOM      9  H   UNK d   1       5.228   1.024  -1.547  0.00  0.00     0.024 H 
ATOM     10  H   UNK d   1       3.823   0.891  -2.632  0.00  0.00     0.024 H 
ENDBRANCH   5   7
BRANCH   5  11
ATOM     11  C   UNK d   1       3.837  -1.994  -2.359  0.00  0.00    -0.054 C 
ATOM     12  H   UNK d   1       3.510  -2.143  -1.330  0.00  0.00     0.024 H 
ATOM     13  H   UNK d   1       2.993  -1.661  -2.963  0.00  0.00     0.024 H 
ATOM     14  H   UNK d   1       4.221  -2.934  -2.757  0.00  0.00     0.024 H 
ENDBRANCH   5  11
ENDBRANCH   4   5
ENDBRANCH   1   4
BRANCH   1  15
ATOM     15  C   UNK d   1       4.290  -0.426  -6.545  0.00  0.00     0.071 C 
ATOM     16  H   UNK d   1       4.452  -1.400  -7.006  0.00  0.00     0.057 H 
BRANCH  15  17
ATOM     17  C   UNK d   1       3.144   0.272  -7.231  0.00  0.00     0.063 C 
ATOM     18  O   UNK d   1       2.965   1.454  -7.057  0.00  0.00    -0.548 OA
ATOM     19  O   UNK d   1       2.326  -0.419  -8.041  0.00  0.00    -0.548 OA
ENDBRANCH  15  17
BRANCH  15  20
ATOM     20  N   UNK d   1       5.504   0.384  -6.676  0.00  0.00    -0.307 N 
ATOM     21  C   UNK d   0       6.359   0.157  -7.694  0.00  0.00     0.210 C 
ATOM     22  O   UNK d   0       6.122  -0.717  -8.501  0.00  0.00    -0.276 OA
ATOM     23  H   UNK d   1       5.694   1.083  -6.031  0.00  0.00     0.149 HD
BRANCH  21  24
ATOM     24  C   UNK d   0       7.607   0.990  -7.830  0.00  0.00     0.012 C 
ATOM     25  H   UNK d   0       7.620   1.754  -7.051  0.00  0.00     0.032 H 
ATOM     26  H   UNK d   0       8.483   0.351  -7.726  0.00  0.00     0.032 H 
ATOM     27  H   UNK d   0       7.620   1.469  -8.809  0.00  0.00     0.032 H 
ENDBRANCH  21  24
ENDBRANCH  15  20
ENDBRANCH   1  15
TORSDOF 8
ENDMDL
MODEL 10
REMARK VINA RESULT:      -3.7      4.280      5.483
REMARK  8 active torsions:
REMARK  status: ('A' for Active; 'I' for Inactive)
REMARK    1  A    between atoms: C_1  and  C_2 
REMARK    2  A    between atoms: C_2  and  C_3 
REMARK    3  A    between atoms: C_2  and  S_4 
REMARK    4  A    between atoms: S_4  and  C_5 
REMARK    5  A    between atoms: C_5  and  C_6 
REMARK    6  A    between atoms: C_6  and  C_8 
REMARK    7  A    between atoms: C_6  and  N_10 
REMARK       I    between atoms: N_10  and  C_11 
REMARK    8  A    between atoms: C_11  and  C_13 
ROOT
ATOM      1  C   UNK d   1       3.932  -0.536  -5.425  0.00  0.00     0.018 C 
ATOM      2  H   UNK d   1       3.955  -1.573  -5.090  0.00  0.00     0.040 H 
ATOM      3  H   UNK d   1       4.930  -0.105  -5.336  0.00  0.00     0.040 H 
ENDROOT
BRANCH   1   4
ATOM      4  S   UNK d   1       2.773   0.406  -4.395  0.00  0.00    -0.156 SA
BRANCH   4   5
ATOM      5  C   UNK d   1       3.117  -0.167  -2.709  0.00  0.00    -0.000 C 
ATOM      6  H   UNK d   1       2.213  -0.086  -2.107  0.00  0.00     0.041 H 
BRANCH   5   7
ATOM      7  C   UNK d   1       3.574  -1.626  -2.750  0.00  0.00    -0.054 C 
ATOM      8  H   UNK d   1       2.712  -2.280  -2.617  0.00  0.00     0.024 H 
ATOM      9  H   UNK d   1       4.042  -1.834  -3.712  0.00  0.00     0.024 H 
ATOM     10  H   UNK d   1       4.292  -1.805  -1.950  0.00  0.00     0.024 H 
ENDBRANCH   5   7
BRANCH   5  11
ATOM     11  C   UNK d   1       4.220   0.696  -2.092  0.00  0.00    -0.054 C 
ATOM     12  H   UNK d   1       3.806   1.662  -1.802  0.00  0.00     0.024 H 
ATOM     13  H   UNK d   1       4.624   0.195  -1.213  0.00  0.00     0.024 H 
ATOM     14  H   UNK d   1       5.015   0.846  -2.823  0.00  0.00     0.024 H 
ENDBRANCH   5  11
ENDBRANCH   4   5
ENDBRANCH   1   4
BRANCH   1  15
ATOM     15  C   UNK d   1       3.481  -0.480  -6.885  0.00  0.00     0.071 C 
ATOM     16  H   UNK d   1       2.400  -0.348  -6.927  0.00  0.00     0.057 H 
BRANCH  15  17
ATOM     17  C   UNK d   1       4.156   0.676  -7.576  0.00  0.00     0.063 C 
ATOM     18  O   UNK d   1       3.497   1.599  -7.993  0.00  0.00    -0.548 OA
ATOM     19  O   UNK d   1       5.490   0.684  -7.722  0.00  0.00    -0.548 OA
ENDBRANCH  15  17
BRANCH  15  20
ATOM     20  N   UNK d   1       3.846  -1.731  -7.556  0.00  0.00    -0.307 N 
ATOM     21  C   UNK d   0       3.188  -2.116  -8.668  0.00  0.00     0.210 C 
ATOM     22  O   UNK d   0       2.294  -1.427  -9.113  0.00  0.00    -0.276 OA
ATOM     23  H   UNK d   1       4.561  -2.282  -7.201  0.00  0.00     0.149 HD
BRANCH  21  24
ATOM     24  C   UNK d   0       3.563  -3.402  -9.359  0.00  0.00     0.012 C 
ATOM     25  H   UNK d   0       3.333  -3.324 -10.422  0.00  0.00     0.032 H 
ATOM     26  H   UNK d   0       4.630  -3.584  -9.231  0.00  0.00     0.032 H 
ATOM     27  H   UNK d   0       2.999  -4.226  -8.924  0.00  0.00     0.032 H 
ENDBRANCH  21  24
ENDBRANCH  15  20
ENDBRANCH   1  15
TORSDOF 8
ENDMDL
