MODEL 1
REMARK VINA RESULT:      -5.2      0.000      0.000
REMARK  0 active torsions:
REMARK  status: ('A' for Active; 'I' for Inactive)
ROOT
ATOM      1  C   LIG d   1       5.122   0.528  -2.220  0.00  0.00     0.102 C 
ATOM      2  N   LIG d   1       4.712   1.205  -1.406  0.00  0.00    -0.191 NA
ATOM      3  C   LIG d   1       5.641  -0.326  -3.246  0.00  0.00     0.091 A 
ATOM      4  C   LIG d   1       5.051  -1.568  -3.487  0.00  0.00     0.079 A 
ATOM      5  C   LIG d   1       5.562  -2.393  -4.489  0.00  0.00     0.091 A 
ATOM      6  C   LIG d   1       6.661  -1.971  -5.245  0.00  0.00     0.080 A 
ATOM      7  C   LIG d   1       7.241  -0.740  -5.001  0.00  0.00     0.080 A 
ATOM      8  C   LIG d   1       6.736   0.085  -4.013  0.00  0.00     0.080 A 
ATOM      9 CL   LIG d   1       7.467   1.633  -3.721  0.00  0.00    -0.081 Cl
ATOM     10 CL   LIG d   1       8.605  -0.226  -5.943  0.00  0.00    -0.080 Cl
ATOM     11 CL   LIG d   1       7.299  -2.997  -6.492  0.00  0.00    -0.081 Cl
ATOM     12  C   LIG d   1       4.963  -3.669  -4.743  0.00  0.00     0.102 C 
ATOM     13  N   LIG d   1       4.488  -4.681  -4.944  0.00  0.00    -0.191 NA
ATOM     14 CL   LIG d   1       3.687  -2.083  -2.544  0.00  0.00    -0.081 Cl
ENDROOT
TORSDOF 0
ENDMDL
MODEL 2
REMARK VINA RESULT:      -5.2      0.027      3.999
REMARK  0 active torsions:
REMARK  status: ('A' for Active; 'I' for Inactive)
ROOT
ATOM      1  C   LIG d   1       4.945  -3.684  -4.747  0.00  0.00     0.102 C 
ATOM      2  N   LIG d   1       4.470  -4.697  -4.948  0.00  0.00    -0.191 NA
ATOM      3  C   LIG d   1       5.544  -2.408  -4.493  0.00  0.00     0.091 A 
ATOM      4  C   LIG d   1       5.039  -1.587  -3.485  0.00  0.00     0.079 A 
ATOM      5  C   LIG d   1       5.628  -0.345  -3.244  0.00  0.00     0.091 A 
ATOM      6  C   LIG d   1       6.721   0.068  -4.015  0.00  0.00     0.080 A 
ATOM      7  C   LIG d   1       7.217  -0.752  -5.012  0.00  0.00     0.080 A 
ATOM      8  C   LIG d   1       6.640  -1.986  -5.252  0.00  0.00     0.080 A 
ATOM      9 CL   LIG d   1       7.276  -3.009  -6.502  0.00  0.00    -0.081 Cl
ATOM     10 CL   LIG d   1       8.571  -0.231  -5.964  0.00  0.00    -0.080 Cl
ATOM     11 CL   LIG d   1       7.456   1.612  -3.717  0.00  0.00    -0.081 Cl
ATOM     12  C   LIG d   1       5.116   0.505  -2.211  0.00  0.00     0.102 C 
ATOM     13  N   LIG d   1       4.709   1.179  -1.393  0.00  0.00    -0.191 NA
ATOM     14 CL   LIG d   1       3.682  -2.107  -2.534  0.00  0.00    -0.081 Cl
ENDROOT
TORSDOF 0
ENDMDL
MODEL 3
REMARK VINA RESULT:      -5.0      1.997      3.586
REMARK  0 active torsions:
REMARK  status: ('A' for Active; 'I' for Inactive)
ROOT
ATOM      1  C   LIG d   1       8.313  -0.148  -5.590  0.00  0.00     0.102 C 
ATOM      2  N   LIG d   1       9.209   0.226  -6.180  0.00  0.00    -0.191 NA
ATOM      3  C   LIG d   1       7.184  -0.618  -4.845  0.00  0.00     0.091 A 
ATOM      4  C   LIG d   1       6.634  -1.871  -5.124  0.00  0.00     0.079 A 
ATOM      5  C   LIG d   1       5.534  -2.321  -4.394  0.00  0.00     0.091 A 
ATOM      6  C   LIG d   1       4.989  -1.516  -3.387  0.00  0.00     0.080 A 
ATOM      7  C   LIG d   1       5.538  -0.276  -3.116  0.00  0.00     0.080 A 
ATOM      8  C   LIG d   1       6.632   0.174  -3.833  0.00  0.00     0.080 A 
ATOM      9 CL   LIG d   1       7.318   1.729  -3.478  0.00  0.00    -0.081 Cl
ATOM     10 CL   LIG d   1       4.855   0.716  -1.868  0.00  0.00    -0.080 Cl
ATOM     11 CL   LIG d   1       3.620  -2.075  -2.477  0.00  0.00    -0.081 Cl
ATOM     12  C   LIG d   1       4.964  -3.605  -4.673  0.00  0.00     0.102 C 
ATOM     13  N   LIG d   1       4.512  -4.623  -4.895  0.00  0.00    -0.191 NA
ATOM     14 CL   LIG d   1       7.317  -2.863  -6.374  0.00  0.00    -0.081 Cl
ENDROOT
TORSDOF 0
ENDMDL
MODEL 4
REMARK VINA RESULT:      -4.9      2.054      3.612
REMARK  0 active torsions:
REMARK  status: ('A' for Active; 'I' for Inactive)
ROOT
ATOM      1  C   LIG d   1       5.121   0.485  -2.218  0.00  0.00     0.102 C 
ATOM      2  N   LIG d   1       4.673   1.172  -1.432  0.00  0.00    -0.191 NA
ATOM      3  C   LIG d   1       5.686  -0.381  -3.209  0.00  0.00     0.091 A 
ATOM      4  C   LIG d   1       6.789   0.035  -3.956  0.00  0.00     0.079 A 
ATOM      5  C   LIG d   1       7.333  -0.815  -4.919  0.00  0.00     0.091 A 
ATOM      6  C   LIG d   1       6.771  -2.079  -5.129  0.00  0.00     0.080 A 
ATOM      7  C   LIG d   1       5.678  -2.485  -4.385  0.00  0.00     0.080 A 
ATOM      8  C   LIG d   1       5.137  -1.650  -3.426  0.00  0.00     0.080 A 
ATOM      9 CL   LIG d   1       3.771  -2.174  -2.492  0.00  0.00    -0.081 Cl
ATOM     10 CL   LIG d   1       4.987  -4.054  -4.654  0.00  0.00    -0.080 Cl
ATOM     11 CL   LIG d   1       7.446  -3.139  -6.327  0.00  0.00    -0.081 Cl
ATOM     12  C   LIG d   1       8.465  -0.395  -5.690  0.00  0.00     0.102 C 
ATOM     13  N   LIG d   1       9.362  -0.062  -6.302  0.00  0.00    -0.191 NA
ATOM     14 CL   LIG d   1       7.480   1.606  -3.688  0.00  0.00    -0.081 Cl
ENDROOT
TORSDOF 0
ENDMDL
MODEL 5
REMARK VINA RESULT:      -4.9      2.078      4.605
REMARK  0 active torsions:
REMARK  status: ('A' for Active; 'I' for Inactive)
ROOT
ATOM      1  C   LIG d   1       8.736  -0.648  -5.412  0.00  0.00     0.102 C 
ATOM      2  N   LIG d   1       9.696  -0.373  -5.955  0.00  0.00    -0.191 NA
ATOM      3  C   LIG d   1       7.527  -0.995  -4.728  0.00  0.00     0.091 A 
ATOM      4  C   LIG d   1       6.946  -0.095  -3.834  0.00  0.00     0.079 A 
ATOM      5  C   LIG d   1       5.768  -0.441  -3.171  0.00  0.00     0.091 A 
ATOM      6  C   LIG d   1       5.177  -1.687  -3.408  0.00  0.00     0.080 A 
ATOM      7  C   LIG d   1       5.758  -2.575  -4.295  0.00  0.00     0.080 A 
ATOM      8  C   LIG d   1       6.923  -2.235  -4.959  0.00  0.00     0.080 A 
ATOM      9 CL   LIG d   1       7.639  -3.354  -6.077  0.00  0.00    -0.081 Cl
ATOM     10 CL   LIG d   1       5.019  -4.118  -4.581  0.00  0.00    -0.080 Cl
ATOM     11 CL   LIG d   1       3.711  -2.120  -2.585  0.00  0.00    -0.081 Cl
ATOM     12  C   LIG d   1       5.165   0.477  -2.253  0.00  0.00     0.102 C 
ATOM     13  N   LIG d   1       4.687   1.204  -1.523  0.00  0.00    -0.191 NA
ATOM     14 CL   LIG d   1       7.687   1.449  -3.547  0.00  0.00    -0.081 Cl
ENDROOT
TORSDOF 0
ENDMDL
MODEL 6
REMARK VINA RESULT:      -4.8      1.938      5.287
REMARK  0 active torsions:
REMARK  status: ('A' for Active; 'I' for Inactive)
ROOT
ATOM      1  C   LIG d   1       7.186  -3.124  -5.975  0.00  0.00     0.102 C 
ATOM      2  N   LIG d   1       7.588  -3.868  -6.734  0.00  0.00    -0.191 NA
ATOM      3  C   LIG d   1       6.680  -2.188  -5.017  0.00  0.00     0.091 A 
ATOM      4  C   LIG d   1       7.315  -0.958  -4.837  0.00  0.00     0.079 A 
ATOM      5  C   LIG d   1       6.815  -0.052  -3.902  0.00  0.00     0.091 A 
ATOM      6  C   LIG d   1       5.681  -0.380  -3.151  0.00  0.00     0.080 A 
ATOM      7  C   LIG d   1       5.056  -1.600  -3.334  0.00  0.00     0.080 A 
ATOM      8  C   LIG d   1       5.544  -2.501  -4.263  0.00  0.00     0.080 A 
ATOM      9 CL   LIG d   1       4.747  -4.027  -4.490  0.00  0.00    -0.081 Cl
ATOM     10 CL   LIG d   1       3.652  -2.000  -2.398  0.00  0.00    -0.080 Cl
ATOM     11 CL   LIG d   1       5.057   0.746  -1.987  0.00  0.00    -0.081 Cl
ATOM     12  C   LIG d   1       7.461   1.212  -3.712  0.00  0.00     0.102 C 
ATOM     13  N   LIG d   1       7.974   2.214  -3.560  0.00  0.00    -0.191 NA
ATOM     14 CL   LIG d   1       8.722  -0.559  -5.773  0.00  0.00    -0.081 Cl
ENDROOT
TORSDOF 0
ENDMDL
MODEL 7
REMARK VINA RESULT:      -4.6      2.036      2.671
REMARK  0 active torsions:
REMARK  status: ('A' for Active; 'I' for Inactive)
ROOT
ATOM      1  C   LIG d   1       7.936   1.419  -3.777  0.00  0.00     0.102 C 
ATOM      2  N   LIG d   1       8.356   2.454  -3.572  0.00  0.00    -0.191 NA
ATOM      3  C   LIG d   1       7.406   0.114  -4.036  0.00  0.00     0.091 A 
ATOM      4  C   LIG d   1       6.224  -0.296  -3.418  0.00  0.00     0.079 A 
ATOM      5  C   LIG d   1       5.715  -1.570  -3.675  0.00  0.00     0.091 A 
ATOM      6  C   LIG d   1       6.392  -2.426  -4.550  0.00  0.00     0.080 A 
ATOM      7  C   LIG d   1       7.563  -2.014  -5.159  0.00  0.00     0.080 A 
ATOM      8  C   LIG d   1       8.070  -0.751  -4.912  0.00  0.00     0.080 A 
ATOM      9 CL   LIG d   1       9.537  -0.240  -5.688  0.00  0.00    -0.081 Cl
ATOM     10 CL   LIG d   1       8.397  -3.083  -6.241  0.00  0.00    -0.080 Cl
ATOM     11 CL   LIG d   1       5.760  -4.011  -4.872  0.00  0.00    -0.081 Cl
ATOM     12  C   LIG d   1       4.502  -1.998  -3.046  0.00  0.00     0.102 C 
ATOM     13  N   LIG d   1       3.541  -2.339  -2.546  0.00  0.00    -0.191 NA
ATOM     14 CL   LIG d   1       5.391   0.773  -2.333  0.00  0.00    -0.081 Cl
ENDROOT
TORSDOF 0
ENDMDL
MODEL 8
REMARK VINA RESULT:      -4.4      8.845     10.697
REMARK  0 active torsions:
REMARK  status: ('A' for Active; 'I' for Inactive)
ROOT
ATOM      1  C   LIG d   1      11.433   8.356   1.515  0.00  0.00     0.102 C 
ATOM      2  N   LIG d   1      11.793   8.571   2.570  0.00  0.00    -0.191 NA
ATOM      3  C   LIG d   1      10.979   8.085   0.184  0.00  0.00     0.091 A 
ATOM      4  C   LIG d   1      10.895   6.769  -0.273  0.00  0.00     0.079 A 
ATOM      5  C   LIG d   1      10.452   6.513  -1.571  0.00  0.00     0.091 A 
ATOM      6  C   LIG d   1      10.094   7.578  -2.406  0.00  0.00     0.080 A 
ATOM      7  C   LIG d   1      10.180   8.879  -1.948  0.00  0.00     0.080 A 
ATOM      8  C   LIG d   1      10.613   9.139  -0.660  0.00  0.00     0.080 A 
ATOM      9 CL   LIG d   1      10.709  10.777  -0.093  0.00  0.00    -0.081 Cl
ATOM     10 CL   LIG d   1       9.735  10.193  -2.991  0.00  0.00    -0.080 Cl
ATOM     11 CL   LIG d   1       9.543   7.263  -4.022  0.00  0.00    -0.081 Cl
ATOM     12  C   LIG d   1      10.363   5.166  -2.047  0.00  0.00     0.102 C 
ATOM     13  N   LIG d   1      10.294   4.097  -2.425  0.00  0.00    -0.191 NA
ATOM     14 CL   LIG d   1      11.342   5.454   0.771  0.00  0.00    -0.081 Cl
ENDROOT
TORSDOF 0
ENDMDL
MODEL 9
REMARK VINA RESULT:      -4.4      8.847     11.373
REMARK  0 active torsions:
REMARK  status: ('A' for Active; 'I' for Inactive)
ROOT
ATOM      1  C   LIG d   1      10.307   5.198  -2.121  0.00  0.00     0.102 C 
ATOM      2  N   LIG d   1      10.215   4.127  -2.488  0.00  0.00    -0.191 NA
ATOM      3  C   LIG d   1      10.424   6.549  -1.659  0.00  0.00     0.091 A 
ATOM      4  C   LIG d   1      10.870   6.808  -0.362  0.00  0.00     0.079 A 
ATOM      5  C   LIG d   1      10.981   8.127   0.080  0.00  0.00     0.091 A 
ATOM      6  C   LIG d   1      10.646   9.180  -0.779  0.00  0.00     0.080 A 
ATOM      7  C   LIG d   1      10.204   8.916  -2.062  0.00  0.00     0.080 A 
ATOM      8  C   LIG d   1      10.097   7.611  -2.509  0.00  0.00     0.080 A 
ATOM      9 CL   LIG d   1       9.550   7.291  -4.125  0.00  0.00    -0.081 Cl
ATOM     10 CL   LIG d   1       9.789  10.227  -3.119  0.00  0.00    -0.080 Cl
ATOM     11 CL   LIG d   1      10.783  10.821  -0.230  0.00  0.00    -0.081 Cl
ATOM     12  C   LIG d   1      11.438   8.402   1.409  0.00  0.00     0.102 C 
ATOM     13  N   LIG d   1      11.799   8.620   2.464  0.00  0.00    -0.191 NA
ATOM     14 CL   LIG d   1      11.284   5.495   0.696  0.00  0.00    -0.081 Cl
ENDROOT
TORSDOF 0
ENDMDL
MODEL 10
REMARK VINA RESULT:      -4.3      9.613     11.731
REMARK  0 active torsions:
REMARK  status: ('A' for Active; 'I' for Inactive)
ROOT
ATOM      1  C   LIG d   1      10.999   6.545   0.680  0.00  0.00     0.102 C 
ATOM      2  N   LIG d   1      11.235   5.865   1.559  0.00  0.00    -0.191 NA
ATOM      3  C   LIG d   1      10.702   7.402  -0.429  0.00  0.00     0.091 A 
ATOM      4  C   LIG d   1      10.776   8.788  -0.281  0.00  0.00     0.079 A 
ATOM      5  C   LIG d   1      10.484   9.615  -1.366  0.00  0.00     0.091 A 
ATOM      6  C   LIG d   1      10.122   9.051  -2.594  0.00  0.00     0.080 A 
ATOM      7  C   LIG d   1      10.050   7.677  -2.733  0.00  0.00     0.080 A 
ATOM      8  C   LIG d   1      10.343   6.851  -1.663  0.00  0.00     0.080 A 
ATOM      9 CL   LIG d   1      10.258   5.128  -1.852  0.00  0.00    -0.081 Cl
ATOM     10 CL   LIG d   1       9.598   6.987  -4.259  0.00  0.00    -0.080 Cl
ATOM     11 CL   LIG d   1       9.759  10.079  -3.945  0.00  0.00    -0.081 Cl
ATOM     12  C   LIG d   1      10.558  11.038  -1.223  0.00  0.00     0.102 C 
ATOM     13  N   LIG d   1      10.615  12.167  -1.109  0.00  0.00    -0.191 NA
ATOM     14 CL   LIG d   1      11.227   9.479   1.247  0.00  0.00    -0.081 Cl
ENDROOT
TORSDOF 0
ENDMDL
