MODEL 1
REMARK VINA RESULT:      -6.1      0.000      0.000
REMARK  6 active torsions:
REMARK  status: ('A' for Active; 'I' for Inactive)
REMARK    1  A    between atoms: C_1  and  N_53 
REMARK    2  A    between atoms: C_2  and  N_53 
REMARK    3  A    between atoms: C_3  and  C_4 
REMARK    4  A    between atoms: C_3  and  N_53 
REMARK       I    between atoms: C_4  and  N_6 
REMARK    5  A    between atoms: N_6  and  C_7 
REMARK       I    between atoms: N_21  and  C_23 
REMARK    6  A    between atoms: C_23  and  C_25 
ROOT
ATOM      1  C   LIG d   1       4.525  -1.818  -7.381  0.00  0.00     0.099 A 
ATOM      2  C   LIG d   1       4.625  -3.018  -6.731  0.00  0.00    -0.034 A 
ATOM      3  C   LIG d   1       4.578  -3.035  -5.333  0.00  0.00    -0.040 A 
ATOM      4  C   LIG d   1       4.412  -1.884  -4.631  0.00  0.00     0.027 A 
ATOM      5  N   LIG d   1       4.221  -0.707  -5.275  0.00  0.00    -0.310 N 
ATOM      6  C   LIG d   1       4.346  -0.645  -6.624  0.00  0.00     0.273 A 
ATOM      7  O   LIG d   1       4.305   0.438  -7.185  0.00  0.00    -0.266 OA
ATOM      8  C   LIG d   1       3.821   0.523  -4.588  0.00  0.00     0.031 C 
ATOM      9  C   LIG d   1       4.140   0.487  -3.105  0.00  0.00    -0.006 C 
ATOM     10  H   LIG d   1       3.592   1.295  -2.621  0.00  0.00     0.033 H 
ATOM     11  C   LIG d   1       3.666  -0.836  -2.503  0.00  0.00    -0.037 C 
ATOM     12  C   LIG d   1       4.481  -1.972  -3.124  0.00  0.00     0.016 C 
ATOM     13  H   LIG d   1       4.100  -2.936  -2.787  0.00  0.00     0.038 H 
ATOM     14  C   LIG d   1       5.953  -1.792  -2.713  0.00  0.00     0.023 C 
ATOM     15  N   LIG d   1       6.386  -0.490  -3.241  0.00  0.00    -0.295 N 
ATOM     16  C   LIG d   1       5.625   0.702  -2.849  0.00  0.00     0.019 C 
ATOM     17  C   LIG d   1       7.464  -0.386  -4.043  0.00  0.00     0.267 C 
ATOM     18  O   LIG d   1       7.979  -1.386  -4.502  0.00  0.00    -0.268 OA
ATOM     19  H   LIG d   1       4.740  -3.936  -7.288  0.00  0.00     0.064 H 
ATOM     20  H   LIG d   1       4.672  -3.974  -4.806  0.00  0.00     0.064 H 
ATOM     21  H   LIG d   1       4.342   1.365  -5.042  0.00  0.00     0.050 H 
ATOM     22  H   LIG d   1       2.748   0.664  -4.715  0.00  0.00     0.050 H 
ATOM     23  H   LIG d   1       2.608  -0.981  -2.724  0.00  0.00     0.028 H 
ATOM     24  H   LIG d   1       3.819  -0.823  -1.423  0.00  0.00     0.028 H 
ATOM     25  H   LIG d   1       6.040  -1.822  -1.627  0.00  0.00     0.047 H 
ATOM     26  H   LIG d   1       6.561  -2.580  -3.156  0.00  0.00     0.047 H 
ATOM     27  H   LIG d   1       5.971   1.557  -3.428  0.00  0.00     0.047 H 
ATOM     28  H   LIG d   1       5.784   0.896  -1.788  0.00  0.00     0.047 H 
ENDROOT
BRANCH   1  29
ATOM     29  N   LIG d   1       4.595  -1.758  -8.780  0.00  0.00    -0.277 N 
ATOM     30  C   LIG d   1       3.464  -1.680  -9.508  0.00  0.00     0.263 C 
ATOM     31  O   LIG d   1       2.384  -1.758  -8.961  0.00  0.00    -0.270 OA
ATOM     32  H   LIG d   1       5.457  -1.773  -9.224  0.00  0.00     0.155 HD
BRANCH  30  33
ATOM     33  C   LIG d   1       3.540  -1.496 -11.001  0.00  0.00     0.046 C 
ATOM     34  H   LIG d   1       3.839  -2.434 -11.469  0.00  0.00     0.091 H 
ATOM     35  H   LIG d   1       2.562  -1.197 -11.381  0.00  0.00     0.091 H 
BRANCH  33  36
ATOM     36  N   LIG d   1       4.519  -0.431 -11.302  0.00  0.00     0.237 N 
ATOM     37  H   LIG d   1       5.324  -0.530 -10.672  0.00  0.00     0.203 HD
BRANCH  36  38
ATOM     38  C   LIG d   1       4.986  -0.555 -12.699  0.00  0.00    -0.043 C 
ATOM     39  H   LIG d   1       4.260  -1.106 -13.297  0.00  0.00     0.078 H 
ATOM     40  H   LIG d   1       5.118   0.443 -13.118  0.00  0.00     0.078 H 
ATOM     41  H   LIG d   1       5.940  -1.082 -12.707  0.00  0.00     0.078 H 
ENDBRANCH  36  38
BRANCH  36  42
ATOM     42  C   LIG d   1       3.904   0.896 -11.090  0.00  0.00    -0.043 C 
ATOM     43  H   LIG d   1       3.896   1.437 -12.035  0.00  0.00     0.078 H 
ATOM     44  H   LIG d   1       2.882   0.761 -10.738  0.00  0.00     0.078 H 
ATOM     45  H   LIG d   1       4.470   1.465 -10.352  0.00  0.00     0.078 H 
ENDBRANCH  36  42
ENDBRANCH  33  36
ENDBRANCH  30  33
ENDBRANCH   1  29
BRANCH  17  46
ATOM     46  C   LIG d   1       8.020   0.948  -4.366  0.00  0.00     0.143 A 
ATOM     47  N   LIG d   1       8.512   1.718  -3.399  0.00  0.00    -0.247 NA
ATOM     48  C   LIG d   1       9.011   2.902  -3.692  0.00  0.00     0.046 A 
ATOM     49  C   LIG d   1       9.015   3.353  -5.004  0.00  0.00     0.046 A 
ATOM     50  H   LIG d   1       9.414   3.526  -2.907  0.00  0.00     0.085 H 
ATOM     51  N   LIG d   1       8.523   2.594  -5.967  0.00  0.00    -0.260 NA
ATOM     52  H   LIG d   1       9.421   4.325  -5.238  0.00  0.00     0.085 H 
ATOM     53  C   LIG d   1       8.026   1.404  -5.684  0.00  0.00     0.058 A 
ATOM     54  H   LIG d   1       7.624   0.784  -6.472  0.00  0.00     0.085 H 
ENDBRANCH  17  46
TORSDOF 6
ENDMDL
MODEL 2
REMARK VINA RESULT:      -6.0      2.057      6.735
REMARK  6 active torsions:
REMARK  status: ('A' for Active; 'I' for Inactive)
REMARK    1  A    between atoms: C_1  and  N_53 
REMARK    2  A    between atoms: C_2  and  N_53 
REMARK    3  A    between atoms: C_3  and  C_4 
REMARK    4  A    between atoms: C_3  and  N_53 
REMARK       I    between atoms: C_4  and  N_6 
REMARK    5  A    between atoms: N_6  and  C_7 
REMARK       I    between atoms: N_21  and  C_23 
REMARK    6  A    between atoms: C_23  and  C_25 
ROOT
ATOM      1  C   LIG d   1       7.555   1.622  -4.426  0.00  0.00     0.099 A 
ATOM      2  C   LIG d   1       6.961   1.353  -3.223  0.00  0.00    -0.034 A 
ATOM      3  C   LIG d   1       6.280   0.142  -3.062  0.00  0.00    -0.040 A 
ATOM      4  C   LIG d   1       6.229  -0.764  -4.073  0.00  0.00     0.027 A 
ATOM      5  N   LIG d   1       6.893  -0.540  -5.233  0.00  0.00    -0.310 N 
ATOM      6  C   LIG d   1       7.489   0.658  -5.451  0.00  0.00     0.273 A 
ATOM      7  O   LIG d   1       7.971   0.904  -6.545  0.00  0.00    -0.266 OA
ATOM      8  C   LIG d   1       7.060  -1.562  -6.268  0.00  0.00     0.031 C 
ATOM      9  C   LIG d   1       6.023  -2.666  -6.163  0.00  0.00    -0.006 C 
ATOM     10  H   LIG d   1       6.357  -3.503  -6.776  0.00  0.00     0.033 H 
ATOM     11  C   LIG d   1       5.920  -3.147  -4.715  0.00  0.00    -0.037 C 
ATOM     12  C   LIG d   1       5.383  -1.998  -3.859  0.00  0.00     0.016 C 
ATOM     13  H   LIG d   1       5.391  -2.280  -2.806  0.00  0.00     0.038 H 
ATOM     14  C   LIG d   1       3.954  -1.673  -4.327  0.00  0.00     0.023 C 
ATOM     15  N   LIG d   1       4.050  -1.270  -5.738  0.00  0.00    -0.295 N 
ATOM     16  C   LIG d   1       4.667  -2.208  -6.683  0.00  0.00     0.019 C 
ATOM     17  C   LIG d   1       3.566  -0.085  -6.160  0.00  0.00     0.267 C 
ATOM     18  O   LIG d   1       3.219   0.753  -5.351  0.00  0.00    -0.268 OA
ATOM     19  H   LIG d   1       7.014   2.065  -2.413  0.00  0.00     0.064 H 
ATOM     20  H   LIG d   1       5.792  -0.077  -2.123  0.00  0.00     0.064 H 
ATOM     21  H   LIG d   1       6.975  -1.090  -7.246  0.00  0.00     0.050 H 
ATOM     22  H   LIG d   1       8.053  -2.001  -6.174  0.00  0.00     0.050 H 
ATOM     23  H   LIG d   1       6.907  -3.441  -4.357  0.00  0.00     0.028 H 
ATOM     24  H   LIG d   1       5.239  -3.996  -4.659  0.00  0.00     0.028 H 
ATOM     25  H   LIG d   1       3.319  -2.551  -4.214  0.00  0.00     0.047 H 
ATOM     26  H   LIG d   1       3.552  -0.846  -3.743  0.00  0.00     0.047 H 
ATOM     27  H   LIG d   1       4.798  -1.716  -7.647  0.00  0.00     0.047 H 
ATOM     28  H   LIG d   1       4.017  -3.074  -6.806  0.00  0.00     0.047 H 
ENDROOT
BRANCH   1  29
ATOM     29  N   LIG d   1       8.223   2.837  -4.634  0.00  0.00    -0.277 N 
ATOM     30  C   LIG d   1       9.464   3.017  -4.141  0.00  0.00     0.263 C 
ATOM     31  O   LIG d   1       9.965   2.165  -3.437  0.00  0.00    -0.270 OA
ATOM     32  H   LIG d   1       7.792   3.548  -5.133  0.00  0.00     0.155 HD
BRANCH  30  33
ATOM     33  C   LIG d   1      10.229   4.273  -4.464  0.00  0.00     0.046 C 
ATOM     34  H   LIG d   1      11.201   4.244  -3.971  0.00  0.00     0.091 H 
ATOM     35  H   LIG d   1      10.370   4.345  -5.543  0.00  0.00     0.091 H 
BRANCH  33  36
ATOM     36  N   LIG d   1       9.448   5.440  -4.001  0.00  0.00     0.237 N 
ATOM     37  H   LIG d   1       8.458   5.174  -3.937  0.00  0.00     0.203 HD
BRANCH  36  38
ATOM     38  C   LIG d   1       9.918   5.863  -2.665  0.00  0.00    -0.043 C 
ATOM     39  H   LIG d   1       9.158   6.465  -2.166  0.00  0.00     0.078 H 
ATOM     40  H   LIG d   1      10.129   4.977  -2.066  0.00  0.00     0.078 H 
ATOM     41  H   LIG d   1      10.829   6.450  -2.780  0.00  0.00     0.078 H 
ENDBRANCH  36  38
BRANCH  36  42
ATOM     42  C   LIG d   1       9.586   6.554  -4.962  0.00  0.00    -0.043 C 
ATOM     43  H   LIG d   1       9.157   7.454  -4.523  0.00  0.00     0.078 H 
ATOM     44  H   LIG d   1      10.643   6.717  -5.167  0.00  0.00     0.078 H 
ATOM     45  H   LIG d   1       9.067   6.322  -5.892  0.00  0.00     0.078 H 
ENDBRANCH  36  42
ENDBRANCH  33  36
ENDBRANCH  30  33
ENDBRANCH   1  29
BRANCH  17  46
ATOM     46  C   LIG d   1       3.458   0.196  -7.611  0.00  0.00     0.143 A 
ATOM     47  N   LIG d   1       4.348   0.983  -8.207  0.00  0.00    -0.247 NA
ATOM     48  C   LIG d   1       4.251   1.226  -9.498  0.00  0.00     0.046 A 
ATOM     49  C   LIG d   1       3.216   0.670 -10.236  0.00  0.00     0.046 A 
ATOM     50  H   LIG d   1       4.976   1.863  -9.983  0.00  0.00     0.085 H 
ATOM     51  N   LIG d   1       2.325  -0.108  -9.648  0.00  0.00    -0.260 NA
ATOM     52  H   LIG d   1       3.138   0.875 -11.293  0.00  0.00     0.085 H 
ATOM     53  C   LIG d   1       2.418  -0.361  -8.355  0.00  0.00     0.058 A 
ATOM     54  H   LIG d   1       1.690  -0.999  -7.874  0.00  0.00     0.085 H 
ENDBRANCH  17  46
TORSDOF 6
ENDMDL
MODEL 3
REMARK VINA RESULT:      -5.9      1.767      6.092
REMARK  6 active torsions:
REMARK  status: ('A' for Active; 'I' for Inactive)
REMARK    1  A    between atoms: C_1  and  N_53 
REMARK    2  A    between atoms: C_2  and  N_53 
REMARK    3  A    between atoms: C_3  and  C_4 
REMARK    4  A    between atoms: C_3  and  N_53 
REMARK       I    between atoms: C_4  and  N_6 
REMARK    5  A    between atoms: N_6  and  C_7 
REMARK       I    between atoms: N_21  and  C_23 
REMARK    6  A    between atoms: C_23  and  C_25 
ROOT
ATOM      1  C   LIG d   1       7.819   1.021  -4.080  0.00  0.00     0.099 A 
ATOM      2  C   LIG d   1       6.900   1.810  -3.443  0.00  0.00    -0.034 A 
ATOM      3  C   LIG d   1       5.703   1.234  -3.006  0.00  0.00    -0.040 A 
ATOM      4  C   LIG d   1       5.464  -0.091  -3.188  0.00  0.00     0.027 A 
ATOM      5  N   LIG d   1       6.410  -0.892  -3.737  0.00  0.00    -0.310 N 
ATOM      6  C   LIG d   1       7.543  -0.349  -4.247  0.00  0.00     0.273 A 
ATOM      7  O   LIG d   1       8.330  -1.055  -4.857  0.00  0.00    -0.266 OA
ATOM      8  C   LIG d   1       6.304  -2.352  -3.760  0.00  0.00     0.031 C 
ATOM      9  C   LIG d   1       4.873  -2.831  -3.601  0.00  0.00    -0.006 C 
ATOM     10  H   LIG d   1       4.896  -3.894  -3.366  0.00  0.00     0.033 H 
ATOM     11  C   LIG d   1       4.207  -2.100  -2.435  0.00  0.00    -0.037 C 
ATOM     12  C   LIG d   1       4.105  -0.615  -2.787  0.00  0.00     0.016 C 
ATOM     13  H   LIG d   1       3.722  -0.052  -1.936  0.00  0.00     0.038 H 
ATOM     14  C   LIG d   1       3.171  -0.469  -4.001  0.00  0.00     0.023 C 
ATOM     15  N   LIG d   1       3.785  -1.225  -5.103  0.00  0.00    -0.295 N 
ATOM     16  C   LIG d   1       4.077  -2.646  -4.886  0.00  0.00     0.019 C 
ATOM     17  C   LIG d   1       4.051  -0.640  -6.288  0.00  0.00     0.267 C 
ATOM     18  O   LIG d   1       3.970   0.567  -6.402  0.00  0.00    -0.268 OA
ATOM     19  H   LIG d   1       7.096   2.860  -3.282  0.00  0.00     0.064 H 
ATOM     20  H   LIG d   1       4.961   1.848  -2.515  0.00  0.00     0.064 H 
ATOM     21  H   LIG d   1       6.696  -2.718  -4.709  0.00  0.00     0.050 H 
ATOM     22  H   LIG d   1       6.906  -2.762  -2.949  0.00  0.00     0.050 H 
ATOM     23  H   LIG d   1       4.809  -2.222  -1.534  0.00  0.00     0.028 H 
ATOM     24  H   LIG d   1       3.209  -2.507  -2.269  0.00  0.00     0.028 H 
ATOM     25  H   LIG d   1       2.184  -0.863  -3.759  0.00  0.00     0.047 H 
ATOM     26  H   LIG d   1       3.092   0.580  -4.285  0.00  0.00     0.047 H 
ATOM     27  H   LIG d   1       4.656  -3.028  -5.727  0.00  0.00     0.047 H 
ATOM     28  H   LIG d   1       3.140  -3.199  -4.813  0.00  0.00     0.047 H 
ENDROOT
BRANCH   1  29
ATOM     29  N   LIG d   1       9.018   1.569  -4.557  0.00  0.00    -0.277 N 
ATOM     30  C   LIG d   1       9.048   2.187  -5.754  0.00  0.00     0.263 C 
ATOM     31  O   LIG d   1       8.062   2.187  -6.460  0.00  0.00    -0.270 OA
ATOM     32  H   LIG d   1       9.827   1.502  -4.026  0.00  0.00     0.155 HD
BRANCH  30  33
ATOM     33  C   LIG d   1      10.305   2.878  -6.214  0.00  0.00     0.046 C 
ATOM     34  H   LIG d   1      11.000   2.962  -5.379  0.00  0.00     0.091 H 
ATOM     35  H   LIG d   1      10.766   2.299  -7.015  0.00  0.00     0.091 H 
BRANCH  33  36
ATOM     36  N   LIG d   1       9.951   4.217  -6.731  0.00  0.00     0.237 N 
ATOM     37  H   LIG d   1       9.056   4.156  -7.230  0.00  0.00     0.203 HD
BRANCH  36  38
ATOM     38  C   LIG d   1       9.812   5.170  -5.610  0.00  0.00    -0.043 C 
ATOM     39  H   LIG d   1      10.540   4.950  -4.828  0.00  0.00     0.078 H 
ATOM     40  H   LIG d   1       9.975   6.182  -5.982  0.00  0.00     0.078 H 
ATOM     41  H   LIG d   1       8.805   5.090  -5.201  0.00  0.00     0.078 H 
ENDBRANCH  36  38
BRANCH  36  42
ATOM     42  C   LIG d   1      10.992   4.688  -7.669  0.00  0.00    -0.043 C 
ATOM     43  H   LIG d   1      11.153   5.754  -7.511  0.00  0.00     0.078 H 
ATOM     44  H   LIG d   1      11.917   4.146  -7.474  0.00  0.00     0.078 H 
ATOM     45  H   LIG d   1      10.682   4.517  -8.700  0.00  0.00     0.078 H 
ENDBRANCH  36  42
ENDBRANCH  33  36
ENDBRANCH  30  33
ENDBRANCH   1  29
BRANCH  17  46
ATOM     46  C   LIG d   1       4.443  -1.469  -7.451  0.00  0.00     0.143 A 
ATOM     47  N   LIG d   1       3.519  -1.903  -8.303  0.00  0.00    -0.247 NA
ATOM     48  C   LIG d   1       3.872  -2.636  -9.340  0.00  0.00     0.046 A 
ATOM     49  C   LIG d   1       5.205  -2.965  -9.539  0.00  0.00     0.046 A 
ATOM     50  H   LIG d   1       3.122  -2.986 -10.033  0.00  0.00     0.085 H 
ATOM     51  N   LIG d   1       6.127  -2.540  -8.693  0.00  0.00    -0.260 NA
ATOM     52  H   LIG d   1       5.490  -3.569 -10.387  0.00  0.00     0.085 H 
ATOM     53  C   LIG d   1       5.782  -1.801  -7.654  0.00  0.00     0.058 A 
ATOM     54  H   LIG d   1       6.536  -1.454  -6.963  0.00  0.00     0.085 H 
ENDBRANCH  17  46
TORSDOF 6
ENDMDL
MODEL 4
REMARK VINA RESULT:      -5.8      3.982      8.079
REMARK  6 active torsions:
REMARK  status: ('A' for Active; 'I' for Inactive)
REMARK    1  A    between atoms: C_1  and  N_53 
REMARK    2  A    between atoms: C_2  and  N_53 
REMARK    3  A    between atoms: C_3  and  C_4 
REMARK    4  A    between atoms: C_3  and  N_53 
REMARK       I    between atoms: C_4  and  N_6 
REMARK    5  A    between atoms: N_6  and  C_7 
REMARK       I    between atoms: N_21  and  C_23 
REMARK    6  A    between atoms: C_23  and  C_25 
ROOT
ATOM      1  C   LIG d   1       8.557   2.526  -4.801  0.00  0.00     0.099 A 
ATOM      2  C   LIG d   1       8.648   2.696  -6.156  0.00  0.00    -0.034 A 
ATOM      3  C   LIG d   1       9.777   3.333  -6.682  0.00  0.00    -0.040 A 
ATOM      4  C   LIG d   1      10.778   3.755  -5.867  0.00  0.00     0.027 A 
ATOM      5  N   LIG d   1      10.732   3.506  -4.535  0.00  0.00    -0.310 N 
ATOM      6  C   LIG d   1       9.616   2.969  -3.985  0.00  0.00     0.273 A 
ATOM      7  O   LIG d   1       9.527   2.869  -2.772  0.00  0.00    -0.266 OA
ATOM      8  C   LIG d   1      11.868   3.736  -3.640  0.00  0.00     0.031 C 
ATOM      9  C   LIG d   1      12.868   4.722  -4.216  0.00  0.00    -0.006 C 
ATOM     10  H   LIG d   1      13.789   4.646  -3.639  0.00  0.00     0.033 H 
ATOM     11  C   LIG d   1      13.183   4.356  -5.667  0.00  0.00    -0.037 C 
ATOM     12  C   LIG d   1      11.911   4.530  -6.499  0.00  0.00     0.016 C 
ATOM     13  H   LIG d   1      12.079   4.183  -7.519  0.00  0.00     0.038 H 
ATOM     14  C   LIG d   1      11.523   6.019  -6.485  0.00  0.00     0.023 C 
ATOM     15  N   LIG d   1      11.281   6.382  -5.080  0.00  0.00    -0.295 N 
ATOM     16  C   LIG d   1      12.360   6.154  -4.113  0.00  0.00     0.019 C 
ATOM     17  C   LIG d   1      10.112   6.931  -4.693  0.00  0.00     0.267 C 
ATOM     18  O   LIG d   1       9.169   6.954  -5.458  0.00  0.00    -0.268 OA
ATOM     19  H   LIG d   1       7.861   2.346  -6.807  0.00  0.00     0.064 H 
ATOM     20  H   LIG d   1       9.855   3.488  -7.748  0.00  0.00     0.064 H 
ATOM     21  H   LIG d   1      11.497   4.122  -2.691  0.00  0.00     0.050 H 
ATOM     22  H   LIG d   1      12.373   2.787  -3.460  0.00  0.00     0.050 H 
ATOM     23  H   LIG d   1      13.516   3.320  -5.719  0.00  0.00     0.028 H 
ATOM     24  H   LIG d   1      13.964   5.014  -6.049  0.00  0.00     0.028 H 
ATOM     25  H   LIG d   1      12.330   6.616  -6.909  0.00  0.00     0.047 H 
ATOM     26  H   LIG d   1      10.609   6.170  -7.058  0.00  0.00     0.047 H 
ATOM     27  H   LIG d   1      11.985   6.332  -3.105  0.00  0.00     0.047 H 
ATOM     28  H   LIG d   1      13.179   6.843  -4.320  0.00  0.00     0.047 H 
ENDROOT
BRANCH   1  29
ATOM     29  N   LIG d   1       7.429   1.917  -4.235  0.00  0.00    -0.277 N 
ATOM     30  C   LIG d   1       7.383   0.577  -4.100  0.00  0.00     0.263 C 
ATOM     31  O   LIG d   1       8.275  -0.109  -4.554  0.00  0.00    -0.270 OA
ATOM     32  H   LIG d   1       6.681   2.459  -3.940  0.00  0.00     0.155 HD
BRANCH  30  33
ATOM     33  C   LIG d   1       6.226  -0.070  -3.384  0.00  0.00     0.046 C 
ATOM     34  H   LIG d   1       6.108  -1.095  -3.736  0.00  0.00     0.091 H 
ATOM     35  H   LIG d   1       6.419  -0.074  -2.311  0.00  0.00     0.091 H 
BRANCH  33  36
ATOM     36  N   LIG d   1       5.002   0.713  -3.651  0.00  0.00     0.237 N 
ATOM     37  H   LIG d   1       5.256   1.563  -4.168  0.00  0.00     0.203 HD
BRANCH  36  38
ATOM     38  C   LIG d   1       4.062  -0.082  -4.469  0.00  0.00    -0.043 C 
ATOM     39  H   LIG d   1       3.312   0.564  -4.927  0.00  0.00     0.078 H 
ATOM     40  H   LIG d   1       4.621  -0.598  -5.250  0.00  0.00     0.078 H 
ATOM     41  H   LIG d   1       3.570  -0.815  -3.830  0.00  0.00     0.078 H 
ENDBRANCH  36  38
BRANCH  36  42
ATOM     42  C   LIG d   1       4.361   1.101  -2.377  0.00  0.00    -0.043 C 
ATOM     43  H   LIG d   1       4.868   0.593  -1.558  0.00  0.00     0.078 H 
ATOM     44  H   LIG d   1       4.450   2.179  -2.249  0.00  0.00     0.078 H 
ATOM     45  H   LIG d   1       3.307   0.821  -2.380  0.00  0.00     0.078 H 
ENDBRANCH  36  42
ENDBRANCH  33  36
ENDBRANCH  30  33
ENDBRANCH   1  29
BRANCH  17  46
ATOM     46  C   LIG d   1       9.979   7.505  -3.334  0.00  0.00     0.143 A 
ATOM     47  N   LIG d   1      10.340   8.764  -3.103  0.00  0.00    -0.247 NA
ATOM     48  C   LIG d   1      10.214   9.273  -1.894  0.00  0.00     0.046 A 
ATOM     49  C   LIG d   1       9.718   8.495  -0.859  0.00  0.00     0.046 A 
ATOM     50  H   LIG d   1      10.504  10.297  -1.707  0.00  0.00     0.085 H 
ATOM     51  N   LIG d   1       9.363   7.241  -1.081  0.00  0.00    -0.260 NA
ATOM     52  H   LIG d   1       9.620   8.914   0.131  0.00  0.00     0.085 H 
ATOM     53  C   LIG d   1       9.480   6.725  -2.291  0.00  0.00     0.058 A 
ATOM     54  H   LIG d   1       9.190   5.700  -2.473  0.00  0.00     0.085 H 
ENDBRANCH  17  46
TORSDOF 6
ENDMDL
MODEL 5
REMARK VINA RESULT:      -5.8      3.309      5.453
REMARK  6 active torsions:
REMARK  status: ('A' for Active; 'I' for Inactive)
REMARK    1  A    between atoms: C_1  and  N_53 
REMARK    2  A    between atoms: C_2  and  N_53 
REMARK    3  A    between atoms: C_3  and  C_4 
REMARK    4  A    between atoms: C_3  and  N_53 
REMARK       I    between atoms: C_4  and  N_6 
REMARK    5  A    between atoms: N_6  and  C_7 
REMARK       I    between atoms: N_21  and  C_23 
REMARK    6  A    between atoms: C_23  and  C_25 
ROOT
ATOM      1  C   LIG d   1       6.434  -4.873  -5.350  0.00  0.00     0.099 A 
ATOM      2  C   LIG d   1       7.647  -4.395  -4.935  0.00  0.00    -0.034 A 
ATOM      3  C   LIG d   1       7.692  -3.184  -4.235  0.00  0.00    -0.040 A 
ATOM      4  C   LIG d   1       6.550  -2.506  -3.950  0.00  0.00     0.027 A 
ATOM      5  N   LIG d   1       5.341  -3.022  -4.280  0.00  0.00    -0.310 N 
ATOM      6  C   LIG d   1       5.269  -4.149  -5.032  0.00  0.00     0.273 A 
ATOM      7  O   LIG d   1       4.185  -4.536  -5.437  0.00  0.00    -0.266 OA
ATOM      8  C   LIG d   1       4.076  -2.455  -3.811  0.00  0.00     0.031 C 
ATOM      9  C   LIG d   1       4.214  -1.005  -3.385  0.00  0.00    -0.006 C 
ATOM     10  H   LIG d   1       3.326  -0.734  -2.815  0.00  0.00     0.033 H 
ATOM     11  C   LIG d   1       5.432  -0.845  -2.475  0.00  0.00    -0.037 C 
ATOM     12  C   LIG d   1       6.690  -1.154  -3.288  0.00  0.00     0.016 C 
ATOM     13  H   LIG d   1       7.568  -1.143  -2.641  0.00  0.00     0.038 H 
ATOM     14  C   LIG d   1       6.819  -0.100  -4.401  0.00  0.00     0.023 C 
ATOM     15  N   LIG d   1       5.615  -0.216  -5.238  0.00  0.00    -0.295 N 
ATOM     16  C   LIG d   1       4.307  -0.077  -4.589  0.00  0.00     0.019 C 
ATOM     17  C   LIG d   1       5.707  -0.421  -6.567  0.00  0.00     0.267 C 
ATOM     18  O   LIG d   1       6.777  -0.708  -7.066  0.00  0.00    -0.268 OA
ATOM     19  H   LIG d   1       8.554  -4.941  -5.146  0.00  0.00     0.064 H 
ATOM     20  H   LIG d   1       8.644  -2.786  -3.915  0.00  0.00     0.064 H 
ATOM     21  H   LIG d   1       3.342  -2.519  -4.615  0.00  0.00     0.050 H 
ATOM     22  H   LIG d   1       3.720  -3.040  -2.963  0.00  0.00     0.050 H 
ATOM     23  H   LIG d   1       5.357  -1.539  -1.638  0.00  0.00     0.028 H 
ATOM     24  H   LIG d   1       5.479   0.179  -2.103  0.00  0.00     0.028 H 
ATOM     25  H   LIG d   1       6.894   0.895  -3.962  0.00  0.00     0.047 H 
ATOM     26  H   LIG d   1       7.700  -0.306  -5.007  0.00  0.00     0.047 H 
ATOM     27  H   LIG d   1       3.522  -0.331  -5.302  0.00  0.00     0.047 H 
ATOM     28  H   LIG d   1       4.177   0.954  -4.261  0.00  0.00     0.047 H 
ENDROOT
BRANCH   1  29
ATOM     29  N   LIG d   1       6.352  -6.068  -6.078  0.00  0.00    -0.277 N 
ATOM     30  C   LIG d   1       6.468  -6.049  -7.420  0.00  0.00     0.263 C 
ATOM     31  O   LIG d   1       6.550  -4.990  -8.006  0.00  0.00    -0.270 OA
ATOM     32  H   LIG d   1       6.209  -6.909  -5.616  0.00  0.00     0.155 HD
BRANCH  30  33
ATOM     33  C   LIG d   1       6.499  -7.342  -8.193  0.00  0.00     0.046 C 
ATOM     34  H   LIG d   1       6.220  -7.153  -9.229  0.00  0.00     0.091 H 
ATOM     35  H   LIG d   1       7.505  -7.762  -8.158  0.00  0.00     0.091 H 
BRANCH  33  36
ATOM     36  N   LIG d   1       5.558  -8.295  -7.568  0.00  0.00     0.237 N 
ATOM     37  H   LIG d   1       5.509  -8.103  -6.560  0.00  0.00     0.203 HD
BRANCH  36  38
ATOM     38  C   LIG d   1       4.210  -8.130  -8.152  0.00  0.00    -0.043 C 
ATOM     39  H   LIG d   1       4.171  -7.237  -8.777  0.00  0.00     0.078 H 
ATOM     40  H   LIG d   1       3.977  -9.006  -8.757  0.00  0.00     0.078 H 
ATOM     41  H   LIG d   1       3.483  -8.040  -7.345  0.00  0.00     0.078 H 
ENDBRANCH  36  38
BRANCH  36  42
ATOM     42  C   LIG d   1       6.031  -9.680  -7.770  0.00  0.00    -0.043 C 
ATOM     43  H   LIG d   1       5.169 -10.345  -7.814  0.00  0.00     0.078 H 
ATOM     44  H   LIG d   1       6.580  -9.733  -8.709  0.00  0.00     0.078 H 
ATOM     45  H   LIG d   1       6.682  -9.984  -6.951  0.00  0.00     0.078 H 
ENDBRANCH  36  42
ENDBRANCH  33  36
ENDBRANCH  30  33
ENDBRANCH   1  29
BRANCH  17  46
ATOM     46  C   LIG d   1       4.502  -0.296  -7.420  0.00  0.00     0.143 A 
ATOM     47  N   LIG d   1       4.051   0.906  -7.766  0.00  0.00    -0.247 NA
ATOM     48  C   LIG d   1       2.982   1.012  -8.529  0.00  0.00     0.046 A 
ATOM     49  C   LIG d   1       2.320  -0.126  -8.964  0.00  0.00     0.046 A 
ATOM     50  H   LIG d   1       2.618   1.989  -8.813  0.00  0.00     0.085 H 
ATOM     51  N   LIG d   1       2.761  -1.323  -8.619  0.00  0.00    -0.260 NA
ATOM     52  H   LIG d   1       1.442  -0.034  -9.586  0.00  0.00     0.085 H 
ATOM     53  C   LIG d   1       3.834  -1.439  -7.859  0.00  0.00     0.058 A 
ATOM     54  H   LIG d   1       4.195  -2.418  -7.577  0.00  0.00     0.085 H 
ENDBRANCH  17  46
TORSDOF 6
ENDMDL
MODEL 6
REMARK VINA RESULT:      -5.8      3.283      6.142
REMARK  6 active torsions:
REMARK  status: ('A' for Active; 'I' for Inactive)
REMARK    1  A    between atoms: C_1  and  N_53 
REMARK    2  A    between atoms: C_2  and  N_53 
REMARK    3  A    between atoms: C_3  and  C_4 
REMARK    4  A    between atoms: C_3  and  N_53 
REMARK       I    between atoms: C_4  and  N_6 
REMARK    5  A    between atoms: N_6  and  C_7 
REMARK       I    between atoms: N_21  and  C_23 
REMARK    6  A    between atoms: C_23  and  C_25 
ROOT
ATOM      1  C   LIG d   1       1.689  -2.336 -10.343  0.00  0.00     0.099 A 
ATOM      2  C   LIG d   1       1.526  -1.139 -10.987  0.00  0.00    -0.034 A 
ATOM      3  C   LIG d   1       2.642  -0.318 -11.179  0.00  0.00    -0.040 A 
ATOM      4  C   LIG d   1       3.872  -0.709 -10.755  0.00  0.00     0.027 A 
ATOM      5  N   LIG d   1       4.052  -1.933 -10.200  0.00  0.00    -0.310 N 
ATOM      6  C   LIG d   1       2.979  -2.715  -9.924  0.00  0.00     0.273 A 
ATOM      7  O   LIG d   1       3.133  -3.756  -9.305  0.00  0.00    -0.266 OA
ATOM      8  C   LIG d   1       5.374  -2.499  -9.926  0.00  0.00     0.031 C 
ATOM      9  C   LIG d   1       6.451  -1.434  -9.834  0.00  0.00    -0.006 C 
ATOM     10  H   LIG d   1       7.421  -1.927  -9.893  0.00  0.00     0.033 H 
ATOM     11  C   LIG d   1       6.334  -0.471 -11.016  0.00  0.00    -0.037 C 
ATOM     12  C   LIG d   1       5.005   0.280 -10.900  0.00  0.00     0.016 C 
ATOM     13  H   LIG d   1       4.848   0.903 -11.781  0.00  0.00     0.038 H 
ATOM     14  C   LIG d   1       5.044   1.137  -9.624  0.00  0.00     0.023 C 
ATOM     15  N   LIG d   1       5.219   0.212  -8.495  0.00  0.00    -0.295 N 
ATOM     16  C   LIG d   1       6.381  -0.684  -8.510  0.00  0.00     0.019 C 
ATOM     17  C   LIG d   1       4.353   0.200  -7.462  0.00  0.00     0.267 C 
ATOM     18  O   LIG d   1       3.307   0.813  -7.538  0.00  0.00    -0.268 OA
ATOM     19  H   LIG d   1       0.552  -0.834 -11.339  0.00  0.00     0.064 H 
ATOM     20  H   LIG d   1       2.525   0.637 -11.671  0.00  0.00     0.064 H 
ATOM     21  H   LIG d   1       5.335  -3.045  -8.984  0.00  0.00     0.050 H 
ATOM     22  H   LIG d   1       5.632  -3.193 -10.725  0.00  0.00     0.050 H 
ATOM     23  H   LIG d   1       6.357  -1.033 -11.949  0.00  0.00     0.028 H 
ATOM     24  H   LIG d   1       7.160   0.240 -10.993  0.00  0.00     0.028 H 
ATOM     25  H   LIG d   1       5.869   1.847  -9.679  0.00  0.00     0.047 H 
ATOM     26  H   LIG d   1       4.101   1.672  -9.508  0.00  0.00     0.047 H 
ATOM     27  H   LIG d   1       6.295  -1.400  -7.694  0.00  0.00     0.047 H 
ATOM     28  H   LIG d   1       7.289  -0.095  -8.380  0.00  0.00     0.047 H 
ENDROOT
BRANCH   1  29
ATOM     29  N   LIG d   1       0.591  -3.174 -10.109  0.00  0.00    -0.277 N 
ATOM     30  C   LIG d   1       0.271  -4.133 -11.001  0.00  0.00     0.263 C 
ATOM     31  O   LIG d   1       0.876  -4.209 -12.050  0.00  0.00    -0.270 OA
ATOM     32  H   LIG d   1       0.059  -3.064  -9.306  0.00  0.00     0.155 HD
BRANCH  30  33
ATOM     33  C   LIG d   1      -0.834  -5.109 -10.696  0.00  0.00     0.046 C 
ATOM     34  H   LIG d   1      -0.825  -5.910 -11.435  0.00  0.00     0.091 H 
ATOM     35  H   LIG d   1      -0.682  -5.531  -9.701  0.00  0.00     0.091 H 
BRANCH  33  36
ATOM     36  N   LIG d   1      -2.126  -4.392 -10.723  0.00  0.00     0.237 N 
ATOM     37  H   LIG d   1      -1.988  -3.444 -10.354  0.00  0.00     0.203 HD
BRANCH  36  38
ATOM     38  C   LIG d   1      -2.623  -4.300 -12.112  0.00  0.00    -0.043 C 
ATOM     39  H   LIG d   1      -1.981  -4.868 -12.786  0.00  0.00     0.078 H 
ATOM     40  H   LIG d   1      -3.636  -4.700 -12.153  0.00  0.00     0.078 H 
ATOM     41  H   LIG d   1      -2.632  -3.253 -12.415  0.00  0.00     0.078 H 
ENDBRANCH  36  38
BRANCH  36  42
ATOM     42  C   LIG d   1      -3.113  -5.097  -9.878  0.00  0.00    -0.043 C 
ATOM     43  H   LIG d   1      -3.715  -4.359  -9.349  0.00  0.00     0.078 H 
ATOM     44  H   LIG d   1      -3.756  -5.703 -10.515  0.00  0.00     0.078 H 
ATOM     45  H   LIG d   1      -2.609  -5.738  -9.156  0.00  0.00     0.078 H 
ENDBRANCH  36  42
ENDBRANCH  33  36
ENDBRANCH  30  33
ENDBRANCH   1  29
BRANCH  17  46
ATOM     46  C   LIG d   1       4.677  -0.563  -6.234  0.00  0.00     0.143 A 
ATOM     47  N   LIG d   1       5.174   0.063  -5.170  0.00  0.00    -0.247 NA
ATOM     48  C   LIG d   1       5.455  -0.618  -4.078  0.00  0.00     0.046 A 
ATOM     49  C   LIG d   1       5.246  -1.989  -4.038  0.00  0.00     0.046 A 
ATOM     50  H   LIG d   1       5.855  -0.109  -3.213  0.00  0.00     0.085 H 
ATOM     51  N   LIG d   1       4.759  -2.617  -5.094  0.00  0.00    -0.260 NA
ATOM     52  H   LIG d   1       5.482  -2.543  -3.143  0.00  0.00     0.085 H 
ATOM     53  C   LIG d   1       4.468  -1.941  -6.190  0.00  0.00     0.058 A 
ATOM     54  H   LIG d   1       4.069  -2.455  -7.053  0.00  0.00     0.085 H 
ENDBRANCH  17  46
TORSDOF 6
ENDMDL
MODEL 7
REMARK VINA RESULT:      -5.6      2.532      6.964
REMARK  6 active torsions:
REMARK  status: ('A' for Active; 'I' for Inactive)
REMARK    1  A    between atoms: C_1  and  N_53 
REMARK    2  A    between atoms: C_2  and  N_53 
REMARK    3  A    between atoms: C_3  and  C_4 
REMARK    4  A    between atoms: C_3  and  N_53 
REMARK       I    between atoms: C_4  and  N_6 
REMARK    5  A    between atoms: N_6  and  C_7 
REMARK       I    between atoms: N_21  and  C_23 
REMARK    6  A    between atoms: C_23  and  C_25 
ROOT
ATOM      1  C   LIG d   1       3.743  -0.728  -6.740  0.00  0.00     0.099 A 
ATOM      2  C   LIG d   1       3.070   0.404  -7.110  0.00  0.00    -0.034 A 
ATOM      3  C   LIG d   1       2.721   0.573  -8.454  0.00  0.00    -0.040 A 
ATOM      4  C   LIG d   1       3.023  -0.380  -9.374  0.00  0.00     0.027 A 
ATOM      5  N   LIG d   1       3.608  -1.542  -8.994  0.00  0.00    -0.310 N 
ATOM      6  C   LIG d   1       4.034  -1.699  -7.717  0.00  0.00     0.273 A 
ATOM      7  O   LIG d   1       4.677  -2.691  -7.412  0.00  0.00    -0.266 OA
ATOM      8  C   LIG d   1       3.758  -2.690  -9.890  0.00  0.00     0.031 C 
ATOM      9  C   LIG d   1       3.685  -2.295 -11.354  0.00  0.00    -0.006 C 
ATOM     10  H   LIG d   1       3.541  -3.201 -11.942  0.00  0.00     0.033 H 
ATOM     11  C   LIG d   1       2.482  -1.380 -11.586  0.00  0.00    -0.037 C 
ATOM     12  C   LIG d   1       2.711  -0.075 -10.821  0.00  0.00     0.016 C 
ATOM     13  H   LIG d   1       1.826   0.559 -10.888  0.00  0.00     0.038 H 
ATOM     14  C   LIG d   1       3.936   0.632 -11.425  0.00  0.00     0.023 C 
ATOM     15  N   LIG d   1       5.079  -0.279 -11.254  0.00  0.00    -0.295 N 
ATOM     16  C   LIG d   1       4.974  -1.630 -11.817  0.00  0.00     0.019 C 
ATOM     17  C   LIG d   1       6.200   0.120 -10.622  0.00  0.00     0.267 C 
ATOM     18  O   LIG d   1       6.214   1.170 -10.011  0.00  0.00    -0.268 OA
ATOM     19  H   LIG d   1       2.814   1.155  -6.378  0.00  0.00     0.064 H 
ATOM     20  H   LIG d   1       2.203   1.470  -8.764  0.00  0.00     0.064 H 
ATOM     21  H   LIG d   1       4.722  -3.162  -9.699  0.00  0.00     0.050 H 
ATOM     22  H   LIG d   1       2.967  -3.409  -9.679  0.00  0.00     0.050 H 
ATOM     23  H   LIG d   1       1.577  -1.865 -11.221  0.00  0.00     0.028 H 
ATOM     24  H   LIG d   1       2.383  -1.168 -12.651  0.00  0.00     0.028 H 
ATOM     25  H   LIG d   1       3.760   0.844 -12.479  0.00  0.00     0.047 H 
ATOM     26  H   LIG d   1       4.132   1.559 -10.887  0.00  0.00     0.047 H 
ATOM     27  H   LIG d   1       5.826  -2.224 -11.487  0.00  0.00     0.047 H 
ATOM     28  H   LIG d   1       4.977  -1.567 -12.905  0.00  0.00     0.047 H 
ENDROOT
BRANCH   1  29
ATOM     29  N   LIG d   1       4.133  -0.920  -5.408  0.00  0.00    -0.277 N 
ATOM     30  C   LIG d   1       5.280  -0.375  -4.956  0.00  0.00     0.263 C 
ATOM     31  O   LIG d   1       6.021   0.201  -5.725  0.00  0.00    -0.270 OA
ATOM     32  H   LIG d   1       3.579  -1.446  -4.810  0.00  0.00     0.155 HD
BRANCH  30  33
ATOM     33  C   LIG d   1       5.642  -0.480  -3.498  0.00  0.00     0.046 C 
ATOM     34  H   LIG d   1       6.140  -1.432  -3.314  0.00  0.00     0.091 H 
ATOM     35  H   LIG d   1       6.313   0.338  -3.230  0.00  0.00     0.091 H 
BRANCH  33  36
ATOM     36  N   LIG d   1       4.409  -0.375  -2.691  0.00  0.00     0.237 N 
ATOM     37  H   LIG d   1       3.608  -0.250  -3.321  0.00  0.00     0.203 HD
BRANCH  36  38
ATOM     38  C   LIG d   1       4.212  -1.612  -1.905  0.00  0.00    -0.043 C 
ATOM     39  H   LIG d   1       4.054  -2.463  -2.567  0.00  0.00     0.078 H 
ATOM     40  H   LIG d   1       5.098  -1.787  -1.294  0.00  0.00     0.078 H 
ATOM     41  H   LIG d   1       3.344  -1.486  -1.259  0.00  0.00     0.078 H 
ENDBRANCH  36  38
BRANCH  36  42
ATOM     42  C   LIG d   1       4.493   0.791  -1.786  0.00  0.00    -0.043 C 
ATOM     43  H   LIG d   1       4.057   1.657  -2.284  0.00  0.00     0.078 H 
ATOM     44  H   LIG d   1       3.935   0.574  -0.876  0.00  0.00     0.078 H 
ATOM     45  H   LIG d   1       5.532   1.004  -1.534  0.00  0.00     0.078 H 
ENDBRANCH  36  42
ENDBRANCH  33  36
ENDBRANCH  30  33
ENDBRANCH   1  29
BRANCH  17  46
ATOM     46  C   LIG d   1       7.417  -0.723 -10.672  0.00  0.00     0.143 A 
ATOM     47  N   LIG d   1       7.621  -1.657  -9.747  0.00  0.00    -0.247 NA
ATOM     48  C   LIG d   1       8.702  -2.408  -9.798  0.00  0.00     0.046 A 
ATOM     49  C   LIG d   1       9.634  -2.222 -10.809  0.00  0.00     0.046 A 
ATOM     50  H   LIG d   1       8.866  -3.169  -9.048  0.00  0.00     0.085 H 
ATOM     51  N   LIG d   1       9.439  -1.293 -11.728  0.00  0.00    -0.260 NA
ATOM     52  H   LIG d   1      10.520  -2.838 -10.845  0.00  0.00     0.085 H 
ATOM     53  C   LIG d   1       8.356  -0.538 -11.687  0.00  0.00     0.058 A 
ATOM     54  H   LIG d   1       8.196   0.221 -12.439  0.00  0.00     0.085 H 
ENDBRANCH  17  46
TORSDOF 6
ENDMDL
MODEL 8
REMARK VINA RESULT:      -5.5      7.244     11.495
REMARK  6 active torsions:
REMARK  status: ('A' for Active; 'I' for Inactive)
REMARK    1  A    between atoms: C_1  and  N_53 
REMARK    2  A    between atoms: C_2  and  N_53 
REMARK    3  A    between atoms: C_3  and  C_4 
REMARK    4  A    between atoms: C_3  and  N_53 
REMARK       I    between atoms: C_4  and  N_6 
REMARK    5  A    between atoms: N_6  and  C_7 
REMARK       I    between atoms: N_21  and  C_23 
REMARK    6  A    between atoms: C_23  and  C_25 
ROOT
ATOM      1  C   LIG d   1      10.825   6.020  -0.880  0.00  0.00     0.099 A 
ATOM      2  C   LIG d   1      12.034   6.115  -0.246  0.00  0.00    -0.034 A 
ATOM      3  C   LIG d   1      12.443   7.358   0.247  0.00  0.00    -0.040 A 
ATOM      4  C   LIG d   1      11.644   8.450   0.122  0.00  0.00     0.027 A 
ATOM      5  N   LIG d   1      10.408   8.340  -0.424  0.00  0.00    -0.310 N 
ATOM      6  C   LIG d   1      10.019   7.169  -0.987  0.00  0.00     0.273 A 
ATOM      7  O   LIG d   1       8.960   7.112  -1.592  0.00  0.00    -0.266 OA
ATOM      8  C   LIG d   1       9.421   9.420  -0.388  0.00  0.00     0.031 C 
ATOM      9  C   LIG d   1      10.059  10.780  -0.169  0.00  0.00    -0.006 C 
ATOM     10  H   LIG d   1       9.272  11.483   0.105  0.00  0.00     0.033 H 
ATOM     11  C   LIG d   1      11.056  10.706   0.988  0.00  0.00    -0.037 C 
ATOM     12  C   LIG d   1      12.202   9.777   0.582  0.00  0.00     0.016 C 
ATOM     13  H   LIG d   1      12.879   9.627   1.423  0.00  0.00     0.038 H 
ATOM     14  C   LIG d   1      12.941  10.412  -0.609  0.00  0.00     0.023 C 
ATOM     15  N   LIG d   1      11.962  10.537  -1.699  0.00  0.00    -0.295 N 
ATOM     16  C   LIG d   1      10.730  11.291  -1.437  0.00  0.00     0.019 C 
ATOM     17  C   LIG d   1      12.195   9.998  -2.912  0.00  0.00     0.267 C 
ATOM     18  O   LIG d   1      13.125   9.234  -3.069  0.00  0.00    -0.268 OA
ATOM     19  H   LIG d   1      12.663   5.245  -0.131  0.00  0.00     0.064 H 
ATOM     20  H   LIG d   1      13.402   7.452   0.736  0.00  0.00     0.064 H 
ATOM     21  H   LIG d   1       8.878   9.433  -1.333  0.00  0.00     0.050 H 
ATOM     22  H   LIG d   1       8.715   9.227   0.420  0.00  0.00     0.050 H 
ATOM     23  H   LIG d   1      10.560  10.311   1.874  0.00  0.00     0.028 H 
ATOM     24  H   LIG d   1      11.448  11.702   1.197  0.00  0.00     0.028 H 
ATOM     25  H   LIG d   1      13.335  11.386  -0.323  0.00  0.00     0.047 H 
ATOM     26  H   LIG d   1      13.754   9.762  -0.930  0.00  0.00     0.047 H 
ATOM     27  H   LIG d   1      10.049  11.173  -2.279  0.00  0.00     0.047 H 
ATOM     28  H   LIG d   1      10.974  12.347  -1.315  0.00  0.00     0.047 H 
ENDROOT
BRANCH   1  29
ATOM     29  N   LIG d   1      10.394   4.797  -1.411  0.00  0.00    -0.277 N 
ATOM     30  C   LIG d   1      10.852   4.384  -2.610  0.00  0.00     0.263 C 
ATOM     31  O   LIG d   1      11.562   5.113  -3.271  0.00  0.00    -0.270 OA
ATOM     32  H   LIG d   1       9.766   4.248  -0.918  0.00  0.00     0.155 HD
BRANCH  30  33
ATOM     33  C   LIG d   1      10.483   3.019  -3.129  0.00  0.00     0.046 C 
ATOM     34  H   LIG d   1      11.285   2.644  -3.765  0.00  0.00     0.091 H 
ATOM     35  H   LIG d   1      10.338   2.339  -2.289  0.00  0.00     0.091 H 
BRANCH  33  36
ATOM     36  N   LIG d   1       9.221   3.122  -3.890  0.00  0.00     0.237 N 
ATOM     37  H   LIG d   1       8.683   3.922  -3.537  0.00  0.00     0.203 HD
BRANCH  36  38
ATOM     38  C   LIG d   1       9.512   3.336  -5.324  0.00  0.00    -0.043 C 
ATOM     39  H   LIG d   1       8.775   2.825  -5.944  0.00  0.00     0.078 H 
ATOM     40  H   LIG d   1       9.485   4.405  -5.535  0.00  0.00     0.078 H 
ATOM     41  H   LIG d   1      10.506   2.947  -5.544  0.00  0.00     0.078 H 
ENDBRANCH  36  38
BRANCH  36  42
ATOM     42  C   LIG d   1       8.423   1.891  -3.715  0.00  0.00    -0.043 C 
ATOM     43  H   LIG d   1       8.106   1.532  -4.694  0.00  0.00     0.078 H 
ATOM     44  H   LIG d   1       9.040   1.134  -3.232  0.00  0.00     0.078 H 
ATOM     45  H   LIG d   1       7.545   2.089  -3.100  0.00  0.00     0.078 H 
ENDBRANCH  36  42
ENDBRANCH  33  36
ENDBRANCH  30  33
ENDBRANCH   1  29
BRANCH  17  46
ATOM     46  C   LIG d   1      11.315  10.339  -4.054  0.00  0.00     0.143 A 
ATOM     47  N   LIG d   1      10.242   9.597  -4.314  0.00  0.00    -0.247 NA
ATOM     48  C   LIG d   1       9.459   9.906  -5.328  0.00  0.00     0.046 A 
ATOM     49  C   LIG d   1       9.756  10.997  -6.131  0.00  0.00     0.046 A 
ATOM     50  H   LIG d   1       8.586   9.306  -5.537  0.00  0.00     0.085 H 
ATOM     51  N   LIG d   1      10.824  11.735  -5.880  0.00  0.00    -0.260 NA
ATOM     52  H   LIG d   1       9.114  11.245  -6.963  0.00  0.00     0.085 H 
ATOM     53  C   LIG d   1      11.611  11.435  -4.863  0.00  0.00     0.058 A 
ATOM     54  H   LIG d   1      12.484  12.038  -4.658  0.00  0.00     0.085 H 
ENDBRANCH  17  46
TORSDOF 6
ENDMDL
MODEL 9
REMARK VINA RESULT:      -5.3      2.447      6.470
REMARK  6 active torsions:
REMARK  status: ('A' for Active; 'I' for Inactive)
REMARK    1  A    between atoms: C_1  and  N_53 
REMARK    2  A    between atoms: C_2  and  N_53 
REMARK    3  A    between atoms: C_3  and  C_4 
REMARK    4  A    between atoms: C_3  and  N_53 
REMARK       I    between atoms: C_4  and  N_6 
REMARK    5  A    between atoms: N_6  and  C_7 
REMARK       I    between atoms: N_21  and  C_23 
REMARK    6  A    between atoms: C_23  and  C_25 
ROOT
ATOM      1  C   LIG d   1       8.270  -0.533  -4.826  0.00  0.00     0.099 A 
ATOM      2  C   LIG d   1       7.689  -1.407  -3.948  0.00  0.00    -0.034 A 
ATOM      3  C   LIG d   1       6.902  -2.448  -4.452  0.00  0.00    -0.040 A 
ATOM      4  C   LIG d   1       6.735  -2.605  -5.791  0.00  0.00     0.027 A 
ATOM      5  N   LIG d   1       7.382  -1.796  -6.665  0.00  0.00    -0.310 N 
ATOM      6  C   LIG d   1       8.082  -0.728  -6.208  0.00  0.00     0.273 A 
ATOM      7  O   LIG d   1       8.552   0.071  -7.001  0.00  0.00    -0.266 OA
ATOM      8  C   LIG d   1       7.421  -2.047  -8.107  0.00  0.00     0.031 C 
ATOM      9  C   LIG d   1       6.288  -2.946  -8.567  0.00  0.00    -0.006 C 
ATOM     10  H   LIG d   1       6.523  -3.298  -9.572  0.00  0.00     0.033 H 
ATOM     11  C   LIG d   1       6.184  -4.164  -7.649  0.00  0.00    -0.037 C 
ATOM     12  C   LIG d   1       5.784  -3.685  -6.252  0.00  0.00     0.016 C 
ATOM     13  H   LIG d   1       5.796  -4.520  -5.551  0.00  0.00     0.038 H 
ATOM     14  C   LIG d   1       4.379  -3.065  -6.337  0.00  0.00     0.023 C 
ATOM     15  N   LIG d   1       4.470  -1.931  -7.270  0.00  0.00    -0.295 N 
ATOM     16  C   LIG d   1       4.967  -2.192  -8.626  0.00  0.00     0.019 C 
ATOM     17  C   LIG d   1       4.087  -0.692  -6.902  0.00  0.00     0.267 C 
ATOM     18  O   LIG d   1       3.845  -0.451  -5.737  0.00  0.00    -0.268 OA
ATOM     19  H   LIG d   1       7.834  -1.294  -2.884  0.00  0.00     0.064 H 
ATOM     20  H   LIG d   1       6.424  -3.136  -3.770  0.00  0.00     0.064 H 
ATOM     21  H   LIG d   1       7.352  -1.094  -8.632  0.00  0.00     0.050 H 
ATOM     22  H   LIG d   1       8.370  -2.519  -8.358  0.00  0.00     0.050 H 
ATOM     23  H   LIG d   1       7.148  -4.669  -7.601  0.00  0.00     0.028 H 
ATOM     24  H   LIG d   1       5.427  -4.848  -8.033  0.00  0.00     0.028 H 
ATOM     25  H   LIG d   1       3.667  -3.808  -6.694  0.00  0.00     0.047 H 
ATOM     26  H   LIG d   1       4.074  -2.700  -5.357  0.00  0.00     0.047 H 
ATOM     27  H   LIG d   1       5.114  -1.245  -9.144  0.00  0.00     0.047 H 
ATOM     28  H   LIG d   1       4.234  -2.790  -9.168  0.00  0.00     0.047 H 
ENDROOT
BRANCH   1  29
ATOM     29  N   LIG d   1       9.042   0.538  -4.358  0.00  0.00    -0.277 N 
ATOM     30  C   LIG d   1       8.447   1.695  -4.005  0.00  0.00     0.263 C 
ATOM     31  O   LIG d   1       7.256   1.842  -4.182  0.00  0.00    -0.270 OA
ATOM     32  H   LIG d   1      10.005   0.448  -4.288  0.00  0.00     0.155 HD
BRANCH  30  33
ATOM     33  C   LIG d   1       9.260   2.804  -3.390  0.00  0.00     0.046 C 
ATOM     34  H   LIG d   1       8.640   3.695  -3.286  0.00  0.00     0.091 H 
ATOM     35  H   LIG d   1       9.616   2.493  -2.408  0.00  0.00     0.091 H 
BRANCH  33  36
ATOM     36  N   LIG d   1      10.423   3.082  -4.259  0.00  0.00     0.237 N 
ATOM     37  H   LIG d   1      10.643   2.238  -4.801  0.00  0.00     0.203 HD
BRANCH  36  38
ATOM     38  C   LIG d   1      10.105   4.183  -5.192  0.00  0.00    -0.043 C 
ATOM     39  H   LIG d   1       9.759   5.060  -4.645  0.00  0.00     0.078 H 
ATOM     40  H   LIG d   1      11.002   4.439  -5.757  0.00  0.00     0.078 H 
ATOM     41  H   LIG d   1       9.326   3.851  -5.878  0.00  0.00     0.078 H 
ENDBRANCH  36  38
BRANCH  36  42
ATOM     42  C   LIG d   1      11.596   3.440  -3.434  0.00  0.00    -0.043 C 
ATOM     43  H   LIG d   1      12.399   2.731  -3.634  0.00  0.00     0.078 H 
ATOM     44  H   LIG d   1      11.923   4.445  -3.701  0.00  0.00     0.078 H 
ATOM     45  H   LIG d   1      11.341   3.411  -2.375  0.00  0.00     0.078 H 
ENDBRANCH  36  42
ENDBRANCH  33  36
ENDBRANCH  30  33
ENDBRANCH   1  29
BRANCH  17  46
ATOM     46  C   LIG d   1       3.962   0.376  -7.921  0.00  0.00     0.143 A 
ATOM     47  N   LIG d   1       5.021   1.107  -8.256  0.00  0.00    -0.247 NA
ATOM     48  C   LIG d   1       4.907   2.053  -9.166  0.00  0.00     0.046 A 
ATOM     49  C   LIG d   1       3.681   2.295  -9.769  0.00  0.00     0.046 A 
ATOM     50  H   LIG d   1       5.768   2.644  -9.440  0.00  0.00     0.085 H 
ATOM     51  N   LIG d   1       2.624   1.575  -9.437  0.00  0.00    -0.260 NA
ATOM     52  H   LIG d   1       3.591   3.073 -10.512  0.00  0.00     0.085 H 
ATOM     53  C   LIG d   1       2.731   0.622  -8.529  0.00  0.00     0.058 A 
ATOM     54  H   LIG d   1       1.867   0.033  -8.258  0.00  0.00     0.085 H 
ENDBRANCH  17  46
TORSDOF 6
ENDMDL
