MODEL 1
REMARK VINA RESULT:      -6.8      0.000      0.000
REMARK  4 active torsions:
REMARK  status: ('A' for Active; 'I' for Inactive)
REMARK    1  A    between atoms: C_4  and  C_7 
REMARK    2  A    between atoms: C_7  and  C_8 
REMARK    3  A    between atoms: C_8  and  C_9 
REMARK    4  A    between atoms: C_14  and  O_15 
ROOT
ATOM      1  C   LIG d   1       2.446   0.631  -5.206  0.00  0.00    -0.020 C 
ATOM      2  H   LIG d   1       2.730   1.665  -5.403  0.00  0.00     0.032 H 
ATOM      3  H   LIG d   1       1.366   0.569  -5.070  0.00  0.00     0.032 H 
ENDROOT
BRANCH   1   4
ATOM      4  C   LIG d   1       2.862  -0.244  -6.391  0.00  0.00    -0.024 C 
ATOM      5  H   LIG d   1       1.981  -0.734  -6.807  0.00  0.00     0.032 H 
ATOM      6  H   LIG d   1       3.571  -1.000  -6.053  0.00  0.00     0.032 H 
BRANCH   4   7
ATOM      7  C   LIG d   1       3.507   0.614  -7.448  0.00  0.00    -0.047 A 
ATOM      8  C   LIG d   1       2.793   1.644  -8.033  0.00  0.00    -0.059 A 
ATOM      9  C   LIG d   1       3.385   2.431  -9.003  0.00  0.00    -0.061 A 
ATOM     10  H   LIG d   1       1.773   1.831  -7.732  0.00  0.00     0.062 H 
ATOM     11  C   LIG d   1       4.690   2.188  -9.388  0.00  0.00    -0.062 A 
ATOM     12  H   LIG d   1       2.828   3.235  -9.459  0.00  0.00     0.062 H 
ATOM     13  C   LIG d   1       5.404   1.159  -8.803  0.00  0.00    -0.061 A 
ATOM     14  H   LIG d   1       5.154   2.807 -10.142  0.00  0.00     0.062 H 
ATOM     15  C   LIG d   1       4.813   0.372  -7.833  0.00  0.00    -0.059 A 
ATOM     16  H   LIG d   1       6.424   0.970  -9.104  0.00  0.00     0.062 H 
ATOM     17  H   LIG d   1       5.370  -0.433  -7.376  0.00  0.00     0.062 H 
ENDBRANCH   4   7
ENDBRANCH   1   4
BRANCH   1  18
ATOM     18  C   LIG d   1       3.139   0.148  -3.958  0.00  0.00    -0.006 A 
ATOM     19  C   LIG d   1       3.734   1.059  -3.098  0.00  0.00     0.120 A 
ATOM     20  C   LIG d   1       4.370   0.612  -1.949  0.00  0.00    -0.020 A 
ATOM     21  C   LIG d   1       4.410  -0.739  -1.665  0.00  0.00    -0.058 A 
ATOM     22  H   LIG d   1       4.834   1.319  -1.277  0.00  0.00     0.065 H 
ATOM     23  C   LIG d   1       3.816  -1.646  -2.524  0.00  0.00    -0.061 A 
ATOM     24  H   LIG d   1       4.904  -1.088  -0.770  0.00  0.00     0.062 H 
ATOM     25  C   LIG d   1       3.177  -1.202  -3.666  0.00  0.00    -0.055 A 
ATOM     26  H   LIG d   1       3.849  -2.701  -2.300  0.00  0.00     0.062 H 
ATOM     27  H   LIG d   1       2.710  -1.911  -4.334  0.00  0.00     0.062 H 
BRANCH  19  28
ATOM     28  O   LIG d   1       3.693   2.388  -3.380  0.00  0.00    -0.506 OA
ATOM     29  H   LIG d   1       4.560   2.818  -3.379  0.00  0.00     0.292 HD
ENDBRANCH  19  28
ENDBRANCH   1  18
TORSDOF 4
ENDMDL
MODEL 2
REMARK VINA RESULT:      -6.7      1.354      5.792
REMARK  4 active torsions:
REMARK  status: ('A' for Active; 'I' for Inactive)
REMARK    1  A    between atoms: C_4  and  C_7 
REMARK    2  A    between atoms: C_7  and  C_8 
REMARK    3  A    between atoms: C_8  and  C_9 
REMARK    4  A    between atoms: C_14  and  O_15 
ROOT
ATOM      1  C   LIG d   1       2.767  -0.122  -6.323  0.00  0.00    -0.020 C 
ATOM      2  H   LIG d   1       3.426  -0.920  -5.978  0.00  0.00     0.032 H 
ATOM      3  H   LIG d   1       1.843  -0.555  -6.708  0.00  0.00     0.032 H 
ENDROOT
BRANCH   1   4
ATOM      4  C   LIG d   1       2.445   0.812  -5.155  0.00  0.00    -0.024 C 
ATOM      5  H   LIG d   1       1.368   0.824  -4.986  0.00  0.00     0.032 H 
ATOM      6  H   LIG d   1       2.786   1.820  -5.392  0.00  0.00     0.032 H 
BRANCH   4   7
ATOM      7  C   LIG d   1       3.144   0.323  -3.913  0.00  0.00    -0.047 A 
ATOM      8  C   LIG d   1       3.729   1.228  -3.047  0.00  0.00    -0.059 A 
ATOM      9  C   LIG d   1       4.370   0.779  -1.908  0.00  0.00    -0.061 A 
ATOM     10  H   LIG d   1       3.685   2.285  -3.261  0.00  0.00     0.062 H 
ATOM     11  C   LIG d   1       4.427  -0.575  -1.635  0.00  0.00    -0.062 A 
ATOM     12  H   LIG d   1       4.826   1.486  -1.231  0.00  0.00     0.062 H 
ATOM     13  C   LIG d   1       3.842  -1.480  -2.501  0.00  0.00    -0.061 A 
ATOM     14  H   LIG d   1       4.923  -0.925  -0.742  0.00  0.00     0.062 H 
ATOM     15  C   LIG d   1       3.201  -1.031  -3.640  0.00  0.00    -0.059 A 
ATOM     16  H   LIG d   1       3.886  -2.538  -2.287  0.00  0.00     0.062 H 
ATOM     17  H   LIG d   1       2.744  -1.738  -4.317  0.00  0.00     0.062 H 
ENDBRANCH   4   7
ENDBRANCH   1   4
BRANCH   1  18
ATOM     18  C   LIG d   1       3.451   0.657  -7.417  0.00  0.00    -0.006 A 
ATOM     19  C   LIG d   1       4.736   0.317  -7.811  0.00  0.00     0.120 A 
ATOM     20  C   LIG d   1       5.364   1.036  -8.818  0.00  0.00    -0.020 A 
ATOM     21  C   LIG d   1       4.706   2.089  -9.426  0.00  0.00    -0.058 A 
ATOM     22  H   LIG d   1       6.364   0.774  -9.128  0.00  0.00     0.065 H 
ATOM     23  C   LIG d   1       3.424   2.425  -9.031  0.00  0.00    -0.061 A 
ATOM     24  H   LIG d   1       5.193   2.648 -10.211  0.00  0.00     0.062 H 
ATOM     25  C   LIG d   1       2.796   1.707  -8.031  0.00  0.00    -0.055 A 
ATOM     26  H   LIG d   1       2.912   3.248  -9.507  0.00  0.00     0.062 H 
ATOM     27  H   LIG d   1       1.793   1.969  -7.726  0.00  0.00     0.062 H 
BRANCH  19  28
ATOM     28  O   LIG d   1       5.381  -0.719  -7.212  0.00  0.00    -0.506 OA
ATOM     29  H   LIG d   1       4.793  -1.342  -6.763  0.00  0.00     0.292 HD
ENDBRANCH  19  28
ENDBRANCH   1  18
TORSDOF 4
ENDMDL
MODEL 3
REMARK VINA RESULT:      -6.6      1.415      1.855
REMARK  4 active torsions:
REMARK  status: ('A' for Active; 'I' for Inactive)
REMARK    1  A    between atoms: C_4  and  C_7 
REMARK    2  A    between atoms: C_7  and  C_8 
REMARK    3  A    between atoms: C_8  and  C_9 
REMARK    4  A    between atoms: C_14  and  O_15 
ROOT
ATOM      1  C   LIG d   1       2.806  -0.091  -5.506  0.00  0.00    -0.020 C 
ATOM      2  H   LIG d   1       2.396   0.888  -5.756  0.00  0.00     0.032 H 
ATOM      3  H   LIG d   1       2.016  -0.840  -5.558  0.00  0.00     0.032 H 
ENDROOT
BRANCH   1   4
ATOM      4  C   LIG d   1       3.913  -0.447  -6.500  0.00  0.00    -0.024 C 
ATOM      5  H   LIG d   1       3.726  -1.438  -6.913  0.00  0.00     0.032 H 
ATOM      6  H   LIG d   1       4.876  -0.443  -5.989  0.00  0.00     0.032 H 
BRANCH   4   7
ATOM      7  C   LIG d   1       3.932   0.567  -7.616  0.00  0.00    -0.047 A 
ATOM      8  C   LIG d   1       2.791   1.287  -7.915  0.00  0.00    -0.059 A 
ATOM      9  C   LIG d   1       2.809   2.216  -8.938  0.00  0.00    -0.061 A 
ATOM     10  H   LIG d   1       1.886   1.122  -7.350  0.00  0.00     0.062 H 
ATOM     11  C   LIG d   1       3.969   2.426  -9.662  0.00  0.00    -0.062 A 
ATOM     12  H   LIG d   1       1.918   2.779  -9.172  0.00  0.00     0.062 H 
ATOM     13  C   LIG d   1       5.110   1.705  -9.362  0.00  0.00    -0.061 A 
ATOM     14  H   LIG d   1       3.984   3.155 -10.457  0.00  0.00     0.062 H 
ATOM     15  C   LIG d   1       5.092   0.776  -8.339  0.00  0.00    -0.059 A 
ATOM     16  H   LIG d   1       6.016   1.869  -9.927  0.00  0.00     0.062 H 
ATOM     17  H   LIG d   1       5.984   0.213  -8.105  0.00  0.00     0.062 H 
ENDBRANCH   4   7
ENDBRANCH   1   4
BRANCH   1  18
ATOM     18  C   LIG d   1       3.375  -0.056  -4.112  0.00  0.00    -0.006 A 
ATOM     19  C   LIG d   1       3.733  -1.236  -3.478  0.00  0.00     0.120 A 
ATOM     20  C   LIG d   1       4.257  -1.201  -2.193  0.00  0.00    -0.020 A 
ATOM     21  C   LIG d   1       4.421   0.011  -1.550  0.00  0.00    -0.058 A 
ATOM     22  H   LIG d   1       4.537  -2.118  -1.698  0.00  0.00     0.065 H 
ATOM     23  C   LIG d   1       4.064   1.187  -2.184  0.00  0.00    -0.061 A 
ATOM     24  H   LIG d   1       4.831   0.039  -0.551  0.00  0.00     0.062 H 
ATOM     25  C   LIG d   1       3.546   1.154  -3.465  0.00  0.00    -0.055 A 
ATOM     26  H   LIG d   1       4.193   2.132  -1.679  0.00  0.00     0.062 H 
ATOM     27  H   LIG d   1       3.272   2.073  -3.960  0.00  0.00     0.062 H 
BRANCH  19  28
ATOM     28  O   LIG d   1       3.571  -2.427  -4.114  0.00  0.00    -0.506 OA
ATOM     29  H   LIG d   1       3.483  -3.183  -3.517  0.00  0.00     0.292 HD
ENDBRANCH  19  28
ENDBRANCH   1  18
TORSDOF 4
ENDMDL
MODEL 4
REMARK VINA RESULT:      -6.4      1.871      2.199
REMARK  4 active torsions:
REMARK  status: ('A' for Active; 'I' for Inactive)
REMARK    1  A    between atoms: C_4  and  C_7 
REMARK    2  A    between atoms: C_7  and  C_8 
REMARK    3  A    between atoms: C_8  and  C_9 
REMARK    4  A    between atoms: C_14  and  O_15 
ROOT
ATOM      1  C   LIG d   1       2.908   0.183  -5.516  0.00  0.00    -0.020 C 
ATOM      2  H   LIG d   1       2.678   1.248  -5.542  0.00  0.00     0.032 H 
ATOM      3  H   LIG d   1       2.003  -0.390  -5.720  0.00  0.00     0.032 H 
ENDROOT
BRANCH   1   4
ATOM      4  C   LIG d   1       3.963  -0.136  -6.578  0.00  0.00    -0.024 C 
ATOM      5  H   LIG d   1       4.701  -0.822  -6.162  0.00  0.00     0.032 H 
ATOM      6  H   LIG d   1       4.458   0.785  -6.886  0.00  0.00     0.032 H 
BRANCH   4   7
ATOM      7  C   LIG d   1       3.298  -0.773  -7.771  0.00  0.00    -0.047 A 
ATOM      8  C   LIG d   1       2.325  -0.085  -8.470  0.00  0.00    -0.059 A 
ATOM      9  C   LIG d   1       1.715  -0.669  -9.564  0.00  0.00    -0.061 A 
ATOM     10  H   LIG d   1       2.041   0.910  -8.161  0.00  0.00     0.062 H 
ATOM     11  C   LIG d   1       2.079  -1.944  -9.959  0.00  0.00    -0.062 A 
ATOM     12  H   LIG d   1       0.956  -0.132 -10.111  0.00  0.00     0.062 H 
ATOM     13  C   LIG d   1       3.053  -2.632  -9.259  0.00  0.00    -0.061 A 
ATOM     14  H   LIG d   1       1.607  -2.399 -10.816  0.00  0.00     0.062 H 
ATOM     15  C   LIG d   1       3.662  -2.048  -8.165  0.00  0.00    -0.059 A 
ATOM     16  H   LIG d   1       3.337  -3.628  -9.568  0.00  0.00     0.062 H 
ATOM     17  H   LIG d   1       4.423  -2.586  -7.618  0.00  0.00     0.062 H 
ENDBRANCH   4   7
ENDBRANCH   1   4
BRANCH   1  18
ATOM     18  C   LIG d   1       3.440  -0.183  -4.154  0.00  0.00    -0.006 A 
ATOM     19  C   LIG d   1       3.734   0.811  -3.234  0.00  0.00     0.120 A 
ATOM     20  C   LIG d   1       4.223   0.472  -1.981  0.00  0.00    -0.020 A 
ATOM     21  C   LIG d   1       4.415  -0.857  -1.653  0.00  0.00    -0.058 A 
ATOM     22  H   LIG d   1       4.453   1.244  -1.261  0.00  0.00     0.065 H 
ATOM     23  C   LIG d   1       4.121  -1.847  -2.573  0.00  0.00    -0.061 A 
ATOM     24  H   LIG d   1       4.794  -1.122  -0.677  0.00  0.00     0.062 H 
ATOM     25  C   LIG d   1       3.629  -1.510  -3.820  0.00  0.00    -0.055 A 
ATOM     26  H   LIG d   1       4.272  -2.884  -2.315  0.00  0.00     0.062 H 
ATOM     27  H   LIG d   1       3.396  -2.285  -4.536  0.00  0.00     0.062 H 
BRANCH  19  28
ATOM     28  O   LIG d   1       3.544   2.118  -3.559  0.00  0.00    -0.506 OA
ATOM     29  H   LIG d   1       4.091   2.733  -3.052  0.00  0.00     0.292 HD
ENDBRANCH  19  28
ENDBRANCH   1  18
TORSDOF 4
ENDMDL
MODEL 5
REMARK VINA RESULT:      -6.2      1.800      6.028
REMARK  4 active torsions:
REMARK  status: ('A' for Active; 'I' for Inactive)
REMARK    1  A    between atoms: C_4  and  C_7 
REMARK    2  A    between atoms: C_7  and  C_8 
REMARK    3  A    between atoms: C_8  and  C_9 
REMARK    4  A    between atoms: C_14  and  O_15 
ROOT
ATOM      1  C   LIG d   1       3.938  -0.361  -6.493  0.00  0.00    -0.020 C 
ATOM      2  H   LIG d   1       4.912   0.073  -6.268  0.00  0.00     0.032 H 
ATOM      3  H   LIG d   1       3.993  -1.446  -6.402  0.00  0.00     0.032 H 
ENDROOT
BRANCH   1   4
ATOM      4  C   LIG d   1       2.899   0.181  -5.509  0.00  0.00    -0.024 C 
ATOM      5  H   LIG d   1       1.968  -0.374  -5.622  0.00  0.00     0.032 H 
ATOM      6  H   LIG d   1       2.719   1.236  -5.716  0.00  0.00     0.032 H 
BRANCH   4   7
ATOM      7  C   LIG d   1       3.411   0.024  -4.101  0.00  0.00    -0.047 A 
ATOM      8  C   LIG d   1       3.612  -1.238  -3.574  0.00  0.00    -0.059 A 
ATOM      9  C   LIG d   1       4.081  -1.382  -2.282  0.00  0.00    -0.061 A 
ATOM     10  H   LIG d   1       3.400  -2.112  -4.172  0.00  0.00     0.062 H 
ATOM     11  C   LIG d   1       4.350  -0.262  -1.516  0.00  0.00    -0.062 A 
ATOM     12  H   LIG d   1       4.238  -2.367  -1.871  0.00  0.00     0.062 H 
ATOM     13  C   LIG d   1       4.149   1.000  -2.043  0.00  0.00    -0.061 A 
ATOM     14  H   LIG d   1       4.722  -0.374  -0.509  0.00  0.00     0.062 H 
ATOM     15  C   LIG d   1       3.680   1.144  -3.335  0.00  0.00    -0.059 A 
ATOM     16  H   LIG d   1       4.360   1.874  -1.444  0.00  0.00     0.062 H 
ATOM     17  H   LIG d   1       3.523   2.130  -3.746  0.00  0.00     0.062 H 
ENDBRANCH   4   7
ENDBRANCH   1   4
BRANCH   1  18
ATOM     18  C   LIG d   1       3.537   0.005  -7.899  0.00  0.00    -0.006 A 
ATOM     19  C   LIG d   1       4.320   0.879  -8.638  0.00  0.00     0.120 A 
ATOM     20  C   LIG d   1       3.949   1.215  -9.932  0.00  0.00    -0.020 A 
ATOM     21  C   LIG d   1       2.801   0.676 -10.481  0.00  0.00    -0.058 A 
ATOM     22  H   LIG d   1       4.556   1.895 -10.511  0.00  0.00     0.065 H 
ATOM     23  C   LIG d   1       2.023  -0.196  -9.743  0.00  0.00    -0.061 A 
ATOM     24  H   LIG d   1       2.513   0.936 -11.489  0.00  0.00     0.062 H 
ATOM     25  C   LIG d   1       2.393  -0.535  -8.455  0.00  0.00    -0.055 A 
ATOM     26  H   LIG d   1       1.126  -0.615 -10.174  0.00  0.00     0.062 H 
ATOM     27  H   LIG d   1       1.786  -1.219  -7.881  0.00  0.00     0.062 H 
BRANCH  19  28
ATOM     28  O   LIG d   1       5.449   1.408  -8.095  0.00  0.00    -0.506 OA
ATOM     29  H   LIG d   1       5.338   2.306  -7.755  0.00  0.00     0.292 HD
ENDBRANCH  19  28
ENDBRANCH   1  18
TORSDOF 4
ENDMDL
MODEL 6
REMARK VINA RESULT:      -6.2      1.712      2.083
REMARK  4 active torsions:
REMARK  status: ('A' for Active; 'I' for Inactive)
REMARK    1  A    between atoms: C_4  and  C_7 
REMARK    2  A    between atoms: C_7  and  C_8 
REMARK    3  A    between atoms: C_8  and  C_9 
REMARK    4  A    between atoms: C_14  and  O_15 
ROOT
ATOM      1  C   LIG d   1       3.760  -0.502  -5.919  0.00  0.00    -0.020 C 
ATOM      2  H   LIG d   1       3.431  -1.533  -6.053  0.00  0.00     0.032 H 
ATOM      3  H   LIG d   1       4.709  -0.354  -6.434  0.00  0.00     0.032 H 
ENDROOT
BRANCH   1   4
ATOM      4  C   LIG d   1       2.710   0.446  -6.501  0.00  0.00    -0.024 C 
ATOM      5  H   LIG d   1       2.679   1.361  -5.908  0.00  0.00     0.032 H 
ATOM      6  H   LIG d   1       1.732  -0.035  -6.477  0.00  0.00     0.032 H 
BRANCH   4   7
ATOM      7  C   LIG d   1       3.071   0.782  -7.925  0.00  0.00    -0.047 A 
ATOM      8  C   LIG d   1       3.127   2.102  -8.331  0.00  0.00    -0.059 A 
ATOM      9  C   LIG d   1       3.458   2.410  -9.638  0.00  0.00    -0.061 A 
ATOM     10  H   LIG d   1       2.912   2.892  -7.628  0.00  0.00     0.062 H 
ATOM     11  C   LIG d   1       3.731   1.397 -10.538  0.00  0.00    -0.062 A 
ATOM     12  H   LIG d   1       3.502   3.441  -9.955  0.00  0.00     0.062 H 
ATOM     13  C   LIG d   1       3.674   0.077 -10.132  0.00  0.00    -0.061 A 
ATOM     14  H   LIG d   1       3.994   1.637 -11.557  0.00  0.00     0.062 H 
ATOM     15  C   LIG d   1       3.344  -0.231  -8.826  0.00  0.00    -0.059 A 
ATOM     16  H   LIG d   1       3.888  -0.714 -10.836  0.00  0.00     0.062 H 
ATOM     17  H   LIG d   1       3.300  -1.262  -8.509  0.00  0.00     0.062 H 
ENDBRANCH   4   7
ENDBRANCH   1   4
BRANCH   1  18
ATOM     18  C   LIG d   1       3.935  -0.218  -4.450  0.00  0.00    -0.006 A 
ATOM     19  C   LIG d   1       4.624  -1.113  -3.646  0.00  0.00     0.120 A 
ATOM     20  C   LIG d   1       4.783  -0.849  -2.293  0.00  0.00    -0.020 A 
ATOM     21  C   LIG d   1       4.256   0.307  -1.751  0.00  0.00    -0.058 A 
ATOM     22  H   LIG d   1       5.320  -1.545  -1.665  0.00  0.00     0.065 H 
ATOM     23  C   LIG d   1       3.570   1.199  -2.554  0.00  0.00    -0.061 A 
ATOM     24  H   LIG d   1       4.381   0.514  -0.698  0.00  0.00     0.062 H 
ATOM     25  C   LIG d   1       3.414   0.940  -3.903  0.00  0.00    -0.055 A 
ATOM     26  H   LIG d   1       3.158   2.102  -2.128  0.00  0.00     0.062 H 
ATOM     27  H   LIG d   1       2.881   1.640  -4.530  0.00  0.00     0.062 H 
BRANCH  19  28
ATOM     28  O   LIG d   1       5.142  -2.250  -4.183  0.00  0.00    -0.506 OA
ATOM     29  H   LIG d   1       5.144  -2.263  -5.150  0.00  0.00     0.292 HD
ENDBRANCH  19  28
ENDBRANCH   1  18
TORSDOF 4
ENDMDL
MODEL 7
REMARK VINA RESULT:      -6.0      1.544      1.751
REMARK  4 active torsions:
REMARK  status: ('A' for Active; 'I' for Inactive)
REMARK    1  A    between atoms: C_4  and  C_7 
REMARK    2  A    between atoms: C_7  and  C_8 
REMARK    3  A    between atoms: C_8  and  C_9 
REMARK    4  A    between atoms: C_14  and  O_15 
ROOT
ATOM      1  C   LIG d   1       5.227  -0.799  -5.850  0.00  0.00    -0.020 C 
ATOM      2  H   LIG d   1       5.631  -1.803  -5.724  0.00  0.00     0.032 H 
ATOM      3  H   LIG d   1       5.994  -0.148  -6.271  0.00  0.00     0.032 H 
ENDROOT
BRANCH   1   4
ATOM      4  C   LIG d   1       4.025  -0.848  -6.795  0.00  0.00    -0.024 C 
ATOM      5  H   LIG d   1       3.104  -0.855  -6.211  0.00  0.00     0.032 H 
ATOM      6  H   LIG d   1       4.076  -1.752  -7.402  0.00  0.00     0.032 H 
BRANCH   4   7
ATOM      7  C   LIG d   1       4.041   0.363  -7.692  0.00  0.00    -0.047 A 
ATOM      8  C   LIG d   1       2.881   1.085  -7.900  0.00  0.00    -0.059 A 
ATOM      9  C   LIG d   1       2.896   2.195  -8.724  0.00  0.00    -0.061 A 
ATOM     10  H   LIG d   1       1.963   0.781  -7.420  0.00  0.00     0.062 H 
ATOM     11  C   LIG d   1       4.072   2.583  -9.339  0.00  0.00    -0.062 A 
ATOM     12  H   LIG d   1       1.991   2.759  -8.886  0.00  0.00     0.062 H 
ATOM     13  C   LIG d   1       5.232   1.861  -9.131  0.00  0.00    -0.061 A 
ATOM     14  H   LIG d   1       4.085   3.453  -9.978  0.00  0.00     0.062 H 
ATOM     15  C   LIG d   1       5.217   0.751  -8.308  0.00  0.00    -0.059 A 
ATOM     16  H   LIG d   1       6.151   2.164  -9.612  0.00  0.00     0.062 H 
ATOM     17  H   LIG d   1       6.123   0.186  -8.146  0.00  0.00     0.062 H 
ENDBRANCH   4   7
ENDBRANCH   1   4
BRANCH   1  18
ATOM     18  C   LIG d   1       4.792  -0.261  -4.511  0.00  0.00    -0.006 A 
ATOM     19  C   LIG d   1       5.708   0.378  -3.689  0.00  0.00     0.120 A 
ATOM     20  C   LIG d   1       5.305   0.872  -2.456  0.00  0.00    -0.020 A 
ATOM     21  C   LIG d   1       3.992   0.726  -2.052  0.00  0.00    -0.058 A 
ATOM     22  H   LIG d   1       6.015   1.371  -1.814  0.00  0.00     0.065 H 
ATOM     23  C   LIG d   1       3.080   0.088  -2.873  0.00  0.00    -0.061 A 
ATOM     24  H   LIG d   1       3.677   1.111  -1.093  0.00  0.00     0.062 H 
ATOM     25  C   LIG d   1       3.479  -0.400  -4.104  0.00  0.00    -0.055 A 
ATOM     26  H   LIG d   1       2.055  -0.025  -2.555  0.00  0.00     0.062 H 
ATOM     27  H   LIG d   1       2.765  -0.895  -4.746  0.00  0.00     0.062 H 
BRANCH  19  28
ATOM     28  O   LIG d   1       6.999   0.521  -4.090  0.00  0.00    -0.506 OA
ATOM     29  H   LIG d   1       7.178   1.351  -4.553  0.00  0.00     0.292 HD
ENDBRANCH  19  28
ENDBRANCH   1  18
TORSDOF 4
ENDMDL
MODEL 8
REMARK VINA RESULT:      -5.9      1.768      5.816
REMARK  4 active torsions:
REMARK  status: ('A' for Active; 'I' for Inactive)
REMARK    1  A    between atoms: C_4  and  C_7 
REMARK    2  A    between atoms: C_7  and  C_8 
REMARK    3  A    between atoms: C_8  and  C_9 
REMARK    4  A    between atoms: C_14  and  O_15 
ROOT
ATOM      1  C   LIG d   1       4.975  -0.940  -7.170  0.00  0.00    -0.020 C 
ATOM      2  H   LIG d   1       5.678  -1.519  -7.769  0.00  0.00     0.032 H 
ATOM      3  H   LIG d   1       4.106  -1.554  -6.933  0.00  0.00     0.032 H 
ENDROOT
BRANCH   1   4
ATOM      4  C   LIG d   1       5.655  -0.496  -5.874  0.00  0.00    -0.024 C 
ATOM      5  H   LIG d   1       5.826   0.580  -5.903  0.00  0.00     0.032 H 
ATOM      6  H   LIG d   1       6.610  -1.011  -5.769  0.00  0.00     0.032 H 
BRANCH   4   7
ATOM      7  C   LIG d   1       4.770  -0.834  -4.701  0.00  0.00    -0.047 A 
ATOM      8  C   LIG d   1       3.717  -0.003  -4.368  0.00  0.00    -0.059 A 
ATOM      9  C   LIG d   1       2.906  -0.313  -3.293  0.00  0.00    -0.061 A 
ATOM     10  H   LIG d   1       3.528   0.888  -4.948  0.00  0.00     0.062 H 
ATOM     11  C   LIG d   1       3.149  -1.453  -2.550  0.00  0.00    -0.062 A 
ATOM     12  H   LIG d   1       2.083   0.335  -3.033  0.00  0.00     0.062 H 
ATOM     13  C   LIG d   1       4.202  -2.284  -2.883  0.00  0.00    -0.061 A 
ATOM     14  H   LIG d   1       2.512  -1.698  -1.713  0.00  0.00     0.062 H 
ATOM     15  C   LIG d   1       5.014  -1.974  -3.958  0.00  0.00    -0.059 A 
ATOM     16  H   LIG d   1       4.392  -3.175  -2.302  0.00  0.00     0.062 H 
ATOM     17  H   LIG d   1       5.837  -2.623  -4.218  0.00  0.00     0.062 H 
ENDBRANCH   4   7
ENDBRANCH   1   4
BRANCH   1  18
ATOM     18  C   LIG d   1       4.535   0.274  -7.948  0.00  0.00    -0.006 A 
ATOM     19  C   LIG d   1       3.185   0.552  -8.096  0.00  0.00     0.120 A 
ATOM     20  C   LIG d   1       2.783   1.670  -8.812  0.00  0.00    -0.020 A 
ATOM     21  C   LIG d   1       3.729   2.504  -9.376  0.00  0.00    -0.058 A 
ATOM     22  H   LIG d   1       1.732   1.890  -8.928  0.00  0.00     0.065 H 
ATOM     23  C   LIG d   1       5.075   2.225  -9.227  0.00  0.00    -0.061 A 
ATOM     24  H   LIG d   1       3.417   3.376  -9.932  0.00  0.00     0.062 H 
ATOM     25  C   LIG d   1       5.478   1.114  -8.509  0.00  0.00    -0.055 A 
ATOM     26  H   LIG d   1       5.813   2.878  -9.668  0.00  0.00     0.062 H 
ATOM     27  H   LIG d   1       6.530   0.900  -8.390  0.00  0.00     0.062 H 
BRANCH  19  28
ATOM     28  O   LIG d   1       2.256  -0.270  -7.540  0.00  0.00    -0.506 OA
ATOM     29  H   LIG d   1       2.265  -1.170  -7.894  0.00  0.00     0.292 HD
ENDBRANCH  19  28
ENDBRANCH   1  18
TORSDOF 4
ENDMDL
MODEL 9
REMARK VINA RESULT:      -5.6      2.692      3.409
REMARK  4 active torsions:
REMARK  status: ('A' for Active; 'I' for Inactive)
REMARK    1  A    between atoms: C_4  and  C_7 
REMARK    2  A    between atoms: C_7  and  C_8 
REMARK    3  A    between atoms: C_8  and  C_9 
REMARK    4  A    between atoms: C_14  and  O_15 
ROOT
ATOM      1  C   LIG d   1       4.340  -0.363  -6.500  0.00  0.00    -0.020 C 
ATOM      2  H   LIG d   1       4.699  -1.200  -7.099  0.00  0.00     0.032 H 
ATOM      3  H   LIG d   1       5.109   0.409  -6.457  0.00  0.00     0.032 H 
ENDROOT
BRANCH   1   4
ATOM      4  C   LIG d   1       3.074   0.213  -7.137  0.00  0.00    -0.024 C 
ATOM      5  H   LIG d   1       3.258   1.244  -7.442  0.00  0.00     0.032 H 
ATOM      6  H   LIG d   1       2.259   0.189  -6.414  0.00  0.00     0.032 H 
BRANCH   4   7
ATOM      7  C   LIG d   1       2.700  -0.609  -8.344  0.00  0.00    -0.047 A 
ATOM      8  C   LIG d   1       3.264  -1.857  -8.532  0.00  0.00    -0.059 A 
ATOM      9  C   LIG d   1       2.921  -2.610  -9.639  0.00  0.00    -0.061 A 
ATOM     10  H   LIG d   1       3.973  -2.242  -7.815  0.00  0.00     0.062 H 
ATOM     11  C   LIG d   1       2.014  -2.115 -10.558  0.00  0.00    -0.062 A 
ATOM     12  H   LIG d   1       3.361  -3.585  -9.786  0.00  0.00     0.062 H 
ATOM     13  C   LIG d   1       1.451  -0.867 -10.370  0.00  0.00    -0.061 A 
ATOM     14  H   LIG d   1       1.742  -2.706 -11.420  0.00  0.00     0.062 H 
ATOM     15  C   LIG d   1       1.793  -0.114  -9.263  0.00  0.00    -0.059 A 
ATOM     16  H   LIG d   1       0.742  -0.481 -11.088  0.00  0.00     0.062 H 
ATOM     17  H   LIG d   1       1.353   0.862  -9.116  0.00  0.00     0.062 H 
ENDBRANCH   4   7
ENDBRANCH   1   4
BRANCH   1  18
ATOM     18  C   LIG d   1       4.028  -0.841  -5.105  0.00  0.00    -0.006 A 
ATOM     19  C   LIG d   1       4.689  -1.943  -4.585  0.00  0.00     0.120 A 
ATOM     20  C   LIG d   1       4.399  -2.381  -3.300  0.00  0.00    -0.020 A 
ATOM     21  C   LIG d   1       3.453  -1.717  -2.544  0.00  0.00    -0.058 A 
ATOM     22  H   LIG d   1       4.913  -3.239  -2.892  0.00  0.00     0.065 H 
ATOM     23  C   LIG d   1       2.795  -0.618  -3.065  0.00  0.00    -0.061 A 
ATOM     24  H   LIG d   1       3.228  -2.057  -1.543  0.00  0.00     0.062 H 
ATOM     25  C   LIG d   1       3.086  -0.178  -4.342  0.00  0.00    -0.055 A 
ATOM     26  H   LIG d   1       2.056  -0.101  -2.471  0.00  0.00     0.062 H 
ATOM     27  H   LIG d   1       2.574   0.683  -4.746  0.00  0.00     0.062 H 
BRANCH  19  28
ATOM     28  O   LIG d   1       5.620  -2.594  -5.332  0.00  0.00    -0.506 OA
ATOM     29  H   LIG d   1       6.302  -3.039  -4.810  0.00  0.00     0.292 HD
ENDBRANCH  19  28
ENDBRANCH   1  18
TORSDOF 4
ENDMDL
