MODEL 1
REMARK VINA RESULT:      -5.5      0.000      0.000
REMARK  6 active torsions:
REMARK  status: ('A' for Active; 'I' for Inactive)
REMARK    1  A    between atoms: C_1  and  C_2 
REMARK    2  A    between atoms: C_3  and  C_4 
REMARK    3  A    between atoms: C_4  and  N_5 
REMARK    4  A    between atoms: C_12  and  C_16 
REMARK    5  A    between atoms: C_13  and  C_15 
REMARK    6  A    between atoms: N_17  and  C_20 
ROOT
ATOM      1  N   LIG d   1       3.535  -0.246  -6.011  0.00  0.00    -0.255 N 
ATOM      2  C   LIG d   1       4.499  -1.189  -6.063  0.00  0.00     0.288 A 
ATOM      3  O   LIG d   1       4.649  -1.861  -7.068  0.00  0.00    -0.265 OA
ATOM      4  C   LIG d   1       5.329  -1.385  -4.946  0.00  0.00     0.210 A 
ATOM      5  C   LIG d   1       5.139  -0.599  -3.811  0.00  0.00     0.322 A 
ATOM      6  C   LIG d   1       6.790  -1.953  -3.397  0.00  0.00     0.472 A 
ATOM      7  N   LIG d   1       6.385  -2.234  -4.657  0.00  0.00    -0.212 N 
ATOM      8  C   LIG d   1       7.194  -3.253  -5.136  0.00  0.00     0.068 A 
ATOM      9  C   LIG d   1       8.058  -3.565  -4.177  0.00  0.00     0.130 A 
ATOM     10  O   LIG d   1       7.818  -2.775  -3.107  0.00  0.00    -0.393 OA
ATOM     11  N   LIG d   1       4.127   0.348  -3.817  0.00  0.00    -0.241 N 
ATOM     12  C   LIG d   1       3.355   0.503  -4.909  0.00  0.00     0.337 A 
ATOM     13  O   LIG d   1       2.476   1.342  -4.900  0.00  0.00    -0.246 OA
ATOM     14  N   LIG d   1       6.038  -0.980  -2.903  0.00  0.00    -0.138 N 
ATOM     15  H   LIG d   1       6.135  -0.579  -1.963  0.00  0.00     0.460 HD
ENDROOT
BRANCH   1  16
ATOM     16  C   LIG d   1       2.667  -0.039  -7.173  0.00  0.00     0.049 C 
ATOM     17  H   LIG d   1       2.399  -1.003  -7.603  0.00  0.00     0.054 H 
ATOM     18  H   LIG d   1       1.763   0.486  -6.863  0.00  0.00     0.054 H 
BRANCH  16  19
ATOM     19  C   LIG d   1       3.397   0.784  -8.203  0.00  0.00    -0.069 C 
ATOM     20  C   LIG d   1       2.939   1.962  -8.546  0.00  0.00    -0.089 C 
ATOM     21  H   LIG d   1       2.037   2.344  -8.091  0.00  0.00     0.057 H 
ATOM     22  H   LIG d   1       4.299   0.401  -8.659  0.00  0.00     0.059 H 
BRANCH  20  23
ATOM     23  C   LIG d   1       3.670   2.784  -9.577  0.00  0.00    -0.047 C 
ATOM     24  H   LIG d   1       3.146   3.728  -9.726  0.00  0.00     0.027 H 
ATOM     25  H   LIG d   1       4.685   2.982  -9.232  0.00  0.00     0.027 H 
ATOM     26  H   LIG d   1       3.707   2.236 -10.519  0.00  0.00     0.027 H 
ENDBRANCH  20  23
ENDBRANCH  16  19
ENDBRANCH   1  16
BRANCH  11  27
ATOM     27  C   LIG d   1       3.901   1.185  -2.636  0.00  0.00     0.022 C 
ATOM     28  H   LIG d   1       4.786   1.163  -2.000  0.00  0.00     0.046 H 
ATOM     29  H   LIG d   1       3.044   0.803  -2.079  0.00  0.00     0.046 H 
ATOM     30  H   LIG d   1       3.703   2.210  -2.949  0.00  0.00     0.046 H 
ENDBRANCH  11  27
BRANCH   8  31
ATOM     31  C   LIG d   1       7.108  -3.891  -6.498  0.00  0.00    -0.020 C 
ATOM     32  H   LIG d   1       6.093  -4.250  -6.668  0.00  0.00     0.029 H 
ATOM     33  H   LIG d   1       7.364  -3.155  -7.260  0.00  0.00     0.029 H 
ATOM     34  H   LIG d   1       7.803  -4.727  -6.553  0.00  0.00     0.029 H 
ENDBRANCH   8  31
BRANCH   9  35
ATOM     35  C   LIG d   1       9.125  -4.625  -4.266  0.00  0.00    -0.004 C 
ATOM     36  H   LIG d   1      10.087  -4.155  -4.473  0.00  0.00     0.031 H 
ATOM     37  H   LIG d   1       9.181  -5.165  -3.322  0.00  0.00     0.031 H 
ATOM     38  H   LIG d   1       8.880  -5.321  -5.069  0.00  0.00     0.031 H 
ENDBRANCH   9  35
TORSDOF 6
ENDMDL
MODEL 2
REMARK VINA RESULT:      -5.4      2.207      6.061
REMARK  6 active torsions:
REMARK  status: ('A' for Active; 'I' for Inactive)
REMARK    1  A    between atoms: C_1  and  C_2 
REMARK    2  A    between atoms: C_3  and  C_4 
REMARK    3  A    between atoms: C_4  and  N_5 
REMARK    4  A    between atoms: C_12  and  C_16 
REMARK    5  A    between atoms: C_13  and  C_15 
REMARK    6  A    between atoms: N_17  and  C_20 
ROOT
ATOM      1  N   LIG d   1       6.097  -1.423  -5.239  0.00  0.00    -0.255 N 
ATOM      2  C   LIG d   1       5.235  -0.944  -6.160  0.00  0.00     0.288 A 
ATOM      3  O   LIG d   1       5.013   0.252  -6.233  0.00  0.00    -0.265 OA
ATOM      4  C   LIG d   1       4.595  -1.839  -7.035  0.00  0.00     0.210 A 
ATOM      5  C   LIG d   1       4.870  -3.202  -6.934  0.00  0.00     0.322 A 
ATOM      6  C   LIG d   1       3.433  -2.945  -8.545  0.00  0.00     0.472 A 
ATOM      7  N   LIG d   1       3.682  -1.703  -8.067  0.00  0.00    -0.212 N 
ATOM      8  C   LIG d   1       2.921  -0.812  -8.809  0.00  0.00     0.068 A 
ATOM      9  C   LIG d   1       2.238  -1.515  -9.705  0.00  0.00     0.130 A 
ATOM     10  O   LIG d   1       2.543  -2.823  -9.551  0.00  0.00    -0.393 OA
ATOM     11  N   LIG d   1       5.761  -3.633  -5.963  0.00  0.00    -0.241 N 
ATOM     12  C   LIG d   1       6.351  -2.740  -5.146  0.00  0.00     0.337 A 
ATOM     13  O   LIG d   1       7.133  -3.134  -4.303  0.00  0.00    -0.246 OA
ATOM     14  N   LIG d   1       4.143  -3.828  -7.860  0.00  0.00    -0.138 N 
ATOM     15  H   LIG d   1       4.136  -4.842  -8.019  0.00  0.00     0.460 HD
ENDROOT
BRANCH   1  16
ATOM     16  C   LIG d   1       6.765  -0.494  -4.325  0.00  0.00     0.049 C 
ATOM     17  H   LIG d   1       7.742  -0.893  -4.053  0.00  0.00     0.054 H 
ATOM     18  H   LIG d   1       6.889   0.472  -4.815  0.00  0.00     0.054 H 
BRANCH  16  19
ATOM     19  C   LIG d   1       5.929  -0.325  -3.083  0.00  0.00    -0.069 C 
ATOM     20  C   LIG d   1       5.359   0.827  -2.828  0.00  0.00    -0.089 C 
ATOM     21  H   LIG d   1       5.489   1.656  -3.508  0.00  0.00     0.057 H 
ATOM     22  H   LIG d   1       5.800  -1.154  -2.402  0.00  0.00     0.059 H 
BRANCH  20  23
ATOM     23  C   LIG d   1       4.523   0.996  -1.585  0.00  0.00    -0.047 C 
ATOM     24  H   LIG d   1       4.656   0.130  -0.937  0.00  0.00     0.027 H 
ATOM     25  H   LIG d   1       4.834   1.897  -1.057  0.00  0.00     0.027 H 
ATOM     26  H   LIG d   1       3.473   1.083  -1.864  0.00  0.00     0.027 H 
ENDBRANCH  20  23
ENDBRANCH  16  19
ENDBRANCH   1  16
BRANCH  11  27
ATOM     27  C   LIG d   1       6.064  -5.059  -5.830  0.00  0.00     0.022 C 
ATOM     28  H   LIG d   1       6.750  -5.360  -6.621  0.00  0.00     0.046 H 
ATOM     29  H   LIG d   1       5.142  -5.636  -5.910  0.00  0.00     0.046 H 
ATOM     30  H   LIG d   1       6.525  -5.244  -4.860  0.00  0.00     0.046 H 
ENDBRANCH  11  27
BRANCH   8  31
ATOM     31  C   LIG d   1       2.879   0.683  -8.630  0.00  0.00    -0.020 C 
ATOM     32  H   LIG d   1       1.977   0.958  -8.083  0.00  0.00     0.029 H 
ATOM     33  H   LIG d   1       3.756   1.006  -8.069  0.00  0.00     0.029 H 
ATOM     34  H   LIG d   1       2.873   1.166  -9.606  0.00  0.00     0.029 H 
ENDBRANCH   8  31
BRANCH   9  35
ATOM     35  C   LIG d   1       1.281  -0.949 -10.722  0.00  0.00    -0.004 C 
ATOM     36  H   LIG d   1       1.155  -1.660 -11.537  0.00  0.00     0.031 H 
ATOM     37  H   LIG d   1       0.317  -0.763 -10.249  0.00  0.00     0.031 H 
ATOM     38  H   LIG d   1       1.680  -0.013 -11.114  0.00  0.00     0.031 H 
ENDBRANCH   9  35
TORSDOF 6
ENDMDL
MODEL 3
REMARK VINA RESULT:      -5.3      1.770      5.881
REMARK  6 active torsions:
REMARK  status: ('A' for Active; 'I' for Inactive)
REMARK    1  A    between atoms: C_1  and  C_2 
REMARK    2  A    between atoms: C_3  and  C_4 
REMARK    3  A    between atoms: C_4  and  N_5 
REMARK    4  A    between atoms: C_12  and  C_16 
REMARK    5  A    between atoms: C_13  and  C_15 
REMARK    6  A    between atoms: N_17  and  C_20 
ROOT
ATOM      1  N   LIG d   1       6.055  -1.199  -4.294  0.00  0.00    -0.255 N 
ATOM      2  C   LIG d   1       6.034  -0.802  -5.584  0.00  0.00     0.288 A 
ATOM      3  O   LIG d   1       7.057  -0.805  -6.246  0.00  0.00    -0.265 OA
ATOM      4  C   LIG d   1       4.820  -0.386  -6.156  0.00  0.00     0.210 A 
ATOM      5  C   LIG d   1       3.664  -0.396  -5.378  0.00  0.00     0.322 A 
ATOM      6  C   LIG d   1       3.112   0.321  -7.355  0.00  0.00     0.472 A 
ATOM      7  N   LIG d   1       4.441   0.071  -7.407  0.00  0.00    -0.212 N 
ATOM      8  C   LIG d   1       4.871   0.375  -8.689  0.00  0.00     0.068 A 
ATOM      9  C   LIG d   1       3.816   0.795  -9.378  0.00  0.00     0.130 A 
ATOM     10  O   LIG d   1       2.733   0.766  -8.570  0.00  0.00    -0.393 OA
ATOM     11  N   LIG d   1       3.751  -0.809  -4.057  0.00  0.00    -0.241 N 
ATOM     12  C   LIG d   1       4.936  -1.200  -3.550  0.00  0.00     0.337 A 
ATOM     13  O   LIG d   1       4.994  -1.564  -2.392  0.00  0.00    -0.246 OA
ATOM     14  N   LIG d   1       2.661   0.042  -6.141  0.00  0.00    -0.138 N 
ATOM     15  H   LIG d   1       1.687   0.146  -5.834  0.00  0.00     0.460 HD
ENDROOT
BRANCH   1  16
ATOM     16  C   LIG d   1       7.320  -1.633  -3.694  0.00  0.00     0.049 C 
ATOM     17  H   LIG d   1       8.137  -1.038  -4.101  0.00  0.00     0.054 H 
ATOM     18  H   LIG d   1       7.274  -1.499  -2.614  0.00  0.00     0.054 H 
BRANCH  16  19
ATOM     19  C   LIG d   1       7.552  -3.088  -4.013  0.00  0.00    -0.069 C 
ATOM     20  C   LIG d   1       8.703  -3.644  -3.730  0.00  0.00    -0.089 C 
ATOM     21  H   LIG d   1       9.487  -3.061  -3.269  0.00  0.00     0.057 H 
ATOM     22  H   LIG d   1       6.769  -3.671  -4.475  0.00  0.00     0.059 H 
BRANCH  20  23
ATOM     23  C   LIG d   1       8.936  -5.099  -4.048  0.00  0.00    -0.047 C 
ATOM     24  H   LIG d   1       9.984  -5.253  -4.300  0.00  0.00     0.027 H 
ATOM     25  H   LIG d   1       8.677  -5.707  -3.182  0.00  0.00     0.027 H 
ATOM     26  H   LIG d   1       8.313  -5.390  -4.894  0.00  0.00     0.027 H 
ENDBRANCH  20  23
ENDBRANCH  16  19
ENDBRANCH   1  16
BRANCH  11  27
ATOM     27  C   LIG d   1       2.553  -0.825  -3.214  0.00  0.00     0.022 C 
ATOM     28  H   LIG d   1       2.806  -1.221  -2.231  0.00  0.00     0.046 H 
ATOM     29  H   LIG d   1       1.793  -1.456  -3.675  0.00  0.00     0.046 H 
ATOM     30  H   LIG d   1       2.169   0.190  -3.109  0.00  0.00     0.046 H 
ENDBRANCH  11  27
BRANCH   8  31
ATOM     31  C   LIG d   1       6.280   0.251  -9.207  0.00  0.00    -0.020 C 
ATOM     32  H   LIG d   1       6.975   0.653  -8.470  0.00  0.00     0.029 H 
ATOM     33  H   LIG d   1       6.509  -0.800  -9.387  0.00  0.00     0.029 H 
ATOM     34  H   LIG d   1       6.376   0.808 -10.138  0.00  0.00     0.029 H 
ENDBRANCH   8  31
BRANCH   9  35
ATOM     35  C   LIG d   1       3.825   1.232 -10.820  0.00  0.00    -0.004 C 
ATOM     36  H   LIG d   1       3.502   0.405 -11.453  0.00  0.00     0.031 H 
ATOM     37  H   LIG d   1       3.146   2.074 -10.949  0.00  0.00     0.031 H 
ATOM     38  H   LIG d   1       4.835   1.533 -11.102  0.00  0.00     0.031 H 
ENDBRANCH   9  35
TORSDOF 6
ENDMDL
MODEL 4
REMARK VINA RESULT:      -5.3      3.446      6.346
REMARK  6 active torsions:
REMARK  status: ('A' for Active; 'I' for Inactive)
REMARK    1  A    between atoms: C_1  and  C_2 
REMARK    2  A    between atoms: C_3  and  C_4 
REMARK    3  A    between atoms: C_4  and  N_5 
REMARK    4  A    between atoms: C_12  and  C_16 
REMARK    5  A    between atoms: C_13  and  C_15 
REMARK    6  A    between atoms: N_17  and  C_20 
ROOT
ATOM      1  N   LIG d   1       6.223  -4.840  -5.835  0.00  0.00    -0.255 N 
ATOM      2  C   LIG d   1       5.547  -3.951  -5.077  0.00  0.00     0.288 A 
ATOM      3  O   LIG d   1       4.364  -4.121  -4.837  0.00  0.00    -0.265 OA
ATOM      4  C   LIG d   1       6.221  -2.828  -4.567  0.00  0.00     0.210 A 
ATOM      5  C   LIG d   1       7.575  -2.661  -4.853  0.00  0.00     0.322 A 
ATOM      6  C   LIG d   1       6.956  -0.981  -3.619  0.00  0.00     0.472 A 
ATOM      7  N   LIG d   1       5.855  -1.750  -3.780  0.00  0.00    -0.212 N 
ATOM      8  C   LIG d   1       4.818  -1.139  -3.092  0.00  0.00     0.068 A 
ATOM      9  C   LIG d   1       5.300  -0.033  -2.536  0.00  0.00     0.130 A 
ATOM     10  O   LIG d   1       6.609   0.073  -2.853  0.00  0.00    -0.393 OA
ATOM     11  N   LIG d   1       8.213  -3.606  -5.642  0.00  0.00    -0.241 N 
ATOM     12  C   LIG d   1       7.528  -4.666  -6.110  0.00  0.00     0.337 A 
ATOM     13  O   LIG d   1       8.104  -5.488  -6.796  0.00  0.00    -0.246 OA
ATOM     14  N   LIG d   1       7.973  -1.532  -4.265  0.00  0.00    -0.138 N 
ATOM     15  H   LIG d   1       8.925  -1.149  -4.306  0.00  0.00     0.460 HD
ENDROOT
BRANCH   1  16
ATOM     16  C   LIG d   1       5.524  -6.011  -6.369  0.00  0.00     0.049 C 
ATOM     17  H   LIG d   1       4.490  -5.748  -6.588  0.00  0.00     0.054 H 
ATOM     18  H   LIG d   1       6.017  -6.344  -7.282  0.00  0.00     0.054 H 
BRANCH  16  19
ATOM     19  C   LIG d   1       5.553  -7.121  -5.349  0.00  0.00    -0.069 C 
ATOM     20  C   LIG d   1       4.868  -8.217  -5.553  0.00  0.00    -0.089 C 
ATOM     21  H   LIG d   1       4.280  -8.327  -6.454  0.00  0.00     0.057 H 
ATOM     22  H   LIG d   1       6.140  -7.010  -4.448  0.00  0.00     0.059 H 
BRANCH  20  23
ATOM     23  C   LIG d   1       4.897  -9.327  -4.533  0.00  0.00    -0.047 C 
ATOM     24  H   LIG d   1       4.847  -8.901  -3.532  0.00  0.00     0.027 H 
ATOM     25  H   LIG d   1       4.044  -9.988  -4.690  0.00  0.00     0.027 H 
ATOM     26  H   LIG d   1       5.821  -9.895  -4.641  0.00  0.00     0.027 H 
ENDBRANCH  20  23
ENDBRANCH  16  19
ENDBRANCH   1  16
BRANCH  11  27
ATOM     27  C   LIG d   1       9.633  -3.452  -5.963  0.00  0.00     0.022 C 
ATOM     28  H   LIG d   1       9.796  -3.687  -7.015  0.00  0.00     0.046 H 
ATOM     29  H   LIG d   1      10.221  -4.131  -5.345  0.00  0.00     0.046 H 
ATOM     30  H   LIG d   1       9.941  -2.425  -5.769  0.00  0.00     0.046 H 
ENDBRANCH  11  27
BRANCH   8  31
ATOM     31  C   LIG d   1       3.400  -1.641  -2.992  0.00  0.00    -0.020 C 
ATOM     32  H   LIG d   1       2.711  -0.802  -3.080  0.00  0.00     0.029 H 
ATOM     33  H   LIG d   1       3.210  -2.353  -3.794  0.00  0.00     0.029 H 
ATOM     34  H   LIG d   1       3.255  -2.130  -2.030  0.00  0.00     0.029 H 
ENDBRANCH   8  31
BRANCH   9  35
ATOM     35  C   LIG d   1       4.516   0.940  -1.694  0.00  0.00    -0.004 C 
ATOM     36  H   LIG d   1       5.018   1.907  -1.695  0.00  0.00     0.031 H 
ATOM     37  H   LIG d   1       3.513   1.051  -2.104  0.00  0.00     0.031 H 
ATOM     38  H   LIG d   1       4.451   0.566  -0.672  0.00  0.00     0.031 H 
ENDBRANCH   9  35
TORSDOF 6
ENDMDL
MODEL 5
REMARK VINA RESULT:      -5.2      3.112      6.062
REMARK  6 active torsions:
REMARK  status: ('A' for Active; 'I' for Inactive)
REMARK    1  A    between atoms: C_1  and  C_2 
REMARK    2  A    between atoms: C_3  and  C_4 
REMARK    3  A    between atoms: C_4  and  N_5 
REMARK    4  A    between atoms: C_12  and  C_16 
REMARK    5  A    between atoms: C_13  and  C_15 
REMARK    6  A    between atoms: N_17  and  C_20 
ROOT
ATOM      1  N   LIG d   1       5.209  -4.436  -6.672  0.00  0.00    -0.255 N 
ATOM      2  C   LIG d   1       4.892  -3.741  -5.559  0.00  0.00     0.288 A 
ATOM      3  O   LIG d   1       4.265  -4.272  -4.659  0.00  0.00    -0.265 OA
ATOM      4  C   LIG d   1       5.293  -2.399  -5.449  0.00  0.00     0.210 A 
ATOM      5  C   LIG d   1       6.013  -1.817  -6.491  0.00  0.00     0.322 A 
ATOM      6  C   LIG d   1       5.757  -0.304  -4.951  0.00  0.00     0.472 A 
ATOM      7  N   LIG d   1       5.147  -1.417  -4.483  0.00  0.00    -0.212 N 
ATOM      8  C   LIG d   1       4.630  -1.114  -3.233  0.00  0.00     0.068 A 
ATOM      9  C   LIG d   1       4.930   0.153  -2.970  0.00  0.00     0.130 A 
ATOM     10  O   LIG d   1       5.620   0.659  -4.016  0.00  0.00    -0.393 OA
ATOM     11  N   LIG d   1       6.303  -2.581  -7.611  0.00  0.00    -0.241 N 
ATOM     12  C   LIG d   1       5.898  -3.864  -7.674  0.00  0.00     0.337 A 
ATOM     13  O   LIG d   1       6.165  -4.522  -8.661  0.00  0.00    -0.246 OA
ATOM     14  N   LIG d   1       6.266  -0.553  -6.148  0.00  0.00    -0.138 N 
ATOM     15  H   LIG d   1       6.779   0.124  -6.725  0.00  0.00     0.460 HD
ENDROOT
BRANCH   1  16
ATOM     16  C   LIG d   1       4.792  -5.835  -6.791  0.00  0.00     0.049 C 
ATOM     17  H   LIG d   1       3.811  -5.962  -6.332  0.00  0.00     0.054 H 
ATOM     18  H   LIG d   1       4.740  -6.111  -7.844  0.00  0.00     0.054 H 
BRANCH  16  19
ATOM     19  C   LIG d   1       5.792  -6.718  -6.089  0.00  0.00    -0.069 C 
ATOM     20  C   LIG d   1       5.379  -7.722  -5.357  0.00  0.00    -0.089 C 
ATOM     21  H   LIG d   1       4.321  -7.919  -5.256  0.00  0.00     0.057 H 
ATOM     22  H   LIG d   1       6.849  -6.521  -6.189  0.00  0.00     0.059 H 
BRANCH  20  23
ATOM     23  C   LIG d   1       6.379  -8.605  -4.655  0.00  0.00    -0.047 C 
ATOM     24  H   LIG d   1       5.919  -9.567  -4.429  0.00  0.00     0.027 H 
ATOM     25  H   LIG d   1       7.245  -8.758  -5.299  0.00  0.00     0.027 H 
ATOM     26  H   LIG d   1       6.696  -8.128  -3.728  0.00  0.00     0.027 H 
ENDBRANCH  20  23
ENDBRANCH  16  19
ENDBRANCH   1  16
BRANCH  11  27
ATOM     27  C   LIG d   1       7.053  -1.994  -8.723  0.00  0.00     0.022 C 
ATOM     28  H   LIG d   1       6.827  -2.538  -9.641  0.00  0.00     0.046 H 
ATOM     29  H   LIG d   1       8.121  -2.060  -8.516  0.00  0.00     0.046 H 
ATOM     30  H   LIG d   1       6.769  -0.948  -8.842  0.00  0.00     0.046 H 
ENDBRANCH  11  27
BRANCH   8  31
ATOM     31  C   LIG d   1       3.866  -2.052  -2.335  0.00  0.00    -0.020 C 
ATOM     32  H   LIG d   1       3.014  -1.529  -1.903  0.00  0.00     0.029 H 
ATOM     33  H   LIG d   1       3.513  -2.903  -2.917  0.00  0.00     0.029 H 
ATOM     34  H   LIG d   1       4.519  -2.404  -1.537  0.00  0.00     0.029 H 
ENDBRANCH   8  31
BRANCH   9  35
ATOM     35  C   LIG d   1       4.561   0.901  -1.715  0.00  0.00    -0.004 C 
ATOM     36  H   LIG d   1       4.832   1.951  -1.826  0.00  0.00     0.031 H 
ATOM     37  H   LIG d   1       3.488   0.819  -1.546  0.00  0.00     0.031 H 
ATOM     38  H   LIG d   1       5.096   0.474  -0.867  0.00  0.00     0.031 H 
ENDBRANCH   9  35
TORSDOF 6
ENDMDL
MODEL 6
REMARK VINA RESULT:      -5.1      2.687      5.545
REMARK  6 active torsions:
REMARK  status: ('A' for Active; 'I' for Inactive)
REMARK    1  A    between atoms: C_1  and  C_2 
REMARK    2  A    between atoms: C_3  and  C_4 
REMARK    3  A    between atoms: C_4  and  N_5 
REMARK    4  A    between atoms: C_12  and  C_16 
REMARK    5  A    between atoms: C_13  and  C_15 
REMARK    6  A    between atoms: N_17  and  C_20 
ROOT
ATOM      1  N   LIG d   1       6.219  -0.068  -4.695  0.00  0.00    -0.255 N 
ATOM      2  C   LIG d   1       6.049  -0.046  -6.034  0.00  0.00     0.288 A 
ATOM      3  O   LIG d   1       7.011   0.058  -6.775  0.00  0.00    -0.265 OA
ATOM      4  C   LIG d   1       4.752  -0.145  -6.564  0.00  0.00     0.210 A 
ATOM      5  C   LIG d   1       3.670  -0.268  -5.694  0.00  0.00     0.322 A 
ATOM      6  C   LIG d   1       2.881  -0.277  -7.721  0.00  0.00     0.472 A 
ATOM      7  N   LIG d   1       4.223  -0.156  -7.844  0.00  0.00    -0.212 N 
ATOM      8  C   LIG d   1       4.512  -0.094  -9.199  0.00  0.00     0.068 A 
ATOM      9  C   LIG d   1       3.363  -0.177  -9.859  0.00  0.00     0.130 A 
ATOM     10  O   LIG d   1       2.357  -0.288  -8.963  0.00  0.00    -0.393 OA
ATOM     11  N   LIG d   1       3.908  -0.279  -4.329  0.00  0.00    -0.241 N 
ATOM     12  C   LIG d   1       5.169  -0.181  -3.864  0.00  0.00     0.337 A 
ATOM     13  O   LIG d   1       5.361  -0.197  -2.664  0.00  0.00    -0.246 OA
ATOM     14  N   LIG d   1       2.564  -0.340  -6.436  0.00  0.00    -0.138 N 
ATOM     15  H   LIG d   1       1.610  -0.430  -6.067  0.00  0.00     0.460 HD
ENDROOT
BRANCH   1  16
ATOM     16  C   LIG d   1       7.570   0.036  -4.138  0.00  0.00     0.049 C 
ATOM     17  H   LIG d   1       7.633  -0.558  -3.226  0.00  0.00     0.054 H 
ATOM     18  H   LIG d   1       8.293  -0.335  -4.865  0.00  0.00     0.054 H 
BRANCH  16  19
ATOM     19  C   LIG d   1       7.872   1.478  -3.820  0.00  0.00    -0.069 C 
ATOM     20  C   LIG d   1       9.111   1.902  -3.813  0.00  0.00    -0.089 C 
ATOM     21  H   LIG d   1       9.917   1.219  -4.036  0.00  0.00     0.057 H 
ATOM     22  H   LIG d   1       7.065   2.161  -3.596  0.00  0.00     0.059 H 
BRANCH  20  23
ATOM     23  C   LIG d   1       9.412   3.344  -3.495  0.00  0.00    -0.047 C 
ATOM     24  H   LIG d   1       9.373   3.494  -2.416  0.00  0.00     0.027 H 
ATOM     25  H   LIG d   1      10.407   3.598  -3.861  0.00  0.00     0.027 H 
ATOM     26  H   LIG d   1       8.673   3.985  -3.977  0.00  0.00     0.027 H 
ENDBRANCH  20  23
ENDBRANCH  16  19
ENDBRANCH   1  16
BRANCH  11  27
ATOM     27  C   LIG d   1       2.790  -0.401  -3.391  0.00  0.00     0.022 C 
ATOM     28  H   LIG d   1       2.345   0.580  -3.227  0.00  0.00     0.046 H 
ATOM     29  H   LIG d   1       3.152  -0.799  -2.443  0.00  0.00     0.046 H 
ATOM     30  H   LIG d   1       2.041  -1.076  -3.805  0.00  0.00     0.046 H 
ENDBRANCH  11  27
BRANCH   8  31
ATOM     31  C   LIG d   1       5.883   0.043  -9.810  0.00  0.00    -0.020 C 
ATOM     32  H   LIG d   1       6.599  -0.537  -9.228  0.00  0.00     0.029 H 
ATOM     33  H   LIG d   1       5.861  -0.329 -10.834  0.00  0.00     0.029 H 
ATOM     34  H   LIG d   1       6.178   1.091  -9.810  0.00  0.00     0.029 H 
ENDBRANCH   8  31
BRANCH   9  35
ATOM     35  C   LIG d   1       3.207  -0.149 -11.358  0.00  0.00    -0.004 C 
ATOM     36  H   LIG d   1       2.441   0.577 -11.630  0.00  0.00     0.031 H 
ATOM     37  H   LIG d   1       4.154   0.133 -11.816  0.00  0.00     0.031 H 
ATOM     38  H   LIG d   1       2.913  -1.137 -11.711  0.00  0.00     0.031 H 
ENDBRANCH   9  35
TORSDOF 6
ENDMDL
MODEL 7
REMARK VINA RESULT:      -4.9      2.545      4.344
REMARK  6 active torsions:
REMARK  status: ('A' for Active; 'I' for Inactive)
REMARK    1  A    between atoms: C_1  and  C_2 
REMARK    2  A    between atoms: C_3  and  C_4 
REMARK    3  A    between atoms: C_4  and  N_5 
REMARK    4  A    between atoms: C_12  and  C_16 
REMARK    5  A    between atoms: C_13  and  C_15 
REMARK    6  A    between atoms: N_17  and  C_20 
ROOT
ATOM      1  N   LIG d   1       4.645   0.382  -8.897  0.00  0.00    -0.255 N 
ATOM      2  C   LIG d   1       4.256   0.272  -7.609  0.00  0.00     0.288 A 
ATOM      3  O   LIG d   1       3.221   0.794  -7.232  0.00  0.00    -0.265 OA
ATOM      4  C   LIG d   1       5.056  -0.452  -6.708  0.00  0.00     0.210 A 
ATOM      5  C   LIG d   1       6.232  -1.042  -7.167  0.00  0.00     0.322 A 
ATOM      6  C   LIG d   1       6.056  -1.498  -5.048  0.00  0.00     0.472 A 
ATOM      7  N   LIG d   1       4.967  -0.759  -5.361  0.00  0.00    -0.212 N 
ATOM      8  C   LIG d   1       4.216  -0.616  -4.205  0.00  0.00     0.068 A 
ATOM      9  C   LIG d   1       4.849  -1.259  -3.231  0.00  0.00     0.130 A 
ATOM     10  O   LIG d   1       5.979  -1.803  -3.737  0.00  0.00    -0.393 OA
ATOM     11  N   LIG d   1       6.581  -0.888  -8.500  0.00  0.00    -0.241 N 
ATOM     12  C   LIG d   1       5.784  -0.187  -9.328  0.00  0.00     0.337 A 
ATOM     13  O   LIG d   1       6.103  -0.066 -10.495  0.00  0.00    -0.246 OA
ATOM     14  N   LIG d   1       6.803  -1.657  -6.131  0.00  0.00    -0.138 N 
ATOM     15  H   LIG d   1       7.688  -2.177  -6.167  0.00  0.00     0.460 HD
ENDROOT
BRANCH   1  16
ATOM     16  C   LIG d   1       3.814   1.135  -9.839  0.00  0.00     0.049 C 
ATOM     17  H   LIG d   1       3.430   2.030  -9.349  0.00  0.00     0.054 H 
ATOM     18  H   LIG d   1       4.414   1.423 -10.703  0.00  0.00     0.054 H 
BRANCH  16  19
ATOM     19  C   LIG d   1       2.661   0.276 -10.290  0.00  0.00    -0.069 C 
ATOM     20  C   LIG d   1       2.757  -0.423 -11.393  0.00  0.00    -0.089 C 
ATOM     21  H   LIG d   1       3.662  -0.383 -11.982  0.00  0.00     0.057 H 
ATOM     22  H   LIG d   1       1.756   0.236  -9.702  0.00  0.00     0.059 H 
BRANCH  20  23
ATOM     23  C   LIG d   1       1.604  -1.283 -11.844  0.00  0.00    -0.047 C 
ATOM     24  H   LIG d   1       1.968  -2.051 -12.526  0.00  0.00     0.027 H 
ATOM     25  H   LIG d   1       1.142  -1.756 -10.977  0.00  0.00     0.027 H 
ATOM     26  H   LIG d   1       0.867  -0.663 -12.355  0.00  0.00     0.027 H 
ENDBRANCH  20  23
ENDBRANCH  16  19
ENDBRANCH   1  16
BRANCH  11  27
ATOM     27  C   LIG d   1       7.814  -1.493  -9.007  0.00  0.00     0.022 C 
ATOM     28  H   LIG d   1       8.035  -1.091  -9.996  0.00  0.00     0.046 H 
ATOM     29  H   LIG d   1       7.688  -2.574  -9.075  0.00  0.00     0.046 H 
ATOM     30  H   LIG d   1       8.637  -1.266  -8.330  0.00  0.00     0.046 H 
ENDBRANCH  11  27
BRANCH   8  31
ATOM     31  C   LIG d   1       2.914   0.133  -4.077  0.00  0.00    -0.020 C 
ATOM     32  H   LIG d   1       3.030   0.943  -3.357  0.00  0.00     0.029 H 
ATOM     33  H   LIG d   1       2.637   0.546  -5.047  0.00  0.00     0.029 H 
ATOM     34  H   LIG d   1       2.135  -0.548  -3.736  0.00  0.00     0.029 H 
ENDBRANCH   8  31
BRANCH   9  35
ATOM     35  C   LIG d   1       4.387  -1.363  -1.801  0.00  0.00    -0.004 C 
ATOM     36  H   LIG d   1       4.611  -2.359  -1.418  0.00  0.00     0.031 H 
ATOM     37  H   LIG d   1       4.903  -0.618  -1.196  0.00  0.00     0.031 H 
ATOM     38  H   LIG d   1       3.312  -1.189  -1.752  0.00  0.00     0.031 H 
ENDBRANCH   9  35
TORSDOF 6
ENDMDL
MODEL 8
REMARK VINA RESULT:      -4.9      8.950     10.370
REMARK  6 active torsions:
REMARK  status: ('A' for Active; 'I' for Inactive)
REMARK    1  A    between atoms: C_1  and  C_2 
REMARK    2  A    between atoms: C_3  and  C_4 
REMARK    3  A    between atoms: C_4  and  N_5 
REMARK    4  A    between atoms: C_12  and  C_16 
REMARK    5  A    between atoms: C_13  and  C_15 
REMARK    6  A    between atoms: N_17  and  C_20 
ROOT
ATOM      1  N   LIG d   1       9.640   6.179  -3.985  0.00  0.00    -0.255 N 
ATOM      2  C   LIG d   1       9.918   6.991  -2.944  0.00  0.00     0.288 A 
ATOM      3  O   LIG d   1       9.714   8.189  -3.027  0.00  0.00    -0.265 OA
ATOM      4  C   LIG d   1      10.443   6.439  -1.762  0.00  0.00     0.210 A 
ATOM      5  C   LIG d   1      10.661   5.065  -1.693  0.00  0.00     0.322 A 
ATOM      6  C   LIG d   1      11.264   5.918   0.214  0.00  0.00     0.472 A 
ATOM      7  N   LIG d   1      10.831   6.956  -0.538  0.00  0.00    -0.212 N 
ATOM      8  C   LIG d   1      10.956   8.105   0.228  0.00  0.00     0.068 A 
ATOM      9  C   LIG d   1      11.452   7.750   1.408  0.00  0.00     0.130 A 
ATOM     10  O   LIG d   1      11.646   6.412   1.409  0.00  0.00    -0.393 OA
ATOM     11  N   LIG d   1      10.362   4.284  -2.798  0.00  0.00    -0.241 N 
ATOM     12  C   LIG d   1       9.860   4.855  -3.910  0.00  0.00     0.337 A 
ATOM     13  O   LIG d   1       9.598   4.155  -4.869  0.00  0.00    -0.246 OA
ATOM     14  N   LIG d   1      11.161   4.798  -0.486  0.00  0.00    -0.138 N 
ATOM     15  H   LIG d   1      11.425   3.865  -0.149  0.00  0.00     0.460 HD
ENDROOT
BRANCH   1  16
ATOM     16  C   LIG d   1       9.093   6.749  -5.219  0.00  0.00     0.049 C 
ATOM     17  H   LIG d   1       8.407   6.036  -5.675  0.00  0.00     0.054 H 
ATOM     18  H   LIG d   1       8.560   7.672  -4.988  0.00  0.00     0.054 H 
BRANCH  16  19
ATOM     19  C   LIG d   1      10.219   7.045  -6.177  0.00  0.00    -0.069 C 
ATOM     20  C   LIG d   1      10.102   6.730  -7.442  0.00  0.00    -0.089 C 
ATOM     21  H   LIG d   1       9.199   6.258  -7.801  0.00  0.00     0.057 H 
ATOM     22  H   LIG d   1      11.123   7.516  -5.818  0.00  0.00     0.059 H 
BRANCH  20  23
ATOM     23  C   LIG d   1      11.228   7.026  -8.400  0.00  0.00    -0.047 C 
ATOM     24  H   LIG d   1      11.532   6.106  -8.898  0.00  0.00     0.027 H 
ATOM     25  H   LIG d   1      10.892   7.748  -9.144  0.00  0.00     0.027 H 
ATOM     26  H   LIG d   1      12.074   7.439  -7.850  0.00  0.00     0.027 H 
ENDBRANCH  20  23
ENDBRANCH  16  19
ENDBRANCH   1  16
BRANCH  11  27
ATOM     27  C   LIG d   1      10.587   2.838  -2.755  0.00  0.00     0.022 C 
ATOM     28  H   LIG d   1      11.542   2.633  -2.271  0.00  0.00     0.046 H 
ATOM     29  H   LIG d   1      10.603   2.442  -3.771  0.00  0.00     0.046 H 
ATOM     30  H   LIG d   1       9.784   2.361  -2.193  0.00  0.00     0.046 H 
ENDBRANCH  11  27
BRANCH   8  31
ATOM     31  C   LIG d   1      10.593   9.504  -0.201  0.00  0.00    -0.020 C 
ATOM     32  H   LIG d   1      11.410   9.928  -0.784  0.00  0.00     0.029 H 
ATOM     33  H   LIG d   1       9.689   9.473  -0.809  0.00  0.00     0.029 H 
ATOM     34  H   LIG d   1      10.418  10.120   0.680  0.00  0.00     0.029 H 
ENDBRANCH   8  31
BRANCH   9  35
ATOM     35  C   LIG d   1      11.751   8.683   2.552  0.00  0.00    -0.004 C 
ATOM     36  H   LIG d   1      11.305   9.658   2.352  0.00  0.00     0.031 H 
ATOM     37  H   LIG d   1      11.334   8.275   3.472  0.00  0.00     0.031 H 
ATOM     38  H   LIG d   1      12.830   8.793   2.660  0.00  0.00     0.031 H 
ENDBRANCH   9  35
TORSDOF 6
ENDMDL
MODEL 9
REMARK VINA RESULT:      -4.7      2.358      5.370
REMARK  6 active torsions:
REMARK  status: ('A' for Active; 'I' for Inactive)
REMARK    1  A    between atoms: C_1  and  C_2 
REMARK    2  A    between atoms: C_3  and  C_4 
REMARK    3  A    between atoms: C_4  and  N_5 
REMARK    4  A    between atoms: C_12  and  C_16 
REMARK    5  A    between atoms: C_13  and  C_15 
REMARK    6  A    between atoms: N_17  and  C_20 
ROOT
ATOM      1  N   LIG d   1       5.560  -1.911  -8.355  0.00  0.00    -0.255 N 
ATOM      2  C   LIG d   1       5.737  -1.533  -7.072  0.00  0.00     0.288 A 
ATOM      3  O   LIG d   1       6.793  -1.755  -6.505  0.00  0.00    -0.265 OA
ATOM      4  C   LIG d   1       4.693  -0.879  -6.397  0.00  0.00     0.210 A 
ATOM      5  C   LIG d   1       3.497  -0.633  -7.070  0.00  0.00     0.322 A 
ATOM      6  C   LIG d   1       3.284   0.153  -5.054  0.00  0.00     0.472 A 
ATOM      7  N   LIG d   1       4.531  -0.368  -5.120  0.00  0.00    -0.212 N 
ATOM      8  C   LIG d   1       5.129  -0.173  -3.884  0.00  0.00     0.068 A 
ATOM      9  C   LIG d   1       4.251   0.450  -3.106  0.00  0.00     0.130 A 
ATOM     10  O   LIG d   1       3.117   0.654  -3.813  0.00  0.00    -0.393 OA
ATOM     11  N   LIG d   1       3.373  -1.051  -8.386  0.00  0.00    -0.241 N 
ATOM     12  C   LIG d   1       4.401  -1.674  -8.994  0.00  0.00     0.337 A 
ATOM     13  O   LIG d   1       4.278  -2.030 -10.150  0.00  0.00    -0.246 OA
ATOM     14  N   LIG d   1       2.677  -0.014  -6.220  0.00  0.00    -0.138 N 
ATOM     15  H   LIG d   1       1.721   0.288  -6.436  0.00  0.00     0.460 HD
ENDROOT
BRANCH   1  16
ATOM     16  C   LIG d   1       6.646  -2.593  -9.063  0.00  0.00     0.049 C 
ATOM     17  H   LIG d   1       6.600  -2.345 -10.123  0.00  0.00     0.054 H 
ATOM     18  H   LIG d   1       7.604  -2.272  -8.655  0.00  0.00     0.054 H 
BRANCH  16  19
ATOM     19  C   LIG d   1       6.499  -4.083  -8.890  0.00  0.00    -0.069 C 
ATOM     20  C   LIG d   1       7.442  -4.770  -8.295  0.00  0.00    -0.089 C 
ATOM     21  H   LIG d   1       8.327  -4.268  -7.928  0.00  0.00     0.057 H 
ATOM     22  H   LIG d   1       5.616  -4.585  -9.257  0.00  0.00     0.059 H 
BRANCH  20  23
ATOM     23  C   LIG d   1       7.296  -6.260  -8.122  0.00  0.00    -0.047 C 
ATOM     24  H   LIG d   1       6.935  -6.475  -7.116  0.00  0.00     0.027 H 
ATOM     25  H   LIG d   1       6.585  -6.643  -8.853  0.00  0.00     0.027 H 
ATOM     26  H   LIG d   1       8.263  -6.740  -8.271  0.00  0.00     0.027 H 
ENDBRANCH  20  23
ENDBRANCH  16  19
ENDBRANCH   1  16
BRANCH  11  27
ATOM     27  C   LIG d   1       2.127  -0.811  -9.116  0.00  0.00     0.022 C 
ATOM     28  H   LIG d   1       1.623  -1.761  -9.296  0.00  0.00     0.046 H 
ATOM     29  H   LIG d   1       2.351  -0.332 -10.069  0.00  0.00     0.046 H 
ATOM     30  H   LIG d   1       1.479  -0.162  -8.526  0.00  0.00     0.046 H 
ENDBRANCH  11  27
BRANCH   8  31
ATOM     31  C   LIG d   1       6.523  -0.592  -3.495  0.00  0.00    -0.020 C 
ATOM     32  H   LIG d   1       7.248  -0.035  -4.088  0.00  0.00     0.029 H 
ATOM     33  H   LIG d   1       6.682  -0.385  -2.437  0.00  0.00     0.029 H 
ATOM     34  H   LIG d   1       6.646  -1.659  -3.679  0.00  0.00     0.029 H 
ENDBRANCH   8  31
BRANCH   9  35
ATOM     35  C   LIG d   1       4.481   0.859  -1.675  0.00  0.00    -0.004 C 
ATOM     36  H   LIG d   1       4.422   1.945  -1.593  0.00  0.00     0.031 H 
ATOM     37  H   LIG d   1       3.720   0.406  -1.040  0.00  0.00     0.031 H 
ATOM     38  H   LIG d   1       5.468   0.524  -1.355  0.00  0.00     0.031 H 
ENDBRANCH   9  35
TORSDOF 6
ENDMDL
MODEL 10
REMARK VINA RESULT:      -4.7      3.187      4.230
REMARK  6 active torsions:
REMARK  status: ('A' for Active; 'I' for Inactive)
REMARK    1  A    between atoms: C_1  and  C_2 
REMARK    2  A    between atoms: C_3  and  C_4 
REMARK    3  A    between atoms: C_4  and  N_5 
REMARK    4  A    between atoms: C_12  and  C_16 
REMARK    5  A    between atoms: C_13  and  C_15 
REMARK    6  A    between atoms: N_17  and  C_20 
ROOT
ATOM      1  N   LIG d   1       6.834   0.410  -4.590  0.00  0.00    -0.255 N 
ATOM      2  C   LIG d   1       6.786  -0.793  -5.198  0.00  0.00     0.288 A 
ATOM      3  O   LIG d   1       7.520  -1.036  -6.141  0.00  0.00    -0.265 OA
ATOM      4  C   LIG d   1       5.882  -1.764  -4.733  0.00  0.00     0.210 A 
ATOM      5  C   LIG d   1       5.058  -1.461  -3.651  0.00  0.00     0.322 A 
ATOM      6  C   LIG d   1       4.601  -3.495  -4.271  0.00  0.00     0.472 A 
ATOM      7  N   LIG d   1       5.573  -3.061  -5.105  0.00  0.00    -0.212 N 
ATOM      8  C   LIG d   1       5.857  -4.095  -5.985  0.00  0.00     0.068 A 
ATOM      9  C   LIG d   1       5.067  -5.116  -5.674  0.00  0.00     0.130 A 
ATOM     10  O   LIG d   1       4.293  -4.759  -4.625  0.00  0.00    -0.393 OA
ATOM     11  N   LIG d   1       5.150  -0.205  -3.072  0.00  0.00    -0.241 N 
ATOM     12  C   LIG d   1       6.031   0.694  -3.550  0.00  0.00     0.337 A 
ATOM     13  O   LIG d   1       6.102   1.790  -3.028  0.00  0.00    -0.246 OA
ATOM     14  N   LIG d   1       4.301  -2.532  -3.411  0.00  0.00    -0.138 N 
ATOM     15  H   LIG d   1       3.592  -2.601  -2.671  0.00  0.00     0.460 HD
ENDROOT
BRANCH   1  16
ATOM     16  C   LIG d   1       7.774   1.425  -5.072  0.00  0.00     0.049 C 
ATOM     17  H   LIG d   1       8.098   1.170  -6.081  0.00  0.00     0.054 H 
ATOM     18  H   LIG d   1       7.285   2.399  -5.082  0.00  0.00     0.054 H 
BRANCH  16  19
ATOM     19  C   LIG d   1       8.972   1.473  -4.158  0.00  0.00    -0.069 C 
ATOM     20  C   LIG d   1       9.470   2.626  -3.790  0.00  0.00    -0.089 C 
ATOM     21  H   LIG d   1       9.023   3.545  -4.142  0.00  0.00     0.057 H 
ATOM     22  H   LIG d   1       9.420   0.554  -3.808  0.00  0.00     0.059 H 
BRANCH  20  23
ATOM     23  C   LIG d   1      10.668   2.674  -2.877  0.00  0.00    -0.047 C 
ATOM     24  H   LIG d   1      11.398   1.930  -3.195  0.00  0.00     0.027 H 
ATOM     25  H   LIG d   1      11.118   3.666  -2.918  0.00  0.00     0.027 H 
ATOM     26  H   LIG d   1      10.354   2.460  -1.855  0.00  0.00     0.027 H 
ENDBRANCH  20  23
ENDBRANCH  16  19
ENDBRANCH   1  16
BRANCH  11  27
ATOM     27  C   LIG d   1       4.292   0.142  -1.937  0.00  0.00     0.022 C 
ATOM     28  H   LIG d   1       3.293   0.387  -2.298  0.00  0.00     0.046 H 
ATOM     29  H   LIG d   1       4.711   1.003  -1.415  0.00  0.00     0.046 H 
ATOM     30  H   LIG d   1       4.234  -0.705  -1.253  0.00  0.00     0.046 H 
ENDBRANCH  11  27
BRANCH   8  31
ATOM     31  C   LIG d   1       6.877  -4.064  -7.094  0.00  0.00    -0.020 C 
ATOM     32  H   LIG d   1       7.858  -4.314  -6.691  0.00  0.00     0.029 H 
ATOM     33  H   LIG d   1       6.603  -4.789  -7.860  0.00  0.00     0.029 H 
ATOM     34  H   LIG d   1       6.908  -3.067  -7.532  0.00  0.00     0.029 H 
ENDBRANCH   8  31
BRANCH   9  35
ATOM     35  C   LIG d   1       5.038  -6.450  -6.375  0.00  0.00    -0.004 C 
ATOM     36  H   LIG d   1       5.284  -6.312  -7.428  0.00  0.00     0.031 H 
ATOM     37  H   LIG d   1       5.767  -7.117  -5.916  0.00  0.00     0.031 H 
ATOM     38  H   LIG d   1       4.042  -6.885  -6.288  0.00  0.00     0.031 H 
ENDBRANCH   9  35
TORSDOF 6
ENDMDL
