MODEL 1
REMARK VINA RESULT:      -6.3      0.000      0.000
REMARK  8 active torsions:
REMARK  status: ('A' for Active; 'I' for Inactive)
REMARK    1  A    between atoms: C_1  and  C_2 
REMARK    2  A    between atoms: C_2  and  C_4 
REMARK    3  A    between atoms: C_4  and  O_5 
REMARK    4  A    between atoms: O_5  and  C_6 
REMARK    5  A    between atoms: C_14  and  C_15 
REMARK    6  A    between atoms: C_18  and  C_21 
REMARK    7  A    between atoms: C_21  and  O_23 
REMARK    8  A    between atoms: O_23  and  C_24 
ROOT
ATOM      1  C   LIG d   1       6.468   0.163  -4.221  0.00  0.00     0.125 A 
ATOM      2  C   LIG d   1       6.662   0.124  -5.600  0.00  0.00    -0.019 A 
ATOM      3  C   LIG d   1       7.545   0.981  -6.194  0.00  0.00    -0.044 A 
ATOM      4  C   LIG d   1       8.248   1.903  -5.416  0.00  0.00     0.068 A 
ATOM      5  C   LIG d   1       8.066   1.948  -4.025  0.00  0.00     0.143 A 
ATOM      6  C   LIG d   1       7.165   1.069  -3.437  0.00  0.00     0.023 A 
ATOM      7  O   LIG d   1       8.854   2.907  -3.491  0.00  0.00    -0.451 OA
ATOM      8  C   LIG d   1       9.588   3.538  -4.435  0.00  0.00     0.176 A 
ATOM      9  C   LIG d   1      10.473   4.543  -4.223  0.00  0.00    -0.008 C 
ATOM     10  C   LIG d   1       9.252   2.933  -5.738  0.00  0.00     0.232 A 
ATOM     11  O   LIG d   1       9.700   3.223  -6.833  0.00  0.00    -0.283 OA
ATOM     12  H   LIG d   1       6.113  -0.586  -6.201  0.00  0.00     0.065 H 
ATOM     13  H   LIG d   1       7.693   0.950  -7.263  0.00  0.00     0.063 H 
ATOM     14  H   LIG d   1       7.007   1.091  -2.369  0.00  0.00     0.069 H 
ATOM     15  H   LIG d   1      11.069   4.920  -5.041  0.00  0.00     0.066 H 
ENDROOT
BRANCH   9  16
ATOM     16  C   LIG d   1      10.620   5.122  -2.879  0.00  0.00    -0.021 A 
ATOM     17  C   LIG d   1      11.578   4.608  -1.997  0.00  0.00    -0.054 A 
ATOM     18  C   LIG d   1      11.714   5.149  -0.744  0.00  0.00    -0.047 A 
ATOM     19  H   LIG d   1      12.208   3.787  -2.301  0.00  0.00     0.062 H 
ATOM     20  C   LIG d   1      10.898   6.213  -0.349  0.00  0.00     0.059 A 
ATOM     21  H   LIG d   1      12.453   4.754  -0.063  0.00  0.00     0.063 H 
ATOM     22  C   LIG d   1       9.940   6.726  -1.230  0.00  0.00    -0.047 A 
ATOM     23  C   LIG d   1       9.806   6.191  -2.485  0.00  0.00    -0.054 A 
ATOM     24  H   LIG d   1       9.311   7.547  -0.923  0.00  0.00     0.063 H 
ATOM     25  H   LIG d   1       9.070   6.590  -3.167  0.00  0.00     0.062 H 
BRANCH  20  26
ATOM     26  C   LIG d   1      11.044   6.794   1.001  0.00  0.00     0.339 C 
ATOM     27  O   LIG d   1      11.129   6.065   1.969  0.00  0.00    -0.245 OA
BRANCH  26  28
ATOM     28  O   LIG d   1      11.085   8.131   1.158  0.00  0.00    -0.465 OA
BRANCH  28  29
ATOM     29  C   LIG d   1      12.328   8.799   0.810  0.00  0.00     0.082 C 
ATOM     30  H   LIG d   1      13.153   8.092   0.890  0.00  0.00     0.066 H 
ATOM     31  H   LIG d   1      12.265   9.172  -0.211  0.00  0.00     0.066 H 
ATOM     32  H   LIG d   1      12.495   9.632   1.493  0.00  0.00     0.066 H 
ENDBRANCH  28  29
ENDBRANCH  26  28
ENDBRANCH  20  26
ENDBRANCH   9  16
BRANCH   1  33
ATOM     33  O   LIG d   1       5.589  -0.693  -3.641  0.00  0.00    -0.484 OA
BRANCH  33  34
ATOM     34  C   LIG d   1       5.093  -0.337  -2.349  0.00  0.00     0.147 C 
ATOM     35  H   LIG d   1       5.102  -1.141  -1.755  0.00  0.00     0.078 H 
ATOM     36  H   LIG d   1       5.724   0.441  -1.919  0.00  0.00     0.078 H 
BRANCH  34  37
ATOM     37  C   LIG d   1       3.681   0.174  -2.477  0.00  0.00     0.167 C 
ATOM     38  O   LIG d   1       3.393   1.267  -2.050  0.00  0.00    -0.294 OA
BRANCH  37  39
ATOM     39  C   LIG d   1       2.629  -0.678  -3.139  0.00  0.00    -0.003 C 
ATOM     40  H   LIG d   1       3.059  -1.484  -3.546  0.00  0.00     0.031 H 
ATOM     41  H   LIG d   1       1.896  -0.994  -2.395  0.00  0.00     0.031 H 
ATOM     42  H   LIG d   1       2.130  -0.100  -3.917  0.00  0.00     0.031 H 
ENDBRANCH  37  39
ENDBRANCH  34  37
ENDBRANCH  33  34
ENDBRANCH   1  33
TORSDOF 8
ENDMDL
MODEL 2
REMARK VINA RESULT:      -6.1      6.635     10.020
REMARK  8 active torsions:
REMARK  status: ('A' for Active; 'I' for Inactive)
REMARK    1  A    between atoms: C_1  and  C_2 
REMARK    2  A    between atoms: C_2  and  C_4 
REMARK    3  A    between atoms: C_4  and  O_5 
REMARK    4  A    between atoms: O_5  and  C_6 
REMARK    5  A    between atoms: C_14  and  C_15 
REMARK    6  A    between atoms: C_18  and  C_21 
REMARK    7  A    between atoms: C_21  and  O_23 
REMARK    8  A    between atoms: O_23  and  C_24 
ROOT
ATOM      1  C   LIG d   1       0.745  -3.204 -11.415  0.00  0.00     0.125 A 
ATOM      2  C   LIG d   1       0.987  -2.276 -12.425  0.00  0.00    -0.019 A 
ATOM      3  C   LIG d   1       1.723  -1.154 -12.165  0.00  0.00    -0.044 A 
ATOM      4  C   LIG d   1       2.226  -0.935 -10.882  0.00  0.00     0.068 A 
ATOM      5  C   LIG d   1       1.993  -1.866  -9.857  0.00  0.00     0.143 A 
ATOM      6  C   LIG d   1       1.244  -3.001 -10.138  0.00  0.00     0.023 A 
ATOM      7  O   LIG d   1       2.580  -1.446  -8.715  0.00  0.00    -0.451 OA
ATOM      8  C   LIG d   1       3.221  -0.266  -8.884  0.00  0.00     0.176 A 
ATOM      9  C   LIG d   1       3.906   0.417  -7.933  0.00  0.00    -0.008 C 
ATOM     10  C   LIG d   1       3.041   0.140 -10.290  0.00  0.00     0.232 A 
ATOM     11  O   LIG d   1       3.465   1.143 -10.836  0.00  0.00    -0.283 OA
ATOM     12  H   LIG d   1       0.594  -2.444 -13.417  0.00  0.00     0.065 H 
ATOM     13  H   LIG d   1       1.910  -0.436 -12.950  0.00  0.00     0.063 H 
ATOM     14  H   LIG d   1       1.050  -3.727  -9.362  0.00  0.00     0.069 H 
ATOM     15  H   LIG d   1       4.452   1.310  -8.198  0.00  0.00     0.066 H 
ENDROOT
BRANCH   9  16
ATOM     16  C   LIG d   1       3.904  -0.058  -6.542  0.00  0.00    -0.021 A 
ATOM     17  C   LIG d   1       2.830   0.252  -5.698  0.00  0.00    -0.054 A 
ATOM     18  C   LIG d   1       2.829  -0.192  -4.401  0.00  0.00    -0.047 A 
ATOM     19  H   LIG d   1       2.004   0.840  -6.068  0.00  0.00     0.062 H 
ATOM     20  C   LIG d   1       3.898  -0.955  -3.921  0.00  0.00     0.059 A 
ATOM     21  H   LIG d   1       2.002   0.046  -3.750  0.00  0.00     0.063 H 
ATOM     22  C   LIG d   1       4.971  -1.264  -4.763  0.00  0.00    -0.047 A 
ATOM     23  C   LIG d   1       4.972  -0.826  -6.062  0.00  0.00    -0.054 A 
ATOM     24  H   LIG d   1       5.796  -1.852  -4.391  0.00  0.00     0.063 H 
ATOM     25  H   LIG d   1       5.798  -1.069  -6.714  0.00  0.00     0.062 H 
BRANCH  20  26
ATOM     26  C   LIG d   1       3.897  -1.431  -2.523  0.00  0.00     0.339 C 
ATOM     27  O   LIG d   1       3.440  -2.525  -2.256  0.00  0.00    -0.245 OA
BRANCH  26  28
ATOM     28  O   LIG d   1       4.403  -0.656  -1.546  0.00  0.00    -0.465 OA
BRANCH  28  29
ATOM     29  C   LIG d   1       4.533   0.763  -1.830  0.00  0.00     0.082 C 
ATOM     30  H   LIG d   1       5.573   0.995  -2.053  0.00  0.00     0.066 H 
ATOM     31  H   LIG d   1       3.911   1.019  -2.687  0.00  0.00     0.066 H 
ATOM     32  H   LIG d   1       4.209   1.338  -0.962  0.00  0.00     0.066 H 
ENDBRANCH  28  29
ENDBRANCH  26  28
ENDBRANCH  20  26
ENDBRANCH   9  16
BRANCH   1  33
ATOM     33  O   LIG d   1       0.014  -4.315 -11.684  0.00  0.00    -0.484 OA
BRANCH  33  34
ATOM     34  C   LIG d   1      -0.155  -5.254 -10.620  0.00  0.00     0.147 C 
ATOM     35  H   LIG d   1       0.108  -6.166 -10.935  0.00  0.00     0.078 H 
ATOM     36  H   LIG d   1       0.473  -4.964  -9.777  0.00  0.00     0.078 H 
BRANCH  34  37
ATOM     37  C   LIG d   1      -1.599  -5.270 -10.189  0.00  0.00     0.167 C 
ATOM     38  O   LIG d   1      -1.900  -5.699  -9.101  0.00  0.00    -0.294 OA
BRANCH  37  39
ATOM     39  C   LIG d   1      -2.667  -4.750 -11.116  0.00  0.00    -0.003 C 
ATOM     40  H   LIG d   1      -2.407  -4.939 -12.064  0.00  0.00     0.031 H 
ATOM     41  H   LIG d   1      -3.614  -5.244 -10.895  0.00  0.00     0.031 H 
ATOM     42  H   LIG d   1      -2.777  -3.675 -10.977  0.00  0.00     0.031 H 
ENDBRANCH  37  39
ENDBRANCH  34  37
ENDBRANCH  33  34
ENDBRANCH   1  33
TORSDOF 8
ENDMDL
MODEL 3
REMARK VINA RESULT:      -6.0      1.920      2.174
REMARK  8 active torsions:
REMARK  status: ('A' for Active; 'I' for Inactive)
REMARK    1  A    between atoms: C_1  and  C_2 
REMARK    2  A    between atoms: C_2  and  C_4 
REMARK    3  A    between atoms: C_4  and  O_5 
REMARK    4  A    between atoms: O_5  and  C_6 
REMARK    5  A    between atoms: C_14  and  C_15 
REMARK    6  A    between atoms: C_18  and  C_21 
REMARK    7  A    between atoms: C_21  and  O_23 
REMARK    8  A    between atoms: O_23  and  C_24 
ROOT
ATOM      1  C   LIG d   1       6.423  -0.972  -4.034  0.00  0.00     0.125 A 
ATOM      2  C   LIG d   1       7.190  -1.714  -4.929  0.00  0.00    -0.019 A 
ATOM      3  C   LIG d   1       8.381  -1.222  -5.385  0.00  0.00    -0.044 A 
ATOM      4  C   LIG d   1       8.825   0.030  -4.956  0.00  0.00     0.068 A 
ATOM      5  C   LIG d   1       8.063   0.784  -4.050  0.00  0.00     0.143 A 
ATOM      6  C   LIG d   1       6.855   0.269  -3.597  0.00  0.00     0.023 A 
ATOM      7  O   LIG d   1       8.694   1.948  -3.779  0.00  0.00    -0.451 OA
ATOM      8  C   LIG d   1       9.867   2.050  -4.444  0.00  0.00     0.176 A 
ATOM      9  C   LIG d   1      10.734   3.092  -4.386  0.00  0.00    -0.008 C 
ATOM     10  C   LIG d   1      10.033   0.822  -5.244  0.00  0.00     0.232 A 
ATOM     11  O   LIG d   1      10.959   0.531  -5.981  0.00  0.00    -0.283 OA
ATOM     12  H   LIG d   1       6.843  -2.681  -5.264  0.00  0.00     0.065 H 
ATOM     13  H   LIG d   1       8.974  -1.799  -6.079  0.00  0.00     0.063 H 
ATOM     14  H   LIG d   1       6.252   0.836  -2.902  0.00  0.00     0.069 H 
ATOM     15  H   LIG d   1      11.683   3.034  -4.896  0.00  0.00     0.066 H 
ENDROOT
BRANCH   9  16
ATOM     16  C   LIG d   1      10.378   4.302  -3.631  0.00  0.00    -0.021 A 
ATOM     17  C   LIG d   1      10.697   4.398  -2.271  0.00  0.00    -0.054 A 
ATOM     18  C   LIG d   1      10.366   5.528  -1.568  0.00  0.00    -0.047 A 
ATOM     19  H   LIG d   1      11.205   3.584  -1.776  0.00  0.00     0.062 H 
ATOM     20  C   LIG d   1       9.710   6.583  -2.208  0.00  0.00     0.059 A 
ATOM     21  H   LIG d   1      10.613   5.603  -0.520  0.00  0.00     0.063 H 
ATOM     22  C   LIG d   1       9.389   6.487  -3.566  0.00  0.00    -0.047 A 
ATOM     23  C   LIG d   1       9.725   5.362  -4.272  0.00  0.00    -0.054 A 
ATOM     24  H   LIG d   1       8.882   7.303  -4.059  0.00  0.00     0.063 H 
ATOM     25  H   LIG d   1       9.482   5.290  -5.322  0.00  0.00     0.062 H 
BRANCH  20  26
ATOM     26  C   LIG d   1       9.351   7.798  -1.450  0.00  0.00     0.339 C 
ATOM     27  O   LIG d   1       8.309   7.839  -0.826  0.00  0.00    -0.245 OA
BRANCH  26  28
ATOM     28  O   LIG d   1      10.180   8.860  -1.448  0.00  0.00    -0.465 OA
BRANCH  28  29
ATOM     29  C   LIG d   1       9.595  10.154  -1.752  0.00  0.00     0.082 C 
ATOM     30  H   LIG d   1       8.613  10.227  -1.284  0.00  0.00     0.066 H 
ATOM     31  H   LIG d   1      10.240  10.943  -1.368  0.00  0.00     0.066 H 
ATOM     32  H   LIG d   1       9.492  10.261  -2.832  0.00  0.00     0.066 H 
ENDBRANCH  28  29
ENDBRANCH  26  28
ENDBRANCH  20  26
ENDBRANCH   9  16
BRANCH   1  33
ATOM     33  O   LIG d   1       5.242  -1.470  -3.587  0.00  0.00    -0.484 OA
BRANCH  33  34
ATOM     34  C   LIG d   1       4.751  -0.962  -2.345  0.00  0.00     0.147 C 
ATOM     35  H   LIG d   1       4.541  -1.724  -1.733  0.00  0.00     0.078 H 
ATOM     36  H   LIG d   1       5.510  -0.326  -1.888  0.00  0.00     0.078 H 
BRANCH  34  37
ATOM     37  C   LIG d   1       3.502  -0.157  -2.591  0.00  0.00     0.167 C 
ATOM     38  O   LIG d   1       2.487  -0.709  -2.943  0.00  0.00    -0.294 OA
BRANCH  37  39
ATOM     39  C   LIG d   1       3.518   1.338  -2.397  0.00  0.00    -0.003 C 
ATOM     40  H   LIG d   1       4.150   1.752  -3.052  0.00  0.00     0.031 H 
ATOM     41  H   LIG d   1       2.516   1.737  -2.557  0.00  0.00     0.031 H 
ATOM     42  H   LIG d   1       3.843   1.569  -1.383  0.00  0.00     0.031 H 
ENDBRANCH  37  39
ENDBRANCH  34  37
ENDBRANCH  33  34
ENDBRANCH   1  33
TORSDOF 8
ENDMDL
MODEL 4
REMARK VINA RESULT:      -5.9      7.337     12.319
REMARK  8 active torsions:
REMARK  status: ('A' for Active; 'I' for Inactive)
REMARK    1  A    between atoms: C_1  and  C_2 
REMARK    2  A    between atoms: C_2  and  C_4 
REMARK    3  A    between atoms: C_4  and  O_5 
REMARK    4  A    between atoms: O_5  and  C_6 
REMARK    5  A    between atoms: C_14  and  C_15 
REMARK    6  A    between atoms: C_18  and  C_21 
REMARK    7  A    between atoms: C_21  and  O_23 
REMARK    8  A    between atoms: O_23  and  C_24 
ROOT
ATOM      1  C   LIG d   1       4.787  -2.281  -5.288  0.00  0.00     0.125 A 
ATOM      2  C   LIG d   1       4.404  -2.182  -6.623  0.00  0.00    -0.019 A 
ATOM      3  C   LIG d   1       4.238  -3.311  -7.375  0.00  0.00    -0.044 A 
ATOM      4  C   LIG d   1       4.461  -4.565  -6.804  0.00  0.00     0.068 A 
ATOM      5  C   LIG d   1       4.842  -4.677  -5.457  0.00  0.00     0.143 A 
ATOM      6  C   LIG d   1       5.005  -3.519  -4.707  0.00  0.00     0.023 A 
ATOM      7  O   LIG d   1       4.990  -5.980  -5.131  0.00  0.00    -0.451 OA
ATOM      8  C   LIG d   1       4.727  -6.794  -6.179  0.00  0.00     0.176 A 
ATOM      9  C   LIG d   1       4.785  -8.149  -6.176  0.00  0.00    -0.008 C 
ATOM     10  C   LIG d   1       4.365  -5.940  -7.325  0.00  0.00     0.232 A 
ATOM     11  O   LIG d   1       4.060  -6.292  -8.451  0.00  0.00    -0.283 OA
ATOM     12  H   LIG d   1       4.236  -1.211  -7.065  0.00  0.00     0.065 H 
ATOM     13  H   LIG d   1       3.941  -3.232  -8.410  0.00  0.00     0.063 H 
ATOM     14  H   LIG d   1       5.302  -3.585  -3.670  0.00  0.00     0.069 H 
ATOM     15  H   LIG d   1       4.474  -8.705  -7.047  0.00  0.00     0.066 H 
ENDROOT
BRANCH   9  16
ATOM     16  C   LIG d   1       5.274  -8.861  -4.985  0.00  0.00    -0.021 A 
ATOM     17  C   LIG d   1       6.638  -8.839  -4.668  0.00  0.00    -0.054 A 
ATOM     18  C   LIG d   1       7.092  -9.502  -3.557  0.00  0.00    -0.047 A 
ATOM     19  H   LIG d   1       7.331  -8.302  -5.297  0.00  0.00     0.062 H 
ATOM     20  C   LIG d   1       6.196 -10.199  -2.742  0.00  0.00     0.059 A 
ATOM     21  H   LIG d   1       8.144  -9.486  -3.312  0.00  0.00     0.063 H 
ATOM     22  C   LIG d   1       4.834 -10.221  -3.059  0.00  0.00    -0.047 A 
ATOM     23  C   LIG d   1       4.376  -9.554  -4.166  0.00  0.00    -0.054 A 
ATOM     24  H   LIG d   1       4.142 -10.760  -2.429  0.00  0.00     0.063 H 
ATOM     25  H   LIG d   1       3.323  -9.567  -4.407  0.00  0.00     0.062 H 
BRANCH  20  26
ATOM     26  C   LIG d   1       6.686 -10.914  -1.547  0.00  0.00     0.339 C 
ATOM     27  O   LIG d   1       6.022 -10.922  -0.529  0.00  0.00    -0.245 OA
BRANCH  26  28
ATOM     28  O   LIG d   1       7.869 -11.558  -1.585  0.00  0.00    -0.465 OA
BRANCH  28  29
ATOM     29  C   LIG d   1       8.686 -11.508  -0.385  0.00  0.00     0.082 C 
ATOM     30  H   LIG d   1       8.742 -10.480  -0.027  0.00  0.00     0.066 H 
ATOM     31  H   LIG d   1       8.240 -12.137   0.384  0.00  0.00     0.066 H 
ATOM     32  H   LIG d   1       9.689 -11.869  -0.614  0.00  0.00     0.066 H 
ENDBRANCH  28  29
ENDBRANCH  26  28
ENDBRANCH  20  26
ENDBRANCH   9  16
BRANCH   1  33
ATOM     33  O   LIG d   1       4.948  -1.153  -4.549  0.00  0.00    -0.484 OA
BRANCH  33  34
ATOM     34  C   LIG d   1       3.828  -0.720  -3.773  0.00  0.00     0.147 C 
ATOM     35  H   LIG d   1       3.502   0.159  -4.120  0.00  0.00     0.078 H 
ATOM     36  H   LIG d   1       3.030  -1.459  -3.845  0.00  0.00     0.078 H 
BRANCH  34  37
ATOM     37  C   LIG d   1       4.245  -0.569  -2.333  0.00  0.00     0.167 C 
ATOM     38  O   LIG d   1       4.390  -1.547  -1.640  0.00  0.00    -0.294 OA
BRANCH  37  39
ATOM     39  C   LIG d   1       4.480   0.804  -1.758  0.00  0.00    -0.003 C 
ATOM     40  H   LIG d   1       3.880   0.942  -0.969  0.00  0.00     0.031 H 
ATOM     41  H   LIG d   1       5.520   0.893  -1.443  0.00  0.00     0.031 H 
ATOM     42  H   LIG d   1       4.264   1.557  -2.514  0.00  0.00     0.031 H 
ENDBRANCH  37  39
ENDBRANCH  34  37
ENDBRANCH  33  34
ENDBRANCH   1  33
TORSDOF 8
ENDMDL
MODEL 5
REMARK VINA RESULT:      -5.5      7.454     11.287
REMARK  8 active torsions:
REMARK  status: ('A' for Active; 'I' for Inactive)
REMARK    1  A    between atoms: C_1  and  C_2 
REMARK    2  A    between atoms: C_2  and  C_4 
REMARK    3  A    between atoms: C_4  and  O_5 
REMARK    4  A    between atoms: O_5  and  C_6 
REMARK    5  A    between atoms: C_14  and  C_15 
REMARK    6  A    between atoms: C_18  and  C_21 
REMARK    7  A    between atoms: C_21  and  O_23 
REMARK    8  A    between atoms: O_23  and  C_24 
ROOT
ATOM      1  C   LIG d   1       6.062  -2.522  -4.483  0.00  0.00     0.125 A 
ATOM      2  C   LIG d   1       5.564  -1.695  -3.478  0.00  0.00    -0.019 A 
ATOM      3  C   LIG d   1       4.624  -0.748  -3.771  0.00  0.00    -0.044 A 
ATOM      4  C   LIG d   1       4.167  -0.605  -5.083  0.00  0.00     0.068 A 
ATOM      5  C   LIG d   1       4.657  -1.436  -6.103  0.00  0.00     0.143 A 
ATOM      6  C   LIG d   1       5.612  -2.394  -5.787  0.00  0.00     0.023 A 
ATOM      7  O   LIG d   1       4.066  -1.118  -7.276  0.00  0.00    -0.451 OA
ATOM      8  C   LIG d   1       3.179  -0.107  -7.134  0.00  0.00     0.176 A 
ATOM      9  C   LIG d   1       2.425   0.442  -8.118  0.00  0.00    -0.008 C 
ATOM     10  C   LIG d   1       3.180   0.290  -5.713  0.00  0.00     0.232 A 
ATOM     11  O   LIG d   1       2.518   1.164  -5.182  0.00  0.00    -0.283 OA
ATOM     12  H   LIG d   1       5.922  -1.804  -2.465  0.00  0.00     0.065 H 
ATOM     13  H   LIG d   1       4.240  -0.108  -2.991  0.00  0.00     0.063 H 
ATOM     14  H   LIG d   1       6.005  -3.041  -6.559  0.00  0.00     0.069 H 
ATOM     15  H   LIG d   1       1.686   1.192  -7.878  0.00  0.00     0.066 H 
ENDROOT
BRANCH   9  16
ATOM     16  C   LIG d   1       2.616   0.018  -9.513  0.00  0.00    -0.021 A 
ATOM     17  C   LIG d   1       3.673   0.543 -10.267  0.00  0.00    -0.054 A 
ATOM     18  C   LIG d   1       3.850   0.146 -11.567  0.00  0.00    -0.047 A 
ATOM     19  H   LIG d   1       4.347   1.261  -9.825  0.00  0.00     0.062 H 
ATOM     20  C   LIG d   1       2.977  -0.784 -12.139  0.00  0.00     0.059 A 
ATOM     21  H   LIG d   1       4.664   0.550 -12.148  0.00  0.00     0.063 H 
ATOM     22  C   LIG d   1       1.921  -1.308 -11.388  0.00  0.00    -0.047 A 
ATOM     23  C   LIG d   1       1.745  -0.917 -10.086  0.00  0.00    -0.054 A 
ATOM     24  H   LIG d   1       1.247  -2.026 -11.831  0.00  0.00     0.063 H 
ATOM     25  H   LIG d   1       0.933  -1.326  -9.503  0.00  0.00     0.062 H 
BRANCH  20  26
ATOM     26  C   LIG d   1       3.168  -1.210 -13.540  0.00  0.00     0.339 C 
ATOM     27  O   LIG d   1       2.425  -2.040 -14.029  0.00  0.00    -0.245 OA
BRANCH  26  28
ATOM     28  O   LIG d   1       4.162  -0.679 -14.277  0.00  0.00    -0.465 OA
BRANCH  28  29
ATOM     29  C   LIG d   1       3.920  -0.530 -15.702  0.00  0.00     0.082 C 
ATOM     30  H   LIG d   1       3.309  -1.360 -16.055  0.00  0.00     0.066 H 
ATOM     31  H   LIG d   1       3.400   0.409 -15.885  0.00  0.00     0.066 H 
ATOM     32  H   LIG d   1       4.873  -0.528 -16.233  0.00  0.00     0.066 H 
ENDBRANCH  28  29
ENDBRANCH  26  28
ENDBRANCH  20  26
ENDBRANCH   9  16
BRANCH   1  33
ATOM     33  O   LIG d   1       6.995  -3.460  -4.181  0.00  0.00    -0.484 OA
BRANCH  33  34
ATOM     34  C   LIG d   1       8.303  -2.991  -3.848  0.00  0.00     0.147 C 
ATOM     35  H   LIG d   1       8.709  -2.542  -4.643  0.00  0.00     0.078 H 
ATOM     36  H   LIG d   1       8.234  -2.280  -3.024  0.00  0.00     0.078 H 
BRANCH  34  37
ATOM     37  C   LIG d   1       9.164  -4.157  -3.437  0.00  0.00     0.167 C 
ATOM     38  O   LIG d   1       9.551  -4.944  -4.267  0.00  0.00    -0.294 OA
BRANCH  37  39
ATOM     39  C   LIG d   1       9.543  -4.341  -1.990  0.00  0.00    -0.003 C 
ATOM     40  H   LIG d   1       9.060  -5.134  -1.617  0.00  0.00     0.031 H 
ATOM     41  H   LIG d   1      10.619  -4.502  -1.912  0.00  0.00     0.031 H 
ATOM     42  H   LIG d   1       9.267  -3.450  -1.426  0.00  0.00     0.031 H 
ENDBRANCH  37  39
ENDBRANCH  34  37
ENDBRANCH  33  34
ENDBRANCH   1  33
TORSDOF 8
ENDMDL
MODEL 6
REMARK VINA RESULT:      -5.4      7.078     10.315
REMARK  8 active torsions:
REMARK  status: ('A' for Active; 'I' for Inactive)
REMARK    1  A    between atoms: C_1  and  C_2 
REMARK    2  A    between atoms: C_2  and  C_4 
REMARK    3  A    between atoms: C_4  and  O_5 
REMARK    4  A    between atoms: O_5  and  C_6 
REMARK    5  A    between atoms: C_14  and  C_15 
REMARK    6  A    between atoms: C_18  and  C_21 
REMARK    7  A    between atoms: C_21  and  O_23 
REMARK    8  A    between atoms: O_23  and  C_24 
ROOT
ATOM      1  C   LIG d   1      10.938  -7.409  -1.322  0.00  0.00     0.125 A 
ATOM      2  C   LIG d   1      11.607  -7.929  -2.428  0.00  0.00    -0.019 A 
ATOM      3  C   LIG d   1      11.333  -7.457  -3.681  0.00  0.00    -0.044 A 
ATOM      4  C   LIG d   1      10.374  -6.457  -3.852  0.00  0.00     0.068 A 
ATOM      5  C   LIG d   1       9.698  -5.921  -2.745  0.00  0.00     0.143 A 
ATOM      6  C   LIG d   1       9.989  -6.412  -1.478  0.00  0.00     0.023 A 
ATOM      7  O   LIG d   1       8.831  -4.970  -3.155  0.00  0.00    -0.451 OA
ATOM      8  C   LIG d   1       8.866  -4.802  -4.497  0.00  0.00     0.176 A 
ATOM      9  C   LIG d   1       8.120  -3.926  -5.215  0.00  0.00    -0.008 C 
ATOM     10  C   LIG d   1       9.864  -5.744  -5.036  0.00  0.00     0.232 A 
ATOM     11  O   LIG d   1      10.189  -5.901  -6.200  0.00  0.00    -0.283 OA
ATOM     12  H   LIG d   1      12.346  -8.706  -2.295  0.00  0.00     0.065 H 
ATOM     13  H   LIG d   1      11.853  -7.861  -4.537  0.00  0.00     0.063 H 
ATOM     14  H   LIG d   1       9.475  -6.016  -0.614  0.00  0.00     0.069 H 
ATOM     15  H   LIG d   1       8.288  -3.816  -6.276  0.00  0.00     0.066 H 
ENDROOT
BRANCH   9  16
ATOM     16  C   LIG d   1       7.080  -3.128  -4.549  0.00  0.00    -0.021 A 
ATOM     17  C   LIG d   1       7.426  -1.949  -3.878  0.00  0.00    -0.054 A 
ATOM     18  C   LIG d   1       6.455  -1.205  -3.258  0.00  0.00    -0.047 A 
ATOM     19  H   LIG d   1       8.455  -1.625  -3.848  0.00  0.00     0.062 H 
ATOM     20  C   LIG d   1       5.122  -1.622  -3.296  0.00  0.00     0.059 A 
ATOM     21  H   LIG d   1       6.720  -0.295  -2.741  0.00  0.00     0.063 H 
ATOM     22  C   LIG d   1       4.776  -2.801  -3.966  0.00  0.00    -0.047 A 
ATOM     23  C   LIG d   1       5.744  -3.543  -4.591  0.00  0.00    -0.054 A 
ATOM     24  H   LIG d   1       3.746  -3.122  -3.994  0.00  0.00     0.063 H 
ATOM     25  H   LIG d   1       5.476  -4.450  -5.113  0.00  0.00     0.062 H 
BRANCH  20  26
ATOM     26  C   LIG d   1       4.077  -0.821  -2.627  0.00  0.00     0.339 C 
ATOM     27  O   LIG d   1       4.332  -0.233  -1.594  0.00  0.00    -0.245 OA
BRANCH  26  28
ATOM     28  O   LIG d   1       2.844  -0.741  -3.162  0.00  0.00    -0.465 OA
BRANCH  28  29
ATOM     29  C   LIG d   1       2.666   0.174  -4.276  0.00  0.00     0.082 C 
ATOM     30  H   LIG d   1       3.301   1.048  -4.133  0.00  0.00     0.066 H 
ATOM     31  H   LIG d   1       2.939  -0.327  -5.204  0.00  0.00     0.066 H 
ATOM     32  H   LIG d   1       1.622   0.487  -4.326  0.00  0.00     0.066 H 
ENDBRANCH  28  29
ENDBRANCH  26  28
ENDBRANCH  20  26
ENDBRANCH   9  16
BRANCH   1  33
ATOM     33  O   LIG d   1      11.219  -7.884  -0.082  0.00  0.00    -0.484 OA
BRANCH  33  34
ATOM     34  C   LIG d   1      12.596  -8.094   0.236  0.00  0.00     0.147 C 
ATOM     35  H   LIG d   1      12.872  -9.007  -0.063  0.00  0.00     0.078 H 
ATOM     36  H   LIG d   1      13.204  -7.345  -0.272  0.00  0.00     0.078 H 
BRANCH  34  37
ATOM     37  C   LIG d   1      12.790  -7.975   1.725  0.00  0.00     0.167 C 
ATOM     38  O   LIG d   1      13.882  -7.716   2.173  0.00  0.00    -0.294 OA
BRANCH  37  39
ATOM     39  C   LIG d   1      11.623  -8.179   2.656  0.00  0.00    -0.003 C 
ATOM     40  H   LIG d   1      11.811  -8.954   3.262  0.00  0.00     0.031 H 
ATOM     41  H   LIG d   1      11.473  -7.280   3.254  0.00  0.00     0.031 H 
ATOM     42  H   LIG d   1      10.725  -8.383   2.074  0.00  0.00     0.031 H 
ENDBRANCH  37  39
ENDBRANCH  34  37
ENDBRANCH  33  34
ENDBRANCH   1  33
TORSDOF 8
ENDMDL
MODEL 7
REMARK VINA RESULT:      -5.3      6.007     10.296
REMARK  8 active torsions:
REMARK  status: ('A' for Active; 'I' for Inactive)
REMARK    1  A    between atoms: C_1  and  C_2 
REMARK    2  A    between atoms: C_2  and  C_4 
REMARK    3  A    between atoms: C_4  and  O_5 
REMARK    4  A    between atoms: O_5  and  C_6 
REMARK    5  A    between atoms: C_14  and  C_15 
REMARK    6  A    between atoms: C_18  and  C_21 
REMARK    7  A    between atoms: C_21  and  O_23 
REMARK    8  A    between atoms: O_23  and  C_24 
ROOT
ATOM      1  C   LIG d   1       5.500  -0.898  -4.862  0.00  0.00     0.125 A 
ATOM      2  C   LIG d   1       6.496  -0.011  -5.266  0.00  0.00    -0.019 A 
ATOM      3  C   LIG d   1       7.800  -0.416  -5.310  0.00  0.00    -0.044 A 
ATOM      4  C   LIG d   1       8.135  -1.721  -4.942  0.00  0.00     0.068 A 
ATOM      5  C   LIG d   1       7.139  -2.626  -4.540  0.00  0.00     0.143 A 
ATOM      6  C   LIG d   1       5.818  -2.197  -4.501  0.00  0.00     0.023 A 
ATOM      7  O   LIG d   1       7.699  -3.819  -4.243  0.00  0.00    -0.451 OA
ATOM      8  C   LIG d   1       9.039  -3.805  -4.421  0.00  0.00     0.176 A 
ATOM      9  C   LIG d   1       9.888  -4.842  -4.211  0.00  0.00    -0.008 C 
ATOM     10  C   LIG d   1       9.411  -2.455  -4.887  0.00  0.00     0.232 A 
ATOM     11  O   LIG d   1      10.524  -2.041  -5.160  0.00  0.00    -0.283 OA
ATOM     12  H   LIG d   1       6.236   0.999  -5.545  0.00  0.00     0.065 H 
ATOM     13  H   LIG d   1       8.570   0.272  -5.622  0.00  0.00     0.063 H 
ATOM     14  H   LIG d   1       5.039  -2.877  -4.189  0.00  0.00     0.069 H 
ATOM     15  H   LIG d   1      10.932  -4.745  -4.466  0.00  0.00     0.066 H 
ENDROOT
BRANCH   9  16
ATOM     16  C   LIG d   1       9.384  -6.097  -3.635  0.00  0.00    -0.021 A 
ATOM     17  C   LIG d   1       9.666  -6.418  -2.301  0.00  0.00    -0.054 A 
ATOM     18  C   LIG d   1       9.195  -7.589  -1.765  0.00  0.00    -0.047 A 
ATOM     19  H   LIG d   1      10.253  -5.745  -1.696  0.00  0.00     0.062 H 
ATOM     20  C   LIG d   1       8.434  -8.461  -2.548  0.00  0.00     0.059 A 
ATOM     21  H   LIG d   1       9.411  -7.836  -0.737  0.00  0.00     0.063 H 
ATOM     22  C   LIG d   1       8.153  -8.142  -3.881  0.00  0.00    -0.047 A 
ATOM     23  C   LIG d   1       8.618  -6.969  -4.418  0.00  0.00    -0.054 A 
ATOM     24  H   LIG d   1       7.566  -8.817  -4.485  0.00  0.00     0.063 H 
ATOM     25  H   LIG d   1       8.396  -6.720  -5.445  0.00  0.00     0.062 H 
BRANCH  20  26
ATOM     26  C   LIG d   1       7.928  -9.723  -1.970  0.00  0.00     0.339 C 
ATOM     27  O   LIG d   1       8.286 -10.068  -0.861  0.00  0.00    -0.245 OA
BRANCH  26  28
ATOM     28  O   LIG d   1       7.071 -10.489  -2.671  0.00  0.00    -0.465 OA
BRANCH  28  29
ATOM     29  C   LIG d   1       5.704 -10.564  -2.183  0.00  0.00     0.082 C 
ATOM     30  H   LIG d   1       5.267  -9.566  -2.173  0.00  0.00     0.066 H 
ATOM     31  H   LIG d   1       5.121 -11.210  -2.838  0.00  0.00     0.066 H 
ATOM     32  H   LIG d   1       5.702 -10.974  -1.173  0.00  0.00     0.066 H 
ENDBRANCH  28  29
ENDBRANCH  26  28
ENDBRANCH  20  26
ENDBRANCH   9  16
BRANCH   1  33
ATOM     33  O   LIG d   1       4.208  -0.485  -4.823  0.00  0.00    -0.484 OA
BRANCH  33  34
ATOM     34  C   LIG d   1       3.582  -0.433  -3.539  0.00  0.00     0.147 C 
ATOM     35  H   LIG d   1       2.594  -0.547  -3.645  0.00  0.00     0.078 H 
ATOM     36  H   LIG d   1       3.975  -1.233  -2.911  0.00  0.00     0.078 H 
BRANCH  34  37
ATOM     37  C   LIG d   1       3.867   0.899  -2.895  0.00  0.00     0.167 C 
ATOM     38  O   LIG d   1       3.515   1.919  -3.438  0.00  0.00    -0.294 OA
BRANCH  37  39
ATOM     39  C   LIG d   1       4.590   0.958  -1.575  0.00  0.00    -0.003 C 
ATOM     40  H   LIG d   1       5.530   1.270  -1.723  0.00  0.00     0.031 H 
ATOM     41  H   LIG d   1       4.078   1.654  -0.910  0.00  0.00     0.031 H 
ATOM     42  H   LIG d   1       4.604  -0.033  -1.123  0.00  0.00     0.031 H 
ENDBRANCH  37  39
ENDBRANCH  34  37
ENDBRANCH  33  34
ENDBRANCH   1  33
TORSDOF 8
ENDMDL
MODEL 8
REMARK VINA RESULT:      -5.3      4.267      6.626
REMARK  8 active torsions:
REMARK  status: ('A' for Active; 'I' for Inactive)
REMARK    1  A    between atoms: C_1  and  C_2 
REMARK    2  A    between atoms: C_2  and  C_4 
REMARK    3  A    between atoms: C_4  and  O_5 
REMARK    4  A    between atoms: O_5  and  C_6 
REMARK    5  A    between atoms: C_14  and  C_15 
REMARK    6  A    between atoms: C_18  and  C_21 
REMARK    7  A    between atoms: C_21  and  O_23 
REMARK    8  A    between atoms: O_23  and  C_24 
ROOT
ATOM      1  C   LIG d   1       9.896   6.260  -7.197  0.00  0.00     0.125 A 
ATOM      2  C   LIG d   1       9.797   4.877  -7.061  0.00  0.00    -0.019 A 
ATOM      3  C   LIG d   1       9.751   4.310  -5.819  0.00  0.00    -0.044 A 
ATOM      4  C   LIG d   1       9.810   5.120  -4.683  0.00  0.00     0.068 A 
ATOM      5  C   LIG d   1       9.903   6.515  -4.807  0.00  0.00     0.143 A 
ATOM      6  C   LIG d   1       9.949   7.075  -6.078  0.00  0.00     0.023 A 
ATOM      7  O   LIG d   1       9.938   7.082  -3.581  0.00  0.00    -0.451 OA
ATOM      8  C   LIG d   1       9.867   6.156  -2.597  0.00  0.00     0.176 A 
ATOM      9  C   LIG d   1       9.878   6.402  -1.263  0.00  0.00    -0.008 C 
ATOM     10  C   LIG d   1       9.776   4.831  -3.238  0.00  0.00     0.232 A 
ATOM     11  O   LIG d   1       9.697   3.744  -2.695  0.00  0.00    -0.283 OA
ATOM     12  H   LIG d   1       9.756   4.251  -7.940  0.00  0.00     0.065 H 
ATOM     13  H   LIG d   1       9.675   3.238  -5.716  0.00  0.00     0.063 H 
ATOM     14  H   LIG d   1      10.025   8.146  -6.193  0.00  0.00     0.069 H 
ATOM     15  H   LIG d   1       9.733   5.592  -0.564  0.00  0.00     0.066 H 
ENDROOT
BRANCH   9  16
ATOM     16  C   LIG d   1      10.089   7.771  -0.770  0.00  0.00    -0.021 A 
ATOM     17  C   LIG d   1       9.053   8.710  -0.844  0.00  0.00    -0.054 A 
ATOM     18  C   LIG d   1       9.252   9.985  -0.383  0.00  0.00    -0.047 A 
ATOM     19  H   LIG d   1       8.099   8.430  -1.265  0.00  0.00     0.062 H 
ATOM     20  C   LIG d   1      10.486  10.349   0.162  0.00  0.00     0.059 A 
ATOM     21  H   LIG d   1       8.453  10.710  -0.439  0.00  0.00     0.063 H 
ATOM     22  C   LIG d   1      11.522   9.412   0.236  0.00  0.00    -0.047 A 
ATOM     23  C   LIG d   1      11.325   8.134  -0.219  0.00  0.00    -0.054 A 
ATOM     24  H   LIG d   1      12.475   9.694   0.657  0.00  0.00     0.063 H 
ATOM     25  H   LIG d   1      12.123   7.408  -0.157  0.00  0.00     0.062 H 
BRANCH  20  26
ATOM     26  C   LIG d   1      10.699  11.723   0.657  0.00  0.00     0.339 C 
ATOM     27  O   LIG d   1      11.193  11.904   1.753  0.00  0.00    -0.245 OA
BRANCH  26  28
ATOM     28  O   LIG d   1      10.349  12.776  -0.105  0.00  0.00    -0.465 OA
BRANCH  28  29
ATOM     29  C   LIG d   1      10.123  14.039   0.577  0.00  0.00     0.082 C 
ATOM     30  H   LIG d   1      10.620  14.022   1.546  0.00  0.00     0.066 H 
ATOM     31  H   LIG d   1      10.525  14.853  -0.025  0.00  0.00     0.066 H 
ATOM     32  H   LIG d   1       9.052  14.188   0.720  0.00  0.00     0.066 H 
ENDBRANCH  28  29
ENDBRANCH  26  28
ENDBRANCH  20  26
ENDBRANCH   9  16
BRANCH   1  33
ATOM     33  O   LIG d   1       9.940   6.812  -8.435  0.00  0.00    -0.484 OA
BRANCH  33  34
ATOM     34  C   LIG d   1       8.851   6.523  -9.315  0.00  0.00     0.147 C 
ATOM     35  H   LIG d   1       8.303   5.779  -8.932  0.00  0.00     0.078 H 
ATOM     36  H   LIG d   1       8.230   7.412  -9.428  0.00  0.00     0.078 H 
BRANCH  34  37
ATOM     37  C   LIG d   1       9.389   6.109 -10.660  0.00  0.00     0.167 C 
ATOM     38  O   LIG d   1       8.630   5.912 -11.579  0.00  0.00    -0.294 OA
BRANCH  37  39
ATOM     39  C   LIG d   1      10.873   5.940 -10.858  0.00  0.00    -0.003 C 
ATOM     40  H   LIG d   1      11.113   6.183 -11.799  0.00  0.00     0.031 H 
ATOM     41  H   LIG d   1      11.409   6.591 -10.168  0.00  0.00     0.031 H 
ATOM     42  H   LIG d   1      11.149   4.903 -10.670  0.00  0.00     0.031 H 
ENDBRANCH  37  39
ENDBRANCH  34  37
ENDBRANCH  33  34
ENDBRANCH   1  33
TORSDOF 8
ENDMDL
MODEL 9
REMARK VINA RESULT:      -5.3      8.006     11.756
REMARK  8 active torsions:
REMARK  status: ('A' for Active; 'I' for Inactive)
REMARK    1  A    between atoms: C_1  and  C_2 
REMARK    2  A    between atoms: C_2  and  C_4 
REMARK    3  A    between atoms: C_4  and  O_5 
REMARK    4  A    between atoms: O_5  and  C_6 
REMARK    5  A    between atoms: C_14  and  C_15 
REMARK    6  A    between atoms: C_18  and  C_21 
REMARK    7  A    between atoms: C_21  and  O_23 
REMARK    8  A    between atoms: O_23  and  C_24 
ROOT
ATOM      1  C   LIG d   1      -0.953  -5.664 -11.216  0.00  0.00     0.125 A 
ATOM      2  C   LIG d   1      -0.992  -5.282 -12.555  0.00  0.00    -0.019 A 
ATOM      3  C   LIG d   1      -0.256  -4.215 -12.986  0.00  0.00    -0.044 A 
ATOM      4  C   LIG d   1       0.531  -3.502 -12.080  0.00  0.00     0.068 A 
ATOM      5  C   LIG d   1       0.583  -3.881 -10.729  0.00  0.00     0.143 A 
ATOM      6  C   LIG d   1      -0.171  -4.969 -10.308  0.00  0.00     0.023 A 
ATOM      7  O   LIG d   1       1.411  -3.054 -10.054  0.00  0.00    -0.451 OA
ATOM      8  C   LIG d   1       1.951  -2.113 -10.862  0.00  0.00     0.176 A 
ATOM      9  C   LIG d   1       2.819  -1.140 -10.490  0.00  0.00    -0.008 C 
ATOM     10  C   LIG d   1       1.425  -2.339 -12.221  0.00  0.00     0.232 A 
ATOM     11  O   LIG d   1       1.671  -1.704 -13.231  0.00  0.00    -0.283 OA
ATOM     12  H   LIG d   1      -1.606  -5.831 -13.254  0.00  0.00     0.065 H 
ATOM     13  H   LIG d   1      -0.288  -3.920 -14.024  0.00  0.00     0.063 H 
ATOM     14  H   LIG d   1      -0.148  -5.274  -9.271  0.00  0.00     0.069 H 
ATOM     15  H   LIG d   1       3.253  -0.490 -11.234  0.00  0.00     0.066 H 
ENDROOT
BRANCH   9  16
ATOM     16  C   LIG d   1       3.166  -0.968  -9.071  0.00  0.00    -0.021 A 
ATOM     17  C   LIG d   1       4.139  -1.786  -8.484  0.00  0.00    -0.054 A 
ATOM     18  C   LIG d   1       4.462  -1.624  -7.162  0.00  0.00    -0.047 A 
ATOM     19  H   LIG d   1       4.634  -2.544  -9.072  0.00  0.00     0.062 H 
ATOM     20  C   LIG d   1       3.822  -0.642  -6.400  0.00  0.00     0.059 A 
ATOM     21  H   LIG d   1       5.212  -2.254  -6.709  0.00  0.00     0.063 H 
ATOM     22  C   LIG d   1       2.850   0.175  -6.986  0.00  0.00    -0.047 A 
ATOM     23  C   LIG d   1       2.529   0.019  -8.309  0.00  0.00    -0.054 A 
ATOM     24  H   LIG d   1       2.357   0.933  -6.396  0.00  0.00     0.063 H 
ATOM     25  H   LIG d   1       1.782   0.654  -8.763  0.00  0.00     0.062 H 
BRANCH  20  26
ATOM     26  C   LIG d   1       4.171  -0.469  -4.975  0.00  0.00     0.339 C 
ATOM     27  O   LIG d   1       5.045   0.312  -4.655  0.00  0.00    -0.245 OA
BRANCH  26  28
ATOM     28  O   LIG d   1       3.519  -1.175  -4.032  0.00  0.00    -0.465 OA
BRANCH  28  29
ATOM     29  C   LIG d   1       4.288  -2.168  -3.302  0.00  0.00     0.082 C 
ATOM     30  H   LIG d   1       3.804  -2.371  -2.347  0.00  0.00     0.066 H 
ATOM     31  H   LIG d   1       4.341  -3.087  -3.886  0.00  0.00     0.066 H 
ATOM     32  H   LIG d   1       5.295  -1.790  -3.127  0.00  0.00     0.066 H 
ENDBRANCH  28  29
ENDBRANCH  26  28
ENDBRANCH  20  26
ENDBRANCH   9  16
BRANCH   1  33
ATOM     33  O   LIG d   1      -1.687  -6.726 -10.798  0.00  0.00    -0.484 OA
BRANCH  33  34
ATOM     34  C   LIG d   1      -3.110  -6.586 -10.831  0.00  0.00     0.147 C 
ATOM     35  H   LIG d   1      -3.383  -6.164 -11.696  0.00  0.00     0.078 H 
ATOM     36  H   LIG d   1      -3.573  -7.568 -10.742  0.00  0.00     0.078 H 
BRANCH  34  37
ATOM     37  C   LIG d   1      -3.554  -5.713  -9.686  0.00  0.00     0.167 C 
ATOM     38  O   LIG d   1      -3.323  -6.046  -8.548  0.00  0.00    -0.294 OA
BRANCH  37  39
ATOM     39  C   LIG d   1      -4.287  -4.426  -9.960  0.00  0.00    -0.003 C 
ATOM     40  H   LIG d   1      -4.572  -4.013  -9.094  0.00  0.00     0.031 H 
ATOM     41  H   LIG d   1      -3.628  -3.737 -10.489  0.00  0.00     0.031 H 
ATOM     42  H   LIG d   1      -5.165  -4.630 -10.571  0.00  0.00     0.031 H 
ENDBRANCH  37  39
ENDBRANCH  34  37
ENDBRANCH  33  34
ENDBRANCH   1  33
TORSDOF 8
ENDMDL
