MODEL 1
REMARK VINA RESULT:      -7.1      0.000      0.000
REMARK  8 active torsions:
REMARK  status: ('A' for Active; 'I' for Inactive)
REMARK    1  A    between atoms: C_1  and  C_2 
REMARK    2  A    between atoms: C_2  and  C_3 
REMARK    3  A    between atoms: C_3  and  C_5 
REMARK    4  A    between atoms: C_3  and  N_6 
REMARK       I    between atoms: N_6  and  C_7 
REMARK    5  A    between atoms: C_7  and  C_9 
REMARK    6  A    between atoms: C_12  and  N_15 
REMARK    7  A    between atoms: C_31  and  C_36 
REMARK    8  A    between atoms: C_39  and  C_42 
ROOT
ATOM      1  N   LIG d   1       9.042   1.454  -5.839  0.00  0.00    -0.193 N 
ATOM      2  C   LIG d   1       9.190   1.650  -7.165  0.00  0.00     0.248 A 
ATOM      3  O   LIG d   1       9.814   2.537  -7.707  0.00  0.00    -0.273 OA
ATOM      4  C   LIG d   1       8.416   0.534  -7.838  0.00  0.00     0.110 A 
ATOM      5  H   LIG d   1       9.052  -0.115  -8.439  0.00  0.00     0.060 H 
ATOM      6  C   LIG d   1       7.274   1.133  -8.668  0.00  0.00     0.002 C 
ATOM      7  C   LIG d   1       6.168   0.117  -8.804  0.00  0.00    -0.015 A 
ATOM      8  C   LIG d   1       5.103   0.101  -9.789  0.00  0.00     0.003 A 
ATOM      9  C   LIG d   1       4.785   0.952 -10.851  0.00  0.00    -0.052 A 
ATOM     10  C   LIG d   1       3.679   0.628 -11.596  0.00  0.00    -0.061 A 
ATOM     11  C   LIG d   1       2.905  -0.487 -11.318  0.00  0.00    -0.060 A 
ATOM     12  C   LIG d   1       3.198  -1.347 -10.273  0.00  0.00    -0.038 A 
ATOM     13  C   LIG d   1       4.315  -1.042  -9.499  0.00  0.00     0.047 A 
ATOM     14  N   LIG d   1       4.878  -1.658  -8.419  0.00  0.00    -0.356 N 
ATOM     15  H   LIG d   1       4.544  -2.469  -8.002  0.00  0.00     0.166 HD
ATOM     16  C   LIG d   1       5.984  -0.961  -8.013  0.00  0.00     0.046 A 
ATOM     17  C   LIG d   1       6.892  -1.317  -6.853  0.00  0.00     0.094 C 
ATOM     18  H   LIG d   1       7.446  -2.228  -7.078  0.00  0.00     0.062 H 
ATOM     19  N   LIG d   1       7.818  -0.189  -6.695  0.00  0.00    -0.261 N 
ATOM     20  C   LIG d   1       8.265   0.392  -5.579  0.00  0.00     0.317 A 
ATOM     21  O   LIG d   1       7.999   0.004  -4.459  0.00  0.00    -0.252 OA
ATOM     22  H   LIG d   1       6.892   2.024  -8.171  0.00  0.00     0.034 H 
ATOM     23  H   LIG d   1       7.647   1.401  -9.658  0.00  0.00     0.034 H 
ATOM     24  H   LIG d   1       5.383   1.824 -11.075  0.00  0.00     0.062 H 
ATOM     25  H   LIG d   1       3.402   1.262 -12.426  0.00  0.00     0.062 H 
ATOM     26  H   LIG d   1       2.045  -0.694 -11.939  0.00  0.00     0.062 H 
ATOM     27  H   LIG d   1       2.586  -2.213 -10.067  0.00  0.00     0.064 H 
ENDROOT
BRANCH   1  28
ATOM     28  C   LIG d   1       9.622   2.260  -4.856  0.00  0.00     0.045 A 
ATOM     29  C   LIG d   1       9.010   3.453  -4.487  0.00  0.00    -0.039 A 
ATOM     30  C   LIG d   1       9.576   4.248  -3.516  0.00  0.00    -0.048 A 
ATOM     31  H   LIG d   1       8.086   3.755  -4.961  0.00  0.00     0.064 H 
ATOM     32  C   LIG d   1      10.771   3.859  -2.906  0.00  0.00     0.037 A 
ATOM     33  H   LIG d   1       9.097   5.172  -3.227  0.00  0.00     0.063 H 
ATOM     34  C   LIG d   1      11.384   2.660  -3.279  0.00  0.00    -0.048 A 
ATOM     35  C   LIG d   1      10.809   1.868  -4.248  0.00  0.00    -0.039 A 
ATOM     36  H   LIG d   1      12.305   2.354  -2.807  0.00  0.00     0.063 H 
ATOM     37  H   LIG d   1      11.282   0.940  -4.537  0.00  0.00     0.064 H 
BRANCH  32  38
ATOM     38  C   LIG d   1      11.384   4.710  -1.867  0.00  0.00     0.244 C 
ATOM     39  N   LIG d   1      10.641   5.145  -0.829  0.00  0.00    -0.309 N 
ATOM     40  H   LIG d   1       9.706   4.898  -0.764  0.00  0.00     0.149 HD
ATOM     41  O   LIG d   1      12.556   5.020  -1.948  0.00  0.00    -0.270 OA
BRANCH  39  42
ATOM     42  C   LIG d   1      11.249   5.990   0.203  0.00  0.00     0.020 C 
ATOM     43  H   LIG d   1      12.330   6.009   0.066  0.00  0.00     0.050 H 
BRANCH  42  44
ATOM     44  C   LIG d   1      10.920   5.422   1.586  0.00  0.00    -0.038 C 
ATOM     45  H   LIG d   1       9.894   5.056   1.592  0.00  0.00     0.028 H 
ATOM     46  H   LIG d   1      11.600   4.600   1.812  0.00  0.00     0.028 H 
BRANCH  44  47
ATOM     47  C   LIG d   1      11.077   6.519   2.638  0.00  0.00    -0.064 C 
ATOM     48  H   LIG d   1      11.256   6.066   3.613  0.00  0.00     0.023 H 
ATOM     49  H   LIG d   1      11.921   7.158   2.375  0.00  0.00     0.023 H 
ATOM     50  H   LIG d   1      10.167   7.118   2.678  0.00  0.00     0.023 H 
ENDBRANCH  44  47
ENDBRANCH  42  44
BRANCH  42  51
ATOM     51  C   LIG d   1      10.696   7.411   0.090  0.00  0.00    -0.047 C 
ATOM     52  H   LIG d   1      11.428   8.119   0.476  0.00  0.00     0.025 H 
ATOM     53  H   LIG d   1      10.487   7.638  -0.956  0.00  0.00     0.025 H 
ATOM     54  H   LIG d   1       9.775   7.489   0.668  0.00  0.00     0.025 H 
ENDBRANCH  42  51
ENDBRANCH  39  42
ENDBRANCH  32  38
ENDBRANCH   1  28
BRANCH  17  55
ATOM     55  C   LIG d   1       6.080  -1.500  -5.597  0.00  0.00    -0.021 A 
ATOM     56  C   LIG d   1       6.322  -2.581  -4.768  0.00  0.00    -0.056 A 
ATOM     57  C   LIG d   1       5.578  -2.749  -3.616  0.00  0.00    -0.059 A 
ATOM     58  H   LIG d   1       7.094  -3.292  -5.021  0.00  0.00     0.062 H 
ATOM     59  C   LIG d   1       4.590  -1.837  -3.292  0.00  0.00    -0.050 A 
ATOM     60  H   LIG d   1       5.768  -3.592  -2.968  0.00  0.00     0.062 H 
ATOM     61  C   LIG d   1       4.348  -0.758  -4.121  0.00  0.00    -0.059 A 
ATOM     62  C   LIG d   1       5.096  -0.586  -5.270  0.00  0.00    -0.056 A 
ATOM     63  H   LIG d   1       3.576  -0.045  -3.868  0.00  0.00     0.062 H 
ATOM     64  H   LIG d   1       4.909   0.260  -5.915  0.00  0.00     0.062 H 
BRANCH  59  65
ATOM     65  C   LIG d   1       3.778  -2.020  -2.036  0.00  0.00    -0.040 C 
ATOM     66  H   LIG d   1       3.154  -2.909  -2.133  0.00  0.00     0.028 H 
ATOM     67  H   LIG d   1       4.448  -2.137  -1.184  0.00  0.00     0.028 H 
ATOM     68  H   LIG d   1       3.145  -1.146  -1.882  0.00  0.00     0.028 H 
ENDBRANCH  59  65
ENDBRANCH  17  55
TORSDOF 8
ENDMDL
MODEL 2
REMARK VINA RESULT:      -7.0      4.770      8.750
REMARK  8 active torsions:
REMARK  status: ('A' for Active; 'I' for Inactive)
REMARK    1  A    between atoms: C_1  and  C_2 
REMARK    2  A    between atoms: C_2  and  C_3 
REMARK    3  A    between atoms: C_3  and  C_5 
REMARK    4  A    between atoms: C_3  and  N_6 
REMARK       I    between atoms: N_6  and  C_7 
REMARK    5  A    between atoms: C_7  and  C_9 
REMARK    6  A    between atoms: C_12  and  N_15 
REMARK    7  A    between atoms: C_31  and  C_36 
REMARK    8  A    between atoms: C_39  and  C_42 
ROOT
ATOM      1  N   LIG d   1       9.576  -3.083  -4.382  0.00  0.00    -0.193 N 
ATOM      2  C   LIG d   1      10.711  -2.509  -4.833  0.00  0.00     0.248 A 
ATOM      3  O   LIG d   1      11.839  -2.940  -4.730  0.00  0.00    -0.273 OA
ATOM      4  C   LIG d   1      10.284  -1.214  -5.495  0.00  0.00     0.110 A 
ATOM      5  H   LIG d   1      10.521  -1.187  -6.558  0.00  0.00     0.060 H 
ATOM      6  C   LIG d   1      10.906  -0.029  -4.747  0.00  0.00     0.002 C 
ATOM      7  C   LIG d   1      10.046   1.194  -4.944  0.00  0.00    -0.015 A 
ATOM      8  C   LIG d   1      10.430   2.581  -4.754  0.00  0.00     0.003 A 
ATOM      9  C   LIG d   1      11.628   3.184  -4.362  0.00  0.00    -0.052 A 
ATOM     10  C   LIG d   1      11.636   4.555  -4.284  0.00  0.00    -0.061 A 
ATOM     11  C   LIG d   1      10.515   5.315  -4.576  0.00  0.00    -0.060 A 
ATOM     12  C   LIG d   1       9.317   4.743  -4.967  0.00  0.00    -0.038 A 
ATOM     13  C   LIG d   1       9.280   3.353  -5.054  0.00  0.00     0.047 A 
ATOM     14  N   LIG d   1       8.287   2.483  -5.400  0.00  0.00    -0.356 N 
ATOM     15  H   LIG d   1       7.385   2.737  -5.654  0.00  0.00     0.166 HD
ATOM     16  C   LIG d   1       8.755   1.198  -5.333  0.00  0.00     0.046 A 
ATOM     17  C   LIG d   1       7.967  -0.060  -5.645  0.00  0.00     0.094 C 
ATOM     18  H   LIG d   1       7.745  -0.107  -6.711  0.00  0.00     0.062 H 
ATOM     19  N   LIG d   1       8.824  -1.187  -5.258  0.00  0.00    -0.261 N 
ATOM     20  C   LIG d   1       8.500  -2.326  -4.640  0.00  0.00     0.317 A 
ATOM     21  O   LIG d   1       7.364  -2.638  -4.347  0.00  0.00    -0.252 OA
ATOM     22  H   LIG d   1      10.970  -0.263  -3.685  0.00  0.00     0.034 H 
ATOM     23  H   LIG d   1      11.906   0.162  -5.138  0.00  0.00     0.034 H 
ATOM     24  H   LIG d   1      12.507   2.599  -4.132  0.00  0.00     0.062 H 
ATOM     25  H   LIG d   1      12.545   5.057  -3.985  0.00  0.00     0.062 H 
ATOM     26  H   LIG d   1      10.579   6.390  -4.497  0.00  0.00     0.062 H 
ATOM     27  H   LIG d   1       8.450   5.347  -5.191  0.00  0.00     0.064 H 
ENDROOT
BRANCH   1  28
ATOM     28  C   LIG d   1       9.528  -4.315  -3.722  0.00  0.00     0.045 A 
ATOM     29  C   LIG d   1       9.736  -4.373  -2.348  0.00  0.00    -0.039 A 
ATOM     30  C   LIG d   1       9.685  -5.584  -1.694  0.00  0.00    -0.048 A 
ATOM     31  H   LIG d   1       9.935  -3.468  -1.793  0.00  0.00     0.064 H 
ATOM     32  C   LIG d   1       9.432  -6.755  -2.413  0.00  0.00     0.037 A 
ATOM     33  H   LIG d   1       9.842  -5.628  -0.626  0.00  0.00     0.063 H 
ATOM     34  C   LIG d   1       9.224  -6.692  -3.793  0.00  0.00    -0.048 A 
ATOM     35  C   LIG d   1       9.272  -5.477  -4.440  0.00  0.00    -0.039 A 
ATOM     36  H   LIG d   1       9.024  -7.594  -4.351  0.00  0.00     0.063 H 
ATOM     37  H   LIG d   1       9.111  -5.427  -5.507  0.00  0.00     0.064 H 
BRANCH  32  38
ATOM     38  C   LIG d   1       9.380  -8.055  -1.716  0.00  0.00     0.244 C 
ATOM     39  N   LIG d   1      10.327  -8.372  -0.809  0.00  0.00    -0.309 N 
ATOM     40  H   LIG d   1      11.042  -7.746  -0.615  0.00  0.00     0.149 HD
ATOM     41  O   LIG d   1       8.485  -8.840  -1.959  0.00  0.00    -0.270 OA
BRANCH  39  42
ATOM     42  C   LIG d   1      10.276  -9.663  -0.117  0.00  0.00     0.020 C 
ATOM     43  H   LIG d   1       9.261 -10.058  -0.161  0.00  0.00     0.050 H 
BRANCH  42  44
ATOM     44  C   LIG d   1      10.688  -9.474   1.345  0.00  0.00    -0.038 C 
ATOM     45  H   LIG d   1       9.800  -9.482   1.975  0.00  0.00     0.028 H 
ATOM     46  H   LIG d   1      11.353 -10.285   1.642  0.00  0.00     0.028 H 
BRANCH  44  47
ATOM     47  C   LIG d   1      11.412  -8.136   1.501  0.00  0.00    -0.064 C 
ATOM     48  H   LIG d   1      12.422  -8.311   1.873  0.00  0.00     0.023 H 
ATOM     49  H   LIG d   1      11.463  -7.634   0.535  0.00  0.00     0.023 H 
ATOM     50  H   LIG d   1      10.869  -7.509   2.208  0.00  0.00     0.023 H 
ENDBRANCH  44  47
ENDBRANCH  42  44
BRANCH  42  51
ATOM     51  C   LIG d   1      11.234 -10.643  -0.795  0.00  0.00    -0.047 C 
ATOM     52  H   LIG d   1      11.237 -10.464  -1.870  0.00  0.00     0.025 H 
ATOM     53  H   LIG d   1      12.239 -10.501  -0.400  0.00  0.00     0.025 H 
ATOM     54  H   LIG d   1      10.908 -11.664  -0.599  0.00  0.00     0.025 H 
ENDBRANCH  42  51
ENDBRANCH  39  42
ENDBRANCH  32  38
ENDBRANCH   1  28
BRANCH  17  55
ATOM     55  C   LIG d   1       6.689  -0.082  -4.847  0.00  0.00    -0.021 A 
ATOM     56  C   LIG d   1       6.703   0.265  -3.509  0.00  0.00    -0.056 A 
ATOM     57  C   LIG d   1       5.530   0.244  -2.777  0.00  0.00    -0.059 A 
ATOM     58  H   LIG d   1       7.629   0.553  -3.035  0.00  0.00     0.062 H 
ATOM     59  C   LIG d   1       4.343  -0.125  -3.384  0.00  0.00    -0.050 A 
ATOM     60  H   LIG d   1       5.540   0.516  -1.732  0.00  0.00     0.062 H 
ATOM     61  C   LIG d   1       4.331  -0.472  -4.722  0.00  0.00    -0.059 A 
ATOM     62  C   LIG d   1       5.502  -0.446  -5.455  0.00  0.00    -0.056 A 
ATOM     63  H   LIG d   1       3.404  -0.760  -5.196  0.00  0.00     0.062 H 
ATOM     64  H   LIG d   1       5.491  -0.713  -6.501  0.00  0.00     0.062 H 
BRANCH  59  65
ATOM     65  C   LIG d   1       3.064  -0.147  -2.587  0.00  0.00    -0.040 C 
ATOM     66  H   LIG d   1       3.077   0.664  -1.858  0.00  0.00     0.028 H 
ATOM     67  H   LIG d   1       2.215  -0.020  -3.259  0.00  0.00     0.028 H 
ATOM     68  H   LIG d   1       2.977  -1.101  -2.068  0.00  0.00     0.028 H 
ENDBRANCH  59  65
ENDBRANCH  17  55
TORSDOF 8
ENDMDL
MODEL 3
REMARK VINA RESULT:      -6.9      4.571     10.534
REMARK  8 active torsions:
REMARK  status: ('A' for Active; 'I' for Inactive)
REMARK    1  A    between atoms: C_1  and  C_2 
REMARK    2  A    between atoms: C_2  and  C_3 
REMARK    3  A    between atoms: C_3  and  C_5 
REMARK    4  A    between atoms: C_3  and  N_6 
REMARK       I    between atoms: N_6  and  C_7 
REMARK    5  A    between atoms: C_7  and  C_9 
REMARK    6  A    between atoms: C_12  and  N_15 
REMARK    7  A    between atoms: C_31  and  C_36 
REMARK    8  A    between atoms: C_39  and  C_42 
ROOT
ATOM      1  N   LIG d   1       6.057  -2.674  -8.002  0.00  0.00    -0.193 N 
ATOM      2  C   LIG d   1       6.960  -3.651  -8.222  0.00  0.00     0.248 A 
ATOM      3  O   LIG d   1       6.952  -4.465  -9.121  0.00  0.00    -0.273 OA
ATOM      4  C   LIG d   1       7.988  -3.521  -7.116  0.00  0.00     0.110 A 
ATOM      5  H   LIG d   1       8.985  -3.297  -7.493  0.00  0.00     0.060 H 
ATOM      6  C   LIG d   1       7.981  -4.795  -6.261  0.00  0.00     0.002 C 
ATOM      7  C   LIG d   1       8.470  -4.468  -4.872  0.00  0.00    -0.015 A 
ATOM      8  C   LIG d   1       8.981  -5.392  -3.877  0.00  0.00     0.003 A 
ATOM      9  C   LIG d   1       9.174  -6.776  -3.885  0.00  0.00    -0.052 A 
ATOM     10  C   LIG d   1       9.688  -7.338  -2.742  0.00  0.00    -0.061 A 
ATOM     11  C   LIG d   1      10.003  -6.579  -1.627  0.00  0.00    -0.060 A 
ATOM     12  C   LIG d   1       9.822  -5.207  -1.593  0.00  0.00    -0.038 A 
ATOM     13  C   LIG d   1       9.301  -4.610  -2.739  0.00  0.00     0.047 A 
ATOM     14  N   LIG d   1       9.003  -3.313  -3.042  0.00  0.00    -0.356 N 
ATOM     15  H   LIG d   1       9.121  -2.558  -2.444  0.00  0.00     0.166 HD
ATOM     16  C   LIG d   1       8.510  -3.238  -4.318  0.00  0.00     0.046 A 
ATOM     17  C   LIG d   1       8.065  -1.978  -5.034  0.00  0.00     0.094 C 
ATOM     18  H   LIG d   1       8.927  -1.342  -5.240  0.00  0.00     0.062 H 
ATOM     19  N   LIG d   1       7.450  -2.417  -6.293  0.00  0.00    -0.261 N 
ATOM     20  C   LIG d   1       6.352  -1.965  -6.903  0.00  0.00     0.317 A 
ATOM     21  O   LIG d   1       5.696  -1.022  -6.507  0.00  0.00    -0.252 OA
ATOM     22  H   LIG d   1       6.967  -5.190  -6.206  0.00  0.00     0.034 H 
ATOM     23  H   LIG d   1       8.638  -5.539  -6.713  0.00  0.00     0.034 H 
ATOM     24  H   LIG d   1       8.931  -7.377  -4.751  0.00  0.00     0.062 H 
ATOM     25  H   LIG d   1       9.852  -8.405  -2.712  0.00  0.00     0.062 H 
ATOM     26  H   LIG d   1      10.404  -7.074  -0.755  0.00  0.00     0.062 H 
ATOM     27  H   LIG d   1      10.071  -4.626  -0.717  0.00  0.00     0.064 H 
ENDROOT
BRANCH   1  28
ATOM     28  C   LIG d   1       4.946  -2.433  -8.816  0.00  0.00     0.045 A 
ATOM     29  C   LIG d   1       3.759  -3.120  -8.591  0.00  0.00    -0.039 A 
ATOM     30  C   LIG d   1       2.662  -2.882  -9.388  0.00  0.00    -0.048 A 
ATOM     31  H   LIG d   1       3.696  -3.840  -7.787  0.00  0.00     0.064 H 
ATOM     32  C   LIG d   1       2.745  -1.954 -10.429  0.00  0.00     0.037 A 
ATOM     33  H   LIG d   1       1.738  -3.413  -9.209  0.00  0.00     0.063 H 
ATOM     34  C   LIG d   1       3.940  -1.265 -10.653  0.00  0.00    -0.048 A 
ATOM     35  C   LIG d   1       5.032  -1.506  -9.848  0.00  0.00    -0.039 A 
ATOM     36  H   LIG d   1       4.007  -0.545 -11.454  0.00  0.00     0.063 H 
ATOM     37  H   LIG d   1       5.956  -0.974 -10.020  0.00  0.00     0.064 H 
BRANCH  32  38
ATOM     38  C   LIG d   1       1.572  -1.699 -11.289  0.00  0.00     0.244 C 
ATOM     39  N   LIG d   1       1.080  -2.683 -12.067  0.00  0.00    -0.309 N 
ATOM     40  H   LIG d   1       1.496  -3.560 -12.062  0.00  0.00     0.149 HD
ATOM     41  O   LIG d   1       1.051  -0.600 -11.295  0.00  0.00    -0.270 OA
BRANCH  39  42
ATOM     42  C   LIG d   1      -0.084  -2.430 -12.920  0.00  0.00     0.020 C 
ATOM     43  H   LIG d   1      -0.493  -1.446 -12.693  0.00  0.00     0.050 H 
BRANCH  42  44
ATOM     44  C   LIG d   1      -1.148  -3.498 -12.661  0.00  0.00    -0.038 C 
ATOM     45  H   LIG d   1      -2.071  -3.019 -12.335  0.00  0.00     0.028 H 
ATOM     46  H   LIG d   1      -1.333  -4.057 -13.579  0.00  0.00     0.028 H 
BRANCH  44  47
ATOM     47  C   LIG d   1      -0.657  -4.453 -11.572  0.00  0.00    -0.064 C 
ATOM     48  H   LIG d   1      -1.352  -5.287 -11.479  0.00  0.00     0.023 H 
ATOM     49  H   LIG d   1       0.330  -4.831 -11.838  0.00  0.00     0.023 H 
ATOM     50  H   LIG d   1      -0.598  -3.922 -10.622  0.00  0.00     0.023 H 
ENDBRANCH  44  47
ENDBRANCH  42  44
BRANCH  42  51
ATOM     51  C   LIG d   1       0.340  -2.478 -14.389  0.00  0.00    -0.047 C 
ATOM     52  H   LIG d   1       1.046  -1.672 -14.591  0.00  0.00     0.025 H 
ATOM     53  H   LIG d   1       0.813  -3.436 -14.600  0.00  0.00     0.025 H 
ATOM     54  H   LIG d   1      -0.537  -2.359 -15.025  0.00  0.00     0.025 H 
ENDBRANCH  42  51
ENDBRANCH  39  42
ENDBRANCH  32  38
ENDBRANCH   1  28
BRANCH  17  55
ATOM     55  C   LIG d   1       7.059  -1.233  -4.197  0.00  0.00    -0.021 A 
ATOM     56  C   LIG d   1       6.030  -1.919  -3.578  0.00  0.00    -0.056 A 
ATOM     57  C   LIG d   1       5.106  -1.235  -2.810  0.00  0.00    -0.059 A 
ATOM     58  H   LIG d   1       5.949  -2.990  -3.695  0.00  0.00     0.062 H 
ATOM     59  C   LIG d   1       5.211   0.135  -2.660  0.00  0.00    -0.050 A 
ATOM     60  H   LIG d   1       4.303  -1.771  -2.326  0.00  0.00     0.062 H 
ATOM     61  C   LIG d   1       6.240   0.821  -3.279  0.00  0.00    -0.059 A 
ATOM     62  C   LIG d   1       7.167   0.136  -4.043  0.00  0.00    -0.056 A 
ATOM     63  H   LIG d   1       6.322   1.892  -3.163  0.00  0.00     0.062 H 
ATOM     64  H   LIG d   1       7.972   0.672  -4.523  0.00  0.00     0.062 H 
BRANCH  59  65
ATOM     65  C   LIG d   1       4.205   0.881  -1.823  0.00  0.00    -0.040 C 
ATOM     66  H   LIG d   1       4.487   1.933  -1.768  0.00  0.00     0.028 H 
ATOM     67  H   LIG d   1       3.218   0.793  -2.276  0.00  0.00     0.028 H 
ATOM     68  H   LIG d   1       4.183   0.458  -0.819  0.00  0.00     0.028 H 
ENDBRANCH  59  65
ENDBRANCH  17  55
TORSDOF 8
ENDMDL
MODEL 4
REMARK VINA RESULT:      -6.8      4.717      5.335
REMARK  8 active torsions:
REMARK  status: ('A' for Active; 'I' for Inactive)
REMARK    1  A    between atoms: C_1  and  C_2 
REMARK    2  A    between atoms: C_2  and  C_3 
REMARK    3  A    between atoms: C_3  and  C_5 
REMARK    4  A    between atoms: C_3  and  N_6 
REMARK       I    between atoms: N_6  and  C_7 
REMARK    5  A    between atoms: C_7  and  C_9 
REMARK    6  A    between atoms: C_12  and  N_15 
REMARK    7  A    between atoms: C_31  and  C_36 
REMARK    8  A    between atoms: C_39  and  C_42 
ROOT
ATOM      1  N   LIG d   1       8.842  -3.324  -5.821  0.00  0.00    -0.193 N 
ATOM      2  C   LIG d   1       8.650  -3.727  -7.094  0.00  0.00     0.248 A 
ATOM      3  O   LIG d   1       9.501  -4.044  -7.897  0.00  0.00    -0.273 OA
ATOM      4  C   LIG d   1       7.150  -3.702  -7.314  0.00  0.00     0.110 A 
ATOM      5  H   LIG d   1       6.742  -4.687  -7.541  0.00  0.00     0.060 H 
ATOM      6  C   LIG d   1       6.812  -2.684  -8.410  0.00  0.00     0.002 C 
ATOM      7  C   LIG d   1       5.403  -2.184  -8.210  0.00  0.00    -0.015 A 
ATOM      8  C   LIG d   1       4.553  -1.532  -9.188  0.00  0.00     0.003 A 
ATOM      9  C   LIG d   1       4.748  -1.186 -10.529  0.00  0.00    -0.052 A 
ATOM     10  C   LIG d   1       3.705  -0.561 -11.166  0.00  0.00    -0.061 A 
ATOM     11  C   LIG d   1       2.511  -0.280 -10.522  0.00  0.00    -0.060 A 
ATOM     12  C   LIG d   1       2.291  -0.613  -9.197  0.00  0.00    -0.038 A 
ATOM     13  C   LIG d   1       3.333  -1.248  -8.524  0.00  0.00     0.047 A 
ATOM     14  N   LIG d   1       3.454  -1.703  -7.243  0.00  0.00    -0.356 N 
ATOM     15  H   LIG d   1       2.767  -1.639  -6.561  0.00  0.00     0.166 HD
ATOM     16  C   LIG d   1       4.691  -2.262  -7.067  0.00  0.00     0.046 A 
ATOM     17  C   LIG d   1       5.218  -2.887  -5.790  0.00  0.00     0.094 C 
ATOM     18  H   LIG d   1       4.678  -3.810  -5.575  0.00  0.00     0.062 H 
ATOM     19  N   LIG d   1       6.637  -3.178  -6.030  0.00  0.00    -0.261 N 
ATOM     20  C   LIG d   1       7.684  -3.024  -5.216  0.00  0.00     0.317 A 
ATOM     21  O   LIG d   1       7.597  -2.655  -4.062  0.00  0.00    -0.252 OA
ATOM     22  H   LIG d   1       7.506  -1.846  -8.354  0.00  0.00     0.034 H 
ATOM     23  H   LIG d   1       6.894  -3.161  -9.387  0.00  0.00     0.034 H 
ATOM     24  H   LIG d   1       5.676  -1.400 -11.039  0.00  0.00     0.062 H 
ATOM     25  H   LIG d   1       3.819  -0.279 -12.203  0.00  0.00     0.062 H 
ATOM     26  H   LIG d   1       1.724   0.213 -11.074  0.00  0.00     0.062 H 
ATOM     27  H   LIG d   1       1.355  -0.388  -8.706  0.00  0.00     0.064 H 
ENDROOT
BRANCH   1  28
ATOM     28  C   LIG d   1      10.095  -3.227  -5.209  0.00  0.00     0.045 A 
ATOM     29  C   LIG d   1      10.815  -2.040  -5.288  0.00  0.00    -0.039 A 
ATOM     30  C   LIG d   1      12.047  -1.938  -4.683  0.00  0.00    -0.048 A 
ATOM     31  H   LIG d   1      10.405  -1.194  -5.822  0.00  0.00     0.064 H 
ATOM     32  C   LIG d   1      12.578  -3.033  -3.995  0.00  0.00     0.037 A 
ATOM     33  H   LIG d   1      12.604  -1.014  -4.740  0.00  0.00     0.063 H 
ATOM     34  C   LIG d   1      11.852  -4.224  -3.918  0.00  0.00    -0.048 A 
ATOM     35  C   LIG d   1      10.618  -4.316  -4.522  0.00  0.00    -0.039 A 
ATOM     36  H   LIG d   1      12.257  -5.070  -3.384  0.00  0.00     0.063 H 
ATOM     37  H   LIG d   1      10.056  -5.237  -4.463  0.00  0.00     0.064 H 
BRANCH  32  38
ATOM     38  C   LIG d   1      13.901  -2.930  -3.348  0.00  0.00     0.244 C 
ATOM     39  N   LIG d   1      14.534  -1.740  -3.294  0.00  0.00    -0.309 N 
ATOM     40  H   LIG d   1      14.120  -0.952  -3.680  0.00  0.00     0.149 HD
ATOM     41  O   LIG d   1      14.420  -3.917  -2.864  0.00  0.00    -0.270 OA
BRANCH  39  42
ATOM     42  C   LIG d   1      15.847  -1.638  -2.651  0.00  0.00     0.020 C 
ATOM     43  H   LIG d   1      16.245  -2.638  -2.479  0.00  0.00     0.050 H 
BRANCH  42  44
ATOM     44  C   LIG d   1      15.703  -0.908  -1.313  0.00  0.00    -0.038 C 
ATOM     45  H   LIG d   1      15.375   0.115  -1.493  0.00  0.00     0.028 H 
ATOM     46  H   LIG d   1      14.967  -1.423  -0.696  0.00  0.00     0.028 H 
BRANCH  44  47
ATOM     47  C   LIG d   1      17.052  -0.893  -0.594  0.00  0.00    -0.064 C 
ATOM     48  H   LIG d   1      17.812  -1.338  -1.235  0.00  0.00     0.023 H 
ATOM     49  H   LIG d   1      17.330   0.136  -0.362  0.00  0.00     0.023 H 
ATOM     50  H   LIG d   1      16.977  -1.465   0.331  0.00  0.00     0.023 H 
ENDBRANCH  44  47
ENDBRANCH  42  44
BRANCH  42  51
ATOM     51  C   LIG d   1      16.799  -0.859  -3.559  0.00  0.00    -0.047 C 
ATOM     52  H   LIG d   1      16.230  -0.154  -4.164  0.00  0.00     0.025 H 
ATOM     53  H   LIG d   1      17.520  -0.314  -2.949  0.00  0.00     0.025 H 
ATOM     54  H   LIG d   1      17.329  -1.553  -4.211  0.00  0.00     0.025 H 
ENDBRANCH  42  51
ENDBRANCH  39  42
ENDBRANCH  32  38
ENDBRANCH   1  28
BRANCH  17  55
ATOM     55  C   LIG d   1       5.073  -1.923  -4.642  0.00  0.00    -0.021 A 
ATOM     56  C   LIG d   1       5.489  -0.611  -4.784  0.00  0.00    -0.056 A 
ATOM     57  C   LIG d   1       5.356   0.274  -3.730  0.00  0.00    -0.059 A 
ATOM     58  H   LIG d   1       5.916  -0.279  -5.718  0.00  0.00     0.062 H 
ATOM     59  C   LIG d   1       4.808  -0.152  -2.534  0.00  0.00    -0.050 A 
ATOM     60  H   LIG d   1       5.679   1.298  -3.841  0.00  0.00     0.062 H 
ATOM     61  C   LIG d   1       4.393  -1.463  -2.393  0.00  0.00    -0.059 A 
ATOM     62  C   LIG d   1       4.521  -2.347  -3.448  0.00  0.00    -0.056 A 
ATOM     63  H   LIG d   1       3.965  -1.797  -1.459  0.00  0.00     0.062 H 
ATOM     64  H   LIG d   1       4.193  -3.370  -3.338  0.00  0.00     0.062 H 
BRANCH  59  65
ATOM     65  C   LIG d   1       4.663   0.812  -1.386  0.00  0.00    -0.040 C 
ATOM     66  H   LIG d   1       5.480   0.662  -0.680  0.00  0.00     0.028 H 
ATOM     67  H   LIG d   1       4.691   1.834  -1.764  0.00  0.00     0.028 H 
ATOM     68  H   LIG d   1       3.712   0.638  -0.883  0.00  0.00     0.028 H 
ENDBRANCH  59  65
ENDBRANCH  17  55
TORSDOF 8
ENDMDL
MODEL 5
REMARK VINA RESULT:      -6.7      4.587      9.182
REMARK  8 active torsions:
REMARK  status: ('A' for Active; 'I' for Inactive)
REMARK    1  A    between atoms: C_1  and  C_2 
REMARK    2  A    between atoms: C_2  and  C_3 
REMARK    3  A    between atoms: C_3  and  C_5 
REMARK    4  A    between atoms: C_3  and  N_6 
REMARK       I    between atoms: N_6  and  C_7 
REMARK    5  A    between atoms: C_7  and  C_9 
REMARK    6  A    between atoms: C_12  and  N_15 
REMARK    7  A    between atoms: C_31  and  C_36 
REMARK    8  A    between atoms: C_39  and  C_42 
ROOT
ATOM      1  N   LIG d   1       9.575  -3.035  -4.473  0.00  0.00    -0.193 N 
ATOM      2  C   LIG d   1      10.708  -2.454  -4.919  0.00  0.00     0.248 A 
ATOM      3  O   LIG d   1      11.836  -2.888  -4.829  0.00  0.00    -0.273 OA
ATOM      4  C   LIG d   1      10.278  -1.149  -5.558  0.00  0.00     0.110 A 
ATOM      5  H   LIG d   1      10.511  -1.104  -6.621  0.00  0.00     0.060 H 
ATOM      6  C   LIG d   1      10.905   0.024  -4.793  0.00  0.00     0.002 C 
ATOM      7  C   LIG d   1      10.045   1.251  -4.965  0.00  0.00    -0.015 A 
ATOM      8  C   LIG d   1      10.431   2.633  -4.755  0.00  0.00     0.003 A 
ATOM      9  C   LIG d   1      11.631   3.230  -4.359  0.00  0.00    -0.052 A 
ATOM     10  C   LIG d   1      11.640   4.599  -4.257  0.00  0.00    -0.061 A 
ATOM     11  C   LIG d   1      10.518   5.364  -4.531  0.00  0.00    -0.060 A 
ATOM     12  C   LIG d   1       9.318   4.799  -4.926  0.00  0.00    -0.038 A 
ATOM     13  C   LIG d   1       9.279   3.411  -5.037  0.00  0.00     0.047 A 
ATOM     14  N   LIG d   1       8.284   2.548  -5.392  0.00  0.00    -0.356 N 
ATOM     15  H   LIG d   1       7.381   2.806  -5.637  0.00  0.00     0.166 HD
ATOM     16  C   LIG d   1       8.752   1.261  -5.349  0.00  0.00     0.046 A 
ATOM     17  C   LIG d   1       7.962   0.009  -5.677  0.00  0.00     0.094 C 
ATOM     18  H   LIG d   1       7.735  -0.020  -6.743  0.00  0.00     0.062 H 
ATOM     19  N   LIG d   1       8.820  -1.125  -5.313  0.00  0.00    -0.261 N 
ATOM     20  C   LIG d   1       8.498  -2.273  -4.713  0.00  0.00     0.317 A 
ATOM     21  O   LIG d   1       7.364  -2.590  -4.419  0.00  0.00    -0.252 OA
ATOM     22  H   LIG d   1      10.974  -0.228  -3.735  0.00  0.00     0.034 H 
ATOM     23  H   LIG d   1      11.904   0.221  -5.186  0.00  0.00     0.034 H 
ATOM     24  H   LIG d   1      12.511   2.641  -4.143  0.00  0.00     0.062 H 
ATOM     25  H   LIG d   1      12.551   5.095  -3.955  0.00  0.00     0.062 H 
ATOM     26  H   LIG d   1      10.584   6.438  -4.435  0.00  0.00     0.062 H 
ATOM     27  H   LIG d   1       8.450   5.408  -5.136  0.00  0.00     0.064 H 
ENDROOT
BRANCH   1  28
ATOM     28  C   LIG d   1       9.530  -4.278  -3.833  0.00  0.00     0.045 A 
ATOM     29  C   LIG d   1       9.255  -5.426  -4.567  0.00  0.00    -0.039 A 
ATOM     30  C   LIG d   1       9.214  -6.652  -3.942  0.00  0.00    -0.048 A 
ATOM     31  H   LIG d   1       9.076  -5.357  -5.631  0.00  0.00     0.064 H 
ATOM     32  C   LIG d   1       9.441  -6.740  -2.566  0.00  0.00     0.037 A 
ATOM     33  H   LIG d   1       9.005  -7.544  -4.514  0.00  0.00     0.063 H 
ATOM     34  C   LIG d   1       9.717  -5.584  -1.831  0.00  0.00    -0.048 A 
ATOM     35  C   LIG d   1       9.761  -4.362  -2.465  0.00  0.00    -0.039 A 
ATOM     36  H   LIG d   1       9.897  -5.649  -0.769  0.00  0.00     0.063 H 
ATOM     37  H   LIG d   1       9.974  -3.468  -1.898  0.00  0.00     0.064 H 
BRANCH  32  38
ATOM     38  C   LIG d   1       9.394  -8.052  -1.891  0.00  0.00     0.244 C 
ATOM     39  N   LIG d   1       8.386  -8.909  -2.152  0.00  0.00    -0.309 N 
ATOM     40  H   LIG d   1       7.693  -8.664  -2.784  0.00  0.00     0.149 HD
ATOM     41  O   LIG d   1      10.263  -8.359  -1.098  0.00  0.00    -0.270 OA
BRANCH  39  42
ATOM     42  C   LIG d   1       8.340 -10.211  -1.482  0.00  0.00     0.020 C 
ATOM     43  H   LIG d   1       8.947 -10.176  -0.578  0.00  0.00     0.050 H 
BRANCH  42  44
ATOM     44  C   LIG d   1       8.887 -11.288  -2.422  0.00  0.00    -0.038 C 
ATOM     45  H   LIG d   1       9.230 -10.822  -3.346  0.00  0.00     0.028 H 
ATOM     46  H   LIG d   1       9.721 -11.800  -1.942  0.00  0.00     0.028 H 
BRANCH  44  47
ATOM     47  C   LIG d   1       7.782 -12.297  -2.739  0.00  0.00    -0.064 C 
ATOM     48  H   LIG d   1       7.315 -12.039  -3.689  0.00  0.00     0.023 H 
ATOM     49  H   LIG d   1       8.211 -13.297  -2.805  0.00  0.00     0.023 H 
ATOM     50  H   LIG d   1       7.032 -12.275  -1.948  0.00  0.00     0.023 H 
ENDBRANCH  44  47
ENDBRANCH  42  44
BRANCH  42  51
ATOM     51  C   LIG d   1       6.894 -10.543  -1.112  0.00  0.00    -0.047 C 
ATOM     52  H   LIG d   1       6.828 -11.584  -0.799  0.00  0.00     0.025 H 
ATOM     53  H   LIG d   1       6.570  -9.897  -0.296  0.00  0.00     0.025 H 
ATOM     54  H   LIG d   1       6.251 -10.383  -1.978  0.00  0.00     0.025 H 
ENDBRANCH  42  51
ENDBRANCH  39  42
ENDBRANCH  32  38
ENDBRANCH   1  28
BRANCH  17  55
ATOM     55  C   LIG d   1       6.688  -0.026  -4.874  0.00  0.00    -0.021 A 
ATOM     56  C   LIG d   1       5.505  -0.423  -5.470  0.00  0.00    -0.056 A 
ATOM     57  C   LIG d   1       4.336  -0.456  -4.732  0.00  0.00    -0.059 A 
ATOM     58  H   LIG d   1       5.495  -0.709  -6.511  0.00  0.00     0.062 H 
ATOM     59  C   LIG d   1       4.350  -0.090  -3.399  0.00  0.00    -0.050 A 
ATOM     60  H   LIG d   1       3.413  -0.767  -5.197  0.00  0.00     0.062 H 
ATOM     61  C   LIG d   1       5.532   0.308  -2.804  0.00  0.00    -0.059 A 
ATOM     62  C   LIG d   1       6.703   0.335  -3.539  0.00  0.00    -0.056 A 
ATOM     63  H   LIG d   1       5.544   0.594  -1.762  0.00  0.00     0.062 H 
ATOM     64  H   LIG d   1       7.627   0.642  -3.073  0.00  0.00     0.062 H 
BRANCH  59  65
ATOM     65  C   LIG d   1       3.076  -0.125  -2.594  0.00  0.00    -0.040 C 
ATOM     66  H   LIG d   1       3.318  -0.224  -1.536  0.00  0.00     0.028 H 
ATOM     67  H   LIG d   1       2.518   0.797  -2.756  0.00  0.00     0.028 H 
ATOM     68  H   LIG d   1       2.471  -0.975  -2.910  0.00  0.00     0.028 H 
ENDBRANCH  59  65
ENDBRANCH  17  55
TORSDOF 8
ENDMDL
MODEL 6
REMARK VINA RESULT:      -6.7      2.521      2.727
REMARK  8 active torsions:
REMARK  status: ('A' for Active; 'I' for Inactive)
REMARK    1  A    between atoms: C_1  and  C_2 
REMARK    2  A    between atoms: C_2  and  C_3 
REMARK    3  A    between atoms: C_3  and  C_5 
REMARK    4  A    between atoms: C_3  and  N_6 
REMARK       I    between atoms: N_6  and  C_7 
REMARK    5  A    between atoms: C_7  and  C_9 
REMARK    6  A    between atoms: C_12  and  N_15 
REMARK    7  A    between atoms: C_31  and  C_36 
REMARK    8  A    between atoms: C_39  and  C_42 
ROOT
ATOM      1  N   LIG d   1       9.415   1.037  -4.834  0.00  0.00    -0.193 N 
ATOM      2  C   LIG d   1      10.235   0.466  -5.739  0.00  0.00     0.248 A 
ATOM      3  O   LIG d   1      11.198   0.972  -6.275  0.00  0.00    -0.273 OA
ATOM      4  C   LIG d   1       9.706  -0.939  -5.949  0.00  0.00     0.110 A 
ATOM      5  H   LIG d   1      10.423  -1.706  -5.659  0.00  0.00     0.060 H 
ATOM      6  C   LIG d   1       9.261  -1.104  -7.407  0.00  0.00     0.002 C 
ATOM      7  C   LIG d   1       8.201  -2.174  -7.489  0.00  0.00    -0.015 A 
ATOM      8  C   LIG d   1       7.784  -2.913  -8.665  0.00  0.00     0.003 A 
ATOM      9  C   LIG d   1       8.200  -2.879  -9.999  0.00  0.00    -0.052 A 
ATOM     10  C   LIG d   1       7.571  -3.736 -10.868  0.00  0.00    -0.061 A 
ATOM     11  C   LIG d   1       6.570  -4.600 -10.454  0.00  0.00    -0.060 A 
ATOM     12  C   LIG d   1       6.140  -4.655  -9.139  0.00  0.00    -0.038 A 
ATOM     13  C   LIG d   1       6.760  -3.795  -8.235  0.00  0.00     0.047 A 
ATOM     14  N   LIG d   1       6.586  -3.592  -6.897  0.00  0.00    -0.356 N 
ATOM     15  H   LIG d   1       5.946  -4.061  -6.339  0.00  0.00     0.166 HD
ATOM     16  C   LIG d   1       7.452  -2.625  -6.461  0.00  0.00     0.046 A 
ATOM     17  C   LIG d   1       7.580  -2.112  -5.040  0.00  0.00     0.094 C 
ATOM     18  H   LIG d   1       7.993  -2.890  -4.397  0.00  0.00     0.062 H 
ATOM     19  N   LIG d   1       8.497  -0.967  -5.097  0.00  0.00    -0.261 N 
ATOM     20  C   LIG d   1       8.430   0.206  -4.463  0.00  0.00     0.317 A 
ATOM     21  O   LIG d   1       7.577   0.487  -3.646  0.00  0.00    -0.252 OA
ATOM     22  H   LIG d   1       8.855  -0.161  -7.772  0.00  0.00     0.034 H 
ATOM     23  H   LIG d   1      10.117  -1.392  -8.018  0.00  0.00     0.034 H 
ATOM     24  H   LIG d   1       8.980  -2.208 -10.332  0.00  0.00     0.062 H 
ATOM     25  H   LIG d   1       7.867  -3.739 -11.907  0.00  0.00     0.062 H 
ATOM     26  H   LIG d   1       6.110  -5.253 -11.181  0.00  0.00     0.062 H 
ATOM     27  H   LIG d   1       5.358  -5.333  -8.829  0.00  0.00     0.064 H 
ENDROOT
BRANCH   1  28
ATOM     28  C   LIG d   1       9.568   2.338  -4.346  0.00  0.00     0.045 A 
ATOM     29  C   LIG d   1       9.023   3.410  -5.044  0.00  0.00    -0.039 A 
ATOM     30  C   LIG d   1       9.168   4.692  -4.564  0.00  0.00    -0.048 A 
ATOM     31  H   LIG d   1       8.480   3.236  -5.963  0.00  0.00     0.064 H 
ATOM     32  C   LIG d   1       9.872   4.916  -3.378  0.00  0.00     0.037 A 
ATOM     33  H   LIG d   1       8.740   5.524  -5.104  0.00  0.00     0.063 H 
ATOM     34  C   LIG d   1      10.419   3.837  -2.679  0.00  0.00    -0.048 A 
ATOM     35  C   LIG d   1      10.266   2.557  -3.164  0.00  0.00    -0.039 A 
ATOM     36  H   LIG d   1      10.960   4.006  -1.761  0.00  0.00     0.063 H 
ATOM     37  H   LIG d   1      10.688   1.722  -2.624  0.00  0.00     0.064 H 
BRANCH  32  38
ATOM     38  C   LIG d   1      10.034   6.290  -2.862  0.00  0.00     0.244 C 
ATOM     39  N   LIG d   1      10.009   6.517  -1.533  0.00  0.00    -0.309 N 
ATOM     40  H   LIG d   1       9.887   5.778  -0.916  0.00  0.00     0.149 HD
ATOM     41  O   LIG d   1      10.188   7.216  -3.634  0.00  0.00    -0.270 OA
BRANCH  39  42
ATOM     42  C   LIG d   1      10.170   7.880  -1.020  0.00  0.00     0.020 C 
ATOM     43  H   LIG d   1      10.738   8.473  -1.737  0.00  0.00     0.050 H 
BRANCH  42  44
ATOM     44  C   LIG d   1      10.919   7.838   0.314  0.00  0.00    -0.038 C 
ATOM     45  H   LIG d   1      11.913   8.264   0.185  0.00  0.00     0.028 H 
ATOM     46  H   LIG d   1      10.370   8.415   1.058  0.00  0.00     0.028 H 
BRANCH  44  47
ATOM     47  C   LIG d   1      11.043   6.388   0.784  0.00  0.00    -0.064 C 
ATOM     48  H   LIG d   1      10.569   5.728   0.057  0.00  0.00     0.023 H 
ATOM     49  H   LIG d   1      12.097   6.125   0.879  0.00  0.00     0.023 H 
ATOM     50  H   LIG d   1      10.552   6.275   1.751  0.00  0.00     0.023 H 
ENDBRANCH  44  47
ENDBRANCH  42  44
BRANCH  42  51
ATOM     51  C   LIG d   1       8.793   8.512  -0.812  0.00  0.00    -0.047 C 
ATOM     52  H   LIG d   1       8.794   9.093   0.110  0.00  0.00     0.025 H 
ATOM     53  H   LIG d   1       8.562   9.165  -1.653  0.00  0.00     0.025 H 
ATOM     54  H   LIG d   1       8.040   7.727  -0.745  0.00  0.00     0.025 H 
ENDBRANCH  42  51
ENDBRANCH  39  42
ENDBRANCH  32  38
ENDBRANCH   1  28
BRANCH  17  55
ATOM     55  C   LIG d   1       6.235  -1.673  -4.524  0.00  0.00    -0.021 A 
ATOM     56  C   LIG d   1       5.843  -2.007  -3.240  0.00  0.00    -0.056 A 
ATOM     57  C   LIG d   1       4.609  -1.604  -2.767  0.00  0.00    -0.059 A 
ATOM     58  H   LIG d   1       6.504  -2.580  -2.607  0.00  0.00     0.062 H 
ATOM     59  C   LIG d   1       3.764  -0.868  -3.578  0.00  0.00    -0.050 A 
ATOM     60  H   LIG d   1       4.304  -1.863  -1.764  0.00  0.00     0.062 H 
ATOM     61  C   LIG d   1       4.155  -0.535  -4.861  0.00  0.00    -0.059 A 
ATOM     62  C   LIG d   1       5.393  -0.933  -5.333  0.00  0.00    -0.056 A 
ATOM     63  H   LIG d   1       3.496   0.039  -5.495  0.00  0.00     0.062 H 
ATOM     64  H   LIG d   1       5.699  -0.670  -6.334  0.00  0.00     0.062 H 
BRANCH  59  65
ATOM     65  C   LIG d   1       2.418  -0.428  -3.062  0.00  0.00    -0.040 C 
ATOM     66  H   LIG d   1       1.646  -0.708  -3.779  0.00  0.00     0.028 H 
ATOM     67  H   LIG d   1       2.219  -0.912  -2.106  0.00  0.00     0.028 H 
ATOM     68  H   LIG d   1       2.416   0.653  -2.929  0.00  0.00     0.028 H 
ENDBRANCH  59  65
ENDBRANCH  17  55
TORSDOF 8
ENDMDL
MODEL 7
REMARK VINA RESULT:      -6.6      5.422      9.085
REMARK  8 active torsions:
REMARK  status: ('A' for Active; 'I' for Inactive)
REMARK    1  A    between atoms: C_1  and  C_2 
REMARK    2  A    between atoms: C_2  and  C_3 
REMARK    3  A    between atoms: C_3  and  C_5 
REMARK    4  A    between atoms: C_3  and  N_6 
REMARK       I    between atoms: N_6  and  C_7 
REMARK    5  A    between atoms: C_7  and  C_9 
REMARK    6  A    between atoms: C_12  and  N_15 
REMARK    7  A    between atoms: C_31  and  C_36 
REMARK    8  A    between atoms: C_39  and  C_42 
ROOT
ATOM      1  N   LIG d   1       3.870  -1.484 -10.994  0.00  0.00    -0.193 N 
ATOM      2  C   LIG d   1       4.853  -1.027 -11.796  0.00  0.00     0.248 A 
ATOM      3  O   LIG d   1       5.761  -0.284 -11.490  0.00  0.00    -0.273 OA
ATOM      4  C   LIG d   1       4.590  -1.634 -13.160  0.00  0.00     0.110 A 
ATOM      5  H   LIG d   1       5.397  -2.285 -13.494  0.00  0.00     0.060 H 
ATOM      6  C   LIG d   1       4.311  -0.515 -14.171  0.00  0.00     0.002 C 
ATOM      7  C   LIG d   1       3.459  -1.055 -15.293  0.00  0.00    -0.015 A 
ATOM      8  C   LIG d   1       3.280  -0.487 -16.615  0.00  0.00     0.003 A 
ATOM      9  C   LIG d   1       3.802   0.654 -17.232  0.00  0.00    -0.052 A 
ATOM     10  C   LIG d   1       3.407   0.896 -18.524  0.00  0.00    -0.061 A 
ATOM     11  C   LIG d   1       2.533   0.057 -19.196  0.00  0.00    -0.060 A 
ATOM     12  C   LIG d   1       2.003  -1.079 -18.610  0.00  0.00    -0.038 A 
ATOM     13  C   LIG d   1       2.385  -1.349 -17.298  0.00  0.00     0.047 A 
ATOM     14  N   LIG d   1       2.061  -2.359 -16.438  0.00  0.00    -0.356 N 
ATOM     15  H   LIG d   1       1.462  -3.094 -16.642  0.00  0.00     0.166 HD
ATOM     16  C   LIG d   1       2.709  -2.176 -15.246  0.00  0.00     0.046 A 
ATOM     17  C   LIG d   1       2.620  -3.078 -14.031  0.00  0.00     0.094 C 
ATOM     18  H   LIG d   1       3.100  -4.035 -14.240  0.00  0.00     0.062 H 
ATOM     19  N   LIG d   1       3.332  -2.383 -12.950  0.00  0.00    -0.261 N 
ATOM     20  C   LIG d   1       3.011  -2.270 -11.659  0.00  0.00     0.317 A 
ATOM     21  O   LIG d   1       2.053  -2.813 -11.149  0.00  0.00    -0.252 OA
ATOM     22  H   LIG d   1       3.786   0.300 -13.675  0.00  0.00     0.034 H 
ATOM     23  H   LIG d   1       5.255  -0.148 -14.575  0.00  0.00     0.034 H 
ATOM     24  H   LIG d   1       4.483   1.315 -16.715  0.00  0.00     0.062 H 
ATOM     25  H   LIG d   1       3.790   1.769 -19.034  0.00  0.00     0.062 H 
ATOM     26  H   LIG d   1       2.257   0.297 -20.213  0.00  0.00     0.062 H 
ATOM     27  H   LIG d   1       1.322  -1.725 -19.145  0.00  0.00     0.064 H 
ENDROOT
BRANCH   1  28
ATOM     28  C   LIG d   1       3.758  -1.174  -9.635  0.00  0.00     0.045 A 
ATOM     29  C   LIG d   1       2.979  -0.095  -9.233  0.00  0.00    -0.039 A 
ATOM     30  C   LIG d   1       2.862   0.211  -7.895  0.00  0.00    -0.048 A 
ATOM     31  H   LIG d   1       2.462   0.502  -9.970  0.00  0.00     0.064 H 
ATOM     32  C   LIG d   1       3.534  -0.560  -6.943  0.00  0.00     0.037 A 
ATOM     33  H   LIG d   1       2.253   1.047  -7.583  0.00  0.00     0.063 H 
ATOM     34  C   LIG d   1       4.316  -1.643  -7.351  0.00  0.00    -0.048 A 
ATOM     35  C   LIG d   1       4.424  -1.946  -8.690  0.00  0.00    -0.039 A 
ATOM     36  H   LIG d   1       4.833  -2.244  -6.618  0.00  0.00     0.063 H 
ATOM     37  H   LIG d   1       5.028  -2.783  -9.007  0.00  0.00     0.064 H 
BRANCH  32  38
ATOM     38  C   LIG d   1       3.414  -0.233  -5.508  0.00  0.00     0.244 C 
ATOM     39  N   LIG d   1       3.882  -1.093  -4.580  0.00  0.00    -0.309 N 
ATOM     40  H   LIG d   1       4.297  -1.925  -4.855  0.00  0.00     0.149 HD
ATOM     41  O   LIG d   1       2.894   0.810  -5.163  0.00  0.00    -0.270 OA
BRANCH  39  42
ATOM     42  C   LIG d   1       3.763  -0.769  -3.156  0.00  0.00     0.020 C 
ATOM     43  H   LIG d   1       2.860  -0.182  -2.991  0.00  0.00     0.050 H 
BRANCH  42  44
ATOM     44  C   LIG d   1       4.986   0.039  -2.715  0.00  0.00    -0.038 C 
ATOM     45  H   LIG d   1       5.740  -0.635  -2.312  0.00  0.00     0.028 H 
ATOM     46  H   LIG d   1       5.397   0.574  -3.572  0.00  0.00     0.028 H 
BRANCH  44  47
ATOM     47  C   LIG d   1       4.571   1.043  -1.638  0.00  0.00    -0.064 C 
ATOM     48  H   LIG d   1       4.690   2.057  -2.021  0.00  0.00     0.023 H 
ATOM     49  H   LIG d   1       3.528   0.877  -1.367  0.00  0.00     0.023 H 
ATOM     50  H   LIG d   1       5.201   0.912  -0.757  0.00  0.00     0.023 H 
ENDBRANCH  44  47
ENDBRANCH  42  44
BRANCH  42  51
ATOM     51  C   LIG d   1       3.686  -2.062  -2.344  0.00  0.00    -0.047 C 
ATOM     52  H   LIG d   1       3.267  -1.850  -1.361  0.00  0.00     0.025 H 
ATOM     53  H   LIG d   1       3.051  -2.780  -2.862  0.00  0.00     0.025 H 
ATOM     54  H   LIG d   1       4.686  -2.480  -2.230  0.00  0.00     0.025 H 
ENDBRANCH  42  51
ENDBRANCH  39  42
ENDBRANCH  32  38
ENDBRANCH   1  28
BRANCH  17  55
ATOM     55  C   LIG d   1       1.179  -3.293 -13.648  0.00  0.00    -0.021 A 
ATOM     56  C   LIG d   1       0.309  -2.219 -13.600  0.00  0.00    -0.056 A 
ATOM     57  C   LIG d   1      -1.014  -2.417 -13.249  0.00  0.00    -0.059 A 
ATOM     58  H   LIG d   1       0.662  -1.227 -13.838  0.00  0.00     0.062 H 
ATOM     59  C   LIG d   1      -1.466  -3.688 -12.944  0.00  0.00    -0.050 A 
ATOM     60  H   LIG d   1      -1.694  -1.579 -13.212  0.00  0.00     0.062 H 
ATOM     61  C   LIG d   1      -0.595  -4.760 -12.992  0.00  0.00    -0.059 A 
ATOM     62  C   LIG d   1       0.726  -4.564 -13.349  0.00  0.00    -0.056 A 
ATOM     63  H   LIG d   1      -0.948  -5.753 -12.755  0.00  0.00     0.062 H 
ATOM     64  H   LIG d   1       1.405  -5.403 -13.390  0.00  0.00     0.062 H 
BRANCH  59  65
ATOM     65  C   LIG d   1      -2.907  -3.904 -12.562  0.00  0.00    -0.040 C 
ATOM     66  H   LIG d   1      -2.972  -4.710 -11.830  0.00  0.00     0.028 H 
ATOM     67  H   LIG d   1      -3.310  -2.987 -12.130  0.00  0.00     0.028 H 
ATOM     68  H   LIG d   1      -3.482  -4.171 -13.448  0.00  0.00     0.028 H 
ENDBRANCH  59  65
ENDBRANCH  17  55
TORSDOF 8
ENDMDL
MODEL 8
REMARK VINA RESULT:      -6.5      4.934      6.581
REMARK  8 active torsions:
REMARK  status: ('A' for Active; 'I' for Inactive)
REMARK    1  A    between atoms: C_1  and  C_2 
REMARK    2  A    between atoms: C_2  and  C_3 
REMARK    3  A    between atoms: C_3  and  C_5 
REMARK    4  A    between atoms: C_3  and  N_6 
REMARK       I    between atoms: N_6  and  C_7 
REMARK    5  A    between atoms: C_7  and  C_9 
REMARK    6  A    between atoms: C_12  and  N_15 
REMARK    7  A    between atoms: C_31  and  C_36 
REMARK    8  A    between atoms: C_39  and  C_42 
ROOT
ATOM      1  N   LIG d   1      11.462  -0.572  -5.105  0.00  0.00    -0.193 N 
ATOM      2  C   LIG d   1      10.644   0.461  -5.396  0.00  0.00     0.248 A 
ATOM      3  O   LIG d   1      10.962   1.617  -5.575  0.00  0.00    -0.273 OA
ATOM      4  C   LIG d   1       9.246  -0.122  -5.454  0.00  0.00     0.110 A 
ATOM      5  H   LIG d   1       8.788  -0.021  -6.437  0.00  0.00     0.060 H 
ATOM      6  C   LIG d   1       8.381   0.518  -4.360  0.00  0.00     0.002 C 
ATOM      7  C   LIG d   1       7.272  -0.431  -3.980  0.00  0.00    -0.015 A 
ATOM      8  C   LIG d   1       6.034  -0.110  -3.296  0.00  0.00     0.003 A 
ATOM      9  C   LIG d   1       5.506   1.090  -2.811  0.00  0.00    -0.052 A 
ATOM     10  C   LIG d   1       4.278   1.026  -2.201  0.00  0.00    -0.061 A 
ATOM     11  C   LIG d   1       3.585  -0.166  -2.066  0.00  0.00    -0.060 A 
ATOM     12  C   LIG d   1       4.084  -1.368  -2.538  0.00  0.00    -0.038 A 
ATOM     13  C   LIG d   1       5.329  -1.333  -3.162  0.00  0.00     0.047 A 
ATOM     14  N   LIG d   1       6.097  -2.308  -3.729  0.00  0.00    -0.356 N 
ATOM     15  H   LIG d   1       5.860  -3.248  -3.778  0.00  0.00     0.166 HD
ATOM     16  C   LIG d   1       7.254  -1.760  -4.216  0.00  0.00     0.046 A 
ATOM     17  C   LIG d   1       8.369  -2.503  -4.923  0.00  0.00     0.094 C 
ATOM     18  H   LIG d   1       8.026  -2.854  -5.897  0.00  0.00     0.062 H 
ATOM     19  N   LIG d   1       9.464  -1.539  -5.092  0.00  0.00    -0.261 N 
ATOM     20  C   LIG d   1      10.779  -1.715  -4.945  0.00  0.00     0.317 A 
ATOM     21  O   LIG d   1      11.296  -2.785  -4.695  0.00  0.00    -0.252 OA
ATOM     22  H   LIG d   1       8.997   0.727  -3.486  0.00  0.00     0.034 H 
ATOM     23  H   LIG d   1       7.952   1.448  -4.735  0.00  0.00     0.034 H 
ATOM     24  H   LIG d   1       6.040   2.024  -2.911  0.00  0.00     0.062 H 
ATOM     25  H   LIG d   1       3.838   1.933  -1.814  0.00  0.00     0.062 H 
ATOM     26  H   LIG d   1       2.622  -0.157  -1.577  0.00  0.00     0.062 H 
ATOM     27  H   LIG d   1       3.533  -2.291  -2.427  0.00  0.00     0.064 H 
ENDROOT
BRANCH   1  28
ATOM     28  C   LIG d   1      12.850  -0.464  -4.981  0.00  0.00     0.045 A 
ATOM     29  C   LIG d   1      13.663  -0.671  -6.090  0.00  0.00    -0.039 A 
ATOM     30  C   LIG d   1      15.030  -0.560  -5.973  0.00  0.00    -0.048 A 
ATOM     31  H   LIG d   1      13.221  -0.915  -7.046  0.00  0.00     0.064 H 
ATOM     32  C   LIG d   1      15.601  -0.248  -4.737  0.00  0.00     0.037 A 
ATOM     33  H   LIG d   1      15.661  -0.717  -6.836  0.00  0.00     0.063 H 
ATOM     34  C   LIG d   1      14.781  -0.040  -3.625  0.00  0.00    -0.048 A 
ATOM     35  C   LIG d   1      13.414  -0.148  -3.751  0.00  0.00    -0.039 A 
ATOM     36  H   LIG d   1      15.218   0.206  -2.669  0.00  0.00     0.063 H 
ATOM     37  H   LIG d   1      12.779   0.012  -2.892  0.00  0.00     0.064 H 
BRANCH  32  38
ATOM     38  C   LIG d   1      17.067  -0.132  -4.606  0.00  0.00     0.244 C 
ATOM     39  N   LIG d   1      17.606   0.354  -3.469  0.00  0.00    -0.309 N 
ATOM     40  H   LIG d   1      17.031   0.626  -2.737  0.00  0.00     0.149 HD
ATOM     41  O   LIG d   1      17.789  -0.473  -5.523  0.00  0.00    -0.270 OA
BRANCH  39  42
ATOM     42  C   LIG d   1      19.061   0.469  -3.339  0.00  0.00     0.020 C 
ATOM     43  H   LIG d   1      19.541  -0.038  -4.176  0.00  0.00     0.050 H 
BRANCH  42  44
ATOM     44  C   LIG d   1      19.508  -0.179  -2.026  0.00  0.00    -0.038 C 
ATOM     45  H   LIG d   1      19.926  -1.164  -2.232  0.00  0.00     0.028 H 
ATOM     46  H   LIG d   1      20.266   0.446  -1.553  0.00  0.00     0.028 H 
BRANCH  44  47
ATOM     47  C   LIG d   1      18.305  -0.319  -1.092  0.00  0.00    -0.064 C 
ATOM     48  H   LIG d   1      17.439   0.170  -1.538  0.00  0.00     0.023 H 
ATOM     49  H   LIG d   1      18.086  -1.376  -0.936  0.00  0.00     0.023 H 
ATOM     50  H   LIG d   1      18.533   0.150  -0.134  0.00  0.00     0.023 H 
ENDBRANCH  44  47
ENDBRANCH  42  44
BRANCH  42  51
ATOM     51  C   LIG d   1      19.458   1.946  -3.341  0.00  0.00    -0.047 C 
ATOM     52  H   LIG d   1      19.465   2.319  -4.365  0.00  0.00     0.025 H 
ATOM     53  H   LIG d   1      18.741   2.516  -2.751  0.00  0.00     0.025 H 
ATOM     54  H   LIG d   1      20.452   2.055  -2.909  0.00  0.00     0.025 H 
ENDBRANCH  42  51
ENDBRANCH  39  42
ENDBRANCH  32  38
ENDBRANCH   1  28
BRANCH  17  55
ATOM     55  C   LIG d   1       8.829  -3.668  -4.085  0.00  0.00    -0.021 A 
ATOM     56  C   LIG d   1       9.135  -3.481  -2.750  0.00  0.00    -0.056 A 
ATOM     57  C   LIG d   1       9.556  -4.550  -1.981  0.00  0.00    -0.059 A 
ATOM     58  H   LIG d   1       9.043  -2.501  -2.307  0.00  0.00     0.062 H 
ATOM     59  C   LIG d   1       9.673  -5.806  -2.548  0.00  0.00    -0.050 A 
ATOM     60  H   LIG d   1       9.793  -4.405  -0.937  0.00  0.00     0.062 H 
ATOM     61  C   LIG d   1       9.367  -5.992  -3.883  0.00  0.00    -0.059 A 
ATOM     62  C   LIG d   1       8.940  -4.924  -4.651  0.00  0.00    -0.056 A 
ATOM     63  H   LIG d   1       9.458  -6.973  -4.326  0.00  0.00     0.062 H 
ATOM     64  H   LIG d   1       8.698  -5.071  -5.693  0.00  0.00     0.062 H 
BRANCH  59  65
ATOM     65  C   LIG d   1      10.132  -6.971  -1.710  0.00  0.00    -0.040 C 
ATOM     66  H   LIG d   1      10.273  -7.844  -2.348  0.00  0.00     0.028 H 
ATOM     67  H   LIG d   1      11.074  -6.720  -1.223  0.00  0.00     0.028 H 
ATOM     68  H   LIG d   1       9.379  -7.193  -0.953  0.00  0.00     0.028 H 
ENDBRANCH  59  65
ENDBRANCH  17  55
TORSDOF 8
ENDMDL
MODEL 9
REMARK VINA RESULT:      -6.4      5.144      7.519
REMARK  8 active torsions:
REMARK  status: ('A' for Active; 'I' for Inactive)
REMARK    1  A    between atoms: C_1  and  C_2 
REMARK    2  A    between atoms: C_2  and  C_3 
REMARK    3  A    between atoms: C_3  and  C_5 
REMARK    4  A    between atoms: C_3  and  N_6 
REMARK       I    between atoms: N_6  and  C_7 
REMARK    5  A    between atoms: C_7  and  C_9 
REMARK    6  A    between atoms: C_12  and  N_15 
REMARK    7  A    between atoms: C_31  and  C_36 
REMARK    8  A    between atoms: C_39  and  C_42 
ROOT
ATOM      1  N   LIG d   1       7.111  -4.261  -5.735  0.00  0.00    -0.193 N 
ATOM      2  C   LIG d   1       6.920  -4.438  -7.058  0.00  0.00     0.248 A 
ATOM      3  O   LIG d   1       7.626  -5.062  -7.822  0.00  0.00    -0.273 OA
ATOM      4  C   LIG d   1       5.641  -3.698  -7.394  0.00  0.00     0.110 A 
ATOM      5  H   LIG d   1       4.860  -4.357  -7.770  0.00  0.00     0.060 H 
ATOM      6  C   LIG d   1       5.950  -2.567  -8.383  0.00  0.00     0.002 C 
ATOM      7  C   LIG d   1       4.915  -1.480  -8.240  0.00  0.00    -0.015 A 
ATOM      8  C   LIG d   1       4.592  -0.440  -9.198  0.00  0.00     0.003 A 
ATOM      9  C   LIG d   1       5.092  -0.135 -10.467  0.00  0.00    -0.052 A 
ATOM     10  C   LIG d   1       4.544   0.948 -11.107  0.00  0.00    -0.061 A 
ATOM     11  C   LIG d   1       3.540   1.712 -10.533  0.00  0.00    -0.060 A 
ATOM     12  C   LIG d   1       3.025   1.431  -9.279  0.00  0.00    -0.038 A 
ATOM     13  C   LIG d   1       3.564   0.337  -8.605  0.00  0.00     0.047 A 
ATOM     14  N   LIG d   1       3.298  -0.208  -7.383  0.00  0.00    -0.356 N 
ATOM     15  H   LIG d   1       2.636   0.124  -6.756  0.00  0.00     0.166 HD
ATOM     16  C   LIG d   1       4.107  -1.293  -7.175  0.00  0.00     0.046 A 
ATOM     17  C   LIG d   1       4.121  -2.178  -5.945  0.00  0.00     0.094 C 
ATOM     18  H   LIG d   1       3.195  -2.752  -5.886  0.00  0.00     0.062 H 
ATOM     19  N   LIG d   1       5.266  -3.084  -6.102  0.00  0.00    -0.261 N 
ATOM     20  C   LIG d   1       6.153  -3.495  -5.193  0.00  0.00     0.317 A 
ATOM     21  O   LIG d   1       6.099  -3.208  -4.015  0.00  0.00    -0.252 OA
ATOM     22  H   LIG d   1       6.938  -2.160  -8.172  0.00  0.00     0.034 H 
ATOM     23  H   LIG d   1       5.928  -2.959  -9.401  0.00  0.00     0.034 H 
ATOM     24  H   LIG d   1       5.876  -0.724 -10.922  0.00  0.00     0.062 H 
ATOM     25  H   LIG d   1       4.905   1.214 -12.090  0.00  0.00     0.062 H 
ATOM     26  H   LIG d   1       3.145   2.553 -11.083  0.00  0.00     0.062 H 
ATOM     27  H   LIG d   1       2.243   2.035  -8.843  0.00  0.00     0.064 H 
ENDROOT
BRANCH   1  28
ATOM     28  C   LIG d   1       8.180  -4.805  -5.016  0.00  0.00     0.045 A 
ATOM     29  C   LIG d   1       8.108  -6.114  -4.551  0.00  0.00    -0.039 A 
ATOM     30  C   LIG d   1       9.160  -6.655  -3.847  0.00  0.00    -0.048 A 
ATOM     31  H   LIG d   1       7.226  -6.708  -4.746  0.00  0.00     0.064 H 
ATOM     32  C   LIG d   1      10.297  -5.885  -3.593  0.00  0.00     0.037 A 
ATOM     33  H   LIG d   1       9.105  -7.673  -3.490  0.00  0.00     0.063 H 
ATOM     34  C   LIG d   1      10.367  -4.570  -4.061  0.00  0.00    -0.048 A 
ATOM     35  C   LIG d   1       9.312  -4.037  -4.769  0.00  0.00    -0.039 A 
ATOM     36  H   LIG d   1      11.246  -3.974  -3.871  0.00  0.00     0.063 H 
ATOM     37  H   LIG d   1       9.364  -3.021  -5.132  0.00  0.00     0.064 H 
BRANCH  32  38
ATOM     38  C   LIG d   1      11.427  -6.460  -2.835  0.00  0.00     0.244 C 
ATOM     39  N   LIG d   1      11.199  -7.406  -1.902  0.00  0.00    -0.309 N 
ATOM     40  H   LIG d   1      10.295  -7.710  -1.729  0.00  0.00     0.149 HD
ATOM     41  O   LIG d   1      12.561  -6.079  -3.051  0.00  0.00    -0.270 OA
BRANCH  39  42
ATOM     42  C   LIG d   1      12.320  -7.977  -1.150  0.00  0.00     0.020 C 
ATOM     43  H   LIG d   1      13.217  -7.385  -1.330  0.00  0.00     0.050 H 
BRANCH  42  44
ATOM     44  C   LIG d   1      12.558  -9.418  -1.606  0.00  0.00    -0.038 C 
ATOM     45  H   LIG d   1      12.294  -9.513  -2.659  0.00  0.00     0.028 H 
ATOM     46  H   LIG d   1      13.610  -9.673  -1.471  0.00  0.00     0.028 H 
BRANCH  44  47
ATOM     47  C   LIG d   1      11.693 -10.366  -0.775  0.00  0.00    -0.064 C 
ATOM     48  H   LIG d   1      12.222 -11.307  -0.628  0.00  0.00     0.023 H 
ATOM     49  H   LIG d   1      11.483  -9.912   0.193  0.00  0.00     0.023 H 
ATOM     50  H   LIG d   1      10.755 -10.555  -1.299  0.00  0.00     0.023 H 
ENDBRANCH  44  47
ENDBRANCH  42  44
BRANCH  42  51
ATOM     51  C   LIG d   1      11.991  -7.962   0.344  0.00  0.00    -0.047 C 
ATOM     52  H   LIG d   1      12.072  -8.973   0.744  0.00  0.00     0.025 H 
ATOM     53  H   LIG d   1      12.691  -7.308   0.864  0.00  0.00     0.025 H 
ATOM     54  H   LIG d   1      10.975  -7.595   0.489  0.00  0.00     0.025 H 
ENDBRANCH  42  51
ENDBRANCH  39  42
ENDBRANCH  32  38
ENDBRANCH   1  28
BRANCH  17  55
ATOM     55  C   LIG d   1       4.290  -1.339  -4.705  0.00  0.00    -0.021 A 
ATOM     56  C   LIG d   1       5.249  -0.344  -4.668  0.00  0.00    -0.056 A 
ATOM     57  C   LIG d   1       5.404   0.426  -3.530  0.00  0.00    -0.059 A 
ATOM     58  H   LIG d   1       5.876  -0.167  -5.529  0.00  0.00     0.062 H 
ATOM     59  C   LIG d   1       4.600   0.199  -2.428  0.00  0.00    -0.050 A 
ATOM     60  H   LIG d   1       6.151   1.204  -3.502  0.00  0.00     0.062 H 
ATOM     61  C   LIG d   1       3.642  -0.796  -2.465  0.00  0.00    -0.059 A 
ATOM     62  C   LIG d   1       3.483  -1.562  -3.605  0.00  0.00    -0.056 A 
ATOM     63  H   LIG d   1       3.014  -0.974  -1.604  0.00  0.00     0.062 H 
ATOM     64  H   LIG d   1       2.732  -2.338  -3.634  0.00  0.00     0.062 H 
BRANCH  59  65
ATOM     65  C   LIG d   1       4.768   1.038  -1.188  0.00  0.00    -0.040 C 
ATOM     66  H   LIG d   1       4.042   1.851  -1.198  0.00  0.00     0.028 H 
ATOM     67  H   LIG d   1       4.609   0.419  -0.305  0.00  0.00     0.028 H 
ATOM     68  H   LIG d   1       5.776   1.452  -1.163  0.00  0.00     0.028 H 
ENDBRANCH  59  65
ENDBRANCH  17  55
TORSDOF 8
ENDMDL
MODEL 10
REMARK VINA RESULT:      -6.3      3.879      6.228
REMARK  8 active torsions:
REMARK  status: ('A' for Active; 'I' for Inactive)
REMARK    1  A    between atoms: C_1  and  C_2 
REMARK    2  A    between atoms: C_2  and  C_3 
REMARK    3  A    between atoms: C_3  and  C_5 
REMARK    4  A    between atoms: C_3  and  N_6 
REMARK       I    between atoms: N_6  and  C_7 
REMARK    5  A    between atoms: C_7  and  C_9 
REMARK    6  A    between atoms: C_12  and  N_15 
REMARK    7  A    between atoms: C_31  and  C_36 
REMARK    8  A    between atoms: C_39  and  C_42 
ROOT
ATOM      1  N   LIG d   1       8.129   0.400  -6.105  0.00  0.00    -0.193 N 
ATOM      2  C   LIG d   1       8.778  -0.476  -5.311  0.00  0.00     0.248 A 
ATOM      3  O   LIG d   1       9.963  -0.494  -5.057  0.00  0.00    -0.273 OA
ATOM      4  C   LIG d   1       7.720  -1.435  -4.802  0.00  0.00     0.110 A 
ATOM      5  H   LIG d   1       7.612  -1.405  -3.718  0.00  0.00     0.060 H 
ATOM      6  C   LIG d   1       8.032  -2.851  -5.299  0.00  0.00     0.002 C 
ATOM      7  C   LIG d   1       6.755  -3.650  -5.369  0.00  0.00    -0.015 A 
ATOM      8  C   LIG d   1       6.620  -5.094  -5.410  0.00  0.00     0.003 A 
ATOM      9  C   LIG d   1       7.557  -6.131  -5.395  0.00  0.00    -0.052 A 
ATOM     10  C   LIG d   1       7.066  -7.412  -5.450  0.00  0.00    -0.061 A 
ATOM     11  C   LIG d   1       5.707  -7.677  -5.518  0.00  0.00    -0.060 A 
ATOM     12  C   LIG d   1       4.759  -6.669  -5.533  0.00  0.00    -0.038 A 
ATOM     13  C   LIG d   1       5.229  -5.359  -5.479  0.00  0.00     0.047 A 
ATOM     14  N   LIG d   1       4.587  -4.154  -5.477  0.00  0.00    -0.356 N 
ATOM     15  H   LIG d   1       3.625  -4.034  -5.518  0.00  0.00     0.166 HD
ATOM     16  C   LIG d   1       5.506  -3.141  -5.408  0.00  0.00     0.046 A 
ATOM     17  C   LIG d   1       5.202  -1.656  -5.378  0.00  0.00     0.094 C 
ATOM     18  H   LIG d   1       4.717  -1.393  -4.437  0.00  0.00     0.062 H 
ATOM     19  N   LIG d   1       6.495  -0.970  -5.488  0.00  0.00    -0.261 N 
ATOM     20  C   LIG d   1       6.821   0.118  -6.191  0.00  0.00     0.317 A 
ATOM     21  O   LIG d   1       6.026   0.773  -6.833  0.00  0.00    -0.252 OA
ATOM     22  H   LIG d   1       8.483  -2.797  -6.290  0.00  0.00     0.034 H 
ATOM     23  H   LIG d   1       8.726  -3.333  -4.610  0.00  0.00     0.034 H 
ATOM     24  H   LIG d   1       8.618  -5.934  -5.342  0.00  0.00     0.062 H 
ATOM     25  H   LIG d   1       7.760  -8.240  -5.439  0.00  0.00     0.062 H 
ATOM     26  H   LIG d   1       5.378  -8.705  -5.558  0.00  0.00     0.062 H 
ATOM     27  H   LIG d   1       3.702  -6.889  -5.587  0.00  0.00     0.064 H 
ENDROOT
BRANCH   1  28
ATOM     28  C   LIG d   1       8.745   1.470  -6.762  0.00  0.00     0.045 A 
ATOM     29  C   LIG d   1       8.990   2.655  -6.078  0.00  0.00    -0.039 A 
ATOM     30  C   LIG d   1       9.600   3.709  -6.720  0.00  0.00    -0.048 A 
ATOM     31  H   LIG d   1       8.704   2.748  -5.039  0.00  0.00     0.064 H 
ATOM     32  C   LIG d   1       9.966   3.589  -8.063  0.00  0.00     0.037 A 
ATOM     33  H   LIG d   1       9.795   4.628  -6.186  0.00  0.00     0.063 H 
ATOM     34  C   LIG d   1       9.719   2.396  -8.747  0.00  0.00    -0.048 A 
ATOM     35  C   LIG d   1       9.111   1.345  -8.097  0.00  0.00    -0.039 A 
ATOM     36  H   LIG d   1      10.004   2.299  -9.784  0.00  0.00     0.063 H 
ATOM     37  H   LIG d   1       8.919   0.423  -8.625  0.00  0.00     0.064 H 
BRANCH  32  38
ATOM     38  C   LIG d   1      10.618   4.718  -8.756  0.00  0.00     0.244 C 
ATOM     39  N   LIG d   1       9.950   5.876  -8.933  0.00  0.00    -0.309 N 
ATOM     40  H   LIG d   1       9.043   5.968  -8.603  0.00  0.00     0.149 HD
ATOM     41  O   LIG d   1      11.756   4.603  -9.169  0.00  0.00    -0.270 OA
BRANCH  39  42
ATOM     42  C   LIG d   1      10.597   6.996  -9.621  0.00  0.00     0.020 C 
ATOM     43  H   LIG d   1      11.662   6.791  -9.727  0.00  0.00     0.050 H 
BRANCH  42  44
ATOM     44  C   LIG d   1      10.402   8.276  -8.805  0.00  0.00    -0.038 C 
ATOM     45  H   LIG d   1      11.103   8.284  -7.970  0.00  0.00     0.028 H 
ATOM     46  H   LIG d   1      10.585   9.143  -9.440  0.00  0.00     0.028 H 
BRANCH  44  47
ATOM     47  C   LIG d   1       8.970   8.327  -8.270  0.00  0.00    -0.064 C 
ATOM     48  H   LIG d   1       8.971   8.095  -7.206  0.00  0.00     0.023 H 
ATOM     49  H   LIG d   1       8.560   9.326  -8.424  0.00  0.00     0.023 H 
ATOM     50  H   LIG d   1       8.358   7.598  -8.801  0.00  0.00     0.023 H 
ENDBRANCH  44  47
ENDBRANCH  42  44
BRANCH  42  51
ATOM     51  C   LIG d   1       9.972   7.173 -11.005  0.00  0.00    -0.047 C 
ATOM     52  H   LIG d   1       9.611   8.196 -11.113  0.00  0.00     0.025 H 
ATOM     53  H   LIG d   1      10.720   6.969 -11.771  0.00  0.00     0.025 H 
ATOM     54  H   LIG d   1       9.138   6.480 -11.119  0.00  0.00     0.025 H 
ENDBRANCH  42  51
ENDBRANCH  39  42
ENDBRANCH  32  38
ENDBRANCH   1  28
BRANCH  17  55
ATOM     55  C   LIG d   1       4.317  -1.284  -6.539  0.00  0.00    -0.021 A 
ATOM     56  C   LIG d   1       4.463  -1.927  -7.754  0.00  0.00    -0.056 A 
ATOM     57  C   LIG d   1       3.651  -1.586  -8.819  0.00  0.00    -0.059 A 
ATOM     58  H   LIG d   1       5.211  -2.697  -7.871  0.00  0.00     0.062 H 
ATOM     59  C   LIG d   1       2.692  -0.600  -8.670  0.00  0.00    -0.050 A 
ATOM     60  H   LIG d   1       3.763  -2.089  -9.768  0.00  0.00     0.062 H 
ATOM     61  C   LIG d   1       2.547   0.042  -7.455  0.00  0.00    -0.059 A 
ATOM     62  C   LIG d   1       3.355  -0.303  -6.388  0.00  0.00    -0.056 A 
ATOM     63  H   LIG d   1       1.799   0.813  -7.337  0.00  0.00     0.062 H 
ATOM     64  H   LIG d   1       3.239   0.197  -5.437  0.00  0.00     0.062 H 
BRANCH  59  65
ATOM     65  C   LIG d   1       1.806  -0.228  -9.830  0.00  0.00    -0.040 C 
ATOM     66  H   LIG d   1       1.018   0.441  -9.485  0.00  0.00     0.028 H 
ATOM     67  H   LIG d   1       2.400   0.273 -10.595  0.00  0.00     0.028 H 
ATOM     68  H   LIG d   1       1.360  -1.129 -10.250  0.00  0.00     0.028 H 
ENDBRANCH  59  65
ENDBRANCH  17  55
TORSDOF 8
ENDMDL
