MODEL 1
REMARK VINA RESULT:      -6.3      0.000      0.000
REMARK  8 active torsions:
REMARK  status: ('A' for Active; 'I' for Inactive)
REMARK    1  A    between atoms: C_4  and  N_16 
REMARK    2  A    between atoms: C_5  and  C_7 
REMARK    3  A    between atoms: C_7  and  C_8 
REMARK    4  A    between atoms: C_8  and  C_9 
REMARK    5  A    between atoms: C_9  and  C_10 
REMARK    6  A    between atoms: C_10  and  C_11 
REMARK    7  A    between atoms: C_11  and  C_12 
REMARK    8  A    between atoms: C_12  and  C_13 
ROOT
ATOM      1  C   LIG d   1       3.164   0.490  -6.409  0.00  0.00    -0.049 C 
ATOM      2  H   LIG d   1       3.119   1.574  -6.591  0.00  0.00     0.027 H 
ATOM      3  H   LIG d   1       4.202   0.199  -6.191  0.00  0.00     0.027 H 
ENDROOT
BRANCH   1   4
ATOM      4  C   LIG d   1       2.274   0.134  -5.217  0.00  0.00    -0.026 C 
ATOM      5  H   LIG d   1       1.829  -0.859  -5.375  0.00  0.00     0.031 H 
ATOM      6  H   LIG d   1       1.473   0.883  -5.121  0.00  0.00     0.031 H 
BRANCH   4   7
ATOM      7  C   LIG d   1       3.102   0.120  -3.958  0.00  0.00    -0.027 A 
ATOM      8  C   LIG d   1       3.687  -1.062  -3.525  0.00  0.00     0.028 A 
ATOM      9  C   LIG d   1       4.449  -1.071  -2.363  0.00  0.00    -0.041 A 
ATOM     10  C   LIG d   1       4.623   0.095  -1.644  0.00  0.00    -0.060 A 
ATOM     11  H   LIG d   1       4.906  -1.989  -2.023  0.00  0.00     0.064 H 
ATOM     12  C   LIG d   1       4.039   1.270  -2.079  0.00  0.00    -0.061 A 
ATOM     13  H   LIG d   1       5.216   0.089  -0.742  0.00  0.00     0.062 H 
ATOM     14  C   LIG d   1       3.284   1.284  -3.237  0.00  0.00    -0.057 A 
ATOM     15  H   LIG d   1       4.176   2.181  -1.515  0.00  0.00     0.062 H 
ATOM     16  H   LIG d   1       2.832   2.204  -3.576  0.00  0.00     0.062 H 
BRANCH   8  17
ATOM     17  N   LIG d   1       3.509  -2.240  -4.255  0.00  0.00    -0.358 N 
ATOM     18  H   LIG d   1       4.293  -2.582  -4.945  0.00  0.00     0.142 HD
ATOM     19  H   LIG d   1       2.585  -2.825  -4.138  0.00  0.00     0.142 HD
ENDBRANCH   8  17
ENDBRANCH   4   7
ENDBRANCH   1   4
BRANCH   1  20
ATOM     20  C   LIG d   1       2.675  -0.256  -7.653  0.00  0.00    -0.053 C 
ATOM     21  H   LIG d   1       3.415  -1.019  -7.937  0.00  0.00     0.026 H 
ATOM     22  H   LIG d   1       1.713  -0.742  -7.434  0.00  0.00     0.026 H 
BRANCH  20  23
ATOM     23  C   LIG d   1       2.497   0.735  -8.805  0.00  0.00    -0.053 C 
ATOM     24  H   LIG d   1       3.092   0.403  -9.669  0.00  0.00     0.026 H 
ATOM     25  H   LIG d   1       1.435   0.782  -9.087  0.00  0.00     0.026 H 
BRANCH  23  26
ATOM     26  C   LIG d   1       2.971   2.121  -8.362  0.00  0.00    -0.048 C 
ATOM     27  H   LIG d   1       2.112   2.807  -8.326  0.00  0.00     0.027 H 
ATOM     28  H   LIG d   1       3.428   2.051  -7.364  0.00  0.00     0.027 H 
BRANCH  26  29
ATOM     29  C   LIG d   1       4.005   2.649  -9.359  0.00  0.00    -0.013 C 
ATOM     30  H   LIG d   1       3.580   2.629 -10.373  0.00  0.00     0.033 H 
ATOM     31  H   LIG d   1       4.273   3.683  -9.095  0.00  0.00     0.033 H 
BRANCH  29  32
ATOM     32  C   LIG d   1       5.237   1.782  -9.311  0.00  0.00     0.042 C 
ATOM     33  O   LIG d   1       5.567   1.148 -10.285  0.00  0.00    -0.550 OA
ATOM     34  O   LIG d   1       5.967   1.715  -8.187  0.00  0.00    -0.550 OA
ENDBRANCH  29  32
ENDBRANCH  26  29
ENDBRANCH  23  26
ENDBRANCH  20  23
ENDBRANCH   1  20
TORSDOF 8
ENDMDL
MODEL 2
REMARK VINA RESULT:      -6.2      1.406      1.896
REMARK  8 active torsions:
REMARK  status: ('A' for Active; 'I' for Inactive)
REMARK    1  A    between atoms: C_4  and  N_16 
REMARK    2  A    between atoms: C_5  and  C_7 
REMARK    3  A    between atoms: C_7  and  C_8 
REMARK    4  A    between atoms: C_8  and  C_9 
REMARK    5  A    between atoms: C_9  and  C_10 
REMARK    6  A    between atoms: C_10  and  C_11 
REMARK    7  A    between atoms: C_11  and  C_12 
REMARK    8  A    between atoms: C_12  and  C_13 
ROOT
ATOM      1  C   LIG d   1       3.397  -0.028  -6.383  0.00  0.00    -0.049 C 
ATOM      2  H   LIG d   1       4.326   0.557  -6.325  0.00  0.00     0.027 H 
ATOM      3  H   LIG d   1       3.639  -1.101  -6.376  0.00  0.00     0.027 H 
ENDROOT
BRANCH   1   4
ATOM      4  C   LIG d   1       2.510   0.302  -5.181  0.00  0.00    -0.026 C 
ATOM      5  H   LIG d   1       1.559  -0.245  -5.266  0.00  0.00     0.031 H 
ATOM      6  H   LIG d   1       2.309   1.384  -5.160  0.00  0.00     0.031 H 
BRANCH   4   7
ATOM      7  C   LIG d   1       3.212  -0.104  -3.911  0.00  0.00    -0.027 A 
ATOM      8  C   LIG d   1       3.753   0.865  -3.077  0.00  0.00     0.028 A 
ATOM      9  C   LIG d   1       4.400   0.486  -1.907  0.00  0.00    -0.041 A 
ATOM     10  C   LIG d   1       4.502  -0.851  -1.578  0.00  0.00    -0.060 A 
ATOM     11  H   LIG d   1       4.823   1.237  -1.255  0.00  0.00     0.064 H 
ATOM     12  C   LIG d   1       3.961  -1.813  -2.411  0.00  0.00    -0.061 A 
ATOM     13  H   LIG d   1       5.004  -1.147  -0.668  0.00  0.00     0.062 H 
ATOM     14  C   LIG d   1       3.313  -1.439  -3.573  0.00  0.00    -0.057 A 
ATOM     15  H   LIG d   1       4.042  -2.858  -2.152  0.00  0.00     0.062 H 
ATOM     16  H   LIG d   1       2.888  -2.192  -4.221  0.00  0.00     0.062 H 
BRANCH   8  17
ATOM     17  N   LIG d   1       3.649   2.216  -3.412  0.00  0.00    -0.358 N 
ATOM     18  H   LIG d   1       2.658   2.685  -3.506  0.00  0.00     0.142 HD
ATOM     19  H   LIG d   1       4.557   2.813  -3.582  0.00  0.00     0.142 HD
ENDBRANCH   8  17
ENDBRANCH   4   7
ENDBRANCH   1   4
BRANCH   1  20
ATOM     20  C   LIG d   1       2.655   0.320  -7.676  0.00  0.00    -0.053 C 
ATOM     21  H   LIG d   1       3.021  -0.321  -8.492  0.00  0.00     0.026 H 
ATOM     22  H   LIG d   1       1.577   0.156  -7.536  0.00  0.00     0.026 H 
BRANCH  20  23
ATOM     23  C   LIG d   1       2.907   1.787  -8.029  0.00  0.00    -0.053 C 
ATOM     24  H   LIG d   1       1.972   2.356  -7.920  0.00  0.00     0.026 H 
ATOM     25  H   LIG d   1       3.670   2.201  -7.353  0.00  0.00     0.026 H 
BRANCH  23  26
ATOM     26  C   LIG d   1       3.399   1.886  -9.475  0.00  0.00    -0.048 C 
ATOM     27  H   LIG d   1       2.630   1.485 -10.152  0.00  0.00     0.027 H 
ATOM     28  H   LIG d   1       3.595   2.940  -9.723  0.00  0.00     0.027 H 
BRANCH  26  29
ATOM     29  C   LIG d   1       4.690   1.078  -9.631  0.00  0.00    -0.013 C 
ATOM     30  H   LIG d   1       4.550   0.077  -9.198  0.00  0.00     0.033 H 
ATOM     31  H   LIG d   1       4.936   0.984 -10.699  0.00  0.00     0.033 H 
BRANCH  29  32
ATOM     32  C   LIG d   1       5.813   1.783  -8.916  0.00  0.00     0.042 C 
ATOM     33  O   LIG d   1       6.239   2.830  -9.345  0.00  0.00    -0.550 OA
ATOM     34  O   LIG d   1       6.342   1.248  -7.805  0.00  0.00    -0.550 OA
ENDBRANCH  29  32
ENDBRANCH  26  29
ENDBRANCH  23  26
ENDBRANCH  20  23
ENDBRANCH   1  20
TORSDOF 8
ENDMDL
MODEL 3
REMARK VINA RESULT:      -5.9      2.786      5.902
REMARK  8 active torsions:
REMARK  status: ('A' for Active; 'I' for Inactive)
REMARK    1  A    between atoms: C_4  and  N_16 
REMARK    2  A    between atoms: C_5  and  C_7 
REMARK    3  A    between atoms: C_7  and  C_8 
REMARK    4  A    between atoms: C_8  and  C_9 
REMARK    5  A    between atoms: C_9  and  C_10 
REMARK    6  A    between atoms: C_10  and  C_11 
REMARK    7  A    between atoms: C_11  and  C_12 
REMARK    8  A    between atoms: C_12  and  C_13 
ROOT
ATOM      1  C   LIG d   1       2.321   0.319  -4.799  0.00  0.00    -0.049 C 
ATOM      2  H   LIG d   1       2.263   1.407  -4.647  0.00  0.00     0.027 H 
ATOM      3  H   LIG d   1       1.436  -0.020  -5.357  0.00  0.00     0.027 H 
ENDROOT
BRANCH   1   4
ATOM      4  C   LIG d   1       3.585  -0.019  -5.592  0.00  0.00    -0.026 C 
ATOM      5  H   LIG d   1       3.912  -1.039  -5.343  0.00  0.00     0.031 H 
ATOM      6  H   LIG d   1       4.381   0.695  -5.334  0.00  0.00     0.031 H 
BRANCH   4   7
ATOM      7  C   LIG d   1       3.290   0.068  -7.067  0.00  0.00    -0.027 A 
ATOM      8  C   LIG d   1       3.425  -1.058  -7.870  0.00  0.00     0.028 A 
ATOM      9  C   LIG d   1       3.152  -0.973  -9.230  0.00  0.00    -0.041 A 
ATOM     10  C   LIG d   1       2.749   0.228  -9.778  0.00  0.00    -0.060 A 
ATOM     11  H   LIG d   1       3.256  -1.846  -9.857  0.00  0.00     0.064 H 
ATOM     12  C   LIG d   1       2.616   1.346  -8.976  0.00  0.00    -0.061 A 
ATOM     13  H   LIG d   1       2.536   0.295 -10.835  0.00  0.00     0.062 H 
ATOM     14  C   LIG d   1       2.881   1.265  -7.622  0.00  0.00    -0.057 A 
ATOM     15  H   LIG d   1       2.300   2.284  -9.407  0.00  0.00     0.062 H 
ATOM     16  H   LIG d   1       2.773   2.139  -6.997  0.00  0.00     0.062 H 
BRANCH   8  17
ATOM     17  N   LIG d   1       3.833  -2.271  -7.312  0.00  0.00    -0.358 N 
ATOM     18  H   LIG d   1       4.061  -3.127  -7.963  0.00  0.00     0.142 HD
ATOM     19  H   LIG d   1       3.926  -2.371  -6.220  0.00  0.00     0.142 HD
ENDBRANCH   8  17
ENDBRANCH   4   7
ENDBRANCH   1   4
BRANCH   1  20
ATOM     20  C   LIG d   1       2.367  -0.384  -3.440  0.00  0.00    -0.053 C 
ATOM     21  H   LIG d   1       1.396  -0.271  -2.936  0.00  0.00     0.026 H 
ATOM     22  H   LIG d   1       2.582  -1.453  -3.587  0.00  0.00     0.026 H 
BRANCH  20  23
ATOM     23  C   LIG d   1       3.465   0.244  -2.579  0.00  0.00    -0.053 C 
ATOM     24  H   LIG d   1       4.087   0.904  -3.202  0.00  0.00     0.026 H 
ATOM     25  H   LIG d   1       3.006   0.829  -1.769  0.00  0.00     0.026 H 
BRANCH  23  26
ATOM     26  C   LIG d   1       4.337  -0.862  -1.980  0.00  0.00    -0.048 C 
ATOM     27  H   LIG d   1       5.384  -0.704  -2.278  0.00  0.00     0.027 H 
ATOM     28  H   LIG d   1       4.259  -0.836  -0.883  0.00  0.00     0.027 H 
BRANCH  26  29
ATOM     29  C   LIG d   1       3.860  -2.222  -2.492  0.00  0.00    -0.013 C 
ATOM     30  H   LIG d   1       3.874  -2.950  -1.668  0.00  0.00     0.033 H 
ATOM     31  H   LIG d   1       2.834  -2.129  -2.880  0.00  0.00     0.033 H 
BRANCH  29  32
ATOM     32  C   LIG d   1       4.773  -2.692  -3.595  0.00  0.00     0.042 C 
ATOM     33  O   LIG d   1       4.357  -3.446  -4.443  0.00  0.00    -0.550 OA
ATOM     34  O   LIG d   1       6.048  -2.275  -3.635  0.00  0.00    -0.550 OA
ENDBRANCH  29  32
ENDBRANCH  26  29
ENDBRANCH  23  26
ENDBRANCH  20  23
ENDBRANCH   1  20
TORSDOF 8
ENDMDL
MODEL 4
REMARK VINA RESULT:      -5.9      2.938      5.926
REMARK  8 active torsions:
REMARK  status: ('A' for Active; 'I' for Inactive)
REMARK    1  A    between atoms: C_4  and  N_16 
REMARK    2  A    between atoms: C_5  and  C_7 
REMARK    3  A    between atoms: C_7  and  C_8 
REMARK    4  A    between atoms: C_8  and  C_9 
REMARK    5  A    between atoms: C_9  and  C_10 
REMARK    6  A    between atoms: C_10  and  C_11 
REMARK    7  A    between atoms: C_11  and  C_12 
REMARK    8  A    between atoms: C_12  and  C_13 
ROOT
ATOM      1  C   LIG d   1       4.736  -2.486  -4.795  0.00  0.00    -0.049 C 
ATOM      2  H   LIG d   1       3.646  -2.625  -4.833  0.00  0.00     0.027 H 
ATOM      3  H   LIG d   1       5.235  -3.404  -5.140  0.00  0.00     0.027 H 
ENDROOT
BRANCH   1   4
ATOM      4  C   LIG d   1       5.135  -1.319  -5.701  0.00  0.00    -0.026 C 
ATOM      5  H   LIG d   1       6.163  -1.468  -6.060  0.00  0.00     0.031 H 
ATOM      6  H   LIG d   1       5.077  -0.378  -5.133  0.00  0.00     0.031 H 
BRANCH   4   7
ATOM      7  C   LIG d   1       4.196  -1.253  -6.878  0.00  0.00    -0.027 A 
ATOM      8  C   LIG d   1       3.288  -0.207  -6.985  0.00  0.00     0.028 A 
ATOM      9  C   LIG d   1       2.425  -0.151  -8.072  0.00  0.00    -0.041 A 
ATOM     10  C   LIG d   1       2.472  -1.133  -9.042  0.00  0.00    -0.060 A 
ATOM     11  H   LIG d   1       1.717   0.661  -8.158  0.00  0.00     0.064 H 
ATOM     12  C   LIG d   1       3.377  -2.172  -8.931  0.00  0.00    -0.061 A 
ATOM     13  H   LIG d   1       1.802  -1.089  -9.888  0.00  0.00     0.062 H 
ATOM     14  C   LIG d   1       4.241  -2.229  -7.854  0.00  0.00    -0.057 A 
ATOM     15  H   LIG d   1       3.413  -2.938  -9.691  0.00  0.00     0.062 H 
ATOM     16  H   LIG d   1       4.951  -3.039  -7.772  0.00  0.00     0.062 H 
BRANCH   8  17
ATOM     17  N   LIG d   1       3.243   0.784  -6.002  0.00  0.00    -0.358 N 
ATOM     18  H   LIG d   1       3.630   0.577  -4.994  0.00  0.00     0.142 HD
ATOM     19  H   LIG d   1       2.821   1.773  -6.237  0.00  0.00     0.142 HD
ENDBRANCH   8  17
ENDBRANCH   4   7
ENDBRANCH   1   4
BRANCH   1  20
ATOM     20  C   LIG d   1       5.162  -2.184  -3.356  0.00  0.00    -0.053 C 
ATOM     21  H   LIG d   1       5.814  -2.990  -2.990  0.00  0.00     0.026 H 
ATOM     22  H   LIG d   1       5.707  -1.229  -3.328  0.00  0.00     0.026 H 
BRANCH  20  23
ATOM     23  C   LIG d   1       3.921  -2.089  -2.467  0.00  0.00    -0.053 C 
ATOM     24  H   LIG d   1       3.143  -2.766  -2.851  0.00  0.00     0.026 H 
ATOM     25  H   LIG d   1       4.183  -2.378  -1.438  0.00  0.00     0.026 H 
BRANCH  23  26
ATOM     26  C   LIG d   1       3.395  -0.652  -2.476  0.00  0.00    -0.048 C 
ATOM     27  H   LIG d   1       3.226  -0.330  -3.514  0.00  0.00     0.027 H 
ATOM     28  H   LIG d   1       2.449  -0.604  -1.917  0.00  0.00     0.027 H 
BRANCH  26  29
ATOM     29  C   LIG d   1       4.423   0.271  -1.816  0.00  0.00    -0.013 C 
ATOM     30  H   LIG d   1       3.998   0.693  -0.894  0.00  0.00     0.033 H 
ATOM     31  H   LIG d   1       5.328  -0.305  -1.572  0.00  0.00     0.033 H 
BRANCH  29  32
ATOM     32  C   LIG d   1       4.778   1.386  -2.765  0.00  0.00     0.042 C 
ATOM     33  O   LIG d   1       5.936   1.602  -3.038  0.00  0.00    -0.550 OA
ATOM     34  O   LIG d   1       3.809   2.141  -3.307  0.00  0.00    -0.550 OA
ENDBRANCH  29  32
ENDBRANCH  26  29
ENDBRANCH  23  26
ENDBRANCH  20  23
ENDBRANCH   1  20
TORSDOF 8
ENDMDL
MODEL 5
REMARK VINA RESULT:      -5.9      2.524      3.441
REMARK  8 active torsions:
REMARK  status: ('A' for Active; 'I' for Inactive)
REMARK    1  A    between atoms: C_4  and  N_16 
REMARK    2  A    between atoms: C_5  and  C_7 
REMARK    3  A    between atoms: C_7  and  C_8 
REMARK    4  A    between atoms: C_8  and  C_9 
REMARK    5  A    between atoms: C_9  and  C_10 
REMARK    6  A    between atoms: C_10  and  C_11 
REMARK    7  A    between atoms: C_11  and  C_12 
REMARK    8  A    between atoms: C_12  and  C_13 
ROOT
ATOM      1  C   LIG d   1       3.073   0.723  -6.117  0.00  0.00    -0.049 C 
ATOM      2  H   LIG d   1       2.850   1.741  -6.469  0.00  0.00     0.027 H 
ATOM      3  H   LIG d   1       4.125   0.668  -5.800  0.00  0.00     0.027 H 
ENDROOT
BRANCH   1   4
ATOM      4  C   LIG d   1       2.166   0.382  -4.933  0.00  0.00    -0.026 C 
ATOM      5  H   LIG d   1       1.491  -0.439  -5.213  0.00  0.00     0.031 H 
ATOM      6  H   LIG d   1       1.574   1.267  -4.658  0.00  0.00     0.031 H 
BRANCH   4   7
ATOM      7  C   LIG d   1       3.011  -0.041  -3.758  0.00  0.00    -0.027 A 
ATOM      8  C   LIG d   1       3.658   0.915  -2.988  0.00  0.00     0.028 A 
ATOM      9  C   LIG d   1       4.436   0.520  -1.906  0.00  0.00    -0.041 A 
ATOM     10  C   LIG d   1       4.561  -0.821  -1.600  0.00  0.00    -0.060 A 
ATOM     11  H   LIG d   1       4.941   1.261  -1.304  0.00  0.00     0.064 H 
ATOM     12  C   LIG d   1       3.915  -1.770  -2.370  0.00  0.00    -0.061 A 
ATOM     13  H   LIG d   1       5.165  -1.129  -0.759  0.00  0.00     0.062 H 
ATOM     14  C   LIG d   1       3.136  -1.381  -3.444  0.00  0.00    -0.057 A 
ATOM     15  H   LIG d   1       4.014  -2.818  -2.129  0.00  0.00     0.062 H 
ATOM     16  H   LIG d   1       2.629  -2.124  -4.042  0.00  0.00     0.062 H 
BRANCH   8  17
ATOM     17  N   LIG d   1       3.529   2.270  -3.299  0.00  0.00    -0.358 N 
ATOM     18  H   LIG d   1       4.231   2.743  -4.001  0.00  0.00     0.142 HD
ATOM     19  H   LIG d   1       2.724   2.865  -2.842  0.00  0.00     0.142 HD
ENDBRANCH   8  17
ENDBRANCH   4   7
ENDBRANCH   1   4
BRANCH   1  20
ATOM     20  C   LIG d   1       2.829  -0.274  -7.252  0.00  0.00    -0.053 C 
ATOM     21  H   LIG d   1       1.912  -0.846  -7.045  0.00  0.00     0.026 H 
ATOM     22  H   LIG d   1       2.714   0.271  -8.200  0.00  0.00     0.026 H 
BRANCH  20  23
ATOM     23  C   LIG d   1       4.016  -1.232  -7.353  0.00  0.00    -0.053 C 
ATOM     24  H   LIG d   1       3.832  -2.112  -6.720  0.00  0.00     0.026 H 
ATOM     25  H   LIG d   1       4.142  -1.552  -8.398  0.00  0.00     0.026 H 
BRANCH  23  26
ATOM     26  C   LIG d   1       5.287  -0.521  -6.881  0.00  0.00    -0.048 C 
ATOM     27  H   LIG d   1       5.956  -0.359  -7.738  0.00  0.00     0.027 H 
ATOM     28  H   LIG d   1       5.019   0.448  -6.434  0.00  0.00     0.027 H 
BRANCH  26  29
ATOM     29  C   LIG d   1       5.996  -1.385  -5.835  0.00  0.00    -0.013 C 
ATOM     30  H   LIG d   1       5.265  -2.049  -5.352  0.00  0.00     0.033 H 
ATOM     31  H   LIG d   1       6.772  -1.990  -6.326  0.00  0.00     0.033 H 
BRANCH  29  32
ATOM     32  C   LIG d   1       6.633  -0.496  -4.798  0.00  0.00     0.042 C 
ATOM     33  O   LIG d   1       7.199  -0.985  -3.849  0.00  0.00    -0.550 OA
ATOM     34  O   LIG d   1       6.570   0.838  -4.927  0.00  0.00    -0.550 OA
ENDBRANCH  29  32
ENDBRANCH  26  29
ENDBRANCH  23  26
ENDBRANCH  20  23
ENDBRANCH   1  20
TORSDOF 8
ENDMDL
MODEL 6
REMARK VINA RESULT:      -5.7      2.616      4.393
REMARK  8 active torsions:
REMARK  status: ('A' for Active; 'I' for Inactive)
REMARK    1  A    between atoms: C_4  and  N_16 
REMARK    2  A    between atoms: C_5  and  C_7 
REMARK    3  A    between atoms: C_7  and  C_8 
REMARK    4  A    between atoms: C_8  and  C_9 
REMARK    5  A    between atoms: C_9  and  C_10 
REMARK    6  A    between atoms: C_10  and  C_11 
REMARK    7  A    between atoms: C_11  and  C_12 
REMARK    8  A    between atoms: C_12  and  C_13 
ROOT
ATOM      1  C   LIG d   1       4.313  -1.145  -1.940  0.00  0.00    -0.049 C 
ATOM      2  H   LIG d   1       3.955  -1.468  -0.951  0.00  0.00     0.027 H 
ATOM      3  H   LIG d   1       5.392  -0.936  -1.888  0.00  0.00     0.027 H 
ENDROOT
BRANCH   1   4
ATOM      4  C   LIG d   1       4.058  -2.255  -2.962  0.00  0.00    -0.026 C 
ATOM      5  H   LIG d   1       3.284  -1.929  -3.673  0.00  0.00     0.031 H 
ATOM      6  H   LIG d   1       3.718  -3.162  -2.441  0.00  0.00     0.031 H 
BRANCH   4   7
ATOM      7  C   LIG d   1       5.333  -2.553  -3.709  0.00  0.00    -0.027 A 
ATOM      8  C   LIG d   1       5.307  -3.381  -4.824  0.00  0.00     0.028 A 
ATOM      9  C   LIG d   1       6.485  -3.652  -5.509  0.00  0.00    -0.041 A 
ATOM     10  C   LIG d   1       7.675  -3.098  -5.082  0.00  0.00    -0.060 A 
ATOM     11  H   LIG d   1       6.469  -4.296  -6.377  0.00  0.00     0.064 H 
ATOM     12  C   LIG d   1       7.696  -2.274  -3.972  0.00  0.00    -0.061 A 
ATOM     13  H   LIG d   1       8.591  -3.308  -5.615  0.00  0.00     0.062 H 
ATOM     14  C   LIG d   1       6.526  -1.998  -3.290  0.00  0.00    -0.057 A 
ATOM     15  H   LIG d   1       8.628  -1.842  -3.639  0.00  0.00     0.062 H 
ATOM     16  H   LIG d   1       6.544  -1.350  -2.425  0.00  0.00     0.062 H 
BRANCH   8  17
ATOM     17  N   LIG d   1       4.102  -3.939  -5.254  0.00  0.00    -0.358 N 
ATOM     18  H   LIG d   1       3.154  -3.418  -5.059  0.00  0.00     0.142 HD
ATOM     19  H   LIG d   1       4.101  -4.902  -5.788  0.00  0.00     0.142 HD
ENDBRANCH   8  17
ENDBRANCH   4   7
ENDBRANCH   1   4
BRANCH   1  20
ATOM     20  C   LIG d   1       3.566   0.121  -2.365  0.00  0.00    -0.053 C 
ATOM     21  H   LIG d   1       2.998   0.516  -1.509  0.00  0.00     0.026 H 
ATOM     22  H   LIG d   1       4.290   0.877  -2.704  0.00  0.00     0.026 H 
BRANCH  20  23
ATOM     23  C   LIG d   1       2.604  -0.213  -3.505  0.00  0.00    -0.053 C 
ATOM     24  H   LIG d   1       2.834  -1.215  -3.897  0.00  0.00     0.026 H 
ATOM     25  H   LIG d   1       1.570  -0.194  -3.130  0.00  0.00     0.026 H 
BRANCH  23  26
ATOM     26  C   LIG d   1       2.760   0.820  -4.623  0.00  0.00    -0.048 C 
ATOM     27  H   LIG d   1       1.973   1.584  -4.528  0.00  0.00     0.027 H 
ATOM     28  H   LIG d   1       3.748   1.298  -4.545  0.00  0.00     0.027 H 
BRANCH  26  29
ATOM     29  C   LIG d   1       2.635   0.125  -5.981  0.00  0.00    -0.013 C 
ATOM     30  H   LIG d   1       1.937  -0.720  -5.898  0.00  0.00     0.033 H 
ATOM     31  H   LIG d   1       2.257   0.841  -6.726  0.00  0.00     0.033 H 
BRANCH  29  32
ATOM     32  C   LIG d   1       3.988  -0.380  -6.412  0.00  0.00     0.042 C 
ATOM     33  O   LIG d   1       4.992   0.141  -5.985  0.00  0.00    -0.550 OA
ATOM     34  O   LIG d   1       4.079  -1.407  -7.271  0.00  0.00    -0.550 OA
ENDBRANCH  29  32
ENDBRANCH  26  29
ENDBRANCH  23  26
ENDBRANCH  20  23
ENDBRANCH   1  20
TORSDOF 8
ENDMDL
MODEL 7
REMARK VINA RESULT:      -5.6      2.912      4.559
REMARK  8 active torsions:
REMARK  status: ('A' for Active; 'I' for Inactive)
REMARK    1  A    between atoms: C_4  and  N_16 
REMARK    2  A    between atoms: C_5  and  C_7 
REMARK    3  A    between atoms: C_7  and  C_8 
REMARK    4  A    between atoms: C_8  and  C_9 
REMARK    5  A    between atoms: C_9  and  C_10 
REMARK    6  A    between atoms: C_10  and  C_11 
REMARK    7  A    between atoms: C_11  and  C_12 
REMARK    8  A    between atoms: C_12  and  C_13 
ROOT
ATOM      1  C   LIG d   1       4.942   0.756  -1.970  0.00  0.00    -0.049 C 
ATOM      2  H   LIG d   1       5.020  -0.333  -1.840  0.00  0.00     0.027 H 
ATOM      3  H   LIG d   1       5.166   1.256  -1.016  0.00  0.00     0.027 H 
ENDROOT
BRANCH   1   4
ATOM      4  C   LIG d   1       5.942   1.215  -3.033  0.00  0.00    -0.026 C 
ATOM      5  H   LIG d   1       6.716   1.840  -2.563  0.00  0.00     0.031 H 
ATOM      6  H   LIG d   1       5.417   1.800  -3.802  0.00  0.00     0.031 H 
BRANCH   4   7
ATOM      7  C   LIG d   1       6.587   0.011  -3.671  0.00  0.00    -0.027 A 
ATOM      8  C   LIG d   1       7.231   0.135  -4.895  0.00  0.00     0.028 A 
ATOM      9  C   LIG d   1       7.824  -0.978  -5.478  0.00  0.00    -0.041 A 
ATOM     10  C   LIG d   1       7.772  -2.201  -4.840  0.00  0.00    -0.060 A 
ATOM     11  H   LIG d   1       8.325  -0.886  -6.431  0.00  0.00     0.064 H 
ATOM     12  C   LIG d   1       7.130  -2.320  -3.621  0.00  0.00    -0.061 A 
ATOM     13  H   LIG d   1       8.234  -3.067  -5.293  0.00  0.00     0.062 H 
ATOM     14  C   LIG d   1       6.544  -1.214  -3.035  0.00  0.00    -0.057 A 
ATOM     15  H   LIG d   1       7.092  -3.277  -3.123  0.00  0.00     0.062 H 
ATOM     16  H   LIG d   1       6.046  -1.309  -2.080  0.00  0.00     0.062 H 
BRANCH   8  17
ATOM     17  N   LIG d   1       7.281   1.373  -5.538  0.00  0.00    -0.358 N 
ATOM     18  H   LIG d   1       8.003   1.542  -6.350  0.00  0.00     0.142 HD
ATOM     19  H   LIG d   1       6.599   2.180  -5.232  0.00  0.00     0.142 HD
ENDBRANCH   8  17
ENDBRANCH   4   7
ENDBRANCH   1   4
BRANCH   1  20
ATOM     20  C   LIG d   1       3.523   1.117  -2.414  0.00  0.00    -0.053 C 
ATOM     21  H   LIG d   1       2.945   1.465  -1.546  0.00  0.00     0.026 H 
ATOM     22  H   LIG d   1       3.567   1.915  -3.170  0.00  0.00     0.026 H 
BRANCH  20  23
ATOM     23  C   LIG d   1       2.848  -0.117  -3.015  0.00  0.00    -0.053 C 
ATOM     24  H   LIG d   1       3.515  -0.986  -2.915  0.00  0.00     0.026 H 
ATOM     25  H   LIG d   1       1.906  -0.316  -2.482  0.00  0.00     0.026 H 
BRANCH  23  26
ATOM     26  C   LIG d   1       2.554   0.132  -4.496  0.00  0.00    -0.048 C 
ATOM     27  H   LIG d   1       1.565  -0.278  -4.747  0.00  0.00     0.027 H 
ATOM     28  H   LIG d   1       2.566   1.214  -4.695  0.00  0.00     0.027 H 
BRANCH  26  29
ATOM     29  C   LIG d   1       3.623  -0.554  -5.350  0.00  0.00    -0.013 C 
ATOM     30  H   LIG d   1       4.615  -0.377  -4.908  0.00  0.00     0.033 H 
ATOM     31  H   LIG d   1       3.426  -1.636  -5.385  0.00  0.00     0.033 H 
BRANCH  29  32
ATOM     32  C   LIG d   1       3.586   0.009  -6.748  0.00  0.00     0.042 C 
ATOM     33  O   LIG d   1       2.571  -0.057  -7.399  0.00  0.00    -0.550 OA
ATOM     34  O   LIG d   1       4.682   0.582  -7.269  0.00  0.00    -0.550 OA
ENDBRANCH  29  32
ENDBRANCH  26  29
ENDBRANCH  23  26
ENDBRANCH  20  23
ENDBRANCH   1  20
TORSDOF 8
ENDMDL
MODEL 8
REMARK VINA RESULT:      -5.5      2.652      3.489
REMARK  8 active torsions:
REMARK  status: ('A' for Active; 'I' for Inactive)
REMARK    1  A    between atoms: C_4  and  N_16 
REMARK    2  A    between atoms: C_5  and  C_7 
REMARK    3  A    between atoms: C_7  and  C_8 
REMARK    4  A    between atoms: C_8  and  C_9 
REMARK    5  A    between atoms: C_9  and  C_10 
REMARK    6  A    between atoms: C_10  and  C_11 
REMARK    7  A    between atoms: C_11  and  C_12 
REMARK    8  A    between atoms: C_12  and  C_13 
ROOT
ATOM      1  C   LIG d   1       3.318  -0.094  -6.342  0.00  0.00    -0.049 C 
ATOM      2  H   LIG d   1       4.378   0.161  -6.196  0.00  0.00     0.027 H 
ATOM      3  H   LIG d   1       3.217  -1.182  -6.465  0.00  0.00     0.027 H 
ENDROOT
BRANCH   1   4
ATOM      4  C   LIG d   1       2.511   0.359  -5.124  0.00  0.00    -0.026 C 
ATOM      5  H   LIG d   1       1.511  -0.098  -5.157  0.00  0.00     0.031 H 
ATOM      6  H   LIG d   1       2.415   1.455  -5.135  0.00  0.00     0.031 H 
BRANCH   4   7
ATOM      7  C   LIG d   1       3.218  -0.070  -3.864  0.00  0.00    -0.027 A 
ATOM      8  C   LIG d   1       3.792   0.880  -3.031  0.00  0.00     0.028 A 
ATOM      9  C   LIG d   1       4.443   0.480  -1.871  0.00  0.00    -0.041 A 
ATOM     10  C   LIG d   1       4.517  -0.861  -1.550  0.00  0.00    -0.060 A 
ATOM     11  H   LIG d   1       4.891   1.217  -1.220  0.00  0.00     0.064 H 
ATOM     12  C   LIG d   1       3.944  -1.805  -2.382  0.00  0.00    -0.061 A 
ATOM     13  H   LIG d   1       5.022  -1.174  -0.647  0.00  0.00     0.062 H 
ATOM     14  C   LIG d   1       3.291  -1.410  -3.535  0.00  0.00    -0.057 A 
ATOM     15  H   LIG d   1       4.002  -2.853  -2.129  0.00  0.00     0.062 H 
ATOM     16  H   LIG d   1       2.841  -2.149  -4.181  0.00  0.00     0.062 H 
BRANCH   8  17
ATOM     17  N   LIG d   1       3.716   2.236  -3.359  0.00  0.00    -0.358 N 
ATOM     18  H   LIG d   1       3.172   2.554  -4.260  0.00  0.00     0.142 HD
ATOM     19  H   LIG d   1       4.199   2.986  -2.714  0.00  0.00     0.142 HD
ENDBRANCH   8  17
ENDBRANCH   4   7
ENDBRANCH   1   4
BRANCH   1  20
ATOM     20  C   LIG d   1       2.792   0.612  -7.594  0.00  0.00    -0.053 C 
ATOM     21  H   LIG d   1       1.721   0.830  -7.469  0.00  0.00     0.026 H 
ATOM     22  H   LIG d   1       3.343   1.552  -7.745  0.00  0.00     0.026 H 
BRANCH  20  23
ATOM     23  C   LIG d   1       2.988  -0.295  -8.810  0.00  0.00    -0.053 C 
ATOM     24  H   LIG d   1       3.783   0.117  -9.451  0.00  0.00     0.026 H 
ATOM     25  H   LIG d   1       3.274  -1.303  -8.475  0.00  0.00     0.026 H 
BRANCH  23  26
ATOM     26  C   LIG d   1       1.683  -0.373  -9.605  0.00  0.00    -0.048 C 
ATOM     27  H   LIG d   1       0.829  -0.308  -8.914  0.00  0.00     0.027 H 
ATOM     28  H   LIG d   1       1.640   0.461 -10.322  0.00  0.00     0.027 H 
BRANCH  26  29
ATOM     29  C   LIG d   1       1.625  -1.701 -10.364  0.00  0.00    -0.013 C 
ATOM     30  H   LIG d   1       2.557  -2.259 -10.196  0.00  0.00     0.033 H 
ATOM     31  H   LIG d   1       0.773  -2.293 -10.001  0.00  0.00     0.033 H 
BRANCH  29  32
ATOM     32  C   LIG d   1       1.458  -1.430 -11.837  0.00  0.00     0.042 C 
ATOM     33  O   LIG d   1       2.429  -1.250 -12.532  0.00  0.00    -0.550 OA
ATOM     34  O   LIG d   1       0.229  -1.388 -12.376  0.00  0.00    -0.550 OA
ENDBRANCH  29  32
ENDBRANCH  26  29
ENDBRANCH  23  26
ENDBRANCH  20  23
ENDBRANCH   1  20
TORSDOF 8
ENDMDL
MODEL 9
REMARK VINA RESULT:      -5.3      2.935      6.177
REMARK  8 active torsions:
REMARK  status: ('A' for Active; 'I' for Inactive)
REMARK    1  A    between atoms: C_4  and  N_16 
REMARK    2  A    between atoms: C_5  and  C_7 
REMARK    3  A    between atoms: C_7  and  C_8 
REMARK    4  A    between atoms: C_8  and  C_9 
REMARK    5  A    between atoms: C_9  and  C_10 
REMARK    6  A    between atoms: C_10  and  C_11 
REMARK    7  A    between atoms: C_11  and  C_12 
REMARK    8  A    between atoms: C_12  and  C_13 
ROOT
ATOM      1  C   LIG d   1       4.648  -0.678  -5.865  0.00  0.00    -0.049 C 
ATOM      2  H   LIG d   1       5.718  -0.436  -5.947  0.00  0.00     0.027 H 
ATOM      3  H   LIG d   1       4.097   0.211  -5.522  0.00  0.00     0.027 H 
ENDROOT
BRANCH   1   4
ATOM      4  C   LIG d   1       4.117  -1.110  -7.233  0.00  0.00    -0.026 C 
ATOM      5  H   LIG d   1       3.145  -1.610  -7.107  0.00  0.00     0.031 H 
ATOM      6  H   LIG d   1       4.830  -1.806  -7.700  0.00  0.00     0.031 H 
BRANCH   4   7
ATOM      7  C   LIG d   1       3.948   0.101  -8.113  0.00  0.00    -0.027 A 
ATOM      8  C   LIG d   1       4.764   0.273  -9.223  0.00  0.00     0.028 A 
ATOM      9  C   LIG d   1       4.605   1.391 -10.032  0.00  0.00    -0.041 A 
ATOM     10  C   LIG d   1       3.636   2.328  -9.730  0.00  0.00    -0.060 A 
ATOM     11  H   LIG d   1       5.239   1.528 -10.896  0.00  0.00     0.064 H 
ATOM     12  C   LIG d   1       2.825   2.153  -8.624  0.00  0.00    -0.061 A 
ATOM     13  H   LIG d   1       3.511   3.197 -10.358  0.00  0.00     0.062 H 
ATOM     14  C   LIG d   1       2.977   1.039  -7.820  0.00  0.00    -0.057 A 
ATOM     15  H   LIG d   1       2.068   2.887  -8.390  0.00  0.00     0.062 H 
ATOM     16  H   LIG d   1       2.340   0.903  -6.959  0.00  0.00     0.062 H 
BRANCH   8  17
ATOM     17  N   LIG d   1       5.743  -0.676  -9.526  0.00  0.00    -0.358 N 
ATOM     18  H   LIG d   1       5.814  -1.088 -10.543  0.00  0.00     0.142 HD
ATOM     19  H   LIG d   1       6.444  -1.012  -8.746  0.00  0.00     0.142 HD
ENDBRANCH   8  17
ENDBRANCH   4   7
ENDBRANCH   1   4
BRANCH   1  20
ATOM     20  C   LIG d   1       4.458  -1.816  -4.860  0.00  0.00    -0.053 C 
ATOM     21  H   LIG d   1       3.383  -2.017  -4.734  0.00  0.00     0.026 H 
ATOM     22  H   LIG d   1       4.959  -2.721  -5.232  0.00  0.00     0.026 H 
BRANCH  20  23
ATOM     23  C   LIG d   1       5.062  -1.413  -3.514  0.00  0.00    -0.053 C 
ATOM     24  H   LIG d   1       5.831  -2.144  -3.224  0.00  0.00     0.026 H 
ATOM     25  H   LIG d   1       5.518  -0.415  -3.600  0.00  0.00     0.026 H 
BRANCH  23  26
ATOM     26  C   LIG d   1       3.963  -1.381  -2.450  0.00  0.00    -0.048 C 
ATOM     27  H   LIG d   1       3.323  -2.270  -2.558  0.00  0.00     0.027 H 
ATOM     28  H   LIG d   1       4.420  -1.377  -1.450  0.00  0.00     0.027 H 
BRANCH  26  29
ATOM     29  C   LIG d   1       3.117  -0.118  -2.628  0.00  0.00    -0.013 C 
ATOM     30  H   LIG d   1       2.703  -0.094  -3.647  0.00  0.00     0.033 H 
ATOM     31  H   LIG d   1       2.294  -0.123  -1.898  0.00  0.00     0.033 H 
BRANCH  29  32
ATOM     32  C   LIG d   1       3.978   1.098  -2.405  0.00  0.00     0.042 C 
ATOM     33  O   LIG d   1       3.974   1.997  -3.212  0.00  0.00    -0.550 OA
ATOM     34  O   LIG d   1       4.751   1.182  -1.311  0.00  0.00    -0.550 OA
ENDBRANCH  29  32
ENDBRANCH  26  29
ENDBRANCH  23  26
ENDBRANCH  20  23
ENDBRANCH   1  20
TORSDOF 8
ENDMDL
