MODEL 1
REMARK VINA RESULT:      -6.7      0.000      0.000
REMARK  2 active torsions:
REMARK  status: ('A' for Active; 'I' for Inactive)
REMARK    1  A    between atoms: C_8  and  C_14 
REMARK    2  A    between atoms: C_11  and  O_13 
ROOT
ATOM      1  C   LIG d   1       3.574  -0.336  -2.225  0.00  0.00    -0.061 A 
ATOM      2  C   LIG d   1       4.395  -1.447  -2.276  0.00  0.00    -0.061 A 
ATOM      3  C   LIG d   1       4.759  -1.977  -3.498  0.00  0.00    -0.053 A 
ATOM      4  C   LIG d   1       4.303  -1.402  -4.674  0.00  0.00     0.011 A 
ATOM      5  C   LIG d   1       3.486  -0.292  -4.622  0.00  0.00    -0.037 A 
ATOM      6  C   LIG d   1       3.121   0.240  -3.394  0.00  0.00    -0.058 A 
ATOM      7  C   LIG d   1       2.977   0.367  -5.878  0.00  0.00    -0.001 C 
ATOM      8  C   LIG d   1       3.131  -0.589  -7.062  0.00  0.00     0.069 C 
ATOM      9  H   LIG d   1       2.418  -1.408  -6.967  0.00  0.00     0.060 H 
ATOM     10  O   LIG d   1       4.467  -1.106  -7.057  0.00  0.00    -0.344 OA
ATOM     11  C   LIG d   1       4.712  -2.017  -5.987  0.00  0.00     0.183 C 
ATOM     12  H   LIG d   1       4.140  -2.929  -6.151  0.00  0.00     0.096 H 
ATOM     13  H   LIG d   1       3.287   0.081  -1.270  0.00  0.00     0.062 H 
ATOM     14  H   LIG d   1       4.752  -1.899  -1.362  0.00  0.00     0.062 H 
ATOM     15  H   LIG d   1       5.397  -2.848  -3.537  0.00  0.00     0.062 H 
ATOM     16  H   LIG d   1       2.479   1.107  -3.354  0.00  0.00     0.062 H 
ATOM     17  H   LIG d   1       1.925   0.623  -5.753  0.00  0.00     0.034 H 
ATOM     18  H   LIG d   1       3.550   1.275  -6.068  0.00  0.00     0.034 H 
ENDROOT
BRANCH   8  19
ATOM     19  C   LIG d   1       2.876   0.165  -8.369  0.00  0.00    -0.014 C 
ATOM     20  C   LIG d   1       3.678   1.468  -8.371  0.00  0.00    -0.048 C 
ATOM     21  C   LIG d   1       3.424   2.222  -9.677  0.00  0.00    -0.053 C 
ATOM     22  H   LIG d   1       3.369   2.086  -7.527  0.00  0.00     0.027 H 
ATOM     23  H   LIG d   1       4.741   1.241  -8.283  0.00  0.00     0.027 H 
ATOM     24  C   LIG d   1       3.858   1.354 -10.860  0.00  0.00    -0.053 C 
ATOM     25  H   LIG d   1       2.360   2.449  -9.764  0.00  0.00     0.026 H 
ATOM     26  H   LIG d   1       3.994   3.151  -9.679  0.00  0.00     0.026 H 
ATOM     27  C   LIG d   1       3.056   0.051 -10.858  0.00  0.00    -0.053 C 
ATOM     28  H   LIG d   1       3.677   1.891 -11.791  0.00  0.00     0.026 H 
ATOM     29  H   LIG d   1       4.921   1.127 -10.773  0.00  0.00     0.026 H 
ATOM     30  C   LIG d   1       3.311  -0.703  -9.552  0.00  0.00    -0.048 C 
ATOM     31  H   LIG d   1       1.993   0.278 -10.945  0.00  0.00     0.026 H 
ATOM     32  H   LIG d   1       3.365  -0.567 -11.701  0.00  0.00     0.026 H 
ATOM     33  H   LIG d   1       4.374  -0.930  -9.464  0.00  0.00     0.027 H 
ATOM     34  H   LIG d   1       2.740  -1.631  -9.550  0.00  0.00     0.027 H 
ATOM     35  H   LIG d   1       1.814   0.393  -8.456  0.00  0.00     0.033 H 
ENDBRANCH   8  19
BRANCH  11  36
ATOM     36  O   LIG d   1       6.105  -2.335  -5.946  0.00  0.00    -0.363 OA
ATOM     37  H   LIG d   1       6.496  -2.279  -5.064  0.00  0.00     0.213 HD
ENDBRANCH  11  36
TORSDOF 2
ENDMDL
MODEL 2
REMARK VINA RESULT:      -6.6      4.418      5.556
REMARK  2 active torsions:
REMARK  status: ('A' for Active; 'I' for Inactive)
REMARK    1  A    between atoms: C_8  and  C_14 
REMARK    2  A    between atoms: C_11  and  O_13 
ROOT
ATOM      1  C   LIG d   1       4.588  -2.984  -3.706  0.00  0.00    -0.061 A 
ATOM      2  C   LIG d   1       3.826  -2.535  -2.645  0.00  0.00    -0.061 A 
ATOM      3  C   LIG d   1       4.004  -1.252  -2.164  0.00  0.00    -0.053 A 
ATOM      4  C   LIG d   1       4.945  -0.414  -2.740  0.00  0.00     0.011 A 
ATOM      5  C   LIG d   1       5.704  -0.862  -3.802  0.00  0.00    -0.037 A 
ATOM      6  C   LIG d   1       5.525  -2.150  -4.283  0.00  0.00    -0.058 A 
ATOM      7  C   LIG d   1       6.732   0.022  -4.460  0.00  0.00    -0.001 C 
ATOM      8  C   LIG d   1       7.065   1.199  -3.542  0.00  0.00     0.069 C 
ATOM      9  H   LIG d   1       7.634   0.844  -2.683  0.00  0.00     0.060 H 
ATOM     10  O   LIG d   1       5.838   1.792  -3.101  0.00  0.00    -0.344 OA
ATOM     11  C   LIG d   1       5.118   0.974  -2.180  0.00  0.00     0.183 C 
ATOM     12  H   LIG d   1       5.668   0.918  -1.241  0.00  0.00     0.096 H 
ATOM     13  H   LIG d   1       4.452  -3.987  -4.084  0.00  0.00     0.062 H 
ATOM     14  H   LIG d   1       3.091  -3.185  -2.192  0.00  0.00     0.062 H 
ATOM     15  H   LIG d   1       3.410  -0.903  -1.332  0.00  0.00     0.062 H 
ATOM     16  H   LIG d   1       6.121  -2.502  -5.112  0.00  0.00     0.062 H 
ATOM     17  H   LIG d   1       7.636  -0.555  -4.654  0.00  0.00     0.034 H 
ATOM     18  H   LIG d   1       6.334   0.398  -5.403  0.00  0.00     0.034 H 
ENDROOT
BRANCH   8  19
ATOM     19  C   LIG d   1       7.889   2.234  -4.311  0.00  0.00    -0.014 C 
ATOM     20  C   LIG d   1       9.173   2.539  -3.539  0.00  0.00    -0.048 C 
ATOM     21  C   LIG d   1       9.997   3.574  -4.307  0.00  0.00    -0.053 C 
ATOM     22  H   LIG d   1       8.920   2.935  -2.554  0.00  0.00     0.027 H 
ATOM     23  H   LIG d   1       9.755   1.624  -3.423  0.00  0.00     0.027 H 
ATOM     24  C   LIG d   1      10.353   3.019  -5.688  0.00  0.00    -0.053 C 
ATOM     25  H   LIG d   1       9.416   4.489  -4.422  0.00  0.00     0.026 H 
ATOM     26  H   LIG d   1      10.913   3.792  -3.757  0.00  0.00     0.026 H 
ATOM     27  C   LIG d   1       9.068   2.713  -6.461  0.00  0.00    -0.053 C 
ATOM     28  H   LIG d   1      10.940   3.756  -6.236  0.00  0.00     0.026 H 
ATOM     29  H   LIG d   1      10.934   2.103  -5.573  0.00  0.00     0.026 H 
ATOM     30  C   LIG d   1       8.244   1.678  -5.692  0.00  0.00    -0.048 C 
ATOM     31  H   LIG d   1       8.487   3.628  -6.576  0.00  0.00     0.026 H 
ATOM     32  H   LIG d   1       9.322   2.318  -7.445  0.00  0.00     0.026 H 
ATOM     33  H   LIG d   1       8.826   0.764  -5.577  0.00  0.00     0.027 H 
ATOM     34  H   LIG d   1       7.329   1.461  -6.242  0.00  0.00     0.027 H 
ATOM     35  H   LIG d   1       7.308   3.149  -4.426  0.00  0.00     0.033 H 
ENDBRANCH   8  19
BRANCH  11  36
ATOM     36  O   LIG d   1       3.833   1.550  -1.940  0.00  0.00    -0.363 OA
ATOM     37  H   LIG d   1       3.094   0.955  -2.126  0.00  0.00     0.213 HD
ENDBRANCH  11  36
TORSDOF 2
ENDMDL
MODEL 3
REMARK VINA RESULT:      -6.6      2.091      5.850
REMARK  2 active torsions:
REMARK  status: ('A' for Active; 'I' for Inactive)
REMARK    1  A    between atoms: C_8  and  C_14 
REMARK    2  A    between atoms: C_11  and  O_13 
ROOT
ATOM      1  C   LIG d   1       3.429  -1.801  -9.896  0.00  0.00    -0.061 A 
ATOM      2  C   LIG d   1       3.273  -3.172  -9.952  0.00  0.00    -0.061 A 
ATOM      3  C   LIG d   1       3.533  -3.941  -8.834  0.00  0.00    -0.053 A 
ATOM      4  C   LIG d   1       3.952  -3.342  -7.656  0.00  0.00     0.011 A 
ATOM      5  C   LIG d   1       4.105  -1.972  -7.600  0.00  0.00    -0.037 A 
ATOM      6  C   LIG d   1       3.845  -1.202  -8.724  0.00  0.00    -0.058 A 
ATOM      7  C   LIG d   1       4.552  -1.284  -6.336  0.00  0.00    -0.001 C 
ATOM      8  C   LIG d   1       5.178  -2.304  -5.385  0.00  0.00     0.069 C 
ATOM      9  H   LIG d   1       6.141  -2.631  -5.781  0.00  0.00     0.060 H 
ATOM     10  O   LIG d   1       4.294  -3.425  -5.275  0.00  0.00    -0.344 OA
ATOM     11  C   LIG d   1       4.237  -4.215  -6.462  0.00  0.00     0.183 C 
ATOM     12  H   LIG d   1       5.191  -4.721  -6.604  0.00  0.00     0.096 H 
ATOM     13  H   LIG d   1       3.227  -1.197 -10.769  0.00  0.00     0.062 H 
ATOM     14  H   LIG d   1       2.946  -3.644 -10.867  0.00  0.00     0.062 H 
ATOM     15  H   LIG d   1       3.414  -5.013  -8.879  0.00  0.00     0.062 H 
ATOM     16  H   LIG d   1       3.968  -0.130  -8.680  0.00  0.00     0.062 H 
ATOM     17  H   LIG d   1       5.286  -0.517  -6.581  0.00  0.00     0.034 H 
ATOM     18  H   LIG d   1       3.691  -0.820  -5.854  0.00  0.00     0.034 H 
ENDROOT
BRANCH   8  19
ATOM     19  C   LIG d   1       5.378  -1.669  -4.008  0.00  0.00    -0.014 C 
ATOM     20  C   LIG d   1       5.461  -0.149  -4.154  0.00  0.00    -0.048 C 
ATOM     21  C   LIG d   1       5.661   0.486  -2.777  0.00  0.00    -0.053 C 
ATOM     22  H   LIG d   1       6.302   0.109  -4.799  0.00  0.00     0.027 H 
ATOM     23  H   LIG d   1       4.538   0.225  -4.596  0.00  0.00     0.027 H 
ATOM     24  C   LIG d   1       4.482   0.125  -1.873  0.00  0.00    -0.053 C 
ATOM     25  H   LIG d   1       6.586   0.113  -2.335  0.00  0.00     0.026 H 
ATOM     26  H   LIG d   1       5.721   1.570  -2.881  0.00  0.00     0.026 H 
ATOM     27  C   LIG d   1       4.398  -1.396  -1.726  0.00  0.00    -0.053 C 
ATOM     28  H   LIG d   1       4.623   0.577  -0.891  0.00  0.00     0.026 H 
ATOM     29  H   LIG d   1       3.557   0.498  -2.314  0.00  0.00     0.026 H 
ATOM     30  C   LIG d   1       4.198  -2.031  -3.103  0.00  0.00    -0.048 C 
ATOM     31  H   LIG d   1       5.322  -1.769  -1.284  0.00  0.00     0.026 H 
ATOM     32  H   LIG d   1       3.558  -1.653  -1.081  0.00  0.00     0.026 H 
ATOM     33  H   LIG d   1       3.275  -1.657  -3.545  0.00  0.00     0.027 H 
ATOM     34  H   LIG d   1       4.139  -3.114  -2.999  0.00  0.00     0.027 H 
ATOM     35  H   LIG d   1       6.302  -2.042  -3.566  0.00  0.00     0.033 H 
ENDBRANCH   8  19
BRANCH  11  36
ATOM     36  O   LIG d   1       3.202  -5.191  -6.332  0.00  0.00    -0.363 OA
ATOM     37  H   LIG d   1       2.531  -4.968  -5.672  0.00  0.00     0.213 HD
ENDBRANCH  11  36
TORSDOF 2
ENDMDL
MODEL 4
REMARK VINA RESULT:      -6.6      4.452      6.714
REMARK  2 active torsions:
REMARK  status: ('A' for Active; 'I' for Inactive)
REMARK    1  A    between atoms: C_8  and  C_14 
REMARK    2  A    between atoms: C_11  and  O_13 
ROOT
ATOM      1  C   LIG d   1      10.103   4.236  -5.724  0.00  0.00    -0.061 A 
ATOM      2  C   LIG d   1       9.920   3.806  -7.025  0.00  0.00    -0.061 A 
ATOM      3  C   LIG d   1       9.077   2.743  -7.285  0.00  0.00    -0.053 A 
ATOM      4  C   LIG d   1       8.415   2.105  -6.248  0.00  0.00     0.011 A 
ATOM      5  C   LIG d   1       8.595   2.537  -4.951  0.00  0.00    -0.037 A 
ATOM      6  C   LIG d   1       9.443   3.604  -4.690  0.00  0.00    -0.058 A 
ATOM      7  C   LIG d   1       7.887   1.875  -3.797  0.00  0.00    -0.001 C 
ATOM      8  C   LIG d   1       7.364   0.504  -4.230  0.00  0.00     0.069 C 
ATOM      9  H   LIG d   1       8.201  -0.181  -4.366  0.00  0.00     0.060 H 
ATOM     10  O   LIG d   1       6.657   0.658  -5.466  0.00  0.00    -0.344 OA
ATOM     11  C   LIG d   1       7.513   0.942  -6.571  0.00  0.00     0.183 C 
ATOM     12  H   LIG d   1       8.121   0.065  -6.791  0.00  0.00     0.096 H 
ATOM     13  H   LIG d   1      10.762   5.067  -5.517  0.00  0.00     0.062 H 
ATOM     14  H   LIG d   1      10.433   4.300  -7.836  0.00  0.00     0.062 H 
ATOM     15  H   LIG d   1       8.937   2.404  -8.301  0.00  0.00     0.062 H 
ATOM     16  H   LIG d   1       9.587   3.940  -3.674  0.00  0.00     0.062 H 
ATOM     17  H   LIG d   1       8.583   1.752  -2.967  0.00  0.00     0.034 H 
ATOM     18  H   LIG d   1       7.052   2.498  -3.479  0.00  0.00     0.034 H 
ENDROOT
BRANCH   8  19
ATOM     19  C   LIG d   1       6.418  -0.046  -3.161  0.00  0.00    -0.014 C 
ATOM     20  C   LIG d   1       5.397   1.027  -2.782  0.00  0.00    -0.048 C 
ATOM     21  C   LIG d   1       4.451   0.477  -1.713  0.00  0.00    -0.053 C 
ATOM     22  H   LIG d   1       5.918   1.902  -2.391  0.00  0.00     0.027 H 
ATOM     23  H   LIG d   1       4.823   1.312  -3.664  0.00  0.00     0.027 H 
ATOM     24  C   LIG d   1       3.720  -0.750  -2.261  0.00  0.00    -0.053 C 
ATOM     25  H   LIG d   1       5.025   0.194  -0.830  0.00  0.00     0.026 H 
ATOM     26  H   LIG d   1       3.723   1.242  -1.442  0.00  0.00     0.026 H 
ATOM     27  C   LIG d   1       4.741  -1.824  -2.641  0.00  0.00    -0.053 C 
ATOM     28  H   LIG d   1       3.046  -1.143  -1.500  0.00  0.00     0.026 H 
ATOM     29  H   LIG d   1       3.146  -0.467  -3.144  0.00  0.00     0.026 H 
ATOM     30  C   LIG d   1       5.687  -1.274  -3.710  0.00  0.00    -0.048 C 
ATOM     31  H   LIG d   1       5.316  -2.108  -1.759  0.00  0.00     0.026 H 
ATOM     32  H   LIG d   1       4.221  -2.698  -3.031  0.00  0.00     0.026 H 
ATOM     33  H   LIG d   1       5.113  -0.990  -4.592  0.00  0.00     0.027 H 
ATOM     34  H   LIG d   1       6.415  -2.038  -3.981  0.00  0.00     0.027 H 
ATOM     35  H   LIG d   1       6.992  -0.330  -2.279  0.00  0.00     0.033 H 
ENDBRANCH   8  19
BRANCH  11  36
ATOM     36  O   LIG d   1       6.719   1.263  -7.715  0.00  0.00    -0.363 OA
ATOM     37  H   LIG d   1       6.147   2.034  -7.593  0.00  0.00     0.213 HD
ENDBRANCH  11  36
TORSDOF 2
ENDMDL
MODEL 5
REMARK VINA RESULT:      -6.5      2.004      6.121
REMARK  2 active torsions:
REMARK  status: ('A' for Active; 'I' for Inactive)
REMARK    1  A    between atoms: C_8  and  C_14 
REMARK    2  A    between atoms: C_11  and  O_13 
ROOT
ATOM      1  C   LIG d   1       6.826  -0.087  -9.497  0.00  0.00    -0.061 A 
ATOM      2  C   LIG d   1       5.874   0.619 -10.207  0.00  0.00    -0.061 A 
ATOM      3  C   LIG d   1       4.678   0.959  -9.605  0.00  0.00    -0.053 A 
ATOM      4  C   LIG d   1       4.428   0.594  -8.291  0.00  0.00     0.011 A 
ATOM      5  C   LIG d   1       5.380  -0.108  -7.582  0.00  0.00    -0.037 A 
ATOM      6  C   LIG d   1       6.580  -0.450  -8.188  0.00  0.00    -0.058 A 
ATOM      7  C   LIG d   1       5.149  -0.516  -6.150  0.00  0.00    -0.001 C 
ATOM      8  C   LIG d   1       3.657  -0.428  -5.821  0.00  0.00     0.069 C 
ATOM      9  H   LIG d   1       3.121  -1.222  -6.341  0.00  0.00     0.060 H 
ATOM     10  O   LIG d   1       3.172   0.848  -6.253  0.00  0.00    -0.344 OA
ATOM     11  C   LIG d   1       3.108   0.973  -7.673  0.00  0.00     0.183 C 
ATOM     12  H   LIG d   1       2.328   0.317  -8.058  0.00  0.00     0.096 H 
ATOM     13  H   LIG d   1       7.761  -0.356  -9.966  0.00  0.00     0.062 H 
ATOM     14  H   LIG d   1       6.064   0.906 -11.231  0.00  0.00     0.062 H 
ATOM     15  H   LIG d   1       3.933   1.508 -10.162  0.00  0.00     0.062 H 
ATOM     16  H   LIG d   1       7.323  -1.003  -7.634  0.00  0.00     0.062 H 
ATOM     17  H   LIG d   1       5.493  -1.540  -6.004  0.00  0.00     0.034 H 
ATOM     18  H   LIG d   1       5.706   0.149  -5.490  0.00  0.00     0.034 H 
ENDROOT
BRANCH   8  19
ATOM     19  C   LIG d   1       3.454  -0.572  -4.312  0.00  0.00    -0.014 C 
ATOM     20  C   LIG d   1       4.069  -1.890  -3.838  0.00  0.00    -0.048 C 
ATOM     21  C   LIG d   1       3.865  -2.034  -2.329  0.00  0.00    -0.053 C 
ATOM     22  H   LIG d   1       3.585  -2.722  -4.351  0.00  0.00     0.027 H 
ATOM     23  H   LIG d   1       5.135  -1.896  -4.063  0.00  0.00     0.027 H 
ATOM     24  C   LIG d   1       4.542  -0.867  -1.609  0.00  0.00    -0.053 C 
ATOM     25  H   LIG d   1       2.798  -2.030  -2.104  0.00  0.00     0.026 H 
ATOM     26  H   LIG d   1       4.302  -2.974  -1.990  0.00  0.00     0.026 H 
ATOM     27  C   LIG d   1       3.928   0.451  -2.083  0.00  0.00    -0.053 C 
ATOM     28  H   LIG d   1       4.398  -0.970  -0.533  0.00  0.00     0.026 H 
ATOM     29  H   LIG d   1       5.610  -0.872  -1.833  0.00  0.00     0.026 H 
ATOM     30  C   LIG d   1       4.132   0.596  -3.592  0.00  0.00    -0.048 C 
ATOM     31  H   LIG d   1       2.861   0.456  -1.858  0.00  0.00     0.026 H 
ATOM     32  H   LIG d   1       4.410   1.283  -1.569  0.00  0.00     0.026 H 
ATOM     33  H   LIG d   1       5.198   0.590  -3.817  0.00  0.00     0.027 H 
ATOM     34  H   LIG d   1       3.694   1.534  -3.930  0.00  0.00     0.027 H 
ATOM     35  H   LIG d   1       2.387  -0.568  -4.087  0.00  0.00     0.033 H 
ENDBRANCH   8  19
BRANCH  11  36
ATOM     36  O   LIG d   1       2.797   2.326  -8.015  0.00  0.00    -0.363 OA
ATOM     37  H   LIG d   1       2.147   2.740  -7.431  0.00  0.00     0.213 HD
ENDBRANCH  11  36
TORSDOF 2
ENDMDL
MODEL 6
REMARK VINA RESULT:      -6.4      4.272      6.154
REMARK  2 active torsions:
REMARK  status: ('A' for Active; 'I' for Inactive)
REMARK    1  A    between atoms: C_8  and  C_14 
REMARK    2  A    between atoms: C_11  and  O_13 
ROOT
ATOM      1  C   LIG d   1       8.224  -6.075  -5.860  0.00  0.00    -0.061 A 
ATOM      2  C   LIG d   1       7.155  -6.905  -6.138  0.00  0.00    -0.061 A 
ATOM      3  C   LIG d   1       5.865  -6.463  -5.917  0.00  0.00    -0.053 A 
ATOM      4  C   LIG d   1       5.639  -5.191  -5.415  0.00  0.00     0.011 A 
ATOM      5  C   LIG d   1       6.706  -4.362  -5.140  0.00  0.00    -0.037 A 
ATOM      6  C   LIG d   1       8.001  -4.807  -5.362  0.00  0.00    -0.058 A 
ATOM      7  C   LIG d   1       6.500  -2.969  -4.601  0.00  0.00    -0.001 C 
ATOM      8  C   LIG d   1       5.083  -2.836  -4.041  0.00  0.00     0.069 C 
ATOM      9  H   LIG d   1       4.997  -3.417  -3.122  0.00  0.00     0.060 H 
ATOM     10  O   LIG d   1       4.161  -3.332  -5.017  0.00  0.00    -0.344 OA
ATOM     11  C   LIG d   1       4.218  -4.749  -5.175  0.00  0.00     0.183 C 
ATOM     12  H   LIG d   1       3.839  -5.228  -4.273  0.00  0.00     0.096 H 
ATOM     13  H   LIG d   1       9.234  -6.418  -6.032  0.00  0.00     0.062 H 
ATOM     14  H   LIG d   1       7.326  -7.897  -6.529  0.00  0.00     0.062 H 
ATOM     15  H   LIG d   1       5.030  -7.113  -6.130  0.00  0.00     0.062 H 
ATOM     16  H   LIG d   1       8.836  -4.159  -5.144  0.00  0.00     0.062 H 
ATOM     17  H   LIG d   1       7.224  -2.776  -3.809  0.00  0.00     0.034 H 
ATOM     18  H   LIG d   1       6.643  -2.246  -5.404  0.00  0.00     0.034 H 
ENDROOT
BRANCH   8  19
ATOM     19  C   LIG d   1       4.782  -1.365  -3.749  0.00  0.00    -0.014 C 
ATOM     20  C   LIG d   1       3.691  -1.270  -2.680  0.00  0.00    -0.048 C 
ATOM     21  C   LIG d   1       3.390   0.201  -2.388  0.00  0.00    -0.053 C 
ATOM     22  H   LIG d   1       2.787  -1.762  -3.040  0.00  0.00     0.027 H 
ATOM     23  H   LIG d   1       4.032  -1.760  -1.768  0.00  0.00     0.027 H 
ATOM     24  C   LIG d   1       4.658   0.891  -1.885  0.00  0.00    -0.053 C 
ATOM     25  H   LIG d   1       3.048   0.690  -3.301  0.00  0.00     0.026 H 
ATOM     26  H   LIG d   1       2.612   0.269  -1.628  0.00  0.00     0.026 H 
ATOM     27  C   LIG d   1       5.750   0.796  -2.952  0.00  0.00    -0.053 C 
ATOM     28  H   LIG d   1       4.444   1.940  -1.676  0.00  0.00     0.026 H 
ATOM     29  H   LIG d   1       5.000   0.402  -0.972  0.00  0.00     0.026 H 
ATOM     30  C   LIG d   1       6.051  -0.675  -3.244  0.00  0.00    -0.048 C 
ATOM     31  H   LIG d   1       5.408   1.286  -3.865  0.00  0.00     0.026 H 
ATOM     32  H   LIG d   1       6.653   1.289  -2.593  0.00  0.00     0.026 H 
ATOM     33  H   LIG d   1       6.392  -1.164  -2.332  0.00  0.00     0.027 H 
ATOM     34  H   LIG d   1       6.828  -0.743  -4.006  0.00  0.00     0.027 H 
ATOM     35  H   LIG d   1       4.440  -0.876  -4.661  0.00  0.00     0.033 H 
ENDBRANCH   8  19
BRANCH  11  36
ATOM     36  O   LIG d   1       3.409  -5.134  -6.288  0.00  0.00    -0.363 OA
ATOM     37  H   LIG d   1       3.072  -4.391  -6.806  0.00  0.00     0.213 HD
ENDBRANCH  11  36
TORSDOF 2
ENDMDL
MODEL 7
REMARK VINA RESULT:      -6.2      2.804      5.266
REMARK  2 active torsions:
REMARK  status: ('A' for Active; 'I' for Inactive)
REMARK    1  A    between atoms: C_8  and  C_14 
REMARK    2  A    between atoms: C_11  and  O_13 
ROOT
ATOM      1  C   LIG d   1       4.299   0.169  -1.599  0.00  0.00    -0.061 A 
ATOM      2  C   LIG d   1       3.752   1.080  -2.482  0.00  0.00    -0.061 A 
ATOM      3  C   LIG d   1       3.688   0.781  -3.829  0.00  0.00    -0.053 A 
ATOM      4  C   LIG d   1       4.173  -0.429  -4.300  0.00  0.00     0.011 A 
ATOM      5  C   LIG d   1       4.716  -1.340  -3.418  0.00  0.00    -0.037 A 
ATOM      6  C   LIG d   1       4.781  -1.038  -2.066  0.00  0.00    -0.058 A 
ATOM      7  C   LIG d   1       5.247  -2.669  -3.890  0.00  0.00    -0.001 C 
ATOM      8  C   LIG d   1       5.471  -2.629  -5.403  0.00  0.00     0.069 C 
ATOM      9  H   LIG d   1       6.323  -1.986  -5.629  0.00  0.00     0.060 H 
ATOM     10  O   LIG d   1       4.291  -2.106  -6.023  0.00  0.00    -0.344 OA
ATOM     11  C   LIG d   1       4.096  -0.714  -5.777  0.00  0.00     0.183 C 
ATOM     12  H   LIG d   1       4.868  -0.145  -6.295  0.00  0.00     0.096 H 
ATOM     13  H   LIG d   1       4.351   0.401  -0.545  0.00  0.00     0.062 H 
ATOM     14  H   LIG d   1       3.373   2.025  -2.120  0.00  0.00     0.062 H 
ATOM     15  H   LIG d   1       3.263   1.495  -4.519  0.00  0.00     0.062 H 
ATOM     16  H   LIG d   1       5.210  -1.749  -1.376  0.00  0.00     0.062 H 
ATOM     17  H   LIG d   1       6.190  -2.882  -3.389  0.00  0.00     0.034 H 
ATOM     18  H   LIG d   1       4.526  -3.451  -3.651  0.00  0.00     0.034 H 
ENDROOT
BRANCH   8  19
ATOM     19  C   LIG d   1       5.742  -4.042  -5.921  0.00  0.00    -0.014 C 
ATOM     20  C   LIG d   1       7.064  -4.552  -5.344  0.00  0.00    -0.048 C 
ATOM     21  C   LIG d   1       7.335  -5.966  -5.862  0.00  0.00    -0.053 C 
ATOM     22  H   LIG d   1       7.874  -3.890  -5.652  0.00  0.00     0.027 H 
ATOM     23  H   LIG d   1       7.004  -4.569  -4.256  0.00  0.00     0.027 H 
ATOM     24  C   LIG d   1       6.198  -6.894  -5.430  0.00  0.00    -0.053 C 
ATOM     25  H   LIG d   1       7.396  -5.949  -6.951  0.00  0.00     0.026 H 
ATOM     26  H   LIG d   1       8.277  -6.330  -5.452  0.00  0.00     0.026 H 
ATOM     27  C   LIG d   1       4.876  -6.384  -6.006  0.00  0.00    -0.053 C 
ATOM     28  H   LIG d   1       6.391  -7.902  -5.799  0.00  0.00     0.026 H 
ATOM     29  H   LIG d   1       6.137  -6.911  -4.341  0.00  0.00     0.026 H 
ATOM     30  C   LIG d   1       4.605  -4.971  -5.488  0.00  0.00    -0.048 C 
ATOM     31  H   LIG d   1       4.937  -6.367  -7.095  0.00  0.00     0.026 H 
ATOM     32  H   LIG d   1       4.066  -7.046  -5.699  0.00  0.00     0.026 H 
ATOM     33  H   LIG d   1       4.545  -4.988  -4.400  0.00  0.00     0.027 H 
ATOM     34  H   LIG d   1       3.664  -4.607  -5.899  0.00  0.00     0.027 H 
ATOM     35  H   LIG d   1       5.803  -4.025  -7.009  0.00  0.00     0.033 H 
ENDBRANCH   8  19
BRANCH  11  36
ATOM     36  O   LIG d   1       2.813  -0.322  -6.268  0.00  0.00    -0.363 OA
ATOM     37  H   LIG d   1       2.584   0.598  -6.080  0.00  0.00     0.213 HD
ENDBRANCH  11  36
TORSDOF 2
ENDMDL
MODEL 8
REMARK VINA RESULT:      -6.2      1.573      6.066
REMARK  2 active torsions:
REMARK  status: ('A' for Active; 'I' for Inactive)
REMARK    1  A    between atoms: C_8  and  C_14 
REMARK    2  A    between atoms: C_11  and  O_13 
ROOT
ATOM      1  C   LIG d   1       2.876  -2.266 -10.448  0.00  0.00    -0.061 A 
ATOM      2  C   LIG d   1       2.398  -1.065 -10.937  0.00  0.00    -0.061 A 
ATOM      3  C   LIG d   1       2.381   0.051 -10.123  0.00  0.00    -0.053 A 
ATOM      4  C   LIG d   1       2.839  -0.029  -8.817  0.00  0.00     0.011 A 
ATOM      5  C   LIG d   1       3.318  -1.227  -8.331  0.00  0.00    -0.037 A 
ATOM      6  C   LIG d   1       3.334  -2.347  -9.149  0.00  0.00    -0.058 A 
ATOM      7  C   LIG d   1       3.833  -1.352  -6.920  0.00  0.00    -0.001 C 
ATOM      8  C   LIG d   1       3.345  -0.166  -6.085  0.00  0.00     0.069 C 
ATOM      9  H   LIG d   1       2.273  -0.257  -5.912  0.00  0.00     0.060 H 
ATOM     10  O   LIG d   1       3.620   1.040  -6.807  0.00  0.00    -0.344 OA
ATOM     11  C   LIG d   1       2.793   1.207  -7.957  0.00  0.00     0.183 C 
ATOM     12  H   LIG d   1       1.766   1.388  -7.640  0.00  0.00     0.096 H 
ATOM     13  H   LIG d   1       2.889  -3.141 -11.082  0.00  0.00     0.062 H 
ATOM     14  H   LIG d   1       2.039  -0.998 -11.954  0.00  0.00     0.062 H 
ATOM     15  H   LIG d   1       2.003   0.988 -10.504  0.00  0.00     0.062 H 
ATOM     16  H   LIG d   1       3.707  -3.286  -8.767  0.00  0.00     0.062 H 
ATOM     17  H   LIG d   1       3.466  -2.280  -6.481  0.00  0.00     0.034 H 
ATOM     18  H   LIG d   1       4.923  -1.364  -6.932  0.00  0.00     0.034 H 
ENDROOT
BRANCH   8  19
ATOM     19  C   LIG d   1       4.082  -0.144  -4.745  0.00  0.00    -0.014 C 
ATOM     20  C   LIG d   1       3.170   0.453  -3.672  0.00  0.00    -0.048 C 
ATOM     21  C   LIG d   1       3.907   0.475  -2.331  0.00  0.00    -0.053 C 
ATOM     22  H   LIG d   1       2.895   1.470  -3.953  0.00  0.00     0.027 H 
ATOM     23  H   LIG d   1       2.269  -0.155  -3.581  0.00  0.00     0.027 H 
ATOM     24  C   LIG d   1       4.293  -0.951  -1.937  0.00  0.00    -0.053 C 
ATOM     25  H   LIG d   1       4.808   1.084  -2.422  0.00  0.00     0.026 H 
ATOM     26  H   LIG d   1       3.258   0.901  -1.566  0.00  0.00     0.026 H 
ATOM     27  C   LIG d   1       5.205  -1.548  -3.010  0.00  0.00    -0.053 C 
ATOM     28  H   LIG d   1       4.818  -0.935  -0.982  0.00  0.00     0.026 H 
ATOM     29  H   LIG d   1       3.392  -1.559  -1.846  0.00  0.00     0.026 H 
ATOM     30  C   LIG d   1       4.468  -1.571  -4.351  0.00  0.00    -0.048 C 
ATOM     31  H   LIG d   1       6.106  -0.940  -3.101  0.00  0.00     0.026 H 
ATOM     32  H   LIG d   1       5.480  -2.564  -2.729  0.00  0.00     0.026 H 
ATOM     33  H   LIG d   1       3.568  -2.178  -4.260  0.00  0.00     0.027 H 
ATOM     34  H   LIG d   1       5.118  -1.996  -5.116  0.00  0.00     0.027 H 
ATOM     35  H   LIG d   1       4.982   0.464  -4.835  0.00  0.00     0.033 H 
ENDBRANCH   8  19
BRANCH  11  36
ATOM     36  O   LIG d   1       3.256   2.327  -8.714  0.00  0.00    -0.363 OA
ATOM     37  H   LIG d   1       4.114   2.669  -8.427  0.00  0.00     0.213 HD
ENDBRANCH  11  36
TORSDOF 2
ENDMDL
MODEL 9
REMARK VINA RESULT:      -6.1      1.585      2.295
REMARK  2 active torsions:
REMARK  status: ('A' for Active; 'I' for Inactive)
REMARK    1  A    between atoms: C_8  and  C_14 
REMARK    2  A    between atoms: C_11  and  O_13 
ROOT
ATOM      1  C   LIG d   1       5.983  -1.857  -3.615  0.00  0.00    -0.061 A 
ATOM      2  C   LIG d   1       5.004  -1.560  -2.686  0.00  0.00    -0.061 A 
ATOM      3  C   LIG d   1       3.852  -0.910  -3.085  0.00  0.00    -0.053 A 
ATOM      4  C   LIG d   1       3.676  -0.551  -4.412  0.00  0.00     0.011 A 
ATOM      5  C   LIG d   1       4.652  -0.850  -5.339  0.00  0.00    -0.037 A 
ATOM      6  C   LIG d   1       5.808  -1.502  -4.937  0.00  0.00    -0.058 A 
ATOM      7  C   LIG d   1       4.493  -0.484  -6.792  0.00  0.00    -0.001 C 
ATOM      8  C   LIG d   1       3.394   0.569  -6.943  0.00  0.00     0.069 C 
ATOM      9  H   LIG d   1       3.741   1.521  -6.538  0.00  0.00     0.060 H 
ATOM     10  O   LIG d   1       2.239   0.126  -6.221  0.00  0.00    -0.344 OA
ATOM     11  C   LIG d   1       2.412   0.168  -4.806  0.00  0.00     0.183 C 
ATOM     12  H   LIG d   1       2.471   1.206  -4.480  0.00  0.00     0.096 H 
ATOM     13  H   LIG d   1       6.885  -2.365  -3.306  0.00  0.00     0.062 H 
ATOM     14  H   LIG d   1       5.137  -1.837  -1.651  0.00  0.00     0.062 H 
ATOM     15  H   LIG d   1       3.089  -0.674  -2.358  0.00  0.00     0.062 H 
ATOM     16  H   LIG d   1       6.574  -1.733  -5.663  0.00  0.00     0.062 H 
ATOM     17  H   LIG d   1       5.434  -0.084  -7.170  0.00  0.00     0.034 H 
ATOM     18  H   LIG d   1       4.224  -1.373  -7.362  0.00  0.00     0.034 H 
ENDROOT
BRANCH   8  19
ATOM     19  C   LIG d   1       3.043   0.739  -8.422  0.00  0.00    -0.014 C 
ATOM     20  C   LIG d   1       4.270   1.245  -9.183  0.00  0.00    -0.048 C 
ATOM     21  C   LIG d   1       3.919   1.414 -10.662  0.00  0.00    -0.053 C 
ATOM     22  H   LIG d   1       4.582   2.206  -8.771  0.00  0.00     0.027 H 
ATOM     23  H   LIG d   1       5.083   0.526  -9.082  0.00  0.00     0.027 H 
ATOM     24  C   LIG d   1       3.481   0.068 -11.240  0.00  0.00    -0.053 C 
ATOM     25  H   LIG d   1       3.106   2.135 -10.763  0.00  0.00     0.026 H 
ATOM     26  H   LIG d   1       4.792   1.776 -11.204  0.00  0.00     0.026 H 
ATOM     27  C   LIG d   1       2.254  -0.440 -10.479  0.00  0.00    -0.053 C 
ATOM     28  H   LIG d   1       3.231   0.188 -12.294  0.00  0.00     0.026 H 
ATOM     29  H   LIG d   1       4.294  -0.652 -11.139  0.00  0.00     0.026 H 
ATOM     30  C   LIG d   1       2.605  -0.609  -9.000  0.00  0.00    -0.048 C 
ATOM     31  H   LIG d   1       1.441   0.280 -10.580  0.00  0.00     0.026 H 
ATOM     32  H   LIG d   1       1.943  -1.399 -10.891  0.00  0.00     0.026 H 
ATOM     33  H   LIG d   1       3.419  -1.328  -8.899  0.00  0.00     0.027 H 
ATOM     34  H   LIG d   1       1.732  -0.970  -8.457  0.00  0.00     0.027 H 
ATOM     35  H   LIG d   1       2.231   1.458  -8.523  0.00  0.00     0.033 H 
ENDBRANCH   8  19
BRANCH  11  36
ATOM     36  O   LIG d   1       1.294  -0.460  -4.174  0.00  0.00    -0.363 OA
ATOM     37  H   LIG d   1       0.900  -1.176  -4.692  0.00  0.00     0.213 HD
ENDBRANCH  11  36
TORSDOF 2
ENDMDL
MODEL 10
REMARK VINA RESULT:      -5.6      5.012      7.158
REMARK  2 active torsions:
REMARK  status: ('A' for Active; 'I' for Inactive)
REMARK    1  A    between atoms: C_8  and  C_14 
REMARK    2  A    between atoms: C_11  and  O_13 
ROOT
ATOM      1  C   LIG d   1      11.680  -0.002  -5.855  0.00  0.00    -0.061 A 
ATOM      2  C   LIG d   1      11.966   1.310  -5.528  0.00  0.00    -0.061 A 
ATOM      3  C   LIG d   1      11.000   2.097  -4.931  0.00  0.00    -0.053 A 
ATOM      4  C   LIG d   1       9.744   1.576  -4.659  0.00  0.00     0.011 A 
ATOM      5  C   LIG d   1       9.461   0.265  -4.982  0.00  0.00    -0.037 A 
ATOM      6  C   LIG d   1      10.431  -0.523  -5.583  0.00  0.00    -0.058 A 
ATOM      7  C   LIG d   1       8.111  -0.339  -4.695  0.00  0.00    -0.001 C 
ATOM      8  C   LIG d   1       7.090   0.772  -4.440  0.00  0.00     0.069 C 
ATOM      9  H   LIG d   1       6.877   1.293  -5.374  0.00  0.00     0.060 H 
ATOM     10  O   LIG d   1       7.644   1.687  -3.488  0.00  0.00    -0.344 OA
ATOM     11  C   LIG d   1       8.714   2.468  -4.017  0.00  0.00     0.183 C 
ATOM     12  H   LIG d   1       8.322   3.160  -4.762  0.00  0.00     0.096 H 
ATOM     13  H   LIG d   1      12.433  -0.619  -6.323  0.00  0.00     0.062 H 
ATOM     14  H   LIG d   1      12.942   1.721  -5.739  0.00  0.00     0.062 H 
ATOM     15  H   LIG d   1      11.222   3.123  -4.680  0.00  0.00     0.062 H 
ATOM     16  H   LIG d   1      10.208  -1.548  -5.839  0.00  0.00     0.062 H 
ATOM     17  H   LIG d   1       7.792  -0.937  -5.548  0.00  0.00     0.034 H 
ATOM     18  H   LIG d   1       8.180  -0.977  -3.813  0.00  0.00     0.034 H 
ENDROOT
BRANCH   8  19
ATOM     19  C   LIG d   1       5.800   0.167  -3.883  0.00  0.00    -0.014 C 
ATOM     20  C   LIG d   1       6.014  -1.321  -3.601  0.00  0.00    -0.048 C 
ATOM     21  C   LIG d   1       4.724  -1.925  -3.044  0.00  0.00    -0.053 C 
ATOM     22  H   LIG d   1       6.285  -1.831  -4.526  0.00  0.00     0.027 H 
ATOM     23  H   LIG d   1       6.816  -1.441  -2.872  0.00  0.00     0.027 H 
ATOM     24  C   LIG d   1       4.344  -1.209  -1.747  0.00  0.00    -0.053 C 
ATOM     25  H   LIG d   1       3.922  -1.805  -3.773  0.00  0.00     0.026 H 
ATOM     26  H   LIG d   1       4.876  -2.985  -2.843  0.00  0.00     0.026 H 
ATOM     27  C   LIG d   1       4.130   0.279  -2.028  0.00  0.00    -0.053 C 
ATOM     28  H   LIG d   1       3.425  -1.640  -1.349  0.00  0.00     0.026 H 
ATOM     29  H   LIG d   1       5.146  -1.329  -1.017  0.00  0.00     0.026 H 
ATOM     30  C   LIG d   1       5.420   0.884  -2.585  0.00  0.00    -0.048 C 
ATOM     31  H   LIG d   1       3.328   0.399  -2.758  0.00  0.00     0.026 H 
ATOM     32  H   LIG d   1       3.859   0.789  -1.104  0.00  0.00     0.026 H 
ATOM     33  H   LIG d   1       6.222   0.763  -1.857  0.00  0.00     0.027 H 
ATOM     34  H   LIG d   1       5.268   1.944  -2.787  0.00  0.00     0.027 H 
ATOM     35  H   LIG d   1       4.999   0.287  -4.612  0.00  0.00     0.033 H 
ENDBRANCH   8  19
BRANCH  11  36
ATOM     36  O   LIG d   1       9.324   3.211  -2.960  0.00  0.00    -0.363 OA
ATOM     37  H   LIG d   1       9.644   4.084  -3.226  0.00  0.00     0.213 HD
ENDBRANCH  11  36
TORSDOF 2
ENDMDL
