MODEL 1
REMARK VINA RESULT:      -5.8      0.000      0.000
REMARK  7 active torsions:
REMARK  status: ('A' for Active; 'I' for Inactive)
REMARK    1  A    between atoms: C_10  and  N_14 
REMARK    2  A    between atoms: C_15  and  C_16 
REMARK    3  A    between atoms: C_19  and  N_22 
REMARK    4  A    between atoms: N_22  and  C_23 
REMARK    5  A    between atoms: N_22  and  C_26 
REMARK    6  A    between atoms: C_23  and  C_24 
REMARK    7  A    between atoms: C_26  and  C_27 
ROOT
ATOM      1  C   LIG d   1       3.262  -0.878 -12.174  0.00  0.00    -0.007 A 
ATOM      2  C   LIG d   1       4.282  -0.430 -13.022  0.00  0.00    -0.051 A 
ATOM      3  C   LIG d   1       4.289  -0.808 -14.346  0.00  0.00    -0.040 A 
ATOM      4  C   LIG d   1       3.284  -1.634 -14.841  0.00  0.00     0.030 A 
ATOM      5  C   LIG d   1       2.268  -2.082 -14.002  0.00  0.00    -0.040 A 
ATOM      6  C   LIG d   1       2.257  -1.714 -12.676  0.00  0.00    -0.051 A 
ATOM      7  H   LIG d   1       5.060   0.212 -12.638  0.00  0.00     0.062 H 
ATOM      8  H   LIG d   1       5.075  -0.462 -15.000  0.00  0.00     0.064 H 
ATOM      9  H   LIG d   1       1.491  -2.722 -14.391  0.00  0.00     0.064 H 
ATOM     10  H   LIG d   1       1.472  -2.066 -12.024  0.00  0.00     0.062 H 
ENDROOT
BRANCH   1  11
ATOM     11  C   LIG d   1       3.250  -0.477 -10.761  0.00  0.00     0.035 C 
ATOM     12  N   LIG d   1       3.611  -1.326  -9.839  0.00  0.00    -0.255 NA
ATOM     13  H   LIG d   1       2.941   0.521 -10.485  0.00  0.00     0.084 H 
BRANCH  12  14
ATOM     14  C   LIG d   1       3.600  -0.952  -8.523  0.00  0.00     0.067 A 
ATOM     15  C   LIG d   1       2.844   0.153  -8.118  0.00  0.00    -0.035 A 
ATOM     16  C   LIG d   1       2.829   0.531  -6.806  0.00  0.00    -0.048 A 
ATOM     17  H   LIG d   1       2.271   0.710  -8.845  0.00  0.00     0.064 H 
ATOM     18  C   LIG d   1       3.567  -0.186  -5.866  0.00  0.00     0.028 A 
ATOM     19  H   LIG d   1       2.244   1.385  -6.496  0.00  0.00     0.062 H 
ATOM     20  C   LIG d   1       3.768  -0.056  -4.410  0.00  0.00     0.028 A 
ATOM     21  C   LIG d   1       4.329  -1.297  -6.256  0.00  0.00     0.138 A 
ATOM     22  C   LIG d   1       4.633  -1.099  -4.052  0.00  0.00     0.136 A 
ATOM     23  C   LIG d   1       3.296   0.828  -3.445  0.00  0.00    -0.050 A 
ATOM     24  C   LIG d   1       5.013  -1.237  -2.722  0.00  0.00    -0.019 A 
ATOM     25  O   LIG d   1       4.940  -1.805  -5.162  0.00  0.00    -0.455 OA
ATOM     26  C   LIG d   1       4.540  -0.355  -1.772  0.00  0.00    -0.058 A 
ATOM     27  H   LIG d   1       5.680  -2.036  -2.432  0.00  0.00     0.065 H 
ATOM     28  C   LIG d   1       3.684   0.675  -2.130  0.00  0.00    -0.061 A 
ATOM     29  H   LIG d   1       4.839  -0.468  -0.741  0.00  0.00     0.062 H 
ATOM     30  H   LIG d   1       3.317   1.356  -1.377  0.00  0.00     0.062 H 
ATOM     31  H   LIG d   1       2.630   1.630  -3.723  0.00  0.00     0.062 H 
ATOM     32  C   LIG d   1       4.341  -1.676  -7.590  0.00  0.00     0.007 A 
ATOM     33  H   LIG d   1       4.923  -2.530  -7.905  0.00  0.00     0.068 H 
ENDBRANCH  12  14
ENDBRANCH   1  11
BRANCH   4  34
ATOM     34  N   LIG d   1       3.295  -2.013 -16.181  0.00  0.00    -0.328 N 
BRANCH  34  35
ATOM     35  C   LIG d   1       2.280  -1.490 -17.098  0.00  0.00     0.026 C 
ATOM     36  H   LIG d   1       1.811  -2.318 -17.631  0.00  0.00     0.048 H 
ATOM     37  H   LIG d   1       1.524  -0.946 -16.532  0.00  0.00     0.048 H 
BRANCH  35  38
ATOM     38  C   LIG d   1       2.940  -0.546 -18.105  0.00  0.00     0.038 C 
ATOM     39 CL   LIG d   1       2.865   1.144 -17.484  0.00  0.00    -0.124 Cl
ATOM     40  H   LIG d   1       3.982  -0.836 -18.245  0.00  0.00     0.044 H 
ATOM     41  H   LIG d   1       2.416  -0.607 -19.059  0.00  0.00     0.044 H 
ENDBRANCH  35  38
ENDBRANCH  34  35
BRANCH  34  42
ATOM     42  C   LIG d   1       4.323  -2.935 -16.673  0.00  0.00     0.026 C 
ATOM     43  H   LIG d   1       4.306  -2.949 -17.762  0.00  0.00     0.048 H 
ATOM     44  H   LIG d   1       5.303  -2.605 -16.327  0.00  0.00     0.048 H 
BRANCH  42  45
ATOM     45  C   LIG d   1       4.042  -4.341 -16.140  0.00  0.00     0.038 C 
ATOM     46 CL   LIG d   1       5.141  -4.689 -14.753  0.00  0.00    -0.124 Cl
ATOM     47  H   LIG d   1       3.006  -4.404 -15.807  0.00  0.00     0.044 H 
ATOM     48  H   LIG d   1       4.214  -5.071 -16.931  0.00  0.00     0.044 H 
ENDBRANCH  42  45
ENDBRANCH  34  42
ENDBRANCH   4  34
TORSDOF 7
ENDMDL
MODEL 2
REMARK VINA RESULT:      -5.8      0.618      2.258
REMARK  7 active torsions:
REMARK  status: ('A' for Active; 'I' for Inactive)
REMARK    1  A    between atoms: C_10  and  N_14 
REMARK    2  A    between atoms: C_15  and  C_16 
REMARK    3  A    between atoms: C_19  and  N_22 
REMARK    4  A    between atoms: N_22  and  C_23 
REMARK    5  A    between atoms: N_22  and  C_26 
REMARK    6  A    between atoms: C_23  and  C_24 
REMARK    7  A    between atoms: C_26  and  C_27 
ROOT
ATOM      1  C   LIG d   1       3.237  -0.849 -12.133  0.00  0.00    -0.007 A 
ATOM      2  C   LIG d   1       4.255  -0.444 -13.005  0.00  0.00    -0.051 A 
ATOM      3  C   LIG d   1       4.222  -0.830 -14.326  0.00  0.00    -0.040 A 
ATOM      4  C   LIG d   1       3.177  -1.622 -14.794  0.00  0.00     0.030 A 
ATOM      5  C   LIG d   1       2.163  -2.028 -13.931  0.00  0.00    -0.040 A 
ATOM      6  C   LIG d   1       2.193  -1.651 -12.608  0.00  0.00    -0.051 A 
ATOM      7  H   LIG d   1       5.064   0.172 -12.642  0.00  0.00     0.062 H 
ATOM      8  H   LIG d   1       5.005  -0.517 -14.999  0.00  0.00     0.064 H 
ATOM      9  H   LIG d   1       1.356  -2.642 -14.300  0.00  0.00     0.064 H 
ATOM     10  H   LIG d   1       1.409  -1.971 -11.938  0.00  0.00     0.062 H 
ENDROOT
BRANCH   1  11
ATOM     11  C   LIG d   1       3.269  -0.439 -10.723  0.00  0.00     0.035 C 
ATOM     12  N   LIG d   1       3.439  -1.332  -9.788  0.00  0.00    -0.255 NA
ATOM     13  H   LIG d   1       3.151   0.602 -10.460  0.00  0.00     0.084 H 
BRANCH  12  14
ATOM     14  C   LIG d   1       3.469  -0.949  -8.474  0.00  0.00     0.067 A 
ATOM     15  C   LIG d   1       2.771   0.192  -8.064  0.00  0.00    -0.035 A 
ATOM     16  C   LIG d   1       2.797   0.578  -6.755  0.00  0.00    -0.048 A 
ATOM     17  H   LIG d   1       2.211   0.769  -8.785  0.00  0.00     0.064 H 
ATOM     18  C   LIG d   1       3.519  -0.165  -5.823  0.00  0.00     0.028 A 
ATOM     19  H   LIG d   1       2.257   1.459  -6.440  0.00  0.00     0.062 H 
ATOM     20  C   LIG d   1       3.752  -0.035  -4.372  0.00  0.00     0.028 A 
ATOM     21  C   LIG d   1       4.223  -1.312  -6.219  0.00  0.00     0.138 A 
ATOM     22  C   LIG d   1       4.577  -1.113  -4.022  0.00  0.00     0.136 A 
ATOM     23  C   LIG d   1       3.339   0.876  -3.404  0.00  0.00    -0.050 A 
ATOM     24  C   LIG d   1       4.974  -1.260  -2.698  0.00  0.00    -0.019 A 
ATOM     25  O   LIG d   1       4.830  -1.839  -5.132  0.00  0.00    -0.455 OA
ATOM     26  C   LIG d   1       4.558  -0.351  -1.746  0.00  0.00    -0.058 A 
ATOM     27  H   LIG d   1       5.609  -2.086  -2.414  0.00  0.00     0.065 H 
ATOM     28  C   LIG d   1       3.743   0.714  -2.096  0.00  0.00    -0.061 A 
ATOM     29  H   LIG d   1       4.871  -0.471  -0.719  0.00  0.00     0.062 H 
ATOM     30  H   LIG d   1       3.421   1.416  -1.341  0.00  0.00     0.062 H 
ATOM     31  H   LIG d   1       2.704   1.705  -3.677  0.00  0.00     0.062 H 
ATOM     32  C   LIG d   1       4.194  -1.699  -7.550  0.00  0.00     0.007 A 
ATOM     33  H   LIG d   1       4.730  -2.581  -7.869  0.00  0.00     0.068 H 
ENDBRANCH  12  14
ENDBRANCH   1  11
BRANCH   4  34
ATOM     34  N   LIG d   1       3.147  -2.010 -16.132  0.00  0.00    -0.328 N 
BRANCH  34  35
ATOM     35  C   LIG d   1       3.907  -3.183 -16.571  0.00  0.00     0.026 C 
ATOM     36  H   LIG d   1       4.587  -2.895 -17.374  0.00  0.00     0.048 H 
ATOM     37  H   LIG d   1       4.481  -3.579 -15.733  0.00  0.00     0.048 H 
BRANCH  35  38
ATOM     38  C   LIG d   1       2.942  -4.255 -17.081  0.00  0.00     0.038 C 
ATOM     39 CL   LIG d   1       3.584  -5.887 -16.668  0.00  0.00    -0.124 Cl
ATOM     40  H   LIG d   1       1.968  -4.118 -16.612  0.00  0.00     0.044 H 
ATOM     41  H   LIG d   1       2.840  -4.168 -18.162  0.00  0.00     0.044 H 
ENDBRANCH  35  38
ENDBRANCH  34  35
BRANCH  34  42
ATOM     42  C   LIG d   1       2.354  -1.246 -17.098  0.00  0.00     0.026 C 
ATOM     43  H   LIG d   1       1.828  -1.933 -17.761  0.00  0.00     0.048 H 
ATOM     44  H   LIG d   1       1.631  -0.627 -16.567  0.00  0.00     0.048 H 
BRANCH  42  45
ATOM     45  C   LIG d   1       3.282  -0.352 -17.924  0.00  0.00     0.038 C 
ATOM     46 CL   LIG d   1       3.357   1.288 -17.177  0.00  0.00    -0.124 Cl
ATOM     47  H   LIG d   1       4.281  -0.787 -17.946  0.00  0.00     0.044 H 
ATOM     48  H   LIG d   1       2.898  -0.270 -18.941  0.00  0.00     0.044 H 
ENDBRANCH  42  45
ENDBRANCH  34  42
ENDBRANCH   4  34
TORSDOF 7
ENDMDL
MODEL 3
REMARK VINA RESULT:      -5.7      7.649      8.892
REMARK  7 active torsions:
REMARK  status: ('A' for Active; 'I' for Inactive)
REMARK    1  A    between atoms: C_10  and  N_14 
REMARK    2  A    between atoms: C_15  and  C_16 
REMARK    3  A    between atoms: C_19  and  N_22 
REMARK    4  A    between atoms: N_22  and  C_23 
REMARK    5  A    between atoms: N_22  and  C_26 
REMARK    6  A    between atoms: C_23  and  C_24 
REMARK    7  A    between atoms: C_26  and  C_27 
ROOT
ATOM      1  C   LIG d   1       5.163  -8.023  -6.402  0.00  0.00    -0.007 A 
ATOM      2  C   LIG d   1       6.038  -8.983  -5.879  0.00  0.00    -0.051 A 
ATOM      3  C   LIG d   1       6.133 -10.221  -6.474  0.00  0.00    -0.040 A 
ATOM      4  C   LIG d   1       5.361 -10.518  -7.593  0.00  0.00     0.030 A 
ATOM      5  C   LIG d   1       4.490  -9.567  -8.116  0.00  0.00    -0.040 A 
ATOM      6  C   LIG d   1       4.384  -8.329  -7.524  0.00  0.00    -0.051 A 
ATOM      7  H   LIG d   1       6.638  -8.752  -5.012  0.00  0.00     0.062 H 
ATOM      8  H   LIG d   1       6.808 -10.961  -6.072  0.00  0.00     0.064 H 
ATOM      9  H   LIG d   1       3.893  -9.802  -8.984  0.00  0.00     0.064 H 
ATOM     10  H   LIG d   1       3.704  -7.594  -7.926  0.00  0.00     0.062 H 
ENDROOT
BRANCH   1  11
ATOM     11  C   LIG d   1       5.059  -6.701  -5.770  0.00  0.00     0.035 C 
ATOM     12  N   LIG d   1       6.066  -5.874  -5.818  0.00  0.00    -0.255 NA
ATOM     13  H   LIG d   1       4.148  -6.413  -5.266  0.00  0.00     0.084 H 
BRANCH  12  14
ATOM     14  C   LIG d   1       5.969  -4.642  -5.230  0.00  0.00     0.067 A 
ATOM     15  C   LIG d   1       7.116  -3.863  -5.048  0.00  0.00    -0.035 A 
ATOM     16  C   LIG d   1       7.025  -2.634  -4.462  0.00  0.00    -0.048 A 
ATOM     17  H   LIG d   1       8.078  -4.236  -5.371  0.00  0.00     0.064 H 
ATOM     18  C   LIG d   1       5.787  -2.150  -4.045  0.00  0.00     0.028 A 
ATOM     19  H   LIG d   1       7.913  -2.034  -4.323  0.00  0.00     0.062 H 
ATOM     20  C   LIG d   1       5.342  -0.902  -3.396  0.00  0.00     0.028 A 
ATOM     21  C   LIG d   1       4.626  -2.919  -4.221  0.00  0.00     0.138 A 
ATOM     22  C   LIG d   1       3.956  -1.028  -3.238  0.00  0.00     0.136 A 
ATOM     23  C   LIG d   1       5.996   0.248  -2.964  0.00  0.00    -0.050 A 
ATOM     24  C   LIG d   1       3.244   0.008  -2.646  0.00  0.00    -0.019 A 
ATOM     25  O   LIG d   1       3.574  -2.225  -3.734  0.00  0.00    -0.455 OA
ATOM     26  C   LIG d   1       3.902   1.144  -2.221  0.00  0.00    -0.058 A 
ATOM     27  H   LIG d   1       2.175  -0.076  -2.517  0.00  0.00     0.065 H 
ATOM     28  C   LIG d   1       5.274   1.267  -2.379  0.00  0.00    -0.061 A 
ATOM     29  H   LIG d   1       3.343   1.946  -1.761  0.00  0.00     0.062 H 
ATOM     30  H   LIG d   1       5.777   2.163  -2.047  0.00  0.00     0.062 H 
ATOM     31  H   LIG d   1       7.065   0.343  -3.088  0.00  0.00     0.062 H 
ATOM     32  C   LIG d   1       4.725  -4.168  -4.816  0.00  0.00     0.007 A 
ATOM     33  H   LIG d   1       3.840  -4.771  -4.959  0.00  0.00     0.068 H 
ENDBRANCH  12  14
ENDBRANCH   1  11
BRANCH   4  34
ATOM     34  N   LIG d   1       5.461 -11.771  -8.192  0.00  0.00    -0.328 N 
BRANCH  34  35
ATOM     35  C   LIG d   1       6.742 -12.220  -8.742  0.00  0.00     0.026 C 
ATOM     36  H   LIG d   1       7.539 -12.005  -8.030  0.00  0.00     0.048 H 
ATOM     37  H   LIG d   1       6.702 -13.293  -8.929  0.00  0.00     0.048 H 
BRANCH  35  38
ATOM     38  C   LIG d   1       7.020 -11.484 -10.054  0.00  0.00     0.038 C 
ATOM     39 CL   LIG d   1       8.195 -10.150  -9.758  0.00  0.00    -0.124 Cl
ATOM     40  H   LIG d   1       7.437 -12.182 -10.780  0.00  0.00     0.044 H 
ATOM     41  H   LIG d   1       6.090 -11.069 -10.443  0.00  0.00     0.044 H 
ENDBRANCH  35  38
ENDBRANCH  34  35
BRANCH  34  42
ATOM     42  C   LIG d   1       4.283 -12.641  -8.272  0.00  0.00     0.026 C 
ATOM     43  H   LIG d   1       3.398 -12.036  -8.467  0.00  0.00     0.048 H 
ATOM     44  H   LIG d   1       4.418 -13.360  -9.080  0.00  0.00     0.048 H 
BRANCH  42  45
ATOM     45  C   LIG d   1       4.110 -13.386  -6.948  0.00  0.00     0.038 C 
ATOM     46 CL   LIG d   1       2.907 -12.518  -5.923  0.00  0.00    -0.124 Cl
ATOM     47  H   LIG d   1       3.757 -14.399  -7.144  0.00  0.00     0.044 H 
ATOM     48  H   LIG d   1       5.067 -13.429  -6.427  0.00  0.00     0.044 H 
ENDBRANCH  42  45
ENDBRANCH  34  42
ENDBRANCH   4  34
TORSDOF 7
ENDMDL
MODEL 4
REMARK VINA RESULT:      -5.6      2.295      3.108
REMARK  7 active torsions:
REMARK  status: ('A' for Active; 'I' for Inactive)
REMARK    1  A    between atoms: C_10  and  N_14 
REMARK    2  A    between atoms: C_15  and  C_16 
REMARK    3  A    between atoms: C_19  and  N_22 
REMARK    4  A    between atoms: N_22  and  C_23 
REMARK    5  A    between atoms: N_22  and  C_26 
REMARK    6  A    between atoms: C_23  and  C_24 
REMARK    7  A    between atoms: C_26  and  C_27 
ROOT
ATOM      1  C   LIG d   1       1.583  -2.453 -11.188  0.00  0.00    -0.007 A 
ATOM      2  C   LIG d   1       2.140  -1.677 -12.211  0.00  0.00    -0.051 A 
ATOM      3  C   LIG d   1       1.766  -1.892 -13.518  0.00  0.00    -0.040 A 
ATOM      4  C   LIG d   1       0.834  -2.879 -13.823  0.00  0.00     0.030 A 
ATOM      5  C   LIG d   1       0.277  -3.655 -12.810  0.00  0.00    -0.040 A 
ATOM      6  C   LIG d   1       0.651  -3.451 -11.501  0.00  0.00    -0.051 A 
ATOM      7  H   LIG d   1       2.862  -0.909 -11.974  0.00  0.00     0.062 H 
ATOM      8  H   LIG d   1       2.195  -1.292 -14.307  0.00  0.00     0.064 H 
ATOM      9  H   LIG d   1      -0.445  -4.419 -13.051  0.00  0.00     0.064 H 
ATOM     10  H   LIG d   1       0.223  -4.056 -10.716  0.00  0.00     0.062 H 
ENDROOT
BRANCH   1  11
ATOM     11  C   LIG d   1       1.980  -2.227  -9.792  0.00  0.00     0.035 C 
ATOM     12  N   LIG d   1       2.961  -1.413  -9.516  0.00  0.00    -0.255 NA
ATOM     13  H   LIG d   1       1.460  -2.736  -8.993  0.00  0.00     0.084 H 
BRANCH  12  14
ATOM     14  C   LIG d   1       3.330  -1.202  -8.216  0.00  0.00     0.067 A 
ATOM     15  C   LIG d   1       4.246  -2.064  -7.602  0.00  0.00    -0.035 A 
ATOM     16  C   LIG d   1       4.618  -1.859  -6.305  0.00  0.00    -0.048 A 
ATOM     17  H   LIG d   1       4.658  -2.895  -8.156  0.00  0.00     0.064 H 
ATOM     18  C   LIG d   1       4.087  -0.789  -5.588  0.00  0.00     0.028 A 
ATOM     19  H   LIG d   1       5.325  -2.526  -5.833  0.00  0.00     0.062 H 
ATOM     20  C   LIG d   1       4.267  -0.290  -4.211  0.00  0.00     0.028 A 
ATOM     21  C   LIG d   1       3.168   0.085  -6.190  0.00  0.00     0.138 A 
ATOM     22  C   LIG d   1       3.442   0.837  -4.104  0.00  0.00     0.136 A 
ATOM     23  C   LIG d   1       5.032  -0.707  -3.126  0.00  0.00    -0.050 A 
ATOM     24  C   LIG d   1       3.399   1.533  -2.902  0.00  0.00    -0.019 A 
ATOM     25  O   LIG d   1       2.815   1.025  -5.286  0.00  0.00    -0.455 OA
ATOM     26  C   LIG d   1       4.161   1.112  -1.831  0.00  0.00    -0.058 A 
ATOM     27  H   LIG d   1       2.767   2.404  -2.804  0.00  0.00     0.065 H 
ATOM     28  C   LIG d   1       4.976  -0.004  -1.941  0.00  0.00    -0.061 A 
ATOM     29  H   LIG d   1       4.122   1.657  -0.899  0.00  0.00     0.062 H 
ATOM     30  H   LIG d   1       5.571  -0.321  -1.097  0.00  0.00     0.062 H 
ATOM     31  H   LIG d   1       5.667  -1.576  -3.211  0.00  0.00     0.062 H 
ATOM     32  C   LIG d   1       2.793  -0.129  -7.508  0.00  0.00     0.007 A 
ATOM     33  H   LIG d   1       2.088   0.537  -7.984  0.00  0.00     0.068 H 
ENDBRANCH  12  14
ENDBRANCH   1  11
BRANCH   4  34
ATOM     34  N   LIG d   1       0.458  -3.093 -15.147  0.00  0.00    -0.328 N 
BRANCH  34  35
ATOM     35  C   LIG d   1      -0.951  -2.982 -15.534  0.00  0.00     0.026 C 
ATOM     36  H   LIG d   1      -1.055  -3.216 -16.594  0.00  0.00     0.048 H 
ATOM     37  H   LIG d   1      -1.546  -3.682 -14.947  0.00  0.00     0.048 H 
BRANCH  35  38
ATOM     38  C   LIG d   1      -1.440  -1.556 -15.277  0.00  0.00     0.038 C 
ATOM     39 CL   LIG d   1      -2.458  -1.528 -13.790  0.00  0.00    -0.124 Cl
ATOM     40  H   LIG d   1      -0.581  -0.897 -15.142  0.00  0.00     0.044 H 
ATOM     41  H   LIG d   1      -2.029  -1.214 -16.127  0.00  0.00     0.044 H 
ENDBRANCH  35  38
ENDBRANCH  34  35
BRANCH  34  42
ATOM     42  C   LIG d   1       1.470  -3.429 -16.151  0.00  0.00     0.026 C 
ATOM     43  H   LIG d   1       2.458  -3.174 -15.769  0.00  0.00     0.048 H 
ATOM     44  H   LIG d   1       1.428  -4.497 -16.367  0.00  0.00     0.048 H 
BRANCH  42  45
ATOM     45  C   LIG d   1       1.198  -2.638 -17.432  0.00  0.00     0.038 C 
ATOM     46 CL   LIG d   1       1.709  -0.924 -17.200  0.00  0.00    -0.124 Cl
ATOM     47  H   LIG d   1       1.760  -3.077 -18.257  0.00  0.00     0.044 H 
ATOM     48  H   LIG d   1       0.133  -2.671 -17.661  0.00  0.00     0.044 H 
ENDBRANCH  42  45
ENDBRANCH  34  42
ENDBRANCH   4  34
TORSDOF 7
ENDMDL
MODEL 5
REMARK VINA RESULT:      -5.5      9.026     11.584
REMARK  7 active torsions:
REMARK  status: ('A' for Active; 'I' for Inactive)
REMARK    1  A    between atoms: C_10  and  N_14 
REMARK    2  A    between atoms: C_15  and  C_16 
REMARK    3  A    between atoms: C_19  and  N_22 
REMARK    4  A    between atoms: N_22  and  C_23 
REMARK    5  A    between atoms: N_22  and  C_26 
REMARK    6  A    between atoms: C_23  and  C_24 
REMARK    7  A    between atoms: C_26  and  C_27 
ROOT
ATOM      1  C   LIG d   1      10.058   5.513  -5.231  0.00  0.00    -0.007 A 
ATOM      2  C   LIG d   1       9.747   6.821  -4.842  0.00  0.00    -0.051 A 
ATOM      3  C   LIG d   1      10.603   7.852  -5.155  0.00  0.00    -0.040 A 
ATOM      4  C   LIG d   1      11.777   7.595  -5.858  0.00  0.00     0.030 A 
ATOM      5  C   LIG d   1      12.091   6.296  -6.246  0.00  0.00    -0.040 A 
ATOM      6  C   LIG d   1      11.243   5.258  -5.931  0.00  0.00    -0.051 A 
ATOM      7  H   LIG d   1       8.836   7.021  -4.298  0.00  0.00     0.062 H 
ATOM      8  H   LIG d   1      10.363   8.861  -4.857  0.00  0.00     0.064 H 
ATOM      9  H   LIG d   1      13.002   6.102  -6.791  0.00  0.00     0.064 H 
ATOM     10  H   LIG d   1      11.490   4.250  -6.228  0.00  0.00     0.062 H 
ENDROOT
BRANCH   1  11
ATOM     11  C   LIG d   1       9.147   4.409  -4.898  0.00  0.00     0.035 C 
ATOM     12  N   LIG d   1       9.371   3.214  -5.369  0.00  0.00    -0.255 NA
ATOM     13  H   LIG d   1       8.291   4.587  -4.264  0.00  0.00     0.084 H 
BRANCH  12  14
ATOM     14  C   LIG d   1       8.523   2.186  -5.059  0.00  0.00     0.067 A 
ATOM     15  C   LIG d   1       8.467   1.055  -5.881  0.00  0.00    -0.035 A 
ATOM     16  C   LIG d   1       7.623   0.027  -5.577  0.00  0.00    -0.048 A 
ATOM     17  H   LIG d   1       9.093   0.996  -6.760  0.00  0.00     0.064 H 
ATOM     18  C   LIG d   1       6.815   0.100  -4.445  0.00  0.00     0.028 A 
ATOM     19  H   LIG d   1       7.582  -0.845  -6.213  0.00  0.00     0.062 H 
ATOM     20  C   LIG d   1       5.819  -0.805  -3.839  0.00  0.00     0.028 A 
ATOM     21  C   LIG d   1       6.860   1.227  -3.610  0.00  0.00     0.138 A 
ATOM     22  C   LIG d   1       5.352  -0.144  -2.695  0.00  0.00     0.136 A 
ATOM     23  C   LIG d   1       5.323  -2.060  -4.177  0.00  0.00    -0.050 A 
ATOM     24  C   LIG d   1       4.389  -0.759  -1.904  0.00  0.00    -0.019 A 
ATOM     25  O   LIG d   1       5.986   1.044  -2.594  0.00  0.00    -0.455 OA
ATOM     26  C   LIG d   1       3.903  -2.005  -2.247  0.00  0.00    -0.058 A 
ATOM     27  H   LIG d   1       4.019  -0.262  -1.019  0.00  0.00     0.065 H 
ATOM     28  C   LIG d   1       4.368  -2.655  -3.380  0.00  0.00    -0.061 A 
ATOM     29  H   LIG d   1       3.155  -2.477  -1.628  0.00  0.00     0.062 H 
ATOM     30  H   LIG d   1       3.984  -3.631  -3.636  0.00  0.00     0.062 H 
ATOM     31  H   LIG d   1       5.685  -2.567  -5.059  0.00  0.00     0.062 H 
ATOM     32  C   LIG d   1       7.719   2.269  -3.924  0.00  0.00     0.007 A 
ATOM     33  H   LIG d   1       7.765   3.142  -3.290  0.00  0.00     0.068 H 
ENDBRANCH  12  14
ENDBRANCH   1  11
BRANCH   4  34
ATOM     34  N   LIG d   1      12.640   8.641  -6.174  0.00  0.00    -0.328 N 
BRANCH  34  35
ATOM     35  C   LIG d   1      12.929   8.955  -7.575  0.00  0.00     0.026 C 
ATOM     36  H   LIG d   1      13.848   9.537  -7.635  0.00  0.00     0.048 H 
ATOM     37  H   LIG d   1      13.048   8.029  -8.138  0.00  0.00     0.048 H 
BRANCH  35  38
ATOM     38  C   LIG d   1      11.773   9.765  -8.166  0.00  0.00     0.038 C 
ATOM     39 CL   LIG d   1      10.674   8.667  -9.079  0.00  0.00    -0.124 Cl
ATOM     40  H   LIG d   1      11.219  10.247  -7.360  0.00  0.00     0.044 H 
ATOM     41  H   LIG d   1      12.168  10.525  -8.839  0.00  0.00     0.044 H 
ENDBRANCH  35  38
ENDBRANCH  34  35
BRANCH  34  42
ATOM     42  C   LIG d   1      13.258   9.429  -5.104  0.00  0.00     0.026 C 
ATOM     43  H   LIG d   1      13.455  10.439  -5.464  0.00  0.00     0.048 H 
ATOM     44  H   LIG d   1      12.584   9.471  -4.248  0.00  0.00     0.048 H 
BRANCH  42  45
ATOM     45  C   LIG d   1      14.575   8.772  -4.685  0.00  0.00     0.038 C 
ATOM     46 CL   LIG d   1      14.265   7.610  -3.340  0.00  0.00    -0.124 Cl
ATOM     47  H   LIG d   1      15.002   8.239  -5.534  0.00  0.00     0.044 H 
ATOM     48  H   LIG d   1      15.273   9.539  -4.348  0.00  0.00     0.044 H 
ENDBRANCH  42  45
ENDBRANCH  34  42
ENDBRANCH   4  34
TORSDOF 7
ENDMDL
MODEL 6
REMARK VINA RESULT:      -5.5      8.744     12.287
REMARK  7 active torsions:
REMARK  status: ('A' for Active; 'I' for Inactive)
REMARK    1  A    between atoms: C_10  and  N_14 
REMARK    2  A    between atoms: C_15  and  C_16 
REMARK    3  A    between atoms: C_19  and  N_22 
REMARK    4  A    between atoms: N_22  and  C_23 
REMARK    5  A    between atoms: N_22  and  C_26 
REMARK    6  A    between atoms: C_23  and  C_24 
REMARK    7  A    between atoms: C_26  and  C_27 
ROOT
ATOM      1  C   LIG d   1       9.411   3.922  -3.825  0.00  0.00    -0.007 A 
ATOM      2  C   LIG d   1      10.211   4.080  -2.687  0.00  0.00    -0.051 A 
ATOM      3  C   LIG d   1      10.743   5.314  -2.388  0.00  0.00    -0.040 A 
ATOM      4  C   LIG d   1      10.486   6.403  -3.215  0.00  0.00     0.030 A 
ATOM      5  C   LIG d   1       9.692   6.251  -4.348  0.00  0.00    -0.040 A 
ATOM      6  C   LIG d   1       9.161   5.020  -4.658  0.00  0.00    -0.051 A 
ATOM      7  H   LIG d   1      10.409   3.236  -2.044  0.00  0.00     0.062 H 
ATOM      8  H   LIG d   1      11.358   5.437  -1.510  0.00  0.00     0.064 H 
ATOM      9  H   LIG d   1       9.496   7.099  -4.987  0.00  0.00     0.064 H 
ATOM     10  H   LIG d   1       8.550   4.900  -5.540  0.00  0.00     0.062 H 
ENDROOT
BRANCH   1  11
ATOM     11  C   LIG d   1       8.841   2.607  -4.148  0.00  0.00     0.035 C 
ATOM     12  N   LIG d   1       7.831   2.148  -3.462  0.00  0.00    -0.255 NA
ATOM     13  H   LIG d   1       9.259   2.020  -4.952  0.00  0.00     0.084 H 
BRANCH  12  14
ATOM     14  C   LIG d   1       7.301   0.923  -3.763  0.00  0.00     0.067 A 
ATOM     15  C   LIG d   1       5.982   0.625  -3.400  0.00  0.00    -0.035 A 
ATOM     16  C   LIG d   1       5.447  -0.594  -3.698  0.00  0.00    -0.048 A 
ATOM     17  H   LIG d   1       5.387   1.363  -2.882  0.00  0.00     0.064 H 
ATOM     18  C   LIG d   1       6.214  -1.547  -4.367  0.00  0.00     0.028 A 
ATOM     19  H   LIG d   1       4.430  -0.822  -3.416  0.00  0.00     0.062 H 
ATOM     20  C   LIG d   1       5.955  -2.923  -4.831  0.00  0.00     0.028 A 
ATOM     21  C   LIG d   1       7.537  -1.263  -4.738  0.00  0.00     0.138 A 
ATOM     22  C   LIG d   1       7.144  -3.348  -5.440  0.00  0.00     0.136 A 
ATOM     23  C   LIG d   1       4.855  -3.773  -4.771  0.00  0.00    -0.050 A 
ATOM     24  C   LIG d   1       7.208  -4.626  -5.982  0.00  0.00    -0.019 A 
ATOM     25  O   LIG d   1       8.047  -2.346  -5.366  0.00  0.00    -0.455 OA
ATOM     26  C   LIG d   1       6.111  -5.461  -5.918  0.00  0.00    -0.058 A 
ATOM     27  H   LIG d   1       8.118  -4.967  -6.455  0.00  0.00     0.065 H 
ATOM     28  C   LIG d   1       4.937  -5.038  -5.315  0.00  0.00    -0.061 A 
ATOM     29  H   LIG d   1       6.168  -6.453  -6.341  0.00  0.00     0.062 H 
ATOM     30  H   LIG d   1       4.084  -5.699  -5.274  0.00  0.00     0.062 H 
ATOM     31  H   LIG d   1       3.940  -3.443  -4.301  0.00  0.00     0.062 H 
ATOM     32  C   LIG d   1       8.075  -0.023  -4.433  0.00  0.00     0.007 A 
ATOM     33  H   LIG d   1       9.092   0.210  -4.714  0.00  0.00     0.068 H 
ENDBRANCH  12  14
ENDBRANCH   1  11
BRANCH   4  34
ATOM     34  N   LIG d   1      11.025   7.650  -2.909  0.00  0.00    -0.328 N 
BRANCH  34  35
ATOM     35  C   LIG d   1      10.871   8.204  -1.561  0.00  0.00     0.026 C 
ATOM     36  H   LIG d   1      11.411   7.580  -0.848  0.00  0.00     0.048 H 
ATOM     37  H   LIG d   1      11.273   9.216  -1.536  0.00  0.00     0.048 H 
BRANCH  35  38
ATOM     38  C   LIG d   1       9.388   8.233  -1.189  0.00  0.00     0.038 C 
ATOM     39 CL   LIG d   1       8.849   9.943  -1.002  0.00  0.00    -0.124 Cl
ATOM     40  H   LIG d   1       8.806   7.753  -1.977  0.00  0.00     0.044 H 
ATOM     41  H   LIG d   1       9.237   7.701  -0.251  0.00  0.00     0.044 H 
ENDBRANCH  35  38
ENDBRANCH  34  35
BRANCH  34  42
ATOM     42  C   LIG d   1      11.747   8.408  -3.935  0.00  0.00     0.026 C 
ATOM     43  H   LIG d   1      12.814   8.396  -3.711  0.00  0.00     0.048 H 
ATOM     44  H   LIG d   1      11.574   7.955  -4.911  0.00  0.00     0.048 H 
BRANCH  42  45
ATOM     45  C   LIG d   1      11.246   9.853  -3.947  0.00  0.00     0.038 C 
ATOM     46 CL   LIG d   1       9.589   9.908  -4.659  0.00  0.00    -0.124 Cl
ATOM     47  H   LIG d   1      11.216  10.237  -2.927  0.00  0.00     0.044 H 
ATOM     48  H   LIG d   1      11.918  10.467  -4.547  0.00  0.00     0.044 H 
ENDBRANCH  42  45
ENDBRANCH  34  42
ENDBRANCH   4  34
TORSDOF 7
ENDMDL
MODEL 7
REMARK VINA RESULT:      -5.4      8.951     12.726
REMARK  7 active torsions:
REMARK  status: ('A' for Active; 'I' for Inactive)
REMARK    1  A    between atoms: C_10  and  N_14 
REMARK    2  A    between atoms: C_15  and  C_16 
REMARK    3  A    between atoms: C_19  and  N_22 
REMARK    4  A    between atoms: N_22  and  C_23 
REMARK    5  A    between atoms: N_22  and  C_26 
REMARK    6  A    between atoms: C_23  and  C_24 
REMARK    7  A    between atoms: C_26  and  C_27 
ROOT
ATOM      1  C   LIG d   1       9.546   5.108  -3.981  0.00  0.00    -0.007 A 
ATOM      2  C   LIG d   1       9.511   6.166  -4.898  0.00  0.00    -0.051 A 
ATOM      3  C   LIG d   1       9.872   7.433  -4.499  0.00  0.00    -0.040 A 
ATOM      4  C   LIG d   1      10.272   7.662  -3.185  0.00  0.00     0.030 A 
ATOM      5  C   LIG d   1      10.308   6.615  -2.270  0.00  0.00    -0.040 A 
ATOM      6  C   LIG d   1       9.942   5.346  -2.660  0.00  0.00    -0.051 A 
ATOM      7  H   LIG d   1       9.203   5.987  -5.917  0.00  0.00     0.062 H 
ATOM      8  H   LIG d   1       9.846   8.248  -5.206  0.00  0.00     0.064 H 
ATOM      9  H   LIG d   1      10.618   6.798  -1.253  0.00  0.00     0.064 H 
ATOM     10  H   LIG d   1       9.965   4.535  -1.948  0.00  0.00     0.062 H 
ENDROOT
BRANCH   1  11
ATOM     11  C   LIG d   1       9.162   3.755  -4.403  0.00  0.00     0.035 C 
ATOM     12  N   LIG d   1       8.672   2.915  -3.534  0.00  0.00    -0.255 NA
ATOM     13  H   LIG d   1       9.286   3.454  -5.433  0.00  0.00     0.084 H 
BRANCH  12  14
ATOM     14  C   LIG d   1       8.313   1.655  -3.927  0.00  0.00     0.067 A 
ATOM     15  C   LIG d   1       9.177   0.903  -4.732  0.00  0.00    -0.035 A 
ATOM     16  C   LIG d   1       8.825  -0.355  -5.127  0.00  0.00    -0.048 A 
ATOM     17  H   LIG d   1      10.124   1.320  -5.042  0.00  0.00     0.064 H 
ATOM     18  C   LIG d   1       7.604  -0.895  -4.729  0.00  0.00     0.028 A 
ATOM     19  H   LIG d   1       9.493  -0.934  -5.748  0.00  0.00     0.062 H 
ATOM     20  C   LIG d   1       6.931  -2.186  -4.967  0.00  0.00     0.028 A 
ATOM     21  C   LIG d   1       6.727  -0.155  -3.921  0.00  0.00     0.138 A 
ATOM     22  C   LIG d   1       5.709  -2.110  -4.285  0.00  0.00     0.136 A 
ATOM     23  C   LIG d   1       7.268  -3.335  -5.677  0.00  0.00    -0.050 A 
ATOM     24  C   LIG d   1       4.842  -3.194  -4.325  0.00  0.00    -0.019 A 
ATOM     25  O   LIG d   1       5.627  -0.903  -3.683  0.00  0.00    -0.455 OA
ATOM     26  C   LIG d   1       5.185  -4.329  -5.032  0.00  0.00    -0.058 A 
ATOM     27  H   LIG d   1       3.897  -3.150  -3.804  0.00  0.00     0.065 H 
ATOM     28  C   LIG d   1       6.394  -4.402  -5.706  0.00  0.00    -0.061 A 
ATOM     29  H   LIG d   1       4.506  -5.169  -5.059  0.00  0.00     0.062 H 
ATOM     30  H   LIG d   1       6.653  -5.297  -6.252  0.00  0.00     0.062 H 
ATOM     31  H   LIG d   1       8.209  -3.391  -6.202  0.00  0.00     0.062 H 
ATOM     32  C   LIG d   1       7.090   1.123  -3.523  0.00  0.00     0.007 A 
ATOM     33  H   LIG d   1       6.426   1.705  -2.901  0.00  0.00     0.068 H 
ENDBRANCH  12  14
ENDBRANCH   1  11
BRANCH   4  34
ATOM     34  N   LIG d   1      10.637   8.946  -2.786  0.00  0.00    -0.328 N 
BRANCH  34  35
ATOM     35  C   LIG d   1      10.509  10.067  -3.719  0.00  0.00     0.026 C 
ATOM     36  H   LIG d   1      10.051   9.719  -4.646  0.00  0.00     0.048 H 
ATOM     37  H   LIG d   1       9.885  10.842  -3.274  0.00  0.00     0.048 H 
BRANCH  35  38
ATOM     38  C   LIG d   1      11.895  10.640  -4.021  0.00  0.00     0.038 C 
ATOM     39 CL   LIG d   1      12.754   9.560  -5.180  0.00  0.00    -0.124 Cl
ATOM     40  H   LIG d   1      11.790  11.633  -4.459  0.00  0.00     0.044 H 
ATOM     41  H   LIG d   1      12.468  10.711  -3.097  0.00  0.00     0.044 H 
ENDBRANCH  35  38
ENDBRANCH  34  35
BRANCH  34  42
ATOM     42  C   LIG d   1      11.149   9.173  -1.432  0.00  0.00     0.026 C 
ATOM     43  H   LIG d   1      11.164   8.230  -0.886  0.00  0.00     0.048 H 
ATOM     44  H   LIG d   1      12.159   9.578  -1.489  0.00  0.00     0.048 H 
BRANCH  42  45
ATOM     45  C   LIG d   1      10.241  10.168  -0.705  0.00  0.00     0.038 C 
ATOM     46 CL   LIG d   1       8.556   9.525  -0.665  0.00  0.00    -0.124 Cl
ATOM     47  H   LIG d   1      10.600  10.310   0.314  0.00  0.00     0.044 H 
ATOM     48  H   LIG d   1      10.253  11.123  -1.231  0.00  0.00     0.044 H 
ENDBRANCH  42  45
ENDBRANCH  34  42
ENDBRANCH   4  34
TORSDOF 7
ENDMDL
MODEL 8
REMARK VINA RESULT:      -5.3      9.200     11.882
REMARK  7 active torsions:
REMARK  status: ('A' for Active; 'I' for Inactive)
REMARK    1  A    between atoms: C_10  and  N_14 
REMARK    2  A    between atoms: C_15  and  C_16 
REMARK    3  A    between atoms: C_19  and  N_22 
REMARK    4  A    between atoms: N_22  and  C_23 
REMARK    5  A    between atoms: N_22  and  C_26 
REMARK    6  A    between atoms: C_23  and  C_24 
REMARK    7  A    between atoms: C_26  and  C_27 
ROOT
ATOM      1  C   LIG d   1      10.126   5.510  -5.144  0.00  0.00    -0.007 A 
ATOM      2  C   LIG d   1      10.857   5.476  -6.338  0.00  0.00    -0.051 A 
ATOM      3  C   LIG d   1      11.703   6.515  -6.654  0.00  0.00    -0.040 A 
ATOM      4  C   LIG d   1      11.833   7.597  -5.788  0.00  0.00     0.030 A 
ATOM      5  C   LIG d   1      11.108   7.635  -4.600  0.00  0.00    -0.040 A 
ATOM      6  C   LIG d   1      10.255   6.604  -4.280  0.00  0.00    -0.051 A 
ATOM      7  H   LIG d   1      10.758   4.636  -7.009  0.00  0.00     0.062 H 
ATOM      8  H   LIG d   1      12.268   6.489  -7.573  0.00  0.00     0.064 H 
ATOM      9  H   LIG d   1      11.212   8.477  -3.933  0.00  0.00     0.064 H 
ATOM     10  H   LIG d   1       9.689   6.636  -3.361  0.00  0.00     0.062 H 
ENDROOT
BRANCH   1  11
ATOM     11  C   LIG d   1       9.222   4.403  -4.803  0.00  0.00     0.035 C 
ATOM     12  N   LIG d   1       9.348   3.251  -5.400  0.00  0.00    -0.255 NA
ATOM     13  H   LIG d   1       8.453   4.544  -4.058  0.00  0.00     0.084 H 
BRANCH  12  14
ATOM     14  C   LIG d   1       8.506   2.220  -5.082  0.00  0.00     0.067 A 
ATOM     15  C   LIG d   1       8.452   1.085  -5.898  0.00  0.00    -0.035 A 
ATOM     16  C   LIG d   1       7.614   0.054  -5.586  0.00  0.00    -0.048 A 
ATOM     17  H   LIG d   1       9.074   1.026  -6.780  0.00  0.00     0.064 H 
ATOM     18  C   LIG d   1       6.810   0.129  -4.450  0.00  0.00     0.028 A 
ATOM     19  H   LIG d   1       7.574  -0.821  -6.218  0.00  0.00     0.062 H 
ATOM     20  C   LIG d   1       5.822  -0.778  -3.836  0.00  0.00     0.028 A 
ATOM     21  C   LIG d   1       6.854   1.260  -3.620  0.00  0.00     0.138 A 
ATOM     22  C   LIG d   1       5.356  -0.115  -2.693  0.00  0.00     0.136 A 
ATOM     23  C   LIG d   1       5.330  -2.038  -4.166  0.00  0.00    -0.050 A 
ATOM     24  C   LIG d   1       4.400  -0.731  -1.895  0.00  0.00    -0.019 A 
ATOM     25  O   LIG d   1       5.986   1.077  -2.600  0.00  0.00    -0.455 OA
ATOM     26  C   LIG d   1       3.919  -1.980  -2.231  0.00  0.00    -0.058 A 
ATOM     27  H   LIG d   1       4.032  -0.232  -1.011  0.00  0.00     0.065 H 
ATOM     28  C   LIG d   1       4.382  -2.634  -3.362  0.00  0.00    -0.061 A 
ATOM     29  H   LIG d   1       3.176  -2.453  -1.606  0.00  0.00     0.062 H 
ATOM     30  H   LIG d   1       4.001  -3.613  -3.612  0.00  0.00     0.062 H 
ATOM     31  H   LIG d   1       5.691  -2.546  -5.048  0.00  0.00     0.062 H 
ATOM     32  C   LIG d   1       7.706   2.304  -3.943  0.00  0.00     0.007 A 
ATOM     33  H   LIG d   1       7.751   3.181  -3.313  0.00  0.00     0.068 H 
ENDBRANCH  12  14
ENDBRANCH   1  11
BRANCH   4  34
ATOM     34  N   LIG d   1      12.691   8.646  -6.111  0.00  0.00    -0.328 N 
BRANCH  34  35
ATOM     35  C   LIG d   1      13.768   9.020  -5.192  0.00  0.00     0.026 C 
ATOM     36  H   LIG d   1      14.110  10.029  -5.425  0.00  0.00     0.048 H 
ATOM     37  H   LIG d   1      13.399   8.989  -4.167  0.00  0.00     0.048 H 
BRANCH  35  38
ATOM     38  C   LIG d   1      14.933   8.041  -5.345  0.00  0.00     0.038 C 
ATOM     39 CL   LIG d   1      16.456   8.826  -4.787  0.00  0.00    -0.124 Cl
ATOM     40  H   LIG d   1      14.740   7.152  -4.743  0.00  0.00     0.044 H 
ATOM     41  H   LIG d   1      15.033   7.755  -6.392  0.00  0.00     0.044 H 
ENDBRANCH  35  38
ENDBRANCH  34  35
BRANCH  34  42
ATOM     42  C   LIG d   1      12.515   9.374  -7.371  0.00  0.00     0.026 C 
ATOM     43  H   LIG d   1      13.463   9.824  -7.665  0.00  0.00     0.048 H 
ATOM     44  H   LIG d   1      12.184   8.683  -8.147  0.00  0.00     0.048 H 
BRANCH  42  45
ATOM     45  C   LIG d   1      11.466  10.471  -7.183  0.00  0.00     0.038 C 
ATOM     46 CL   LIG d   1       9.841   9.832  -7.635  0.00  0.00    -0.124 Cl
ATOM     47  H   LIG d   1      11.454  10.788  -6.140  0.00  0.00     0.044 H 
ATOM     48  H   LIG d   1      11.711  11.322  -7.819  0.00  0.00     0.044 H 
ENDBRANCH  42  45
ENDBRANCH  34  42
ENDBRANCH   4  34
TORSDOF 7
ENDMDL
MODEL 9
REMARK VINA RESULT:      -5.3     11.118     15.299
REMARK  7 active torsions:
REMARK  status: ('A' for Active; 'I' for Inactive)
REMARK    1  A    between atoms: C_10  and  N_14 
REMARK    2  A    between atoms: C_15  and  C_16 
REMARK    3  A    between atoms: C_19  and  N_22 
REMARK    4  A    between atoms: N_22  and  C_23 
REMARK    5  A    between atoms: N_22  and  C_26 
REMARK    6  A    between atoms: C_23  and  C_24 
REMARK    7  A    between atoms: C_26  and  C_27 
ROOT
ATOM      1  C   LIG d   1       9.681   7.541  -5.929  0.00  0.00    -0.007 A 
ATOM      2  C   LIG d   1       9.201   6.500  -5.126  0.00  0.00    -0.051 A 
ATOM      3  C   LIG d   1       9.376   6.549  -3.762  0.00  0.00    -0.040 A 
ATOM      4  C   LIG d   1      10.028   7.633  -3.181  0.00  0.00     0.030 A 
ATOM      5  C   LIG d   1      10.507   8.670  -3.975  0.00  0.00    -0.040 A 
ATOM      6  C   LIG d   1      10.342   8.626  -5.341  0.00  0.00    -0.051 A 
ATOM      7  H   LIG d   1       8.694   5.660  -5.577  0.00  0.00     0.062 H 
ATOM      8  H   LIG d   1       9.005   5.747  -3.142  0.00  0.00     0.064 H 
ATOM      9  H   LIG d   1      11.012   9.508  -3.520  0.00  0.00     0.064 H 
ATOM     10  H   LIG d   1      10.718   9.428  -5.957  0.00  0.00     0.062 H 
ENDROOT
BRANCH   1  11
ATOM     11  C   LIG d   1       9.496   7.493  -7.386  0.00  0.00     0.035 C 
ATOM     12  N   LIG d   1      10.510   7.704  -8.179  0.00  0.00    -0.255 NA
ATOM     13  H   LIG d   1       8.521   7.283  -7.801  0.00  0.00     0.084 H 
BRANCH  12  14
ATOM     14  C   LIG d   1      10.338   7.658  -9.536  0.00  0.00     0.067 A 
ATOM     15  C   LIG d   1      10.863   8.675 -10.340  0.00  0.00    -0.035 A 
ATOM     16  C   LIG d   1      10.695   8.635 -11.694  0.00  0.00    -0.048 A 
ATOM     17  H   LIG d   1      11.403   9.495  -9.889  0.00  0.00     0.064 H 
ATOM     18  C   LIG d   1       9.999   7.579 -12.279  0.00  0.00     0.028 A 
ATOM     19  H   LIG d   1      11.102   9.421 -12.313  0.00  0.00     0.062 H 
ATOM     20  C   LIG d   1       9.646   7.234 -13.669  0.00  0.00     0.028 A 
ATOM     21  C   LIG d   1       9.467   6.551 -11.486  0.00  0.00     0.138 A 
ATOM     22  C   LIG d   1       8.931   6.030 -13.592  0.00  0.00     0.136 A 
ATOM     23  C   LIG d   1       9.876   7.835 -14.903  0.00  0.00    -0.050 A 
ATOM     24  C   LIG d   1       8.457   5.448 -14.761  0.00  0.00    -0.019 A 
ATOM     25  O   LIG d   1       8.848   5.662 -12.295  0.00  0.00    -0.455 OA
ATOM     26  C   LIG d   1       8.691   6.052 -15.979  0.00  0.00    -0.058 A 
ATOM     27  H   LIG d   1       7.905   4.520 -14.717  0.00  0.00     0.065 H 
ATOM     28  C   LIG d   1       9.398   7.242 -16.053  0.00  0.00    -0.061 A 
ATOM     29  H   LIG d   1       8.320   5.594 -16.884  0.00  0.00     0.062 H 
ATOM     30  H   LIG d   1       9.578   7.703 -17.012  0.00  0.00     0.062 H 
ATOM     31  H   LIG d   1      10.426   8.762 -14.960  0.00  0.00     0.062 H 
ATOM     32  C   LIG d   1       9.640   6.597 -10.112  0.00  0.00     0.007 A 
ATOM     33  H   LIG d   1       9.237   5.812  -9.489  0.00  0.00     0.068 H 
ENDBRANCH  12  14
ENDBRANCH   1  11
BRANCH   4  34
ATOM     34  N   LIG d   1      10.202   7.679  -1.800  0.00  0.00    -0.328 N 
BRANCH  34  35
ATOM     35  C   LIG d   1       9.184   8.306  -0.954  0.00  0.00     0.026 C 
ATOM     36  H   LIG d   1       8.207   8.205  -1.427  0.00  0.00     0.048 H 
ATOM     37  H   LIG d   1       9.169   7.817   0.020  0.00  0.00     0.048 H 
BRANCH  35  38
ATOM     38  C   LIG d   1       9.513   9.789  -0.775  0.00  0.00     0.038 C 
ATOM     39 CL   LIG d   1      10.593   9.997   0.653  0.00  0.00    -0.124 Cl
ATOM     40  H   LIG d   1      10.016  10.160  -1.668  0.00  0.00     0.044 H 
ATOM     41  H   LIG d   1       8.592  10.350  -0.618  0.00  0.00     0.044 H 
ENDBRANCH  35  38
ENDBRANCH  34  35
BRANCH  34  42
ATOM     42  C   LIG d   1      11.404   7.100  -1.193  0.00  0.00     0.026 C 
ATOM     43  H   LIG d   1      12.136   6.885  -1.972  0.00  0.00     0.048 H 
ATOM     44  H   LIG d   1      11.828   7.808  -0.481  0.00  0.00     0.048 H 
BRANCH  42  45
ATOM     45  C   LIG d   1      11.035   5.805  -0.468  0.00  0.00     0.038 C 
ATOM     46 CL   LIG d   1      11.005   6.101   1.311  0.00  0.00    -0.124 Cl
ATOM     47  H   LIG d   1      10.052   5.471  -0.797  0.00  0.00     0.044 H 
ATOM     48  H   LIG d   1      11.775   5.037  -0.695  0.00  0.00     0.044 H 
ENDBRANCH  42  45
ENDBRANCH  34  42
ENDBRANCH   4  34
TORSDOF 7
ENDMDL
MODEL 10
REMARK VINA RESULT:      -5.3      8.695     12.237
REMARK  7 active torsions:
REMARK  status: ('A' for Active; 'I' for Inactive)
REMARK    1  A    between atoms: C_10  and  N_14 
REMARK    2  A    between atoms: C_15  and  C_16 
REMARK    3  A    between atoms: C_19  and  N_22 
REMARK    4  A    between atoms: N_22  and  C_23 
REMARK    5  A    between atoms: N_22  and  C_26 
REMARK    6  A    between atoms: C_23  and  C_24 
REMARK    7  A    between atoms: C_26  and  C_27 
ROOT
ATOM      1  C   LIG d   1       9.520   3.886  -3.861  0.00  0.00    -0.007 A 
ATOM      2  C   LIG d   1      10.237   4.082  -2.675  0.00  0.00    -0.051 A 
ATOM      3  C   LIG d   1      10.789   5.313  -2.402  0.00  0.00    -0.040 A 
ATOM      4  C   LIG d   1      10.633   6.363  -3.303  0.00  0.00     0.030 A 
ATOM      5  C   LIG d   1       9.921   6.173  -4.484  0.00  0.00    -0.040 A 
ATOM      6  C   LIG d   1       9.372   4.943  -4.768  0.00  0.00    -0.051 A 
ATOM      7  H   LIG d   1      10.356   3.268  -1.976  0.00  0.00     0.062 H 
ATOM      8  H   LIG d   1      11.341   5.465  -1.487  0.00  0.00     0.064 H 
ATOM      9  H   LIG d   1       9.803   6.990  -5.179  0.00  0.00     0.064 H 
ATOM     10  H   LIG d   1       8.824   4.795  -5.686  0.00  0.00     0.062 H 
ENDROOT
BRANCH   1  11
ATOM     11  C   LIG d   1       8.929   2.574  -4.157  0.00  0.00     0.035 C 
ATOM     12  N   LIG d   1       7.871   2.173  -3.508  0.00  0.00    -0.255 NA
ATOM     13  H   LIG d   1       9.371   1.940  -4.912  0.00  0.00     0.084 H 
BRANCH  12  14
ATOM     14  C   LIG d   1       7.322   0.951  -3.783  0.00  0.00     0.067 A 
ATOM     15  C   LIG d   1       6.044   0.637  -3.306  0.00  0.00    -0.035 A 
ATOM     16  C   LIG d   1       5.490  -0.580  -3.578  0.00  0.00    -0.048 A 
ATOM     17  H   LIG d   1       5.495   1.360  -2.720  0.00  0.00     0.064 H 
ATOM     18  C   LIG d   1       6.196  -1.514  -4.334  0.00  0.00     0.028 A 
ATOM     19  H   LIG d   1       4.504  -0.820  -3.209  0.00  0.00     0.062 H 
ATOM     20  C   LIG d   1       5.904  -2.883  -4.801  0.00  0.00     0.028 A 
ATOM     21  C   LIG d   1       7.478  -1.214  -4.820  0.00  0.00     0.138 A 
ATOM     22  C   LIG d   1       7.033  -3.287  -5.525  0.00  0.00     0.136 A 
ATOM     23  C   LIG d   1       4.818  -3.741  -4.657  0.00  0.00    -0.050 A 
ATOM     24  C   LIG d   1       7.054  -4.553  -6.097  0.00  0.00    -0.019 A 
ATOM     25  O   LIG d   1       7.934  -2.280  -5.514  0.00  0.00    -0.455 OA
ATOM     26  C   LIG d   1       5.972  -5.397  -5.948  0.00  0.00    -0.058 A 
ATOM     27  H   LIG d   1       7.918  -4.879  -6.658  0.00  0.00     0.065 H 
ATOM     28  C   LIG d   1       4.856  -4.994  -5.232  0.00  0.00    -0.061 A 
ATOM     29  H   LIG d   1       5.994  -6.380  -6.395  0.00  0.00     0.062 H 
ATOM     30  H   LIG d   1       4.014  -5.662  -5.126  0.00  0.00     0.062 H 
ATOM     31  H   LIG d   1       3.949  -3.427  -4.098  0.00  0.00     0.062 H 
ATOM     32  C   LIG d   1       8.036   0.024  -4.540  0.00  0.00     0.007 A 
ATOM     33  H   LIG d   1       9.021   0.269  -4.909  0.00  0.00     0.068 H 
ENDBRANCH  12  14
ENDBRANCH   1  11
BRANCH   4  34
ATOM     34  N   LIG d   1      11.192   7.607  -3.022  0.00  0.00    -0.328 N 
BRANCH  34  35
ATOM     35  C   LIG d   1      12.631   7.724  -2.777  0.00  0.00     0.026 C 
ATOM     36  H   LIG d   1      12.844   8.691  -2.320  0.00  0.00     0.048 H 
ATOM     37  H   LIG d   1      12.952   6.927  -2.107  0.00  0.00     0.048 H 
BRANCH  35  38
ATOM     38  C   LIG d   1      13.386   7.611  -4.103  0.00  0.00     0.038 C 
ATOM     39 CL   LIG d   1      13.973   5.921  -4.318  0.00  0.00    -0.124 Cl
ATOM     40  H   LIG d   1      12.717   7.871  -4.924  0.00  0.00     0.044 H 
ATOM     41  H   LIG d   1      14.236   8.293  -4.098  0.00  0.00     0.044 H 
ENDBRANCH  35  38
ENDBRANCH  34  35
BRANCH  34  42
ATOM     42  C   LIG d   1      10.340   8.798  -2.972  0.00  0.00     0.026 C 
ATOM     43  H   LIG d   1      10.852   9.631  -3.454  0.00  0.00     0.048 H 
ATOM     44  H   LIG d   1       9.403   8.597  -3.492  0.00  0.00     0.048 H 
BRANCH  42  45
ATOM     45  C   LIG d   1      10.048   9.155  -1.513  0.00  0.00     0.038 C 
ATOM     46 CL   LIG d   1       8.566   8.284  -0.967  0.00  0.00    -0.124 Cl
ATOM     47  H   LIG d   1      10.893   8.860  -0.891  0.00  0.00     0.044 H 
ATOM     48  H   LIG d   1       9.890  10.230  -1.426  0.00  0.00     0.044 H 
ENDBRANCH  42  45
ENDBRANCH  34  42
ENDBRANCH   4  34
TORSDOF 7
ENDMDL
