MODEL 1
REMARK VINA RESULT:      -5.9      0.000      0.000
REMARK  11 active torsions:
REMARK  status: ('A' for Active; 'I' for Inactive)
REMARK    1  A    between atoms: C_1  and  C_2 
REMARK    2  A    between atoms: C_2  and  C_3 
REMARK    3  A    between atoms: C_3  and  N_4 
REMARK    4  A    between atoms: N_4  and  C_5 
REMARK    5  A    between atoms: N_4  and  C_8 
REMARK    6  A    between atoms: C_5  and  C_6 
REMARK    7  A    between atoms: C_6  and  C_7 
REMARK    8  A    between atoms: N_10  and  C_11 
REMARK    9  A    between atoms: C_11  and  C_12 
REMARK   10  A    between atoms: C_11  and  C_18 
REMARK   11  A    between atoms: C_11  and  C_24 
ROOT
ATOM      1  C   LIG d   1       5.730  -0.597  -5.662  0.00  0.00     0.110 C 
ENDROOT
BRANCH   1   2
ATOM      2  N   LIG d   1       5.063  -0.025  -6.834  0.00  0.00    -0.309 N 
ATOM      3  C   LIG d   1       5.496  -0.333  -8.072  0.00  0.00     0.134 C 
ATOM      4  S   LIG d   1       6.824  -1.393  -8.277  0.00  0.00    -0.019 SA
ATOM      5  H   LIG d   1       4.311   0.576  -6.718  0.00  0.00     0.149 HD
BRANCH   3   6
ATOM      6  N   LIG d   1       4.882   0.194  -9.151  0.00  0.00    -0.313 N 
BRANCH   6   7
ATOM      7  C   LIG d   1       4.085  -0.664 -10.032  0.00  0.00     0.013 C 
ATOM      8  H   LIG d   1       3.671  -0.066 -10.844  0.00  0.00     0.046 H 
ATOM      9  H   LIG d   1       4.719  -1.449 -10.444  0.00  0.00     0.046 H 
BRANCH   7  10
ATOM     10  C   LIG d   1       2.945  -1.296  -9.232  0.00  0.00    -0.040 C 
ATOM     11  H   LIG d   1       3.039  -2.382  -9.260  0.00  0.00     0.028 H 
ATOM     12  H   LIG d   1       2.993  -0.954  -8.198  0.00  0.00     0.028 H 
BRANCH  10  13
ATOM     13  C   LIG d   1       1.604  -0.886  -9.843  0.00  0.00    -0.064 C 
ATOM     14  H   LIG d   1       1.394  -1.509 -10.711  0.00  0.00     0.023 H 
ATOM     15  H   LIG d   1       0.813  -1.014  -9.104  0.00  0.00     0.023 H 
ATOM     16  H   LIG d   1       1.649   0.160 -10.148  0.00  0.00     0.023 H 
ENDBRANCH  10  13
ENDBRANCH   7  10
ENDBRANCH   6   7
BRANCH   6  17
ATOM     17  C   LIG d   1       5.013   1.623  -9.442  0.00  0.00     0.013 C 
ATOM     18  H   LIG d   1       5.450   2.130  -8.582  0.00  0.00     0.046 H 
ATOM     19  H   LIG d   1       5.657   1.760 -10.310  0.00  0.00     0.046 H 
BRANCH  17  20
ATOM     20  C   LIG d   1       3.632   2.213  -9.733  0.00  0.00    -0.040 C 
ATOM     21  H   LIG d   1       3.745   3.195 -10.194  0.00  0.00     0.028 H 
ATOM     22  H   LIG d   1       3.089   1.554 -10.411  0.00  0.00     0.028 H 
BRANCH  20  23
ATOM     23  C   LIG d   1       2.850   2.352  -8.424  0.00  0.00    -0.064 C 
ATOM     24  H   LIG d   1       3.477   2.839  -7.678  0.00  0.00     0.023 H 
ATOM     25  H   LIG d   1       1.957   2.952  -8.597  0.00  0.00     0.023 H 
ATOM     26  H   LIG d   1       2.561   1.363  -8.067  0.00  0.00     0.023 H 
ENDBRANCH  20  23
ENDBRANCH  17  20
ENDBRANCH   6  17
ENDBRANCH   3   6
ENDBRANCH   1   2
BRANCH   1  27
ATOM     27  C   LIG d   1       7.186  -0.211  -5.674  0.00  0.00    -0.015 A 
ATOM     28  C   LIG d   1       8.150  -1.133  -5.307  0.00  0.00    -0.056 A 
ATOM     29  C   LIG d   1       9.485  -0.781  -5.324  0.00  0.00    -0.061 A 
ATOM     30  H   LIG d   1       7.857  -2.131  -5.013  0.00  0.00     0.062 H 
ATOM     31  C   LIG d   1       9.859   0.498  -5.696  0.00  0.00    -0.062 A 
ATOM     32  H   LIG d   1      10.238  -1.503  -5.042  0.00  0.00     0.062 H 
ATOM     33  C   LIG d   1       8.896   1.419  -6.062  0.00  0.00    -0.061 A 
ATOM     34  H   LIG d   1      10.903   0.773  -5.705  0.00  0.00     0.062 H 
ATOM     35  C   LIG d   1       7.560   1.065  -6.051  0.00  0.00    -0.056 A 
ATOM     36  H   LIG d   1       9.188   2.416  -6.357  0.00  0.00     0.062 H 
ATOM     37  H   LIG d   1       6.808   1.785  -6.337  0.00  0.00     0.062 H 
ENDBRANCH   1  27
BRANCH   1  38
ATOM     38  C   LIG d   1       5.609  -2.100  -5.698  0.00  0.00    -0.015 A 
ATOM     39  C   LIG d   1       4.622  -2.695  -6.463  0.00  0.00    -0.056 A 
ATOM     40  C   LIG d   1       4.512  -4.072  -6.497  0.00  0.00    -0.061 A 
ATOM     41  H   LIG d   1       3.939  -2.084  -7.033  0.00  0.00     0.062 H 
ATOM     42  C   LIG d   1       5.388  -4.854  -5.766  0.00  0.00    -0.062 A 
ATOM     43  H   LIG d   1       3.742  -4.538  -7.094  0.00  0.00     0.062 H 
ATOM     44  C   LIG d   1       6.374  -4.259  -5.003  0.00  0.00    -0.061 A 
ATOM     45  H   LIG d   1       5.301  -5.930  -5.793  0.00  0.00     0.062 H 
ATOM     46  C   LIG d   1       6.488  -2.881  -4.973  0.00  0.00    -0.056 A 
ATOM     47  H   LIG d   1       7.058  -4.870  -4.433  0.00  0.00     0.062 H 
ATOM     48  H   LIG d   1       7.261  -2.417  -4.380  0.00  0.00     0.062 H 
ENDBRANCH   1  38
BRANCH   1  49
ATOM     49  C   LIG d   1       5.081  -0.071  -4.408  0.00  0.00    -0.015 A 
ATOM     50  C   LIG d   1       3.709  -0.147  -4.256  0.00  0.00    -0.056 A 
ATOM     51  C   LIG d   1       3.113   0.335  -3.105  0.00  0.00    -0.061 A 
ATOM     52  H   LIG d   1       3.102  -0.582  -5.036  0.00  0.00     0.062 H 
ATOM     53  C   LIG d   1       3.890   0.893  -2.107  0.00  0.00    -0.062 A 
ATOM     54  H   LIG d   1       2.041   0.277  -2.987  0.00  0.00     0.062 H 
ATOM     55  C   LIG d   1       5.262   0.967  -2.259  0.00  0.00    -0.061 A 
ATOM     56  H   LIG d   1       3.425   1.270  -1.208  0.00  0.00     0.062 H 
ATOM     57  C   LIG d   1       5.858   0.481  -3.407  0.00  0.00    -0.056 A 
ATOM     58  H   LIG d   1       5.869   1.403  -1.478  0.00  0.00     0.062 H 
ATOM     59  H   LIG d   1       6.930   0.535  -3.523  0.00  0.00     0.062 H 
ENDBRANCH   1  49
TORSDOF 11
ENDMDL
MODEL 2
REMARK VINA RESULT:      -5.9      0.057      4.001
REMARK  11 active torsions:
REMARK  status: ('A' for Active; 'I' for Inactive)
REMARK    1  A    between atoms: C_1  and  C_2 
REMARK    2  A    between atoms: C_2  and  C_3 
REMARK    3  A    between atoms: C_3  and  N_4 
REMARK    4  A    between atoms: N_4  and  C_5 
REMARK    5  A    between atoms: N_4  and  C_8 
REMARK    6  A    between atoms: C_5  and  C_6 
REMARK    7  A    between atoms: C_6  and  C_7 
REMARK    8  A    between atoms: N_10  and  C_11 
REMARK    9  A    between atoms: C_11  and  C_12 
REMARK   10  A    between atoms: C_11  and  C_18 
REMARK   11  A    between atoms: C_11  and  C_24 
ROOT
ATOM      1  C   LIG d   1       5.752  -0.583  -5.661  0.00  0.00     0.110 C 
ENDROOT
BRANCH   1   2
ATOM      2  N   LIG d   1       5.077  -0.027  -6.837  0.00  0.00    -0.309 N 
ATOM      3  C   LIG d   1       5.515  -0.336  -8.073  0.00  0.00     0.134 C 
ATOM      4  S   LIG d   1       6.857  -1.379  -8.271  0.00  0.00    -0.019 SA
ATOM      5  H   LIG d   1       4.317   0.564  -6.723  0.00  0.00     0.149 HD
BRANCH   3   6
ATOM      6  N   LIG d   1       4.894   0.176  -9.154  0.00  0.00    -0.313 N 
BRANCH   6   7
ATOM      7  C   LIG d   1       4.097  -0.695 -10.022  0.00  0.00     0.013 C 
ATOM      8  H   LIG d   1       3.690  -0.111 -10.848  0.00  0.00     0.046 H 
ATOM      9  H   LIG d   1       4.729  -1.492 -10.416  0.00  0.00     0.046 H 
BRANCH   7  10
ATOM     10  C   LIG d   1       2.949  -1.306  -9.216  0.00  0.00    -0.040 C 
ATOM     11  H   LIG d   1       3.048  -2.391  -9.207  0.00  0.00     0.028 H 
ATOM     12  H   LIG d   1       2.983  -0.930  -8.193  0.00  0.00     0.028 H 
BRANCH  10  13
ATOM     13  C   LIG d   1       1.614  -0.921  -9.857  0.00  0.00    -0.064 C 
ATOM     14  H   LIG d   1       1.202  -0.052  -9.344  0.00  0.00     0.023 H 
ATOM     15  H   LIG d   1       1.772  -0.682 -10.908  0.00  0.00     0.023 H 
ATOM     16  H   LIG d   1       0.918  -1.756  -9.774  0.00  0.00     0.023 H 
ENDBRANCH  10  13
ENDBRANCH   7  10
ENDBRANCH   6   7
BRANCH   6  17
ATOM     17  C   LIG d   1       5.017   1.603  -9.462  0.00  0.00     0.013 C 
ATOM     18  H   LIG d   1       5.459   2.121  -8.611  0.00  0.00     0.046 H 
ATOM     19  H   LIG d   1       5.652   1.733 -10.337  0.00  0.00     0.046 H 
BRANCH  17  20
ATOM     20  C   LIG d   1       3.631   2.184  -9.747  0.00  0.00    -0.040 C 
ATOM     21  H   LIG d   1       3.737   3.163 -10.217  0.00  0.00     0.028 H 
ATOM     22  H   LIG d   1       3.086   1.518 -10.415  0.00  0.00     0.028 H 
BRANCH  20  23
ATOM     23  C   LIG d   1       2.859   2.331  -8.433  0.00  0.00    -0.064 C 
ATOM     24  H   LIG d   1       2.041   3.038  -8.570  0.00  0.00     0.023 H 
ATOM     25  H   LIG d   1       2.456   1.362  -8.139  0.00  0.00     0.023 H 
ATOM     26  H   LIG d   1       3.530   2.697  -7.656  0.00  0.00     0.023 H 
ENDBRANCH  20  23
ENDBRANCH  17  20
ENDBRANCH   6  17
ENDBRANCH   3   6
ENDBRANCH   1   2
BRANCH   1  27
ATOM     27  C   LIG d   1       5.652  -2.086  -5.688  0.00  0.00    -0.015 A 
ATOM     28  C   LIG d   1       6.564  -2.853  -4.986  0.00  0.00    -0.056 A 
ATOM     29  C   LIG d   1       6.467  -4.232  -5.007  0.00  0.00    -0.061 A 
ATOM     30  H   LIG d   1       7.347  -2.374  -4.418  0.00  0.00     0.062 H 
ATOM     31  C   LIG d   1       5.467  -4.844  -5.739  0.00  0.00    -0.062 A 
ATOM     32  H   LIG d   1       7.178  -4.830  -4.454  0.00  0.00     0.062 H 
ATOM     33  C   LIG d   1       4.556  -4.078  -6.440  0.00  0.00    -0.061 A 
ATOM     34  H   LIG d   1       5.395  -5.922  -5.757  0.00  0.00     0.062 H 
ATOM     35  C   LIG d   1       4.648  -2.699  -6.415  0.00  0.00    -0.056 A 
ATOM     36  H   LIG d   1       3.772  -4.556  -7.007  0.00  0.00     0.062 H 
ATOM     37  H   LIG d   1       3.936  -2.100  -6.963  0.00  0.00     0.062 H 
ENDBRANCH   1  27
BRANCH   1  38
ATOM     38  C   LIG d   1       5.094  -0.059  -4.409  0.00  0.00    -0.015 A 
ATOM     39  C   LIG d   1       3.715  -0.061  -4.301  0.00  0.00    -0.056 A 
ATOM     40  C   LIG d   1       3.113   0.419  -3.154  0.00  0.00    -0.061 A 
ATOM     41  H   LIG d   1       3.111  -0.436  -5.112  0.00  0.00     0.062 H 
ATOM     42  C   LIG d   1       3.888   0.900  -2.115  0.00  0.00    -0.062 A 
ATOM     43  H   LIG d   1       2.036   0.418  -3.068  0.00  0.00     0.062 H 
ATOM     44  C   LIG d   1       5.265   0.901  -2.223  0.00  0.00    -0.061 A 
ATOM     45  H   LIG d   1       3.416   1.275  -1.218  0.00  0.00     0.062 H 
ATOM     46  C   LIG d   1       5.869   0.416  -3.369  0.00  0.00    -0.056 A 
ATOM     47  H   LIG d   1       5.871   1.276  -1.412  0.00  0.00     0.062 H 
ATOM     48  H   LIG d   1       6.945   0.413  -3.451  0.00  0.00     0.062 H 
ENDBRANCH   1  38
BRANCH   1  49
ATOM     49  C   LIG d   1       7.202  -0.176  -5.673  0.00  0.00    -0.015 A 
ATOM     50  C   LIG d   1       8.179  -1.089  -5.322  0.00  0.00    -0.056 A 
ATOM     51  C   LIG d   1       9.511  -0.716  -5.334  0.00  0.00    -0.061 A 
ATOM     52  H   LIG d   1       7.903  -2.094  -5.039  0.00  0.00     0.062 H 
ATOM     53  C   LIG d   1       9.865   0.570  -5.696  0.00  0.00    -0.062 A 
ATOM     54  H   LIG d   1      10.274  -1.430  -5.058  0.00  0.00     0.062 H 
ATOM     55  C   LIG d   1       8.888   1.482  -6.048  0.00  0.00    -0.061 A 
ATOM     56  H   LIG d   1      10.905   0.862  -5.704  0.00  0.00     0.062 H 
ATOM     57  C   LIG d   1       7.558   1.108  -6.041  0.00  0.00    -0.056 A 
ATOM     58  H   LIG d   1       9.165   2.488  -6.332  0.00  0.00     0.062 H 
ATOM     59  H   LIG d   1       6.795   1.820  -6.321  0.00  0.00     0.062 H 
ENDBRANCH   1  49
TORSDOF 11
ENDMDL
MODEL 3
REMARK VINA RESULT:      -5.9      2.232      6.365
REMARK  11 active torsions:
REMARK  status: ('A' for Active; 'I' for Inactive)
REMARK    1  A    between atoms: C_1  and  C_2 
REMARK    2  A    between atoms: C_2  and  C_3 
REMARK    3  A    between atoms: C_3  and  N_4 
REMARK    4  A    between atoms: N_4  and  C_5 
REMARK    5  A    between atoms: N_4  and  C_8 
REMARK    6  A    between atoms: C_5  and  C_6 
REMARK    7  A    between atoms: C_6  and  C_7 
REMARK    8  A    between atoms: N_10  and  C_11 
REMARK    9  A    between atoms: C_11  and  C_12 
REMARK   10  A    between atoms: C_11  and  C_18 
REMARK   11  A    between atoms: C_11  and  C_24 
ROOT
ATOM      1  C   LIG d   1       4.018  -1.615  -8.375  0.00  0.00     0.110 C 
ENDROOT
BRANCH   1   2
ATOM      2  N   LIG d   1       3.730  -1.694  -6.941  0.00  0.00    -0.309 N 
ATOM      3  C   LIG d   1       4.500  -1.025  -6.061  0.00  0.00     0.134 C 
ATOM      4  S   LIG d   1       5.816  -0.082  -6.618  0.00  0.00    -0.019 SA
ATOM      5  H   LIG d   1       2.985  -2.228  -6.626  0.00  0.00     0.149 HD
BRANCH   3   6
ATOM      6  N   LIG d   1       4.234  -1.097  -4.742  0.00  0.00    -0.313 N 
BRANCH   6   7
ATOM      7  C   LIG d   1       3.667   0.060  -4.044  0.00  0.00     0.013 C 
ATOM      8  H   LIG d   1       4.301   0.931  -4.210  0.00  0.00     0.046 H 
ATOM      9  H   LIG d   1       2.666   0.260  -4.427  0.00  0.00     0.046 H 
BRANCH   7  10
ATOM     10  C   LIG d   1       3.589  -0.237  -2.545  0.00  0.00    -0.040 C 
ATOM     11  H   LIG d   1       2.563  -0.108  -2.201  0.00  0.00     0.028 H 
ATOM     12  H   LIG d   1       3.908  -1.263  -2.360  0.00  0.00     0.028 H 
BRANCH  10  13
ATOM     13  C   LIG d   1       4.506   0.726  -1.787  0.00  0.00    -0.064 C 
ATOM     14  H   LIG d   1       4.870   0.244  -0.880  0.00  0.00     0.023 H 
ATOM     15  H   LIG d   1       5.351   0.996  -2.419  0.00  0.00     0.023 H 
ATOM     16  H   LIG d   1       3.948   1.624  -1.522  0.00  0.00     0.023 H 
ENDBRANCH  10  13
ENDBRANCH   7  10
ENDBRANCH   6   7
BRANCH   6  17
ATOM     17  C   LIG d   1       4.513  -2.333  -4.005  0.00  0.00     0.013 C 
ATOM     18  H   LIG d   1       4.324  -2.173  -2.944  0.00  0.00     0.046 H 
ATOM     19  H   LIG d   1       3.867  -3.129  -4.374  0.00  0.00     0.046 H 
BRANCH  17  20
ATOM     20  C   LIG d   1       5.977  -2.728  -4.208  0.00  0.00    -0.040 C 
ATOM     21  H   LIG d   1       6.108  -3.780  -3.952  0.00  0.00     0.028 H 
ATOM     22  H   LIG d   1       6.256  -2.570  -5.250  0.00  0.00     0.028 H 
BRANCH  20  23
ATOM     23  C   LIG d   1       6.867  -1.869  -3.306  0.00  0.00    -0.064 C 
ATOM     24  H   LIG d   1       6.731  -0.818  -3.559  0.00  0.00     0.023 H 
ATOM     25  H   LIG d   1       6.591  -2.031  -2.264  0.00  0.00     0.023 H 
ATOM     26  H   LIG d   1       7.910  -2.147  -3.455  0.00  0.00     0.023 H 
ENDBRANCH  20  23
ENDBRANCH  17  20
ENDBRANCH   6  17
ENDBRANCH   3   6
ENDBRANCH   1   2
BRANCH   1  27
ATOM     27  C   LIG d   1       3.081  -2.524  -9.127  0.00  0.00    -0.015 A 
ATOM     28  C   LIG d   1       1.980  -1.998  -9.778  0.00  0.00    -0.056 A 
ATOM     29  C   LIG d   1       1.125  -2.831 -10.473  0.00  0.00    -0.061 A 
ATOM     30  H   LIG d   1       1.794  -0.934  -9.748  0.00  0.00     0.062 H 
ATOM     31  C   LIG d   1       1.361  -4.193 -10.507  0.00  0.00    -0.062 A 
ATOM     32  H   LIG d   1       0.267  -2.418 -10.985  0.00  0.00     0.062 H 
ATOM     33  C   LIG d   1       2.460  -4.719  -9.856  0.00  0.00    -0.061 A 
ATOM     34  H   LIG d   1       0.689  -4.844 -11.047  0.00  0.00     0.062 H 
ATOM     35  C   LIG d   1       3.321  -3.885  -9.166  0.00  0.00    -0.056 A 
ATOM     36  H   LIG d   1       2.648  -5.782  -9.886  0.00  0.00     0.062 H 
ATOM     37  H   LIG d   1       4.180  -4.297  -8.658  0.00  0.00     0.062 H 
ENDBRANCH   1  27
BRANCH   1  38
ATOM     38  C   LIG d   1       5.442  -2.045  -8.625  0.00  0.00    -0.015 A 
ATOM     39  C   LIG d   1       6.023  -3.012  -7.825  0.00  0.00    -0.056 A 
ATOM     40  C   LIG d   1       7.327  -3.406  -8.056  0.00  0.00    -0.061 A 
ATOM     41  H   LIG d   1       5.457  -3.458  -7.022  0.00  0.00     0.062 H 
ATOM     42  C   LIG d   1       8.051  -2.833  -9.085  0.00  0.00    -0.062 A 
ATOM     43  H   LIG d   1       7.782  -4.161  -7.431  0.00  0.00     0.062 H 
ATOM     44  C   LIG d   1       7.470  -1.868  -9.885  0.00  0.00    -0.061 A 
ATOM     45  H   LIG d   1       9.071  -3.141  -9.264  0.00  0.00     0.062 H 
ATOM     46  C   LIG d   1       6.164  -1.477  -9.658  0.00  0.00    -0.056 A 
ATOM     47  H   LIG d   1       8.035  -1.421 -10.689  0.00  0.00     0.062 H 
ATOM     48  H   LIG d   1       5.708  -0.726 -10.286  0.00  0.00     0.062 H 
ENDBRANCH   1  38
BRANCH   1  49
ATOM     49  C   LIG d   1       3.831  -0.198  -8.849  0.00  0.00    -0.015 A 
ATOM     50  C   LIG d   1       3.092   0.692  -8.092  0.00  0.00    -0.056 A 
ATOM     51  C   LIG d   1       2.920   1.994  -8.526  0.00  0.00    -0.061 A 
ATOM     52  H   LIG d   1       2.649   0.371  -7.161  0.00  0.00     0.062 H 
ATOM     53  C   LIG d   1       3.487   2.404  -9.719  0.00  0.00    -0.062 A 
ATOM     54  H   LIG d   1       2.342   2.688  -7.935  0.00  0.00     0.062 H 
ATOM     55  C   LIG d   1       4.226   1.515 -10.475  0.00  0.00    -0.061 A 
ATOM     56  H   LIG d   1       3.352   3.421 -10.058  0.00  0.00     0.062 H 
ATOM     57  C   LIG d   1       4.402   0.216 -10.038  0.00  0.00    -0.056 A 
ATOM     58  H   LIG d   1       4.670   1.837 -11.406  0.00  0.00     0.062 H 
ATOM     59  H   LIG d   1       4.984  -0.478 -10.627  0.00  0.00     0.062 H 
ENDBRANCH   1  49
TORSDOF 11
ENDMDL
MODEL 4
REMARK VINA RESULT:      -5.9      2.283      6.337
REMARK  11 active torsions:
REMARK  status: ('A' for Active; 'I' for Inactive)
REMARK    1  A    between atoms: C_1  and  C_2 
REMARK    2  A    between atoms: C_2  and  C_3 
REMARK    3  A    between atoms: C_3  and  N_4 
REMARK    4  A    between atoms: N_4  and  C_5 
REMARK    5  A    between atoms: N_4  and  C_8 
REMARK    6  A    between atoms: C_5  and  C_6 
REMARK    7  A    between atoms: C_6  and  C_7 
REMARK    8  A    between atoms: N_10  and  C_11 
REMARK    9  A    between atoms: C_11  and  C_12 
REMARK   10  A    between atoms: C_11  and  C_18 
REMARK   11  A    between atoms: C_11  and  C_24 
ROOT
ATOM      1  C   LIG d   1       3.923  -1.551  -8.372  0.00  0.00     0.110 C 
ENDROOT
BRANCH   1   2
ATOM      2  N   LIG d   1       3.574  -1.593  -6.949  0.00  0.00    -0.309 N 
ATOM      3  C   LIG d   1       4.335  -0.940  -6.049  0.00  0.00     0.134 C 
ATOM      4  S   LIG d   1       5.710  -0.061  -6.567  0.00  0.00    -0.019 SA
ATOM      5  H   LIG d   1       2.796  -2.091  -6.657  0.00  0.00     0.149 HD
BRANCH   3   6
ATOM      6  N   LIG d   1       4.014  -0.979  -4.741  0.00  0.00    -0.313 N 
BRANCH   6   7
ATOM      7  C   LIG d   1       3.385   0.183  -4.106  0.00  0.00     0.013 C 
ATOM      8  H   LIG d   1       3.951   1.082  -4.352  0.00  0.00     0.046 H 
ATOM      9  H   LIG d   1       2.362   0.286  -4.470  0.00  0.00     0.046 H 
BRANCH   7  10
ATOM     10  C   LIG d   1       3.371  -0.011  -2.589  0.00  0.00    -0.040 C 
ATOM     11  H   LIG d   1       2.360   0.146  -2.212  0.00  0.00     0.028 H 
ATOM     12  H   LIG d   1       3.695  -1.023  -2.349  0.00  0.00     0.028 H 
BRANCH  10  13
ATOM     13  C   LIG d   1       4.320   0.996  -1.937  0.00  0.00    -0.064 C 
ATOM     14  H   LIG d   1       4.493   0.714  -0.899  0.00  0.00     0.023 H 
ATOM     15  H   LIG d   1       5.268   1.003  -2.475  0.00  0.00     0.023 H 
ATOM     16  H   LIG d   1       3.875   1.991  -1.974  0.00  0.00     0.023 H 
ENDBRANCH  10  13
ENDBRANCH   7  10
ENDBRANCH   6   7
BRANCH   6  17
ATOM     17  C   LIG d   1       4.293  -2.182  -3.954  0.00  0.00     0.013 C 
ATOM     18  H   LIG d   1       4.107  -1.977  -2.900  0.00  0.00     0.046 H 
ATOM     19  H   LIG d   1       3.645  -2.992  -4.286  0.00  0.00     0.046 H 
BRANCH  17  20
ATOM     20  C   LIG d   1       5.756  -2.587  -4.143  0.00  0.00    -0.040 C 
ATOM     21  H   LIG d   1       5.880  -3.637  -3.874  0.00  0.00     0.028 H 
ATOM     22  H   LIG d   1       6.042  -2.443  -5.185  0.00  0.00     0.028 H 
BRANCH  20  23
ATOM     23  C   LIG d   1       6.645  -1.723  -3.246  0.00  0.00    -0.064 C 
ATOM     24  H   LIG d   1       6.389  -1.901  -2.202  0.00  0.00     0.023 H 
ATOM     25  H   LIG d   1       7.690  -1.982  -3.414  0.00  0.00     0.023 H 
ATOM     26  H   LIG d   1       6.488  -0.670  -3.485  0.00  0.00     0.023 H 
ENDBRANCH  20  23
ENDBRANCH  17  20
ENDBRANCH   6  17
ENDBRANCH   3   6
ENDBRANCH   1   2
BRANCH   1  27
ATOM     27  C   LIG d   1       5.345  -2.017  -8.554  0.00  0.00    -0.015 A 
ATOM     28  C   LIG d   1       6.149  -1.426  -9.511  0.00  0.00    -0.056 A 
ATOM     29  C   LIG d   1       7.455  -1.849  -9.673  0.00  0.00    -0.061 A 
ATOM     30  H   LIG d   1       5.758  -0.629 -10.127  0.00  0.00     0.062 H 
ATOM     31  C   LIG d   1       7.953  -2.872  -8.888  0.00  0.00    -0.062 A 
ATOM     32  H   LIG d   1       8.084  -1.384 -10.418  0.00  0.00     0.062 H 
ATOM     33  C   LIG d   1       7.149  -3.463  -7.932  0.00  0.00    -0.061 A 
ATOM     34  H   LIG d   1       8.972  -3.205  -9.018  0.00  0.00     0.062 H 
ATOM     35  C   LIG d   1       5.845  -3.036  -7.765  0.00  0.00    -0.056 A 
ATOM     36  H   LIG d   1       7.539  -4.258  -7.315  0.00  0.00     0.062 H 
ATOM     37  H   LIG d   1       5.217  -3.497  -7.017  0.00  0.00     0.062 H 
ENDBRANCH   1  27
BRANCH   1  38
ATOM     38  C   LIG d   1       3.789  -0.138  -8.881  0.00  0.00    -0.015 A 
ATOM     39  C   LIG d   1       4.346   0.214 -10.096  0.00  0.00    -0.056 A 
ATOM     40  C   LIG d   1       4.222   1.509 -10.563  0.00  0.00    -0.061 A 
ATOM     41  H   LIG d   1       4.877  -0.522 -10.680  0.00  0.00     0.062 H 
ATOM     42  C   LIG d   1       3.542   2.452  -9.814  0.00  0.00    -0.062 A 
ATOM     43  H   LIG d   1       4.657   1.786 -11.512  0.00  0.00     0.062 H 
ATOM     44  C   LIG d   1       2.985   2.099  -8.599  0.00  0.00    -0.061 A 
ATOM     45  H   LIG d   1       3.446   3.464 -10.179  0.00  0.00     0.062 H 
ATOM     46  C   LIG d   1       3.104   0.802  -8.135  0.00  0.00    -0.056 A 
ATOM     47  H   LIG d   1       2.454   2.835  -8.015  0.00  0.00     0.062 H 
ATOM     48  H   LIG d   1       2.665   0.526  -7.188  0.00  0.00     0.062 H 
ENDBRANCH   1  38
BRANCH   1  49
ATOM     49  C   LIG d   1       2.996  -2.453  -9.144  0.00  0.00    -0.015 A 
ATOM     50  C   LIG d   1       1.912  -1.919  -9.814  0.00  0.00    -0.056 A 
ATOM     51  C   LIG d   1       1.060  -2.746 -10.524  0.00  0.00    -0.061 A 
ATOM     52  H   LIG d   1       1.729  -0.855  -9.784  0.00  0.00     0.062 H 
ATOM     53  C   LIG d   1       1.294  -4.108 -10.561  0.00  0.00    -0.062 A 
ATOM     54  H   LIG d   1       0.213  -2.328 -11.046  0.00  0.00     0.062 H 
ATOM     55  C   LIG d   1       2.379  -4.642  -9.892  0.00  0.00    -0.061 A 
ATOM     56  H   LIG d   1       0.629  -4.754 -11.115  0.00  0.00     0.062 H 
ATOM     57  C   LIG d   1       3.233  -3.814  -9.188  0.00  0.00    -0.056 A 
ATOM     58  H   LIG d   1       2.562  -5.707  -9.923  0.00  0.00     0.062 H 
ATOM     59  H   LIG d   1       4.083  -4.232  -8.669  0.00  0.00     0.062 H 
ENDBRANCH   1  49
TORSDOF 11
ENDMDL
MODEL 5
REMARK VINA RESULT:      -5.9      1.853      2.730
REMARK  11 active torsions:
REMARK  status: ('A' for Active; 'I' for Inactive)
REMARK    1  A    between atoms: C_1  and  C_2 
REMARK    2  A    between atoms: C_2  and  C_3 
REMARK    3  A    between atoms: C_3  and  N_4 
REMARK    4  A    between atoms: N_4  and  C_5 
REMARK    5  A    between atoms: N_4  and  C_8 
REMARK    6  A    between atoms: C_5  and  C_6 
REMARK    7  A    between atoms: C_6  and  C_7 
REMARK    8  A    between atoms: N_10  and  C_11 
REMARK    9  A    between atoms: C_11  and  C_12 
REMARK   10  A    between atoms: C_11  and  C_18 
REMARK   11  A    between atoms: C_11  and  C_24 
ROOT
ATOM      1  C   LIG d   1       6.357  -1.025  -5.466  0.00  0.00     0.110 C 
ENDROOT
BRANCH   1   2
ATOM      2  N   LIG d   1       5.862  -1.048  -6.844  0.00  0.00    -0.309 N 
ATOM      3  C   LIG d   1       5.082  -2.064  -7.263  0.00  0.00     0.134 C 
ATOM      4  S   LIG d   1       4.667  -3.327  -6.184  0.00  0.00    -0.019 SA
ATOM      5  H   LIG d   1       6.097  -0.333  -7.455  0.00  0.00     0.149 HD
BRANCH   3   6
ATOM      6  N   LIG d   1       4.626  -2.085  -8.531  0.00  0.00    -0.313 N 
BRANCH   6   7
ATOM      7  C   LIG d   1       5.557  -2.314  -9.640  0.00  0.00     0.013 C 
ATOM      8  H   LIG d   1       6.580  -2.302  -9.264  0.00  0.00     0.046 H 
ATOM      9  H   LIG d   1       5.348  -3.283 -10.095  0.00  0.00     0.046 H 
BRANCH   7  10
ATOM     10  C   LIG d   1       5.384  -1.212 -10.687  0.00  0.00    -0.040 C 
ATOM     11  H   LIG d   1       5.776  -1.555 -11.644  0.00  0.00     0.028 H 
ATOM     12  H   LIG d   1       4.326  -0.973 -10.792  0.00  0.00     0.028 H 
BRANCH  10  13
ATOM     13  C   LIG d   1       6.148   0.037 -10.242  0.00  0.00    -0.064 C 
ATOM     14  H   LIG d   1       5.586   0.547  -9.460  0.00  0.00     0.023 H 
ATOM     15  H   LIG d   1       7.125  -0.252  -9.857  0.00  0.00     0.023 H 
ATOM     16  H   LIG d   1       6.276   0.707 -11.092  0.00  0.00     0.023 H 
ENDBRANCH  10  13
ENDBRANCH   7  10
ENDBRANCH   6   7
BRANCH   6  17
ATOM     17  C   LIG d   1       3.202  -1.877  -8.802  0.00  0.00     0.013 C 
ATOM     18  H   LIG d   1       3.040  -1.831  -9.878  0.00  0.00     0.046 H 
ATOM     19  H   LIG d   1       2.628  -2.703  -8.383  0.00  0.00     0.046 H 
BRANCH  17  20
ATOM     20  C   LIG d   1       2.747  -0.564  -8.162  0.00  0.00    -0.040 C 
ATOM     21  H   LIG d   1       1.868  -0.746  -7.544  0.00  0.00     0.028 H 
ATOM     22  H   LIG d   1       3.550  -0.163  -7.543  0.00  0.00     0.028 H 
BRANCH  20  23
ATOM     23  C   LIG d   1       2.400   0.445  -9.260  0.00  0.00    -0.064 C 
ATOM     24  H   LIG d   1       2.742   0.065 -10.222  0.00  0.00     0.023 H 
ATOM     25  H   LIG d   1       1.320   0.591  -9.289  0.00  0.00     0.023 H 
ATOM     26  H   LIG d   1       2.891   1.395  -9.048  0.00  0.00     0.023 H 
ENDBRANCH  20  23
ENDBRANCH  17  20
ENDBRANCH   6  17
ENDBRANCH   3   6
ENDBRANCH   1   2
BRANCH   1  27
ATOM     27  C   LIG d   1       7.123   0.250  -5.228  0.00  0.00    -0.015 A 
ATOM     28  C   LIG d   1       7.236   0.762  -3.948  0.00  0.00    -0.056 A 
ATOM     29  C   LIG d   1       7.944   1.928  -3.730  0.00  0.00    -0.061 A 
ATOM     30  H   LIG d   1       6.774   0.246  -3.119  0.00  0.00     0.062 H 
ATOM     31  C   LIG d   1       8.529   2.591  -4.793  0.00  0.00    -0.062 A 
ATOM     32  H   LIG d   1       8.035   2.325  -2.729  0.00  0.00     0.062 H 
ATOM     33  C   LIG d   1       8.417   2.080  -6.072  0.00  0.00    -0.061 A 
ATOM     34  H   LIG d   1       9.080   3.505  -4.622  0.00  0.00     0.062 H 
ATOM     35  C   LIG d   1       7.714   0.909  -6.290  0.00  0.00    -0.056 A 
ATOM     36  H   LIG d   1       8.879   2.594  -6.901  0.00  0.00     0.062 H 
ATOM     37  H   LIG d   1       7.627   0.510  -7.289  0.00  0.00     0.062 H 
ENDBRANCH   1  27
BRANCH   1  38
ATOM     38  C   LIG d   1       7.266  -2.206  -5.239  0.00  0.00    -0.015 A 
ATOM     39  C   LIG d   1       7.548  -2.625  -3.951  0.00  0.00    -0.056 A 
ATOM     40  C   LIG d   1       8.380  -3.708  -3.744  0.00  0.00    -0.061 A 
ATOM     41  H   LIG d   1       7.117  -2.105  -3.109  0.00  0.00     0.062 H 
ATOM     42  C   LIG d   1       8.932  -4.373  -4.823  0.00  0.00    -0.062 A 
ATOM     43  H   LIG d   1       8.601  -4.035  -2.738  0.00  0.00     0.062 H 
ATOM     44  C   LIG d   1       8.649  -3.956  -6.110  0.00  0.00    -0.061 A 
ATOM     45  H   LIG d   1       9.583  -5.219  -4.660  0.00  0.00     0.062 H 
ATOM     46  C   LIG d   1       7.812  -2.875  -6.318  0.00  0.00    -0.056 A 
ATOM     47  H   LIG d   1       9.079  -4.475  -6.953  0.00  0.00     0.062 H 
ATOM     48  H   LIG d   1       7.588  -2.552  -7.323  0.00  0.00     0.062 H 
ENDBRANCH   1  38
BRANCH   1  49
ATOM     49  C   LIG d   1       5.193  -1.097  -4.512  0.00  0.00    -0.015 A 
ATOM     50  C   LIG d   1       5.220  -1.987  -3.455  0.00  0.00    -0.056 A 
ATOM     51  C   LIG d   1       4.152  -2.054  -2.579  0.00  0.00    -0.061 A 
ATOM     52  H   LIG d   1       6.074  -2.632  -3.313  0.00  0.00     0.062 H 
ATOM     53  C   LIG d   1       3.057  -1.229  -2.761  0.00  0.00    -0.062 A 
ATOM     54  H   LIG d   1       4.172  -2.750  -1.754  0.00  0.00     0.062 H 
ATOM     55  C   LIG d   1       3.032  -0.338  -3.817  0.00  0.00    -0.061 A 
ATOM     56  H   LIG d   1       2.223  -1.281  -2.077  0.00  0.00     0.062 H 
ATOM     57  C   LIG d   1       4.101  -0.268  -4.689  0.00  0.00    -0.056 A 
ATOM     58  H   LIG d   1       2.176   0.307  -3.958  0.00  0.00     0.062 H 
ATOM     59  H   LIG d   1       4.082   0.432  -5.512  0.00  0.00     0.062 H 
ENDBRANCH   1  49
TORSDOF 11
ENDMDL
MODEL 6
REMARK VINA RESULT:      -5.9      1.852      3.611
REMARK  11 active torsions:
REMARK  status: ('A' for Active; 'I' for Inactive)
REMARK    1  A    between atoms: C_1  and  C_2 
REMARK    2  A    between atoms: C_2  and  C_3 
REMARK    3  A    between atoms: C_3  and  N_4 
REMARK    4  A    between atoms: N_4  and  C_5 
REMARK    5  A    between atoms: N_4  and  C_8 
REMARK    6  A    between atoms: C_5  and  C_6 
REMARK    7  A    between atoms: C_6  and  C_7 
REMARK    8  A    between atoms: N_10  and  C_11 
REMARK    9  A    between atoms: C_11  and  C_12 
REMARK   10  A    between atoms: C_11  and  C_18 
REMARK   11  A    between atoms: C_11  and  C_24 
ROOT
ATOM      1  C   LIG d   1       6.357  -1.023  -5.471  0.00  0.00     0.110 C 
ENDROOT
BRANCH   1   2
ATOM      2  N   LIG d   1       5.857  -1.043  -6.848  0.00  0.00    -0.309 N 
ATOM      3  C   LIG d   1       5.080  -2.060  -7.268  0.00  0.00     0.134 C 
ATOM      4  S   LIG d   1       4.674  -3.329  -6.193  0.00  0.00    -0.019 SA
ATOM      5  H   LIG d   1       6.088  -0.325  -7.457  0.00  0.00     0.149 HD
BRANCH   3   6
ATOM      6  N   LIG d   1       4.620  -2.079  -8.535  0.00  0.00    -0.313 N 
BRANCH   6   7
ATOM      7  C   LIG d   1       5.547  -2.310  -9.647  0.00  0.00     0.013 C 
ATOM      8  H   LIG d   1       6.571  -2.307  -9.274  0.00  0.00     0.046 H 
ATOM      9  H   LIG d   1       5.329  -3.276 -10.105  0.00  0.00     0.046 H 
BRANCH   7  10
ATOM     10  C   LIG d   1       5.379  -1.202 -10.689  0.00  0.00    -0.040 C 
ATOM     11  H   LIG d   1       5.754  -1.549 -11.652  0.00  0.00     0.028 H 
ATOM     12  H   LIG d   1       4.324  -0.946 -10.780  0.00  0.00     0.028 H 
BRANCH  10  13
ATOM     13  C   LIG d   1       6.168   0.033 -10.250  0.00  0.00    -0.064 C 
ATOM     14  H   LIG d   1       6.034   0.189  -9.180  0.00  0.00     0.023 H 
ATOM     15  H   LIG d   1       7.226  -0.116 -10.465  0.00  0.00     0.023 H 
ATOM     16  H   LIG d   1       5.806   0.906 -10.792  0.00  0.00     0.023 H 
ENDBRANCH  10  13
ENDBRANCH   7  10
ENDBRANCH   6   7
BRANCH   6  17
ATOM     17  C   LIG d   1       3.196  -1.866  -8.800  0.00  0.00     0.013 C 
ATOM     18  H   LIG d   1       3.030  -1.816  -9.876  0.00  0.00     0.046 H 
ATOM     19  H   LIG d   1       2.621  -2.692  -8.382  0.00  0.00     0.046 H 
BRANCH  17  20
ATOM     20  C   LIG d   1       2.747  -0.553  -8.155  0.00  0.00    -0.040 C 
ATOM     21  H   LIG d   1       1.861  -0.732  -7.546  0.00  0.00     0.028 H 
ATOM     22  H   LIG d   1       3.548  -0.164  -7.526  0.00  0.00     0.028 H 
BRANCH  20  23
ATOM     23  C   LIG d   1       2.417   0.466  -9.248  0.00  0.00    -0.064 C 
ATOM     24  H   LIG d   1       3.265   1.135  -9.388  0.00  0.00     0.023 H 
ATOM     25  H   LIG d   1       2.209  -0.057 -10.181  0.00  0.00     0.023 H 
ATOM     26  H   LIG d   1       1.542   1.045  -8.953  0.00  0.00     0.023 H 
ENDBRANCH  20  23
ENDBRANCH  17  20
ENDBRANCH   6  17
ENDBRANCH   3   6
ENDBRANCH   1   2
BRANCH   1  27
ATOM     27  C   LIG d   1       7.265  -2.205  -5.249  0.00  0.00    -0.015 A 
ATOM     28  C   LIG d   1       7.548  -2.628  -3.963  0.00  0.00    -0.056 A 
ATOM     29  C   LIG d   1       8.376  -3.715  -3.760  0.00  0.00    -0.061 A 
ATOM     30  H   LIG d   1       7.117  -2.111  -3.118  0.00  0.00     0.062 H 
ATOM     31  C   LIG d   1       8.932  -4.373  -4.842  0.00  0.00    -0.062 A 
ATOM     32  H   LIG d   1       8.593  -4.048  -2.755  0.00  0.00     0.062 H 
ATOM     33  C   LIG d   1       8.650  -3.950  -6.127  0.00  0.00    -0.061 A 
ATOM     34  H   LIG d   1       9.582  -5.221  -4.682  0.00  0.00     0.062 H 
ATOM     35  C   LIG d   1       7.816  -2.866  -6.331  0.00  0.00    -0.056 A 
ATOM     36  H   LIG d   1       9.079  -4.467  -6.972  0.00  0.00     0.062 H 
ATOM     37  H   LIG d   1       7.595  -2.536  -7.335  0.00  0.00     0.062 H 
ENDBRANCH   1  27
BRANCH   1  38
ATOM     38  C   LIG d   1       5.195  -1.097  -4.514  0.00  0.00    -0.015 A 
ATOM     39  C   LIG d   1       4.102  -0.268  -4.689  0.00  0.00    -0.056 A 
ATOM     40  C   LIG d   1       3.036  -0.337  -3.811  0.00  0.00    -0.061 A 
ATOM     41  H   LIG d   1       4.082   0.432  -5.510  0.00  0.00     0.062 H 
ATOM     42  C   LIG d   1       3.063  -1.234  -2.759  0.00  0.00    -0.062 A 
ATOM     43  H   LIG d   1       2.182   0.311  -3.947  0.00  0.00     0.062 H 
ATOM     44  C   LIG d   1       4.155  -2.063  -2.585  0.00  0.00    -0.061 A 
ATOM     45  H   LIG d   1       2.230  -1.286  -2.074  0.00  0.00     0.062 H 
ATOM     46  C   LIG d   1       5.219  -1.998  -3.466  0.00  0.00    -0.056 A 
ATOM     47  H   LIG d   1       4.176  -2.763  -1.764  0.00  0.00     0.062 H 
ATOM     48  H   LIG d   1       6.070  -2.648  -3.333  0.00  0.00     0.062 H 
ENDBRANCH   1  38
BRANCH   1  49
ATOM     49  C   LIG d   1       7.124   0.252  -5.233  0.00  0.00    -0.015 A 
ATOM     50  C   LIG d   1       7.240   0.759  -3.953  0.00  0.00    -0.056 A 
ATOM     51  C   LIG d   1       7.943   1.929  -3.733  0.00  0.00    -0.061 A 
ATOM     52  H   LIG d   1       6.780   0.242  -3.123  0.00  0.00     0.062 H 
ATOM     53  C   LIG d   1       8.531   2.591  -4.795  0.00  0.00    -0.062 A 
ATOM     54  H   LIG d   1       8.033   2.326  -2.732  0.00  0.00     0.062 H 
ATOM     55  C   LIG d   1       8.416   2.082  -6.075  0.00  0.00    -0.061 A 
ATOM     56  H   LIG d   1       9.080   3.505  -4.624  0.00  0.00     0.062 H 
ATOM     57  C   LIG d   1       7.717   0.911  -6.293  0.00  0.00    -0.056 A 
ATOM     58  H   LIG d   1       8.876   2.600  -6.905  0.00  0.00     0.062 H 
ATOM     59  H   LIG d   1       7.632   0.511  -7.293  0.00  0.00     0.062 H 
ENDBRANCH   1  49
TORSDOF 11
ENDMDL
MODEL 7
REMARK VINA RESULT:      -5.9      1.560      4.515
REMARK  11 active torsions:
REMARK  status: ('A' for Active; 'I' for Inactive)
REMARK    1  A    between atoms: C_1  and  C_2 
REMARK    2  A    between atoms: C_2  and  C_3 
REMARK    3  A    between atoms: C_3  and  N_4 
REMARK    4  A    between atoms: N_4  and  C_5 
REMARK    5  A    between atoms: N_4  and  C_8 
REMARK    6  A    between atoms: C_5  and  C_6 
REMARK    7  A    between atoms: C_6  and  C_7 
REMARK    8  A    between atoms: N_10  and  C_11 
REMARK    9  A    between atoms: C_11  and  C_12 
REMARK   10  A    between atoms: C_11  and  C_18 
REMARK   11  A    between atoms: C_11  and  C_24 
ROOT
ATOM      1  C   LIG d   1       5.008  -1.614  -5.881  0.00  0.00     0.110 C 
ENDROOT
BRANCH   1   2
ATOM      2  N   LIG d   1       3.868  -1.499  -6.794  0.00  0.00    -0.309 N 
ATOM      3  C   LIG d   1       3.978  -1.927  -8.067  0.00  0.00     0.134 C 
ATOM      4  S   LIG d   1       5.450  -2.605  -8.618  0.00  0.00    -0.019 SA
ATOM      5  H   LIG d   1       3.035  -1.115  -6.481  0.00  0.00     0.149 HD
BRANCH   3   6
ATOM      6  N   LIG d   1       2.929  -1.821  -8.906  0.00  0.00    -0.313 N 
BRANCH   6   7
ATOM      7  C   LIG d   1       2.600  -2.927  -9.810  0.00  0.00     0.013 C 
ATOM      8  H   LIG d   1       3.354  -2.992 -10.594  0.00  0.00     0.046 H 
ATOM      9  H   LIG d   1       2.577  -3.860  -9.248  0.00  0.00     0.046 H 
BRANCH   7  10
ATOM     10  C   LIG d   1       1.228  -2.677 -10.441  0.00  0.00    -0.040 C 
ATOM     11  H   LIG d   1       0.635  -2.043  -9.782  0.00  0.00     0.028 H 
ATOM     12  H   LIG d   1       1.355  -2.183 -11.404  0.00  0.00     0.028 H 
BRANCH  10  13
ATOM     13  C   LIG d   1       0.510  -4.013 -10.644  0.00  0.00    -0.064 C 
ATOM     14  H   LIG d   1       1.228  -4.767 -10.963  0.00  0.00     0.023 H 
ATOM     15  H   LIG d   1       0.050  -4.324  -9.706  0.00  0.00     0.023 H 
ATOM     16  H   LIG d   1      -0.260  -3.899 -11.407  0.00  0.00     0.023 H 
ENDBRANCH  10  13
ENDBRANCH   7  10
ENDBRANCH   6   7
BRANCH   6  17
ATOM     17  C   LIG d   1       2.119  -0.601  -8.916  0.00  0.00     0.013 C 
ATOM     18  H   LIG d   1       1.199  -0.781  -9.470  0.00  0.00     0.046 H 
ATOM     19  H   LIG d   1       1.878  -0.317  -7.892  0.00  0.00     0.046 H 
BRANCH  17  20
ATOM     20  C   LIG d   1       2.905   0.528  -9.586  0.00  0.00    -0.040 C 
ATOM     21  H   LIG d   1       3.945   0.223  -9.710  0.00  0.00     0.028 H 
ATOM     22  H   LIG d   1       2.472   0.743 -10.563  0.00  0.00     0.028 H 
BRANCH  20  23
ATOM     23  C   LIG d   1       2.842   1.783  -8.713  0.00  0.00    -0.064 C 
ATOM     24  H   LIG d   1       3.583   2.503  -9.058  0.00  0.00     0.023 H 
ATOM     25  H   LIG d   1       1.847   2.224  -8.783  0.00  0.00     0.023 H 
ATOM     26  H   LIG d   1       3.049   1.515  -7.677  0.00  0.00     0.023 H 
ENDBRANCH  20  23
ENDBRANCH  17  20
ENDBRANCH   6  17
ENDBRANCH   3   6
ENDBRANCH   1   2
BRANCH   1  27
ATOM     27  C   LIG d   1       4.603  -1.140  -4.509  0.00  0.00    -0.015 A 
ATOM     28  C   LIG d   1       3.785  -0.033  -4.373  0.00  0.00    -0.056 A 
ATOM     29  C   LIG d   1       3.409   0.397  -3.115  0.00  0.00    -0.061 A 
ATOM     30  H   LIG d   1       3.436   0.491  -5.251  0.00  0.00     0.062 H 
ATOM     31  C   LIG d   1       3.860  -0.272  -1.992  0.00  0.00    -0.062 A 
ATOM     32  H   LIG d   1       2.766   1.259  -3.009  0.00  0.00     0.062 H 
ATOM     33  C   LIG d   1       4.677  -1.377  -2.128  0.00  0.00    -0.061 A 
ATOM     34  H   LIG d   1       3.568   0.068  -1.008  0.00  0.00     0.062 H 
ATOM     35  C   LIG d   1       5.049  -1.812  -3.386  0.00  0.00    -0.056 A 
ATOM     36  H   LIG d   1       5.025  -1.903  -1.251  0.00  0.00     0.062 H 
ATOM     37  H   LIG d   1       5.687  -2.677  -3.492  0.00  0.00     0.062 H 
ENDBRANCH   1  27
BRANCH   1  38
ATOM     38  C   LIG d   1       6.146  -0.765  -6.389  0.00  0.00    -0.015 A 
ATOM     39  C   LIG d   1       5.915   0.190  -7.362  0.00  0.00    -0.056 A 
ATOM     40  C   LIG d   1       6.958   0.968  -7.827  0.00  0.00    -0.061 A 
ATOM     41  H   LIG d   1       4.920   0.327  -7.758  0.00  0.00     0.062 H 
ATOM     42  C   LIG d   1       8.232   0.791  -7.319  0.00  0.00    -0.062 A 
ATOM     43  H   LIG d   1       6.778   1.714  -8.587  0.00  0.00     0.062 H 
ATOM     44  C   LIG d   1       8.463  -0.162  -6.346  0.00  0.00    -0.061 A 
ATOM     45  H   LIG d   1       9.047   1.400  -7.684  0.00  0.00     0.062 H 
ATOM     46  C   LIG d   1       7.418  -0.937  -5.877  0.00  0.00    -0.056 A 
ATOM     47  H   LIG d   1       9.457  -0.300  -5.950  0.00  0.00     0.062 H 
ATOM     48  H   LIG d   1       7.597  -1.680  -5.114  0.00  0.00     0.062 H 
ENDBRANCH   1  38
BRANCH   1  49
ATOM     49  C   LIG d   1       5.449  -3.053  -5.806  0.00  0.00    -0.015 A 
ATOM     50  C   LIG d   1       6.794  -3.367  -5.867  0.00  0.00    -0.056 A 
ATOM     51  C   LIG d   1       7.200  -4.687  -5.797  0.00  0.00    -0.061 A 
ATOM     52  H   LIG d   1       7.528  -2.581  -5.969  0.00  0.00     0.062 H 
ATOM     53  C   LIG d   1       6.260  -5.692  -5.668  0.00  0.00    -0.062 A 
ATOM     54  H   LIG d   1       8.251  -4.932  -5.846  0.00  0.00     0.062 H 
ATOM     55  C   LIG d   1       4.916  -5.378  -5.605  0.00  0.00    -0.061 A 
ATOM     56  H   LIG d   1       6.577  -6.724  -5.614  0.00  0.00     0.062 H 
ATOM     57  C   LIG d   1       4.511  -4.058  -5.670  0.00  0.00    -0.056 A 
ATOM     58  H   LIG d   1       4.181  -6.164  -5.503  0.00  0.00     0.062 H 
ATOM     59  H   LIG d   1       3.460  -3.812  -5.616  0.00  0.00     0.062 H 
ENDBRANCH   1  49
TORSDOF 11
ENDMDL
MODEL 8
REMARK VINA RESULT:      -5.8      1.551      4.656
REMARK  11 active torsions:
REMARK  status: ('A' for Active; 'I' for Inactive)
REMARK    1  A    between atoms: C_1  and  C_2 
REMARK    2  A    between atoms: C_2  and  C_3 
REMARK    3  A    between atoms: C_3  and  N_4 
REMARK    4  A    between atoms: N_4  and  C_5 
REMARK    5  A    between atoms: N_4  and  C_8 
REMARK    6  A    between atoms: C_5  and  C_6 
REMARK    7  A    between atoms: C_6  and  C_7 
REMARK    8  A    between atoms: N_10  and  C_11 
REMARK    9  A    between atoms: C_11  and  C_12 
REMARK   10  A    between atoms: C_11  and  C_18 
REMARK   11  A    between atoms: C_11  and  C_24 
ROOT
ATOM      1  C   LIG d   1       5.045  -1.653  -5.834  0.00  0.00     0.110 C 
ENDROOT
BRANCH   1   2
ATOM      2  N   LIG d   1       3.914  -1.499  -6.754  0.00  0.00    -0.309 N 
ATOM      3  C   LIG d   1       4.023  -1.918  -8.030  0.00  0.00     0.134 C 
ATOM      4  S   LIG d   1       5.479  -2.632  -8.577  0.00  0.00    -0.019 SA
ATOM      5  H   LIG d   1       3.090  -1.095  -6.443  0.00  0.00     0.149 HD
BRANCH   3   6
ATOM      6  N   LIG d   1       2.983  -1.777  -8.875  0.00  0.00    -0.313 N 
BRANCH   6   7
ATOM      7  C   LIG d   1       2.170  -0.557  -8.840  0.00  0.00     0.013 C 
ATOM      8  H   LIG d   1       1.245  -0.721  -9.392  0.00  0.00     0.046 H 
ATOM      9  H   LIG d   1       1.937  -0.307  -7.804  0.00  0.00     0.046 H 
BRANCH   7  10
ATOM     10  C   LIG d   1       2.950   0.593  -9.480  0.00  0.00    -0.040 C 
ATOM     11  H   LIG d   1       3.986   0.291  -9.629  0.00  0.00     0.028 H 
ATOM     12  H   LIG d   1       2.502   0.845 -10.441  0.00  0.00     0.028 H 
BRANCH  10  13
ATOM     13  C   LIG d   1       2.903   1.815  -8.559  0.00  0.00    -0.064 C 
ATOM     14  H   LIG d   1       3.348   1.563  -7.598  0.00  0.00     0.023 H 
ATOM     15  H   LIG d   1       3.460   2.633  -9.014  0.00  0.00     0.023 H 
ATOM     16  H   LIG d   1       1.866   2.118  -8.412  0.00  0.00     0.023 H 
ENDBRANCH  10  13
ENDBRANCH   7  10
ENDBRANCH   6   7
BRANCH   6  17
ATOM     17  C   LIG d   1       2.665  -2.841  -9.830  0.00  0.00     0.013 C 
ATOM     18  H   LIG d   1       3.413  -2.853 -10.622  0.00  0.00     0.046 H 
ATOM     19  H   LIG d   1       2.664  -3.802  -9.316  0.00  0.00     0.046 H 
BRANCH  17  20
ATOM     20  C   LIG d   1       1.284  -2.587 -10.436  0.00  0.00    -0.040 C 
ATOM     21  H   LIG d   1       0.705  -1.948  -9.768  0.00  0.00     0.028 H 
ATOM     22  H   LIG d   1       1.395  -2.094 -11.402  0.00  0.00     0.028 H 
BRANCH  20  23
ATOM     23  C   LIG d   1       0.555  -3.920 -10.626  0.00  0.00    -0.064 C 
ATOM     24  H   LIG d   1       1.219  -4.738 -10.349  0.00  0.00     0.023 H 
ATOM     25  H   LIG d   1      -0.332  -3.941  -9.993  0.00  0.00     0.023 H 
ATOM     26  H   LIG d   1       0.261  -4.027 -11.670  0.00  0.00     0.023 H 
ENDBRANCH  20  23
ENDBRANCH  17  20
ENDBRANCH   6  17
ENDBRANCH   3   6
ENDBRANCH   1   2
BRANCH   1  27
ATOM     27  C   LIG d   1       4.640  -1.188  -4.459  0.00  0.00    -0.015 A 
ATOM     28  C   LIG d   1       5.043  -1.898  -3.342  0.00  0.00    -0.056 A 
ATOM     29  C   LIG d   1       4.677  -1.467  -2.081  0.00  0.00    -0.061 A 
ATOM     30  H   LIG d   1       5.648  -2.785  -3.456  0.00  0.00     0.062 H 
ATOM     31  C   LIG d   1       3.898  -0.334  -1.936  0.00  0.00    -0.062 A 
ATOM     32  H   LIG d   1       4.996  -2.020  -1.209  0.00  0.00     0.062 H 
ATOM     33  C   LIG d   1       3.496   0.375  -3.052  0.00  0.00    -0.061 A 
ATOM     34  H   LIG d   1       3.610  -0.000  -0.950  0.00  0.00     0.062 H 
ATOM     35  C   LIG d   1       3.866  -0.052  -4.313  0.00  0.00    -0.056 A 
ATOM     36  H   LIG d   1       2.892   1.263  -2.938  0.00  0.00     0.062 H 
ATOM     37  H   LIG d   1       3.552   0.503  -5.185  0.00  0.00     0.062 H 
ENDBRANCH   1  27
BRANCH   1  38
ATOM     38  C   LIG d   1       6.206  -0.825  -6.322  0.00  0.00    -0.015 A 
ATOM     39  C   LIG d   1       6.006   0.144  -7.288  0.00  0.00    -0.056 A 
ATOM     40  C   LIG d   1       7.071   0.903  -7.735  0.00  0.00    -0.061 A 
ATOM     41  H   LIG d   1       5.019   0.306  -7.693  0.00  0.00     0.062 H 
ATOM     42  C   LIG d   1       8.335   0.694  -7.216  0.00  0.00    -0.062 A 
ATOM     43  H   LIG d   1       6.915   1.660  -8.490  0.00  0.00     0.062 H 
ATOM     44  C   LIG d   1       8.535  -0.273  -6.250  0.00  0.00    -0.061 A 
ATOM     45  H   LIG d   1       9.167   1.288  -7.566  0.00  0.00     0.062 H 
ATOM     46  C   LIG d   1       7.469  -1.030  -5.799  0.00  0.00    -0.056 A 
ATOM     47  H   LIG d   1       9.522  -0.436  -5.845  0.00  0.00     0.062 H 
ATOM     48  H   LIG d   1       7.624  -1.783  -5.041  0.00  0.00     0.062 H 
ENDBRANCH   1  38
BRANCH   1  49
ATOM     49  C   LIG d   1       5.451  -3.103  -5.774  0.00  0.00    -0.015 A 
ATOM     50  C   LIG d   1       4.487  -4.086  -5.659  0.00  0.00    -0.056 A 
ATOM     51  C   LIG d   1       4.859  -5.417  -5.604  0.00  0.00    -0.061 A 
ATOM     52  H   LIG d   1       3.442  -3.816  -5.611  0.00  0.00     0.062 H 
ATOM     53  C   LIG d   1       6.197  -5.763  -5.665  0.00  0.00    -0.062 A 
ATOM     54  H   LIG d   1       4.106  -6.185  -5.513  0.00  0.00     0.062 H 
ATOM     55  C   LIG d   1       7.160  -4.779  -5.782  0.00  0.00    -0.061 A 
ATOM     56  H   LIG d   1       6.488  -6.802  -5.622  0.00  0.00     0.062 H 
ATOM     57  C   LIG d   1       6.788  -3.449  -5.841  0.00  0.00    -0.056 A 
ATOM     58  H   LIG d   1       8.205  -5.050  -5.830  0.00  0.00     0.062 H 
ATOM     59  H   LIG d   1       7.541  -2.681  -5.937  0.00  0.00     0.062 H 
ENDBRANCH   1  49
TORSDOF 11
ENDMDL
MODEL 9
REMARK VINA RESULT:      -5.8      1.820      5.037
REMARK  11 active torsions:
REMARK  status: ('A' for Active; 'I' for Inactive)
REMARK    1  A    between atoms: C_1  and  C_2 
REMARK    2  A    between atoms: C_2  and  C_3 
REMARK    3  A    between atoms: C_3  and  N_4 
REMARK    4  A    between atoms: N_4  and  C_5 
REMARK    5  A    between atoms: N_4  and  C_8 
REMARK    6  A    between atoms: C_5  and  C_6 
REMARK    7  A    between atoms: C_6  and  C_7 
REMARK    8  A    between atoms: N_10  and  C_11 
REMARK    9  A    between atoms: C_11  and  C_12 
REMARK   10  A    between atoms: C_11  and  C_18 
REMARK   11  A    between atoms: C_11  and  C_24 
ROOT
ATOM      1  C   LIG d   1       6.641  -0.022  -5.129  0.00  0.00     0.110 C 
ENDROOT
BRANCH   1   2
ATOM      2  N   LIG d   1       5.779   0.257  -6.281  0.00  0.00    -0.309 N 
ATOM      3  C   LIG d   1       4.773  -0.586  -6.589  0.00  0.00     0.134 C 
ATOM      4  S   LIG d   1       4.501  -1.981  -5.635  0.00  0.00    -0.019 SA
ATOM      5  H   LIG d   1       5.933   1.047  -6.821  0.00  0.00     0.149 HD
BRANCH   3   6
ATOM      6  N   LIG d   1       3.981  -0.329  -7.649  0.00  0.00    -0.313 N 
BRANCH   6   7
ATOM      7  C   LIG d   1       3.106   0.846  -7.642  0.00  0.00     0.013 C 
ATOM      8  H   LIG d   1       2.116   0.561  -7.285  0.00  0.00     0.046 H 
ATOM      9  H   LIG d   1       3.525   1.607  -6.982  0.00  0.00     0.046 H 
BRANCH   7  10
ATOM     10  C   LIG d   1       2.995   1.407  -9.060  0.00  0.00    -0.040 C 
ATOM     11  H   LIG d   1       3.232   0.624  -9.781  0.00  0.00     0.028 H 
ATOM     12  H   LIG d   1       1.979   1.764  -9.233  0.00  0.00     0.028 H 
BRANCH  10  13
ATOM     13  C   LIG d   1       3.978   2.568  -9.228  0.00  0.00    -0.064 C 
ATOM     14  H   LIG d   1       4.883   2.210  -9.718  0.00  0.00     0.023 H 
ATOM     15  H   LIG d   1       3.519   3.347  -9.836  0.00  0.00     0.023 H 
ATOM     16  H   LIG d   1       4.231   2.973  -8.248  0.00  0.00     0.023 H 
ENDBRANCH  10  13
ENDBRANCH   7  10
ENDBRANCH   6   7
BRANCH   6  17
ATOM     17  C   LIG d   1       3.994  -1.226  -8.806  0.00  0.00     0.013 C 
ATOM     18  H   LIG d   1       3.715  -2.231  -8.490  0.00  0.00     0.046 H 
ATOM     19  H   LIG d   1       3.283  -0.869  -9.551  0.00  0.00     0.046 H 
BRANCH  17  20
ATOM     20  C   LIG d   1       5.398  -1.255  -9.413  0.00  0.00    -0.040 C 
ATOM     21  H   LIG d   1       5.410  -0.662 -10.329  0.00  0.00     0.028 H 
ATOM     22  H   LIG d   1       6.111  -0.839  -8.702  0.00  0.00     0.028 H 
BRANCH  20  23
ATOM     23  C   LIG d   1       5.785  -2.700  -9.737  0.00  0.00    -0.064 C 
ATOM     24  H   LIG d   1       6.752  -2.713 -10.238  0.00  0.00     0.023 H 
ATOM     25  H   LIG d   1       5.847  -3.274  -8.812  0.00  0.00     0.023 H 
ATOM     26  H   LIG d   1       5.031  -3.141 -10.389  0.00  0.00     0.023 H 
ENDBRANCH  20  23
ENDBRANCH  17  20
ENDBRANCH   6  17
ENDBRANCH   3   6
ENDBRANCH   1   2
BRANCH   1  27
ATOM     27  C   LIG d   1       5.805  -0.068  -3.876  0.00  0.00    -0.015 A 
ATOM     28  C   LIG d   1       5.125   1.060  -3.456  0.00  0.00    -0.056 A 
ATOM     29  C   LIG d   1       4.354   1.015  -2.310  0.00  0.00    -0.061 A 
ATOM     30  H   LIG d   1       5.193   1.975  -4.027  0.00  0.00     0.062 H 
ATOM     31  C   LIG d   1       4.273  -0.154  -1.576  0.00  0.00    -0.062 A 
ATOM     32  H   LIG d   1       3.819   1.896  -1.985  0.00  0.00     0.062 H 
ATOM     33  C   LIG d   1       4.952  -1.281  -1.996  0.00  0.00    -0.061 A 
ATOM     34  H   LIG d   1       3.672  -0.187  -0.679  0.00  0.00     0.062 H 
ATOM     35  C   LIG d   1       5.719  -1.239  -3.146  0.00  0.00    -0.056 A 
ATOM     36  H   LIG d   1       4.884  -2.196  -1.426  0.00  0.00     0.062 H 
ATOM     37  H   LIG d   1       6.250  -2.120  -3.474  0.00  0.00     0.062 H 
ENDBRANCH   1  27
BRANCH   1  38
ATOM     38  C   LIG d   1       7.676   1.067  -5.002  0.00  0.00    -0.015 A 
ATOM     39  C   LIG d   1       8.125   1.729  -6.130  0.00  0.00    -0.056 A 
ATOM     40  C   LIG d   1       9.074   2.727  -6.013  0.00  0.00    -0.061 A 
ATOM     41  H   LIG d   1       7.735   1.465  -7.101  0.00  0.00     0.062 H 
ATOM     42  C   LIG d   1       9.573   3.064  -4.768  0.00  0.00    -0.062 A 
ATOM     43  H   LIG d   1       9.426   3.244  -6.894  0.00  0.00     0.062 H 
ATOM     44  C   LIG d   1       9.123   2.404  -3.641  0.00  0.00    -0.061 A 
ATOM     45  H   LIG d   1      10.315   3.844  -4.678  0.00  0.00     0.062 H 
ATOM     46  C   LIG d   1       8.171   1.408  -3.757  0.00  0.00    -0.056 A 
ATOM     47  H   LIG d   1       9.513   2.667  -2.669  0.00  0.00     0.062 H 
ATOM     48  H   LIG d   1       7.816   0.895  -2.876  0.00  0.00     0.062 H 
ENDBRANCH   1  38
BRANCH   1  49
ATOM     49  C   LIG d   1       7.328  -1.348  -5.324  0.00  0.00    -0.015 A 
ATOM     50  C   LIG d   1       7.589  -1.810  -6.600  0.00  0.00    -0.056 A 
ATOM     51  C   LIG d   1       8.220  -3.028  -6.780  0.00  0.00    -0.061 A 
ATOM     52  H   LIG d   1       7.299  -1.221  -7.458  0.00  0.00     0.062 H 
ATOM     53  C   LIG d   1       8.589  -3.782  -5.682  0.00  0.00    -0.062 A 
ATOM     54  H   LIG d   1       8.422  -3.389  -7.777  0.00  0.00     0.062 H 
ATOM     55  C   LIG d   1       8.330  -3.319  -4.406  0.00  0.00    -0.061 A 
ATOM     56  H   LIG d   1       9.082  -4.734  -5.822  0.00  0.00     0.062 H 
ATOM     57  C   LIG d   1       7.703  -2.101  -4.227  0.00  0.00    -0.056 A 
ATOM     58  H   LIG d   1       8.619  -3.909  -3.548  0.00  0.00     0.062 H 
ATOM     59  H   LIG d   1       7.505  -1.737  -3.229  0.00  0.00     0.062 H 
ENDBRANCH   1  49
TORSDOF 11
ENDMDL
