MODEL 1
REMARK VINA RESULT:      -6.5      0.000      0.000
REMARK  4 active torsions:
REMARK  status: ('A' for Active; 'I' for Inactive)
REMARK    1  A    between atoms: C_3  and  C_6 
REMARK       I    between atoms: C_6  and  N_8 
REMARK    2  A    between atoms: N_8  and  C_9 
REMARK    3  A    between atoms: C_9  and  C_10 
REMARK    4  A    between atoms: C_14  and  C_18 
ROOT
ATOM      1  C   LIG d   1       3.250   0.267  -7.264  0.00  0.00     0.015 C 
ATOM      2  H   LIG d   1       2.830   1.271  -7.195  0.00  0.00     0.046 H 
ATOM      3  H   LIG d   1       4.299   0.330  -7.555  0.00  0.00     0.046 H 
ENDROOT
BRANCH   1   4
ATOM      4  N   LIG d   1       3.144  -0.396  -5.962  0.00  0.00    -0.310 N 
ATOM      5  C   LIG d   1       2.775   0.310  -4.873  0.00  0.00     0.261 C 
ATOM      6  O   LIG d   1       2.532   1.494  -4.973  0.00  0.00    -0.270 OA
ATOM      7  H   LIG d   1       3.338  -1.343  -5.882  0.00  0.00     0.149 HD
BRANCH   5   8
ATOM      8  C   LIG d   1       2.666  -0.372  -3.534  0.00  0.00     0.055 C 
ATOM      9  C   LIG d   1       3.508   0.385  -2.490  0.00  0.00     0.004 C 
ATOM     10  C   LIG d   1       4.536  -0.648  -1.975  0.00  0.00    -0.007 C 
ATOM     11  H   LIG d   1       2.875   0.729  -1.673  0.00  0.00     0.033 H 
ATOM     12  H   LIG d   1       4.019   1.228  -2.955  0.00  0.00     0.033 H 
ATOM     13  C   LIG d   1       3.868  -2.006  -2.308  0.00  0.00    -0.033 C 
ATOM     14  H   LIG d   1       5.484  -0.545  -2.503  0.00  0.00     0.032 H 
ATOM     15  H   LIG d   1       4.682  -0.544  -0.900  0.00  0.00     0.032 H 
ATOM     16  H   LIG d   1       4.617  -2.792  -2.398  0.00  0.00     0.081 H 
ATOM     17  H   LIG d   1       3.126  -2.264  -1.553  0.00  0.00     0.081 H 
ATOM     18  N   LIG d   1       3.216  -1.728  -3.602  0.00  0.00     0.236 N 
ATOM     19  H   LIG d   1       3.903  -1.790  -4.362  0.00  0.00     0.202 HD
ATOM     20  H   LIG d   1       2.461  -2.404  -3.766  0.00  0.00     0.202 HD
ATOM     21  H   LIG d   1       1.624  -0.409  -3.217  0.00  0.00     0.095 H 
ENDBRANCH   5   8
ENDBRANCH   1   4
BRANCH   1  22
ATOM     22  C   LIG d   1       2.478  -0.538  -8.311  0.00  0.00    -0.025 C 
ATOM     23  H   LIG d   1       1.508  -0.827  -7.904  0.00  0.00     0.032 H 
ATOM     24  C   LIG d   1       2.271   0.318  -9.562  0.00  0.00    -0.048 C 
ATOM     25  C   LIG d   1       1.499  -0.488 -10.609  0.00  0.00    -0.045 C 
ATOM     26  H   LIG d   1       1.705   1.212  -9.301  0.00  0.00     0.027 H 
ATOM     27  H   LIG d   1       3.241   0.606  -9.968  0.00  0.00     0.027 H 
ATOM     28  C   LIG d   1       2.294  -1.743 -10.974  0.00  0.00    -0.001 C 
ATOM     29  H   LIG d   1       0.530  -0.776 -10.202  0.00  0.00     0.027 H 
ATOM     30  H   LIG d   1       1.352   0.122 -11.501  0.00  0.00     0.027 H 
ATOM     31  C   LIG d   1       2.500  -2.599  -9.723  0.00  0.00    -0.045 C 
ATOM     32  H   LIG d   1       3.263  -1.455 -11.381  0.00  0.00     0.036 H 
ATOM     33  C   LIG d   1       3.272  -1.793  -8.676  0.00  0.00    -0.048 C 
ATOM     34  H   LIG d   1       1.530  -2.888  -9.317  0.00  0.00     0.027 H 
ATOM     35  H   LIG d   1       3.065  -3.493  -9.984  0.00  0.00     0.027 H 
ATOM     36  H   LIG d   1       4.241  -1.505  -9.082  0.00  0.00     0.027 H 
ATOM     37  H   LIG d   1       3.418  -2.403  -7.785  0.00  0.00     0.027 H 
BRANCH  28  38
ATOM     38  C   LIG d   1       1.533  -2.536 -12.005  0.00  0.00     0.045 C 
ATOM     39  O   LIG d   1       1.885  -3.657 -12.287  0.00  0.00    -0.549 OA
ATOM     40  O   LIG d   1       0.462  -1.997 -12.611  0.00  0.00    -0.549 OA
ENDBRANCH  28  38
ENDBRANCH   1  22
TORSDOF 4
ENDMDL
MODEL 2
REMARK VINA RESULT:      -6.3      1.502      1.723
REMARK  4 active torsions:
REMARK  status: ('A' for Active; 'I' for Inactive)
REMARK    1  A    between atoms: C_3  and  C_6 
REMARK       I    between atoms: C_6  and  N_8 
REMARK    2  A    between atoms: N_8  and  C_9 
REMARK    3  A    between atoms: C_9  and  C_10 
REMARK    4  A    between atoms: C_14  and  C_18 
ROOT
ATOM      1  C   LIG d   1       2.812   0.824  -7.355  0.00  0.00     0.015 C 
ATOM      2  H   LIG d   1       1.849   1.314  -7.497  0.00  0.00     0.046 H 
ATOM      3  H   LIG d   1       3.581   1.577  -7.180  0.00  0.00     0.046 H 
ENDROOT
BRANCH   1   4
ATOM      4  N   LIG d   1       2.736  -0.074  -6.200  0.00  0.00    -0.310 N 
ATOM      5  C   LIG d   1       2.672   0.434  -4.953  0.00  0.00     0.261 C 
ATOM      6  O   LIG d   1       2.678   1.636  -4.788  0.00  0.00    -0.270 OA
ATOM      7  H   LIG d   1       2.731  -1.035  -6.332  0.00  0.00     0.149 HD
BRANCH   5   8
ATOM      8  C   LIG d   1       2.595  -0.490  -3.766  0.00  0.00     0.055 C 
ATOM      9  C   LIG d   1       3.288   0.156  -2.552  0.00  0.00     0.004 C 
ATOM     10  C   LIG d   1       4.417  -0.826  -2.163  0.00  0.00    -0.007 C 
ATOM     11  H   LIG d   1       2.583   0.268  -1.729  0.00  0.00     0.033 H 
ATOM     12  H   LIG d   1       3.707   1.125  -2.827  0.00  0.00     0.033 H 
ATOM     13  C   LIG d   1       3.941  -2.168  -2.773  0.00  0.00    -0.033 C 
ATOM     14  H   LIG d   1       5.366  -0.517  -2.602  0.00  0.00     0.032 H 
ATOM     15  H   LIG d   1       4.503  -0.904  -1.079  0.00  0.00     0.032 H 
ATOM     16  H   LIG d   1       4.787  -2.831  -2.952  0.00  0.00     0.081 H 
ATOM     17  H   LIG d   1       3.206  -2.646  -2.125  0.00  0.00     0.081 H 
ATOM     18  N   LIG d   1       3.314  -1.736  -4.037  0.00  0.00     0.236 N 
ATOM     19  H   LIG d   1       4.035  -1.577  -4.749  0.00  0.00     0.202 HD
ATOM     20  H   LIG d   1       2.659  -2.455  -4.366  0.00  0.00     0.202 HD
ATOM     21  H   LIG d   1       1.553  -0.706  -3.527  0.00  0.00     0.095 H 
ENDBRANCH   5   8
ENDBRANCH   1   4
BRANCH   1  22
ATOM     22  C   LIG d   1       3.162   0.017  -8.607  0.00  0.00    -0.025 C 
ATOM     23  H   LIG d   1       3.731  -0.868  -8.321  0.00  0.00     0.032 H 
ATOM     24  C   LIG d   1       1.876  -0.409  -9.316  0.00  0.00    -0.048 C 
ATOM     25  C   LIG d   1       2.227  -1.215 -10.568  0.00  0.00    -0.045 C 
ATOM     26  H   LIG d   1       1.277  -1.024  -8.644  0.00  0.00     0.027 H 
ATOM     27  H   LIG d   1       1.308   0.476  -9.602  0.00  0.00     0.027 H 
ATOM     28  C   LIG d   1       3.068  -0.352 -11.511  0.00  0.00    -0.001 C 
ATOM     29  H   LIG d   1       2.795  -2.101 -10.282  0.00  0.00     0.027 H 
ATOM     30  H   LIG d   1       1.310  -1.519 -11.074  0.00  0.00     0.027 H 
ATOM     31  C   LIG d   1       4.354   0.074 -10.802  0.00  0.00    -0.045 C 
ATOM     32  H   LIG d   1       2.500   0.533 -11.797  0.00  0.00     0.036 H 
ATOM     33  C   LIG d   1       4.003   0.880  -9.550  0.00  0.00    -0.048 C 
ATOM     34  H   LIG d   1       4.922  -0.812 -10.517  0.00  0.00     0.027 H 
ATOM     35  H   LIG d   1       4.953   0.688 -11.475  0.00  0.00     0.027 H 
ATOM     36  H   LIG d   1       3.436   1.766  -9.836  0.00  0.00     0.027 H 
ATOM     37  H   LIG d   1       4.920   1.183  -9.045  0.00  0.00     0.027 H 
BRANCH  28  38
ATOM     38  C   LIG d   1       3.413  -1.147 -12.744  0.00  0.00     0.045 C 
ATOM     39  O   LIG d   1       3.073  -2.303 -12.834  0.00  0.00    -0.549 OA
ATOM     40  O   LIG d   1       4.099  -0.570 -13.744  0.00  0.00    -0.549 OA
ENDBRANCH  28  38
ENDBRANCH   1  22
TORSDOF 4
ENDMDL
MODEL 3
REMARK VINA RESULT:      -6.2      3.202      7.612
REMARK  4 active torsions:
REMARK  status: ('A' for Active; 'I' for Inactive)
REMARK    1  A    between atoms: C_3  and  C_6 
REMARK       I    between atoms: C_6  and  N_8 
REMARK    2  A    between atoms: N_8  and  C_9 
REMARK    3  A    between atoms: C_9  and  C_10 
REMARK    4  A    between atoms: C_14  and  C_18 
ROOT
ATOM      1  C   LIG d   1       4.925  -4.019  -4.751  0.00  0.00     0.015 C 
ATOM      2  H   LIG d   1       4.012  -4.498  -4.396  0.00  0.00     0.046 H 
ATOM      3  H   LIG d   1       5.784  -4.644  -4.504  0.00  0.00     0.046 H 
ENDROOT
BRANCH   1   4
ATOM      4  N   LIG d   1       4.850  -3.844  -6.203  0.00  0.00    -0.310 N 
ATOM      5  C   LIG d   1       4.004  -4.601  -6.931  0.00  0.00     0.261 C 
ATOM      6  O   LIG d   1       3.305  -5.428  -6.383  0.00  0.00    -0.270 OA
ATOM      7  H   LIG d   1       5.408  -3.184  -6.642  0.00  0.00     0.149 HD
BRANCH   5   8
ATOM      8  C   LIG d   1       3.927  -4.422  -8.425  0.00  0.00     0.055 C 
ATOM      9  C   LIG d   1       3.987  -2.924  -8.777  0.00  0.00     0.004 C 
ATOM     10  C   LIG d   1       2.670  -2.634  -9.533  0.00  0.00    -0.007 C 
ATOM     11  H   LIG d   1       4.844  -2.720  -9.418  0.00  0.00     0.033 H 
ATOM     12  H   LIG d   1       4.042  -2.323  -7.869  0.00  0.00     0.033 H 
ATOM     13  C   LIG d   1       2.246  -4.033 -10.049  0.00  0.00    -0.033 C 
ATOM     14  H   LIG d   1       1.917  -2.229  -8.856  0.00  0.00     0.032 H 
ATOM     15  H   LIG d   1       2.844  -1.953 -10.365  0.00  0.00     0.032 H 
ATOM     16  H   LIG d   1       1.171  -4.070 -10.222  0.00  0.00     0.081 H 
ATOM     17  H   LIG d   1       2.792  -4.289 -10.956  0.00  0.00     0.081 H 
ATOM     18  N   LIG d   1       2.647  -4.915  -8.937  0.00  0.00     0.236 N 
ATOM     19  H   LIG d   1       1.938  -4.887  -8.195  0.00  0.00     0.202 HD
ATOM     20  H   LIG d   1       2.752  -5.879  -9.275  0.00  0.00     0.202 HD
ATOM     21  H   LIG d   1       4.749  -4.950  -8.908  0.00  0.00     0.095 H 
ENDBRANCH   5   8
ENDBRANCH   1   4
BRANCH   1  22
ATOM     22  C   LIG d   1       5.077  -2.653  -4.079  0.00  0.00    -0.025 C 
ATOM     23  H   LIG d   1       6.100  -2.536  -3.722  0.00  0.00     0.032 H 
ATOM     24  C   LIG d   1       4.761  -1.549  -5.090  0.00  0.00    -0.048 C 
ATOM     25  C   LIG d   1       4.914  -0.183  -4.418  0.00  0.00    -0.045 C 
ATOM     26  H   LIG d   1       5.451  -1.619  -5.932  0.00  0.00     0.027 H 
ATOM     27  H   LIG d   1       3.738  -1.666  -5.448  0.00  0.00     0.027 H 
ATOM     28  C   LIG d   1       3.946  -0.086  -3.237  0.00  0.00    -0.001 C 
ATOM     29  H   LIG d   1       5.937  -0.067  -4.061  0.00  0.00     0.027 H 
ATOM     30  H   LIG d   1       4.688   0.603  -5.139  0.00  0.00     0.027 H 
ATOM     31  C   LIG d   1       4.262  -1.189  -2.226  0.00  0.00    -0.045 C 
ATOM     32  H   LIG d   1       2.923  -0.202  -3.594  0.00  0.00     0.036 H 
ATOM     33  C   LIG d   1       4.110  -2.555  -2.898  0.00  0.00    -0.048 C 
ATOM     34  H   LIG d   1       5.286  -1.072  -1.868  0.00  0.00     0.027 H 
ATOM     35  H   LIG d   1       3.573  -1.119  -1.384  0.00  0.00     0.027 H 
ATOM     36  H   LIG d   1       3.087  -2.672  -3.255  0.00  0.00     0.027 H 
ATOM     37  H   LIG d   1       4.336  -3.341  -2.177  0.00  0.00     0.027 H 
BRANCH  28  38
ATOM     38  C   LIG d   1       4.097   1.260  -2.575  0.00  0.00     0.045 C 
ATOM     39  O   LIG d   1       3.708   2.256  -3.137  0.00  0.00    -0.549 OA
ATOM     40  O   LIG d   1       4.662   1.351  -1.361  0.00  0.00    -0.549 OA
ENDBRANCH  28  38
ENDBRANCH   1  22
TORSDOF 4
ENDMDL
MODEL 4
REMARK VINA RESULT:      -5.7      4.130      8.011
REMARK  4 active torsions:
REMARK  status: ('A' for Active; 'I' for Inactive)
REMARK    1  A    between atoms: C_3  and  C_6 
REMARK       I    between atoms: C_6  and  N_8 
REMARK    2  A    between atoms: N_8  and  C_9 
REMARK    3  A    between atoms: C_9  and  C_10 
REMARK    4  A    between atoms: C_14  and  C_18 
ROOT
ATOM      1  C   LIG d   1       5.964  -3.940  -4.812  0.00  0.00     0.015 C 
ATOM      2  H   LIG d   1       5.644  -4.703  -4.103  0.00  0.00     0.046 H 
ATOM      3  H   LIG d   1       7.054  -3.914  -4.852  0.00  0.00     0.046 H 
ENDROOT
BRANCH   1   4
ATOM      4  N   LIG d   1       5.435  -4.257  -6.141  0.00  0.00    -0.310 N 
ATOM      5  C   LIG d   1       4.450  -5.168  -6.275  0.00  0.00     0.261 C 
ATOM      6  O   LIG d   1       4.003  -5.726  -5.295  0.00  0.00    -0.270 OA
ATOM      7  H   LIG d   1       5.791  -3.811  -6.925  0.00  0.00     0.149 HD
BRANCH   5   8
ATOM      8  C   LIG d   1       3.906  -5.494  -7.642  0.00  0.00     0.055 C 
ATOM      9  C   LIG d   1       5.064  -5.654  -8.643  0.00  0.00     0.004 C 
ATOM     10  C   LIG d   1       4.806  -4.588  -9.733  0.00  0.00    -0.007 C 
ATOM     11  H   LIG d   1       5.052  -6.653  -9.079  0.00  0.00     0.033 H 
ATOM     12  H   LIG d   1       6.019  -5.468  -8.150  0.00  0.00     0.033 H 
ATOM     13  C   LIG d   1       3.287  -4.310  -9.598  0.00  0.00    -0.033 C 
ATOM     14  H   LIG d   1       5.383  -3.685  -9.533  0.00  0.00     0.032 H 
ATOM     15  H   LIG d   1       5.040  -4.983 -10.722  0.00  0.00     0.032 H 
ATOM     16  H   LIG d   1       3.042  -3.320  -9.982  0.00  0.00     0.081 H 
ATOM     17  H   LIG d   1       2.710  -5.077 -10.113  0.00  0.00     0.081 H 
ATOM     18  N   LIG d   1       3.078  -4.394  -8.141  0.00  0.00     0.236 N 
ATOM     19  H   LIG d   1       3.359  -3.513  -7.695  0.00  0.00     0.202 HD
ATOM     20  H   LIG d   1       2.089  -4.580  -7.939  0.00  0.00     0.202 HD
ATOM     21  H   LIG d   1       3.320  -6.412  -7.601  0.00  0.00     0.095 H 
ENDBRANCH   5   8
ENDBRANCH   1   4
BRANCH   1  22
ATOM     22  C   LIG d   1       5.437  -2.575  -4.365  0.00  0.00    -0.025 C 
ATOM     23  H   LIG d   1       5.115  -2.007  -5.237  0.00  0.00     0.032 H 
ATOM     24  C   LIG d   1       4.252  -2.771  -3.418  0.00  0.00    -0.048 C 
ATOM     25  C   LIG d   1       3.726  -1.406  -2.970  0.00  0.00    -0.045 C 
ATOM     26  H   LIG d   1       3.460  -3.314  -3.934  0.00  0.00     0.027 H 
ATOM     27  H   LIG d   1       4.574  -3.339  -2.545  0.00  0.00     0.027 H 
ATOM     28  C   LIG d   1       4.837  -0.643  -2.247  0.00  0.00    -0.001 C 
ATOM     29  H   LIG d   1       3.403  -0.838  -3.843  0.00  0.00     0.027 H 
ATOM     30  H   LIG d   1       2.881  -1.546  -2.295  0.00  0.00     0.027 H 
ATOM     31  C   LIG d   1       6.022  -0.447  -3.194  0.00  0.00    -0.045 C 
ATOM     32  H   LIG d   1       5.159  -1.211  -1.374  0.00  0.00     0.036 H 
ATOM     33  C   LIG d   1       6.548  -1.812  -3.642  0.00  0.00    -0.048 C 
ATOM     34  H   LIG d   1       5.699   0.122  -4.066  0.00  0.00     0.027 H 
ATOM     35  H   LIG d   1       6.813   0.097  -2.678  0.00  0.00     0.027 H 
ATOM     36  H   LIG d   1       6.871  -2.380  -2.769  0.00  0.00     0.027 H 
ATOM     37  H   LIG d   1       7.392  -1.671  -4.317  0.00  0.00     0.027 H 
BRANCH  28  38
ATOM     38  C   LIG d   1       4.318   0.702  -1.806  0.00  0.00     0.045 C 
ATOM     39  O   LIG d   1       4.977   1.390  -1.064  0.00  0.00    -0.549 OA
ATOM     40  O   LIG d   1       3.123   1.134  -2.240  0.00  0.00    -0.549 OA
ENDBRANCH  28  38
ENDBRANCH   1  22
TORSDOF 4
ENDMDL
MODEL 5
REMARK VINA RESULT:      -5.6      6.295      8.509
REMARK  4 active torsions:
REMARK  status: ('A' for Active; 'I' for Inactive)
REMARK    1  A    between atoms: C_3  and  C_6 
REMARK       I    between atoms: C_6  and  N_8 
REMARK    2  A    between atoms: N_8  and  C_9 
REMARK    3  A    between atoms: C_9  and  C_10 
REMARK    4  A    between atoms: C_14  and  C_18 
ROOT
ATOM      1  C   LIG d   1       8.638   0.811  -4.502  0.00  0.00     0.015 C 
ATOM      2  H   LIG d   1       8.875   0.940  -5.558  0.00  0.00     0.046 H 
ATOM      3  H   LIG d   1       9.349   0.117  -4.052  0.00  0.00     0.046 H 
ENDROOT
BRANCH   1   4
ATOM      4  N   LIG d   1       8.722   2.105  -3.822  0.00  0.00    -0.310 N 
ATOM      5  C   LIG d   1       9.917   2.577  -3.414  0.00  0.00     0.261 C 
ATOM      6  O   LIG d   1      10.924   1.929  -3.610  0.00  0.00    -0.270 OA
ATOM      7  H   LIG d   1       7.918   2.624  -3.665  0.00  0.00     0.149 HD
BRANCH   5   8
ATOM      8  C   LIG d   1      10.003   3.909  -2.714  0.00  0.00     0.055 C 
ATOM      9  C   LIG d   1      10.376   5.009  -3.724  0.00  0.00     0.004 C 
ATOM     10  C   LIG d   1      11.699   5.609  -3.197  0.00  0.00    -0.007 C 
ATOM     11  H   LIG d   1       9.599   5.773  -3.756  0.00  0.00     0.033 H 
ATOM     12  H   LIG d   1      10.524   4.579  -4.715  0.00  0.00     0.033 H 
ATOM     13  C   LIG d   1      11.680   5.235  -1.693  0.00  0.00    -0.033 C 
ATOM     14  H   LIG d   1      12.555   5.155  -3.697  0.00  0.00     0.032 H 
ATOM     15  H   LIG d   1      11.710   6.692  -3.325  0.00  0.00     0.032 H 
ATOM     16  H   LIG d   1      12.692   5.210  -1.290  0.00  0.00     0.081 H 
ATOM     17  H   LIG d   1      11.058   5.933  -1.132  0.00  0.00     0.081 H 
ATOM     18  N   LIG d   1      11.068   3.893  -1.710  0.00  0.00     0.236 N 
ATOM     19  H   LIG d   1      11.773   3.189  -1.956  0.00  0.00     0.202 HD
ATOM     20  H   LIG d   1      10.676   3.676  -0.786  0.00  0.00     0.202 HD
ATOM     21  H   LIG d   1       9.049   4.145  -2.242  0.00  0.00     0.095 H 
ENDBRANCH   5   8
ENDBRANCH   1   4
BRANCH   1  22
ATOM     22  C   LIG d   1       7.221   0.251  -4.362  0.00  0.00    -0.025 C 
ATOM     23  H   LIG d   1       6.709   0.315  -5.323  0.00  0.00     0.032 H 
ATOM     24  C   LIG d   1       7.290  -1.210  -3.916  0.00  0.00    -0.048 C 
ATOM     25  C   LIG d   1       5.873  -1.769  -3.777  0.00  0.00    -0.045 C 
ATOM     26  H   LIG d   1       7.838  -1.791  -4.659  0.00  0.00     0.027 H 
ATOM     27  H   LIG d   1       7.802  -1.273  -2.956  0.00  0.00     0.027 H 
ATOM     28  C   LIG d   1       5.104  -0.954  -2.735  0.00  0.00    -0.001 C 
ATOM     29  H   LIG d   1       5.362  -1.706  -4.737  0.00  0.00     0.027 H 
ATOM     30  H   LIG d   1       5.923  -2.811  -3.459  0.00  0.00     0.027 H 
ATOM     31  C   LIG d   1       5.034   0.508  -3.181  0.00  0.00    -0.045 C 
ATOM     32  H   LIG d   1       5.615  -1.017  -1.775  0.00  0.00     0.036 H 
ATOM     33  C   LIG d   1       6.452   1.066  -3.321  0.00  0.00    -0.048 C 
ATOM     34  H   LIG d   1       4.522   0.570  -4.141  0.00  0.00     0.027 H 
ATOM     35  H   LIG d   1       4.486   1.088  -2.438  0.00  0.00     0.027 H 
ATOM     36  H   LIG d   1       6.963   1.004  -2.360  0.00  0.00     0.027 H 
ATOM     37  H   LIG d   1       6.401   2.108  -3.639  0.00  0.00     0.027 H 
BRANCH  28  38
ATOM     38  C   LIG d   1       3.708  -1.504  -2.597  0.00  0.00     0.045 C 
ATOM     39  O   LIG d   1       3.542  -2.665  -2.306  0.00  0.00    -0.549 OA
ATOM     40  O   LIG d   1       2.648  -0.704  -2.798  0.00  0.00    -0.549 OA
ENDBRANCH  28  38
ENDBRANCH   1  22
TORSDOF 4
ENDMDL
MODEL 6
REMARK VINA RESULT:      -5.6      6.473      9.726
REMARK  4 active torsions:
REMARK  status: ('A' for Active; 'I' for Inactive)
REMARK    1  A    between atoms: C_3  and  C_6 
REMARK       I    between atoms: C_6  and  N_8 
REMARK    2  A    between atoms: N_8  and  C_9 
REMARK    3  A    between atoms: C_9  and  C_10 
REMARK    4  A    between atoms: C_14  and  C_18 
ROOT
ATOM      1  C   LIG d   1       8.203   1.574  -4.149  0.00  0.00     0.015 C 
ATOM      2  H   LIG d   1       8.703   0.724  -3.684  0.00  0.00     0.046 H 
ATOM      3  H   LIG d   1       8.267   1.485  -5.234  0.00  0.00     0.046 H 
ENDROOT
BRANCH   1   4
ATOM      4  N   LIG d   1       6.796   1.594  -3.743  0.00  0.00    -0.310 N 
ATOM      5  C   LIG d   1       6.222   0.481  -3.243  0.00  0.00     0.261 C 
ATOM      6  O   LIG d   1       6.872  -0.538  -3.129  0.00  0.00    -0.270 OA
ATOM      7  H   LIG d   1       6.276   2.407  -3.834  0.00  0.00     0.149 HD
BRANCH   5   8
ATOM      8  C   LIG d   1       4.774   0.501  -2.825  0.00  0.00     0.055 C 
ATOM      9  C   LIG d   1       4.460  -0.735  -1.963  0.00  0.00     0.004 C 
ATOM     10  C   LIG d   1       3.344  -1.485  -2.726  0.00  0.00    -0.007 C 
ATOM     11  H   LIG d   1       4.106  -0.429  -0.978  0.00  0.00     0.033 H 
ATOM     12  H   LIG d   1       5.344  -1.366  -1.869  0.00  0.00     0.033 H 
ATOM     13  C   LIG d   1       2.721  -0.379  -3.615  0.00  0.00    -0.033 C 
ATOM     14  H   LIG d   1       3.764  -2.282  -3.339  0.00  0.00     0.032 H 
ATOM     15  H   LIG d   1       2.603  -1.884  -2.032  0.00  0.00     0.032 H 
ATOM     16  H   LIG d   1       2.233  -0.815  -4.486  0.00  0.00     0.081 H 
ATOM     17  H   LIG d   1       2.019   0.226  -3.041  0.00  0.00     0.081 H 
ATOM     18  N   LIG d   1       3.901   0.420  -3.998  0.00  0.00     0.236 N 
ATOM     19  H   LIG d   1       4.396  -0.035  -4.773  0.00  0.00     0.202 HD
ATOM     20  H   LIG d   1       3.608   1.362  -4.283  0.00  0.00     0.202 HD
ATOM     21  H   LIG d   1       4.560   1.411  -2.264  0.00  0.00     0.095 H 
ENDBRANCH   5   8
ENDBRANCH   1   4
BRANCH   1  22
ATOM     22  C   LIG d   1       8.882   2.870  -3.703  0.00  0.00    -0.025 C 
ATOM     23  H   LIG d   1       8.252   3.376  -2.972  0.00  0.00     0.032 H 
ATOM     24  C   LIG d   1      10.236   2.546  -3.072  0.00  0.00    -0.048 C 
ATOM     25  C   LIG d   1      10.915   3.843  -2.626  0.00  0.00    -0.045 C 
ATOM     26  H   LIG d   1      10.089   1.898  -2.208  0.00  0.00     0.027 H 
ATOM     27  H   LIG d   1      10.866   2.040  -3.803  0.00  0.00     0.027 H 
ATOM     28  C   LIG d   1      11.121   4.753  -3.838  0.00  0.00    -0.001 C 
ATOM     29  H   LIG d   1      10.285   4.349  -1.894  0.00  0.00     0.027 H 
ATOM     30  H   LIG d   1      11.881   3.612  -2.175  0.00  0.00     0.027 H 
ATOM     31  C   LIG d   1       9.766   5.077  -4.469  0.00  0.00    -0.045 C 
ATOM     32  H   LIG d   1      11.751   4.247  -4.569  0.00  0.00     0.036 H 
ATOM     33  C   LIG d   1       9.088   3.780  -4.915  0.00  0.00    -0.048 C 
ATOM     34  H   LIG d   1       9.137   5.584  -3.737  0.00  0.00     0.027 H 
ATOM     35  H   LIG d   1       9.914   5.726  -5.332  0.00  0.00     0.027 H 
ATOM     36  H   LIG d   1       9.718   3.275  -5.647  0.00  0.00     0.027 H 
ATOM     37  H   LIG d   1       8.123   4.012  -5.365  0.00  0.00     0.027 H 
BRANCH  28  38
ATOM     38  C   LIG d   1      11.789   6.030  -3.398  0.00  0.00     0.045 C 
ATOM     39  O   LIG d   1      12.995   6.109  -3.386  0.00  0.00    -0.549 OA
ATOM     40  O   LIG d   1      11.045   7.082  -3.021  0.00  0.00    -0.549 OA
ENDBRANCH  28  38
ENDBRANCH   1  22
TORSDOF 4
ENDMDL
MODEL 7
REMARK VINA RESULT:      -5.4      6.114      8.323
REMARK  4 active torsions:
REMARK  status: ('A' for Active; 'I' for Inactive)
REMARK    1  A    between atoms: C_3  and  C_6 
REMARK       I    between atoms: C_6  and  N_8 
REMARK    2  A    between atoms: N_8  and  C_9 
REMARK    3  A    between atoms: C_9  and  C_10 
REMARK    4  A    between atoms: C_14  and  C_18 
ROOT
ATOM      1  C   LIG d   1       8.181   1.572  -4.046  0.00  0.00     0.015 C 
ATOM      2  H   LIG d   1       8.813   1.620  -3.159  0.00  0.00     0.046 H 
ATOM      3  H   LIG d   1       8.394   0.655  -4.596  0.00  0.00     0.046 H 
ENDROOT
BRANCH   1   4
ATOM      4  N   LIG d   1       6.773   1.583  -3.642  0.00  0.00    -0.310 N 
ATOM      5  C   LIG d   1       6.195   0.455  -3.180  0.00  0.00     0.261 C 
ATOM      6  O   LIG d   1       6.841  -0.568  -3.100  0.00  0.00    -0.270 OA
ATOM      7  H   LIG d   1       6.256   2.400  -3.705  0.00  0.00     0.149 HD
BRANCH   5   8
ATOM      8  C   LIG d   1       4.746   0.466  -2.765  0.00  0.00     0.055 C 
ATOM      9  C   LIG d   1       4.425  -0.800  -1.950  0.00  0.00     0.004 C 
ATOM     10  C   LIG d   1       3.307  -1.516  -2.742  0.00  0.00    -0.007 C 
ATOM     11  H   LIG d   1       4.071  -0.530  -0.955  0.00  0.00     0.033 H 
ATOM     12  H   LIG d   1       5.306  -1.438  -1.878  0.00  0.00     0.033 H 
ATOM     13  C   LIG d   1       2.691  -0.375  -3.590  0.00  0.00    -0.033 C 
ATOM     14  H   LIG d   1       3.725  -2.291  -3.384  0.00  0.00     0.032 H 
ATOM     15  H   LIG d   1       2.564  -1.938  -2.065  0.00  0.00     0.032 H 
ATOM     16  H   LIG d   1       2.202  -0.776  -4.478  0.00  0.00     0.081 H 
ATOM     17  H   LIG d   1       1.991   0.211  -2.995  0.00  0.00     0.081 H 
ATOM     18  N   LIG d   1       3.875   0.433  -3.941  0.00  0.00     0.236 N 
ATOM     19  H   LIG d   1       4.369   0.005  -4.732  0.00  0.00     0.202 HD
ATOM     20  H   LIG d   1       3.587   1.386  -4.191  0.00  0.00     0.202 HD
ATOM     21  H   LIG d   1       4.535   1.355  -2.170  0.00  0.00     0.095 H 
ENDBRANCH   5   8
ENDBRANCH   1   4
BRANCH   1  22
ATOM     22  C   LIG d   1       8.464   2.781  -4.940  0.00  0.00    -0.025 C 
ATOM     23  H   LIG d   1       7.522   3.233  -5.249  0.00  0.00     0.032 H 
ATOM     24  C   LIG d   1       9.292   3.806  -4.164  0.00  0.00    -0.048 C 
ATOM     25  C   LIG d   1       9.576   5.015  -5.059  0.00  0.00    -0.045 C 
ATOM     26  H   LIG d   1       8.738   4.129  -3.282  0.00  0.00     0.027 H 
ATOM     27  H   LIG d   1      10.235   3.354  -3.855  0.00  0.00     0.027 H 
ATOM     28  C   LIG d   1      10.353   4.562  -6.296  0.00  0.00    -0.001 C 
ATOM     29  H   LIG d   1       8.633   5.467  -5.366  0.00  0.00     0.027 H 
ATOM     30  H   LIG d   1      10.166   5.746  -4.505  0.00  0.00     0.027 H 
ATOM     31  C   LIG d   1       9.525   3.536  -7.072  0.00  0.00    -0.045 C 
ATOM     32  H   LIG d   1      11.296   4.110  -5.987  0.00  0.00     0.036 H 
ATOM     33  C   LIG d   1       9.242   2.328  -6.177  0.00  0.00    -0.048 C 
ATOM     34  H   LIG d   1       8.583   3.990  -7.381  0.00  0.00     0.027 H 
ATOM     35  H   LIG d   1      10.080   3.215  -7.953  0.00  0.00     0.027 H 
ATOM     36  H   LIG d   1      10.184   1.875  -5.869  0.00  0.00     0.027 H 
ATOM     37  H   LIG d   1       8.652   1.598  -6.731  0.00  0.00     0.027 H 
BRANCH  28  38
ATOM     38  C   LIG d   1      10.633   5.753  -7.177  0.00  0.00     0.045 C 
ATOM     39  O   LIG d   1      11.715   6.288  -7.143  0.00  0.00    -0.549 OA
ATOM     40  O   LIG d   1       9.678   6.217  -7.999  0.00  0.00    -0.549 OA
ENDBRANCH  28  38
ENDBRANCH   1  22
TORSDOF 4
ENDMDL
MODEL 8
REMARK VINA RESULT:      -5.2      5.064      6.139
REMARK  4 active torsions:
REMARK  status: ('A' for Active; 'I' for Inactive)
REMARK    1  A    between atoms: C_3  and  C_6 
REMARK       I    between atoms: C_6  and  N_8 
REMARK    2  A    between atoms: N_8  and  C_9 
REMARK    3  A    between atoms: C_9  and  C_10 
REMARK    4  A    between atoms: C_14  and  C_18 
ROOT
ATOM      1  C   LIG d   1       6.923  -2.971  -5.272  0.00  0.00     0.015 C 
ATOM      2  H   LIG d   1       7.181  -2.818  -6.320  0.00  0.00     0.046 H 
ATOM      3  H   LIG d   1       7.812  -2.841  -4.655  0.00  0.00     0.046 H 
ENDROOT
BRANCH   1   4
ATOM      4  N   LIG d   1       5.906  -1.994  -4.874  0.00  0.00    -0.310 N 
ATOM      5  C   LIG d   1       6.099  -1.226  -3.783  0.00  0.00     0.261 C 
ATOM      6  O   LIG d   1       7.115  -1.344  -3.130  0.00  0.00    -0.270 OA
ATOM      7  H   LIG d   1       5.094  -1.900  -5.395  0.00  0.00     0.149 HD
BRANCH   5   8
ATOM      8  C   LIG d   1       5.053  -0.222  -3.373  0.00  0.00     0.055 C 
ATOM      9  C   LIG d   1       4.045  -0.878  -2.411  0.00  0.00     0.004 C 
ATOM     10  C   LIG d   1       2.673  -0.745  -3.111  0.00  0.00    -0.007 C 
ATOM     11  H   LIG d   1       4.036  -0.352  -1.457  0.00  0.00     0.033 H 
ATOM     12  H   LIG d   1       4.293  -1.929  -2.262  0.00  0.00     0.033 H 
ATOM     13  C   LIG d   1       2.893   0.435  -4.092  0.00  0.00    -0.033 C 
ATOM     14  H   LIG d   1       2.427  -1.657  -3.654  0.00  0.00     0.032 H 
ATOM     15  H   LIG d   1       1.893  -0.505  -2.389  0.00  0.00     0.032 H 
ATOM     16  H   LIG d   1       2.192   0.378  -4.925  0.00  0.00     0.081 H 
ATOM     17  H   LIG d   1       2.799   1.388  -3.573  0.00  0.00     0.081 H 
ATOM     18  N   LIG d   1       4.283   0.221  -4.537  0.00  0.00     0.236 N 
ATOM     19  H   LIG d   1       4.310  -0.496  -5.270  0.00  0.00     0.202 HD
ATOM     20  H   LIG d   1       4.673   1.099  -4.901  0.00  0.00     0.202 HD
ATOM     21  H   LIG d   1       5.524   0.634  -2.890  0.00  0.00     0.095 H 
ENDBRANCH   5   8
ENDBRANCH   1   4
BRANCH   1  22
ATOM     22  C   LIG d   1       6.373  -4.386  -5.084  0.00  0.00    -0.025 C 
ATOM     23  H   LIG d   1       6.331  -4.620  -4.020  0.00  0.00     0.032 H 
ATOM     24  C   LIG d   1       4.967  -4.471  -5.681  0.00  0.00    -0.048 C 
ATOM     25  C   LIG d   1       4.418  -5.887  -5.493  0.00  0.00    -0.045 C 
ATOM     26  H   LIG d   1       4.314  -3.758  -5.177  0.00  0.00     0.027 H 
ATOM     27  H   LIG d   1       5.010  -4.237  -6.745  0.00  0.00     0.027 H 
ATOM     28  C   LIG d   1       5.335  -6.888  -6.199  0.00  0.00    -0.001 C 
ATOM     29  H   LIG d   1       4.375  -6.121  -4.429  0.00  0.00     0.027 H 
ATOM     30  H   LIG d   1       3.416  -5.948  -5.919  0.00  0.00     0.027 H 
ATOM     31  C   LIG d   1       6.740  -6.802  -5.602  0.00  0.00    -0.045 C 
ATOM     32  H   LIG d   1       5.377  -6.653  -7.263  0.00  0.00     0.036 H 
ATOM     33  C   LIG d   1       7.289  -5.386  -5.790  0.00  0.00    -0.048 C 
ATOM     34  H   LIG d   1       6.697  -7.037  -4.538  0.00  0.00     0.027 H 
ATOM     35  H   LIG d   1       7.393  -7.516  -6.105  0.00  0.00     0.027 H 
ATOM     36  H   LIG d   1       7.332  -5.153  -6.854  0.00  0.00     0.027 H 
ATOM     37  H   LIG d   1       8.291  -5.327  -5.364  0.00  0.00     0.027 H 
BRANCH  28  38
ATOM     38  C   LIG d   1       4.794  -8.282  -6.013  0.00  0.00     0.045 C 
ATOM     39  O   LIG d   1       4.799  -9.060  -6.937  0.00  0.00    -0.549 OA
ATOM     40  O   LIG d   1       4.306  -8.659  -4.821  0.00  0.00    -0.549 OA
ENDBRANCH  28  38
ENDBRANCH   1  22
TORSDOF 4
ENDMDL
MODEL 9
REMARK VINA RESULT:      -5.1      6.308      8.841
REMARK  4 active torsions:
REMARK  status: ('A' for Active; 'I' for Inactive)
REMARK    1  A    between atoms: C_3  and  C_6 
REMARK       I    between atoms: C_6  and  N_8 
REMARK    2  A    between atoms: N_8  and  C_9 
REMARK    3  A    between atoms: C_9  and  C_10 
REMARK    4  A    between atoms: C_14  and  C_18 
ROOT
ATOM      1  C   LIG d   1       7.651  -3.075  -4.085  0.00  0.00     0.015 C 
ATOM      2  H   LIG d   1       7.407  -3.072  -5.147  0.00  0.00     0.046 H 
ATOM      3  H   LIG d   1       7.382  -4.039  -3.652  0.00  0.00     0.046 H 
ENDROOT
BRANCH   1   4
ATOM      4  N   LIG d   1       9.089  -2.848  -3.914  0.00  0.00    -0.310 N 
ATOM      5  C   LIG d   1       9.903  -3.879  -3.612  0.00  0.00     0.261 C 
ATOM      6  O   LIG d   1       9.445  -4.995  -3.481  0.00  0.00    -0.270 OA
ATOM      7  H   LIG d   1       9.455  -1.957  -4.019  0.00  0.00     0.149 HD
BRANCH   5   8
ATOM      8  C   LIG d   1      11.381  -3.646  -3.436  0.00  0.00     0.055 C 
ATOM      9  C   LIG d   1      12.022  -3.296  -4.792  0.00  0.00     0.004 C 
ATOM     10  C   LIG d   1      13.090  -4.389  -5.027  0.00  0.00    -0.007 C 
ATOM     11  H   LIG d   1      12.489  -2.313  -4.747  0.00  0.00     0.033 H 
ATOM     12  H   LIG d   1      11.272  -3.323  -5.583  0.00  0.00     0.033 H 
ATOM     13  C   LIG d   1      13.376  -4.913  -3.597  0.00  0.00    -0.033 C 
ATOM     14  H   LIG d   1      12.695  -5.185  -5.658  0.00  0.00     0.032 H 
ATOM     15  H   LIG d   1      13.990  -3.960  -5.468  0.00  0.00     0.032 H 
ATOM     16  H   LIG d   1      13.767  -5.930  -3.632  0.00  0.00     0.081 H 
ATOM     17  H   LIG d   1      14.068  -4.251  -3.077  0.00  0.00     0.081 H 
ATOM     18  N   LIG d   1      12.042  -4.867  -2.970  0.00  0.00     0.236 N 
ATOM     19  H   LIG d   1      11.495  -5.690  -3.247  0.00  0.00     0.202 HD
ATOM     20  H   LIG d   1      12.136  -4.846  -1.948  0.00  0.00     0.202 HD
ATOM     21  H   LIG d   1      11.550  -2.837  -2.725  0.00  0.00     0.095 H 
ENDBRANCH   5   8
ENDBRANCH   1   4
BRANCH   1  22
ATOM     22  C   LIG d   1       6.872  -1.964  -3.379  0.00  0.00    -0.025 C 
ATOM     23  H   LIG d   1       7.172  -1.918  -2.332  0.00  0.00     0.032 H 
ATOM     24  C   LIG d   1       7.170  -0.624  -4.054  0.00  0.00    -0.048 C 
ATOM     25  C   LIG d   1       6.390   0.487  -3.348  0.00  0.00    -0.045 C 
ATOM     26  H   LIG d   1       8.238  -0.415  -3.990  0.00  0.00     0.027 H 
ATOM     27  H   LIG d   1       6.870  -0.669  -5.101  0.00  0.00     0.027 H 
ATOM     28  C   LIG d   1       4.891   0.193  -3.437  0.00  0.00    -0.001 C 
ATOM     29  H   LIG d   1       6.690   0.533  -2.302  0.00  0.00     0.027 H 
ATOM     30  H   LIG d   1       6.603   1.442  -3.829  0.00  0.00     0.027 H 
ATOM     31  C   LIG d   1       4.593  -1.146  -2.762  0.00  0.00    -0.045 C 
ATOM     32  H   LIG d   1       4.591   0.148  -4.484  0.00  0.00     0.036 H 
ATOM     33  C   LIG d   1       5.373  -2.258  -3.468  0.00  0.00    -0.048 C 
ATOM     34  H   LIG d   1       4.893  -1.100  -1.715  0.00  0.00     0.027 H 
ATOM     35  H   LIG d   1       3.525  -1.355  -2.825  0.00  0.00     0.027 H 
ATOM     36  H   LIG d   1       5.073  -2.303  -4.514  0.00  0.00     0.027 H 
ATOM     37  H   LIG d   1       5.160  -3.212  -2.986  0.00  0.00     0.027 H 
BRANCH  28  38
ATOM     38  C   LIG d   1       4.123   1.288  -2.742  0.00  0.00     0.045 C 
ATOM     39  O   LIG d   1       4.015   1.280  -1.539  0.00  0.00    -0.549 OA
ATOM     40  O   LIG d   1       3.560   2.273  -3.460  0.00  0.00    -0.549 OA
ENDBRANCH  28  38
ENDBRANCH   1  22
TORSDOF 4
ENDMDL
MODEL 10
REMARK VINA RESULT:      -4.9     10.428     11.699
REMARK  4 active torsions:
REMARK  status: ('A' for Active; 'I' for Inactive)
REMARK    1  A    between atoms: C_3  and  C_6 
REMARK       I    between atoms: C_6  and  N_8 
REMARK    2  A    between atoms: N_8  and  C_9 
REMARK    3  A    between atoms: C_9  and  C_10 
REMARK    4  A    between atoms: C_14  and  C_18 
ROOT
ATOM      1  C   LIG d   1       9.825   9.920  -6.294  0.00  0.00     0.015 C 
ATOM      2  H   LIG d   1       9.069  10.687  -6.466  0.00  0.00     0.046 H 
ATOM      3  H   LIG d   1      10.742  10.190  -6.817  0.00  0.00     0.046 H 
ENDROOT
BRANCH   1   4
ATOM      4  N   LIG d   1      10.094   9.815  -4.858  0.00  0.00    -0.310 N 
ATOM      5  C   LIG d   1       9.430  10.601  -3.987  0.00  0.00     0.261 C 
ATOM      6  O   LIG d   1       8.609  11.396  -4.393  0.00  0.00    -0.270 OA
ATOM      7  H   LIG d   1      10.751   9.179  -4.533  0.00  0.00     0.149 HD
BRANCH   5   8
ATOM      8  C   LIG d   1       9.708  10.493  -2.510  0.00  0.00     0.055 C 
ATOM      9  C   LIG d   1      10.426   9.165  -2.207  0.00  0.00     0.004 C 
ATOM     10  C   LIG d   1       9.498   8.421  -1.220  0.00  0.00    -0.007 C 
ATOM     11  H   LIG d   1      11.395   9.355  -1.747  0.00  0.00     0.033 H 
ATOM     12  H   LIG d   1      10.548   8.584  -3.122  0.00  0.00     0.033 H 
ATOM     13  C   LIG d   1       8.653   9.564  -0.603  0.00  0.00    -0.033 C 
ATOM     14  H   LIG d   1       8.861   7.712  -1.748  0.00  0.00     0.032 H 
ATOM     15  H   LIG d   1      10.081   7.914  -0.450  0.00  0.00     0.032 H 
ATOM     16  H   LIG d   1       7.705   9.182  -0.226  0.00  0.00     0.081 H 
ATOM     17  H   LIG d   1       9.208  10.068   0.188  0.00  0.00     0.081 H 
ATOM     18  N   LIG d   1       8.455  10.467  -1.753  0.00  0.00     0.236 N 
ATOM     19  H   LIG d   1       7.694  10.117  -2.345  0.00  0.00     0.202 HD
ATOM     20  H   LIG d   1       8.226  11.411  -1.421  0.00  0.00     0.202 HD
ATOM     21  H   LIG d   1      10.323  11.331  -2.183  0.00  0.00     0.095 H 
ENDBRANCH   5   8
ENDBRANCH   1   4
BRANCH   1  22
ATOM     22  C   LIG d   1       9.315   8.576  -6.818  0.00  0.00    -0.025 C 
ATOM     23  H   LIG d   1       8.288   8.423  -6.487  0.00  0.00     0.032 H 
ATOM     24  C   LIG d   1       9.365   8.571  -8.346  0.00  0.00    -0.048 C 
ATOM     25  C   LIG d   1       8.856   7.226  -8.869  0.00  0.00    -0.045 C 
ATOM     26  H   LIG d   1       8.736   9.373  -8.733  0.00  0.00     0.027 H 
ATOM     27  H   LIG d   1      10.393   8.724  -8.677  0.00  0.00     0.027 H 
ATOM     28  C   LIG d   1       9.739   6.101  -8.326  0.00  0.00    -0.001 C 
ATOM     29  H   LIG d   1       7.829   7.074  -8.539  0.00  0.00     0.027 H 
ATOM     30  H   LIG d   1       8.892   7.223  -9.959  0.00  0.00     0.027 H 
ATOM     31  C   LIG d   1       9.689   6.106  -6.798  0.00  0.00    -0.045 C 
ATOM     32  H   LIG d   1      10.766   6.254  -8.657  0.00  0.00     0.036 H 
ATOM     33  C   LIG d   1      10.198   7.451  -6.275  0.00  0.00    -0.048 C 
ATOM     34  H   LIG d   1       8.661   5.953  -6.468  0.00  0.00     0.027 H 
ATOM     35  H   LIG d   1      10.317   5.303  -6.411  0.00  0.00     0.027 H 
ATOM     36  H   LIG d   1      11.225   7.602  -6.604  0.00  0.00     0.027 H 
ATOM     37  H   LIG d   1      10.161   7.453  -5.185  0.00  0.00     0.027 H 
BRANCH  28  38
ATOM     38  C   LIG d   1       9.237   4.777  -8.842  0.00  0.00     0.045 C 
ATOM     39  O   LIG d   1       8.485   4.742  -9.786  0.00  0.00    -0.549 OA
ATOM     40  O   LIG d   1       9.627   3.636  -8.251  0.00  0.00    -0.549 OA
ENDBRANCH  28  38
ENDBRANCH   1  22
TORSDOF 4
ENDMDL
