MODEL 1
REMARK VINA RESULT:      -4.5      0.000      0.000
REMARK  5 active torsions:
REMARK  status: ('A' for Active; 'I' for Inactive)
REMARK    1  A    between atoms: C_1  and  C_2 
REMARK    2  A    between atoms: N_4  and  C_14 
REMARK    3  A    between atoms: C_6  and  C_13 
REMARK    4  A    between atoms: C_7  and  O_8 
REMARK    5  A    between atoms: N_10  and  C_12 
ROOT
ATOM      1  C   LIG d   1       5.616  -2.177  -4.745  0.00  0.00     0.047 C 
ATOM      2  C   LIG d   1       4.507  -1.723  -5.699  0.00  0.00    -0.023 C 
ATOM      3  N   LIG d   1       4.264  -0.286  -5.520  0.00  0.00     0.234 N 
ATOM      4  C   LIG d   1       3.792  -0.021  -4.156  0.00  0.00    -0.023 C 
ATOM      5  C   LIG d   1       4.876  -0.419  -3.151  0.00  0.00     0.047 C 
ATOM      6  C   LIG d   1       5.163  -1.918  -3.302  0.00  0.00     0.078 C 
ATOM      7  C   LIG d   1       6.157   0.361  -3.462  0.00  0.00     0.011 C 
ATOM      8  N   LIG d   1       6.584   0.072  -4.837  0.00  0.00    -0.304 N 
ATOM      9  C   LIG d   1       6.888  -1.365  -5.014  0.00  0.00     0.011 C 
ATOM     10  H   LIG d   1       4.812  -1.915  -6.727  0.00  0.00     0.082 H 
ATOM     11  H   LIG d   1       3.593  -2.275  -5.482  0.00  0.00     0.082 H 
ATOM     12  H   LIG d   1       3.568   1.040  -4.049  0.00  0.00     0.082 H 
ATOM     13  H   LIG d   1       2.889  -0.603  -3.966  0.00  0.00     0.082 H 
ATOM     14  H   LIG d   1       5.948  -2.223  -2.610  0.00  0.00     0.061 H 
ATOM     15  H   LIG d   1       5.966   1.429  -3.358  0.00  0.00     0.043 H 
ATOM     16  H   LIG d   1       6.942   0.062  -2.769  0.00  0.00     0.043 H 
ATOM     17  H   LIG d   1       7.669  -1.673  -4.320  0.00  0.00     0.043 H 
ATOM     18  H   LIG d   1       7.220  -1.540  -6.037  0.00  0.00     0.043 H 
ATOM     19  H   LIG d   1       5.121   0.221  -5.682  0.00  0.00     0.203 HD
ENDROOT
BRANCH   3  20
ATOM     20  C   LIG d   1       3.248   0.159  -6.484  0.00  0.00    -0.043 C 
ATOM     21  H   LIG d   1       2.911   1.160  -6.220  0.00  0.00     0.078 H 
ATOM     22  H   LIG d   1       3.678   0.172  -7.485  0.00  0.00     0.078 H 
ATOM     23  H   LIG d   1       2.402  -0.528  -6.462  0.00  0.00     0.078 H 
ENDBRANCH   3  20
BRANCH   1  24
ATOM     24  C   LIG d   1       5.898  -3.667  -4.945  0.00  0.00    -0.051 C 
ATOM     25  H   LIG d   1       5.788  -3.919  -6.000  0.00  0.00     0.024 H 
ATOM     26  H   LIG d   1       6.914  -3.892  -4.621  0.00  0.00     0.024 H 
ATOM     27  H   LIG d   1       5.190  -4.252  -4.357  0.00  0.00     0.024 H 
ENDBRANCH   1  24
BRANCH   5  28
ATOM     28  C   LIG d   1       4.402  -0.120  -1.727  0.00  0.00    -0.051 C 
ATOM     29  H   LIG d   1       3.331   0.077  -1.735  0.00  0.00     0.024 H 
ATOM     30  H   LIG d   1       4.610  -0.978  -1.088  0.00  0.00     0.024 H 
ATOM     31  H   LIG d   1       4.929   0.755  -1.345  0.00  0.00     0.024 H 
ENDBRANCH   5  28
BRANCH   6  32
ATOM     32  O   LIG d   1       3.970  -2.657  -3.032  0.00  0.00    -0.390 OA
ATOM     33  H   LIG d   1       3.547  -2.429  -2.193  0.00  0.00     0.210 HD
ENDBRANCH   6  32
BRANCH   8  34
ATOM     34  C   LIG d   1       7.736   0.901  -5.217  0.00  0.00    -0.013 C 
ATOM     35  H   LIG d   1       7.488   1.952  -5.075  0.00  0.00     0.039 H 
ATOM     36  H   LIG d   1       8.592   0.642  -4.594  0.00  0.00     0.039 H 
ATOM     37  H   LIG d   1       7.982   0.723  -6.264  0.00  0.00     0.039 H 
ENDBRANCH   8  34
TORSDOF 5
ENDMDL
MODEL 2
REMARK VINA RESULT:      -4.2      1.417      3.038
REMARK  5 active torsions:
REMARK  status: ('A' for Active; 'I' for Inactive)
REMARK    1  A    between atoms: C_1  and  C_2 
REMARK    2  A    between atoms: N_4  and  C_14 
REMARK    3  A    between atoms: C_6  and  C_13 
REMARK    4  A    between atoms: C_7  and  O_8 
REMARK    5  A    between atoms: N_10  and  C_12 
ROOT
ATOM      1  C   LIG d   1       4.840  -1.297  -3.344  0.00  0.00     0.047 C 
ATOM      2  C   LIG d   1       4.781  -2.789  -3.684  0.00  0.00    -0.023 C 
ATOM      3  N   LIG d   1       5.317  -3.007  -5.033  0.00  0.00     0.234 N 
ATOM      4  C   LIG d   1       4.487  -2.309  -6.022  0.00  0.00    -0.023 C 
ATOM      5  C   LIG d   1       4.536  -0.801  -5.760  0.00  0.00     0.047 C 
ATOM      6  C   LIG d   1       3.983  -0.526  -4.356  0.00  0.00     0.078 C 
ATOM      7  C   LIG d   1       5.992  -0.330  -5.816  0.00  0.00     0.011 C 
ATOM      8  N   LIG d   1       6.782  -1.062  -4.819  0.00  0.00    -0.304 N 
ATOM      9  C   LIG d   1       6.287  -0.804  -3.449  0.00  0.00     0.011 C 
ATOM     10  H   LIG d   1       5.376  -3.349  -2.962  0.00  0.00     0.082 H 
ATOM     11  H   LIG d   1       3.746  -3.130  -3.645  0.00  0.00     0.082 H 
ATOM     12  H   LIG d   1       4.865  -2.516  -7.024  0.00  0.00     0.082 H 
ATOM     13  H   LIG d   1       3.458  -2.658  -5.943  0.00  0.00     0.082 H 
ATOM     14  H   LIG d   1       4.026   0.541  -4.137  0.00  0.00     0.061 H 
ATOM     15  H   LIG d   1       6.397  -0.519  -6.811  0.00  0.00     0.043 H 
ATOM     16  H   LIG d   1       6.037   0.738  -5.603  0.00  0.00     0.043 H 
ATOM     17  H   LIG d   1       6.324   0.262  -3.229  0.00  0.00     0.043 H 
ATOM     18  H   LIG d   1       6.907  -1.345  -2.734  0.00  0.00     0.043 H 
ATOM     19  H   LIG d   1       6.261  -2.655  -5.080  0.00  0.00     0.203 HD
ENDROOT
BRANCH   3  20
ATOM     20  C   LIG d   1       5.321  -4.446  -5.328  0.00  0.00    -0.043 C 
ATOM     21  H   LIG d   1       4.307  -4.835  -5.253  0.00  0.00     0.078 H 
ATOM     22  H   LIG d   1       5.699  -4.608  -6.338  0.00  0.00     0.078 H 
ATOM     23  H   LIG d   1       5.963  -4.962  -4.614  0.00  0.00     0.078 H 
ENDBRANCH   3  20
BRANCH   1  24
ATOM     24  C   LIG d   1       4.311  -1.064  -1.927  0.00  0.00    -0.051 C 
ATOM     25  H   LIG d   1       5.022  -1.465  -1.204  0.00  0.00     0.024 H 
ATOM     26  H   LIG d   1       4.184   0.005  -1.758  0.00  0.00     0.024 H 
ATOM     27  H   LIG d   1       3.352  -1.567  -1.811  0.00  0.00     0.024 H 
ENDBRANCH   1  24
BRANCH   5  28
ATOM     28  C   LIG d   1       3.696  -0.063  -6.805  0.00  0.00    -0.051 C 
ATOM     29  H   LIG d   1       2.803  -0.646  -7.031  0.00  0.00     0.024 H 
ATOM     30  H   LIG d   1       3.404   0.912  -6.414  0.00  0.00     0.024 H 
ATOM     31  H   LIG d   1       4.282   0.071  -7.714  0.00  0.00     0.024 H 
ENDBRANCH   5  28
BRANCH   6  32
ATOM     32  O   LIG d   1       2.629  -0.978  -4.285  0.00  0.00    -0.390 OA
ATOM     33  H   LIG d   1       2.171  -0.985  -5.136  0.00  0.00     0.210 HD
ENDBRANCH   6  32
BRANCH   8  34
ATOM     34  C   LIG d   1       8.209  -0.731  -4.930  0.00  0.00    -0.013 C 
ATOM     35  H   LIG d   1       8.666  -1.353  -5.699  0.00  0.00     0.039 H 
ATOM     36  H   LIG d   1       8.319   0.319  -5.199  0.00  0.00     0.039 H 
ATOM     37  H   LIG d   1       8.701  -0.915  -3.975  0.00  0.00     0.039 H 
ENDBRANCH   8  34
TORSDOF 5
ENDMDL
MODEL 3
REMARK VINA RESULT:      -4.1      1.342      3.555
REMARK  5 active torsions:
REMARK  status: ('A' for Active; 'I' for Inactive)
REMARK    1  A    between atoms: C_1  and  C_2 
REMARK    2  A    between atoms: N_4  and  C_14 
REMARK    3  A    between atoms: C_6  and  C_13 
REMARK    4  A    between atoms: C_7  and  O_8 
REMARK    5  A    between atoms: N_10  and  C_12 
ROOT
ATOM      1  C   LIG d   1       4.221  -1.454  -3.338  0.00  0.00     0.047 C 
ATOM      2  C   LIG d   1       5.394  -0.558  -2.928  0.00  0.00    -0.023 C 
ATOM      3  N   LIG d   1       5.730   0.346  -4.035  0.00  0.00     0.234 N 
ATOM      4  C   LIG d   1       6.169  -0.428  -5.202  0.00  0.00    -0.023 C 
ATOM      5  C   LIG d   1       5.023  -1.321  -5.686  0.00  0.00     0.047 C 
ATOM      6  C   LIG d   1       4.638  -2.286  -4.558  0.00  0.00     0.078 C 
ATOM      7  C   LIG d   1       3.812  -0.444  -6.018  0.00  0.00     0.011 C 
ATOM      8  N   LIG d   1       3.417   0.317  -4.826  0.00  0.00    -0.304 N 
ATOM      9  C   LIG d   1       3.021  -0.583  -3.722  0.00  0.00     0.011 C 
ATOM     10  H   LIG d   1       5.115   0.028  -2.053  0.00  0.00     0.082 H 
ATOM     11  H   LIG d   1       6.259  -1.177  -2.690  0.00  0.00     0.082 H 
ATOM     12  H   LIG d   1       6.462   0.253  -6.000  0.00  0.00     0.082 H 
ATOM     13  H   LIG d   1       7.021  -1.050  -4.924  0.00  0.00     0.082 H 
ATOM     14  H   LIG d   1       3.808  -2.920  -4.871  0.00  0.00     0.061 H 
ATOM     15  H   LIG d   1       4.073   0.247  -6.821  0.00  0.00     0.043 H 
ATOM     16  H   LIG d   1       2.983  -1.075  -6.337  0.00  0.00     0.043 H 
ATOM     17  H   LIG d   1       2.195  -1.222  -4.034  0.00  0.00     0.043 H 
ATOM     18  H   LIG d   1       2.715   0.013  -2.863  0.00  0.00     0.043 H 
ATOM     19  H   LIG d   1       4.918   0.891  -4.281  0.00  0.00     0.203 HD
ENDROOT
BRANCH   3  20
ATOM     20  C   LIG d   1       6.810   1.249  -3.614  0.00  0.00    -0.043 C 
ATOM     21  H   LIG d   1       7.639   1.176  -4.316  0.00  0.00     0.078 H 
ATOM     22  H   LIG d   1       6.439   2.274  -3.595  0.00  0.00     0.078 H 
ATOM     23  H   LIG d   1       7.151   0.969  -2.618  0.00  0.00     0.078 H 
ENDBRANCH   3  20
BRANCH   1  24
ATOM     24  C   LIG d   1       3.844  -2.380  -2.179  0.00  0.00    -0.051 C 
ATOM     25  H   LIG d   1       3.219  -1.837  -1.469  0.00  0.00     0.024 H 
ATOM     26  H   LIG d   1       3.295  -3.239  -2.564  0.00  0.00     0.024 H 
ATOM     27  H   LIG d   1       4.750  -2.721  -1.678  0.00  0.00     0.024 H 
ENDBRANCH   1  24
BRANCH   5  28
ATOM     28  C   LIG d   1       5.464  -2.111  -6.920  0.00  0.00    -0.051 C 
ATOM     29  H   LIG d   1       6.281  -1.587  -7.414  0.00  0.00     0.024 H 
ATOM     30  H   LIG d   1       5.799  -3.102  -6.615  0.00  0.00     0.024 H 
ATOM     31  H   LIG d   1       4.625  -2.207  -7.609  0.00  0.00     0.024 H 
ENDBRANCH   5  28
BRANCH   6  32
ATOM     32  O   LIG d   1       5.766  -3.098  -4.226  0.00  0.00    -0.390 OA
ATOM     33  H   LIG d   1       6.616  -2.715  -4.482  0.00  0.00     0.210 HD
ENDBRANCH   6  32
BRANCH   8  34
ATOM     34  C   LIG d   1       2.341   1.266  -5.140  0.00  0.00    -0.013 C 
ATOM     35  H   LIG d   1       1.771   0.899  -5.993  0.00  0.00     0.039 H 
ATOM     36  H   LIG d   1       1.682   1.367  -4.278  0.00  0.00     0.039 H 
ATOM     37  H   LIG d   1       2.772   2.238  -5.382  0.00  0.00     0.039 H 
ENDBRANCH   8  34
TORSDOF 5
ENDMDL
MODEL 4
REMARK VINA RESULT:      -4.1      1.591      3.338
REMARK  5 active torsions:
REMARK  status: ('A' for Active; 'I' for Inactive)
REMARK    1  A    between atoms: C_1  and  C_2 
REMARK    2  A    between atoms: N_4  and  C_14 
REMARK    3  A    between atoms: C_6  and  C_13 
REMARK    4  A    between atoms: C_7  and  O_8 
REMARK    5  A    between atoms: N_10  and  C_12 
ROOT
ATOM      1  C   LIG d   1       4.550  -0.829  -5.804  0.00  0.00     0.047 C 
ATOM      2  C   LIG d   1       5.995  -0.321  -5.810  0.00  0.00    -0.023 C 
ATOM      3  N   LIG d   1       6.780  -1.064  -4.817  0.00  0.00     0.234 N 
ATOM      4  C   LIG d   1       6.246  -0.823  -3.471  0.00  0.00    -0.023 C 
ATOM      5  C   LIG d   1       4.810  -1.348  -3.388  0.00  0.00     0.047 C 
ATOM      6  C   LIG d   1       3.950  -0.596  -4.412  0.00  0.00     0.078 C 
ATOM      7  C   LIG d   1       4.800  -2.839  -3.737  0.00  0.00     0.011 C 
ATOM      8  N   LIG d   1       5.351  -3.029  -5.085  0.00  0.00    -0.304 N 
ATOM      9  C   LIG d   1       4.534  -2.332  -6.102  0.00  0.00     0.011 C 
ATOM     10  H   LIG d   1       6.428  -0.468  -6.799  0.00  0.00     0.082 H 
ATOM     11  H   LIG d   1       6.007   0.740  -5.563  0.00  0.00     0.082 H 
ATOM     12  H   LIG d   1       6.865  -1.340  -2.737  0.00  0.00     0.082 H 
ATOM     13  H   LIG d   1       6.255   0.247  -3.264  0.00  0.00     0.082 H 
ATOM     14  H   LIG d   1       2.925  -0.966  -4.387  0.00  0.00     0.061 H 
ATOM     15  H   LIG d   1       5.408  -3.385  -3.015  0.00  0.00     0.043 H 
ATOM     16  H   LIG d   1       3.777  -3.212  -3.707  0.00  0.00     0.043 H 
ATOM     17  H   LIG d   1       3.508  -2.697  -6.075  0.00  0.00     0.043 H 
ATOM     18  H   LIG d   1       4.958  -2.511  -7.089  0.00  0.00     0.043 H 
ATOM     19  H   LIG d   1       6.735  -2.050  -5.024  0.00  0.00     0.203 HD
ENDROOT
BRANCH   3  20
ATOM     20  C   LIG d   1       8.180  -0.621  -4.873  0.00  0.00    -0.043 C 
ATOM     21  H   LIG d   1       8.829  -1.424  -4.529  0.00  0.00     0.078 H 
ATOM     22  H   LIG d   1       8.437  -0.359  -5.899  0.00  0.00     0.078 H 
ATOM     23  H   LIG d   1       8.310   0.252  -4.233  0.00  0.00     0.078 H 
ENDBRANCH   3  20
BRANCH   1  24
ATOM     24  C   LIG d   1       3.730  -0.081  -6.858  0.00  0.00    -0.051 C 
ATOM     25  H   LIG d   1       3.222   0.762  -6.391  0.00  0.00     0.024 H 
ATOM     26  H   LIG d   1       4.393   0.283  -7.643  0.00  0.00     0.024 H 
ATOM     27  H   LIG d   1       2.992  -0.756  -7.290  0.00  0.00     0.024 H 
ENDBRANCH   1  24
BRANCH   5  28
ATOM     28  C   LIG d   1       4.255  -1.126  -1.979  0.00  0.00    -0.051 C 
ATOM     29  H   LIG d   1       3.811  -2.051  -1.613  0.00  0.00     0.024 H 
ATOM     30  H   LIG d   1       5.065  -0.824  -1.314  0.00  0.00     0.024 H 
ATOM     31  H   LIG d   1       3.496  -0.344  -2.006  0.00  0.00     0.024 H 
ENDBRANCH   5  28
BRANCH   6  32
ATOM     32  O   LIG d   1       3.966   0.800  -4.107  0.00  0.00    -0.390 OA
ATOM     33  H   LIG d   1       4.545   1.321  -4.679  0.00  0.00     0.210 HD
ENDBRANCH   6  32
BRANCH   8  34
ATOM     34  C   LIG d   1       5.479  -4.457  -5.405  0.00  0.00    -0.013 C 
ATOM     35  H   LIG d   1       4.630  -4.999  -4.988  0.00  0.00     0.039 H 
ATOM     36  H   LIG d   1       5.499  -4.588  -6.486  0.00  0.00     0.039 H 
ATOM     37  H   LIG d   1       6.403  -4.845  -4.975  0.00  0.00     0.039 H 
ENDBRANCH   8  34
TORSDOF 5
ENDMDL
MODEL 5
REMARK VINA RESULT:      -4.0      1.610      3.346
REMARK  5 active torsions:
REMARK  status: ('A' for Active; 'I' for Inactive)
REMARK    1  A    between atoms: C_1  and  C_2 
REMARK    2  A    between atoms: N_4  and  C_14 
REMARK    3  A    between atoms: C_6  and  C_13 
REMARK    4  A    between atoms: C_7  and  O_8 
REMARK    5  A    between atoms: N_10  and  C_12 
ROOT
ATOM      1  C   LIG d   1       4.737  -0.715  -3.349  0.00  0.00     0.047 C 
ATOM      2  C   LIG d   1       3.830  -0.125  -4.433  0.00  0.00    -0.023 C 
ATOM      3  N   LIG d   1       4.262  -0.607  -5.751  0.00  0.00     0.234 N 
ATOM      4  C   LIG d   1       5.625  -0.143  -6.034  0.00  0.00    -0.023 C 
ATOM      5  C   LIG d   1       6.592  -0.733  -5.003  0.00  0.00     0.047 C 
ATOM      6  C   LIG d   1       6.177  -0.253  -3.606  0.00  0.00     0.078 C 
ATOM      7  C   LIG d   1       6.499  -2.261  -5.046  0.00  0.00     0.011 C 
ATOM      8  N   LIG d   1       5.118  -2.675  -4.768  0.00  0.00    -0.304 N 
ATOM      9  C   LIG d   1       4.691  -2.245  -3.419  0.00  0.00     0.011 C 
ATOM     10  H   LIG d   1       2.800  -0.435  -4.253  0.00  0.00     0.082 H 
ATOM     11  H   LIG d   1       3.892   0.963  -4.406  0.00  0.00     0.082 H 
ATOM     12  H   LIG d   1       5.918  -0.465  -7.033  0.00  0.00     0.082 H 
ATOM     13  H   LIG d   1       5.656   0.945  -5.980  0.00  0.00     0.082 H 
ATOM     14  H   LIG d   1       6.839  -0.677  -2.851  0.00  0.00     0.061 H 
ATOM     15  H   LIG d   1       6.793  -2.615  -6.036  0.00  0.00     0.043 H 
ATOM     16  H   LIG d   1       7.164  -2.687  -4.296  0.00  0.00     0.043 H 
ATOM     17  H   LIG d   1       5.354  -2.663  -2.662  0.00  0.00     0.043 H 
ATOM     18  H   LIG d   1       3.672  -2.586  -3.238  0.00  0.00     0.043 H 
ATOM     19  H   LIG d   1       4.243  -1.615  -5.762  0.00  0.00     0.203 HD
ENDROOT
BRANCH   3  20
ATOM     20  C   LIG d   1       3.349  -0.093  -6.780  0.00  0.00    -0.043 C 
ATOM     21  H   LIG d   1       3.521   0.973  -6.920  0.00  0.00     0.078 H 
ATOM     22  H   LIG d   1       3.528  -0.617  -7.719  0.00  0.00     0.078 H 
ATOM     23  H   LIG d   1       2.318  -0.257  -6.466  0.00  0.00     0.078 H 
ENDBRANCH   3  20
BRANCH   1  24
ATOM     24  C   LIG d   1       4.276  -0.242  -1.969  0.00  0.00    -0.051 C 
ATOM     25  H   LIG d   1       3.195  -0.097  -1.978  0.00  0.00     0.024 H 
ATOM     26  H   LIG d   1       4.536  -0.991  -1.222  0.00  0.00     0.024 H 
ATOM     27  H   LIG d   1       4.766   0.701  -1.726  0.00  0.00     0.024 H 
ENDBRANCH   1  24
BRANCH   5  28
ATOM     28  C   LIG d   1       8.021  -0.277  -5.308  0.00  0.00    -0.051 C 
ATOM     29  H   LIG d   1       8.269  -0.525  -6.339  0.00  0.00     0.024 H 
ATOM     30  H   LIG d   1       8.095   0.801  -5.166  0.00  0.00     0.024 H 
ATOM     31  H   LIG d   1       8.715  -0.781  -4.635  0.00  0.00     0.024 H 
ENDBRANCH   5  28
BRANCH   6  32
ATOM     32  O   LIG d   1       6.243   1.174  -3.559  0.00  0.00    -0.390 OA
ATOM     33  H   LIG d   1       5.380   1.608  -3.583  0.00  0.00     0.210 HD
ENDBRANCH   6  32
BRANCH   8  34
ATOM     34  C   LIG d   1       4.961  -4.127  -4.929  0.00  0.00    -0.013 C 
ATOM     35  H   LIG d   1       3.923  -4.354  -5.172  0.00  0.00     0.039 H 
ATOM     36  H   LIG d   1       5.608  -4.476  -5.733  0.00  0.00     0.039 H 
ATOM     37  H   LIG d   1       5.234  -4.627  -3.999  0.00  0.00     0.039 H 
ENDBRANCH   8  34
TORSDOF 5
ENDMDL
MODEL 6
REMARK VINA RESULT:      -3.8      1.707      2.213
REMARK  5 active torsions:
REMARK  status: ('A' for Active; 'I' for Inactive)
REMARK    1  A    between atoms: C_1  and  C_2 
REMARK    2  A    between atoms: N_4  and  C_14 
REMARK    3  A    between atoms: C_6  and  C_13 
REMARK    4  A    between atoms: C_7  and  O_8 
REMARK    5  A    between atoms: N_10  and  C_12 
ROOT
ATOM      1  C   LIG d   1       5.403  -3.363  -5.285  0.00  0.00     0.047 C 
ATOM      2  C   LIG d   1       5.406  -2.294  -6.381  0.00  0.00    -0.023 C 
ATOM      3  N   LIG d   1       6.207  -1.144  -5.942  0.00  0.00     0.234 N 
ATOM      4  C   LIG d   1       5.602  -0.535  -4.752  0.00  0.00    -0.023 C 
ATOM      5  C   LIG d   1       5.604  -1.546  -3.601  0.00  0.00     0.047 C 
ATOM      6  C   LIG d   1       4.776  -2.768  -4.017  0.00  0.00     0.078 C 
ATOM      7  C   LIG d   1       7.043  -1.995  -3.332  0.00  0.00     0.011 C 
ATOM      8  N   LIG d   1       7.608  -2.586  -4.552  0.00  0.00    -0.304 N 
ATOM      9  C   LIG d   1       6.843  -3.781  -4.972  0.00  0.00     0.011 C 
ATOM     10  H   LIG d   1       5.837  -2.709  -7.292  0.00  0.00     0.082 H 
ATOM     11  H   LIG d   1       4.384  -1.971  -6.577  0.00  0.00     0.082 H 
ATOM     12  H   LIG d   1       6.176   0.346  -4.463  0.00  0.00     0.082 H 
ATOM     13  H   LIG d   1       4.576  -0.242  -4.976  0.00  0.00     0.082 H 
ATOM     14  H   LIG d   1       4.779  -3.513  -3.221  0.00  0.00     0.061 H 
ATOM     15  H   LIG d   1       7.643  -1.134  -3.035  0.00  0.00     0.043 H 
ATOM     16  H   LIG d   1       7.049  -2.736  -2.533  0.00  0.00     0.043 H 
ATOM     17  H   LIG d   1       6.840  -4.526  -4.176  0.00  0.00     0.043 H 
ATOM     18  H   LIG d   1       7.300  -4.206  -5.865  0.00  0.00     0.043 H 
ATOM     19  H   LIG d   1       7.142  -1.451  -5.723  0.00  0.00     0.203 HD
ENDROOT
BRANCH   3  20
ATOM     20  C   LIG d   1       6.264  -0.150  -7.023  0.00  0.00    -0.043 C 
ATOM     21  H   LIG d   1       6.025   0.835  -6.624  0.00  0.00     0.078 H 
ATOM     22  H   LIG d   1       7.267  -0.135  -7.450  0.00  0.00     0.078 H 
ATOM     23  H   LIG d   1       5.544  -0.414  -7.797  0.00  0.00     0.078 H 
ENDBRANCH   3  20
BRANCH   1  24
ATOM     24  C   LIG d   1       4.596  -4.579  -5.746  0.00  0.00    -0.051 C 
ATOM     25  H   LIG d   1       3.537  -4.407  -5.549  0.00  0.00     0.024 H 
ATOM     26  H   LIG d   1       4.747  -4.732  -6.814  0.00  0.00     0.024 H 
ATOM     27  H   LIG d   1       4.928  -5.462  -5.201  0.00  0.00     0.024 H 
ENDBRANCH   1  24
BRANCH   5  28
ATOM     28  C   LIG d   1       5.001  -0.909  -2.347  0.00  0.00    -0.051 C 
ATOM     29  H   LIG d   1       5.501   0.037  -2.143  0.00  0.00     0.024 H 
ATOM     30  H   LIG d   1       3.937  -0.732  -2.507  0.00  0.00     0.024 H 
ATOM     31  H   LIG d   1       5.134  -1.581  -1.499  0.00  0.00     0.024 H 
ENDBRANCH   5  28
BRANCH   6  32
ATOM     32  O   LIG d   1       3.434  -2.359  -4.289  0.00  0.00    -0.390 OA
ATOM     33  H   LIG d   1       3.206  -2.355  -5.228  0.00  0.00     0.210 HD
ENDBRANCH   6  32
BRANCH   8  34
ATOM     34  C   LIG d   1       9.029  -2.911  -4.371  0.00  0.00    -0.013 C 
ATOM     35  H   LIG d   1       9.590  -1.995  -4.192  0.00  0.00     0.039 H 
ATOM     36  H   LIG d   1       9.144  -3.581  -3.520  0.00  0.00     0.039 H 
ATOM     37  H   LIG d   1       9.407  -3.398  -5.270  0.00  0.00     0.039 H 
ENDBRANCH   8  34
TORSDOF 5
ENDMDL
MODEL 7
REMARK VINA RESULT:      -3.7      8.636     10.691
REMARK  5 active torsions:
REMARK  status: ('A' for Active; 'I' for Inactive)
REMARK    1  A    between atoms: C_1  and  C_2 
REMARK    2  A    between atoms: N_4  and  C_14 
REMARK    3  A    between atoms: C_6  and  C_13 
REMARK    4  A    between atoms: C_7  and  O_8 
REMARK    5  A    between atoms: N_10  and  C_12 
ROOT
ATOM      1  C   LIG d   1      11.182   6.467  -0.123  0.00  0.00     0.047 C 
ATOM      2  C   LIG d   1      12.649   6.662  -0.517  0.00  0.00    -0.023 C 
ATOM      3  N   LIG d   1      12.722   7.244  -1.863  0.00  0.00     0.234 N 
ATOM      4  C   LIG d   1      12.135   6.323  -2.842  0.00  0.00    -0.023 C 
ATOM      5  C   LIG d   1      10.651   6.115  -2.526  0.00  0.00     0.047 C 
ATOM      6  C   LIG d   1      10.526   5.506  -1.123  0.00  0.00     0.078 C 
ATOM      7  C   LIG d   1       9.942   7.473  -2.537  0.00  0.00     0.011 C 
ATOM      8  N   LIG d   1      10.570   8.361  -1.551  0.00  0.00    -0.304 N 
ATOM      9  C   LIG d   1      10.452   7.813  -0.183  0.00  0.00     0.011 C 
ATOM     10  H   LIG d   1      13.130   7.333   0.195  0.00  0.00     0.082 H 
ATOM     11  H   LIG d   1      13.158   5.699  -0.510  0.00  0.00     0.082 H 
ATOM     12  H   LIG d   1      12.238   6.743  -3.843  0.00  0.00     0.082 H 
ATOM     13  H   LIG d   1      12.653   5.365  -2.795  0.00  0.00     0.082 H 
ATOM     14  H   LIG d   1       9.476   5.367  -0.865  0.00  0.00     0.061 H 
ATOM     15  H   LIG d   1      10.023   7.916  -3.530  0.00  0.00     0.043 H 
ATOM     16  H   LIG d   1       8.891   7.336  -2.285  0.00  0.00     0.043 H 
ATOM     17  H   LIG d   1       9.403   7.668   0.076  0.00  0.00     0.043 H 
ATOM     18  H   LIG d   1      10.908   8.505   0.524  0.00  0.00     0.043 H 
ATOM     19  H   LIG d   1      12.216   8.117  -1.879  0.00  0.00     0.203 HD
ENDROOT
BRANCH   3  20
ATOM     20  C   LIG d   1      14.128   7.493  -2.210  0.00  0.00    -0.043 C 
ATOM     21  H   LIG d   1      14.494   8.352  -1.649  0.00  0.00     0.078 H 
ATOM     22  H   LIG d   1      14.725   6.615  -1.960  0.00  0.00     0.078 H 
ATOM     23  H   LIG d   1      14.209   7.694  -3.278  0.00  0.00     0.078 H 
ENDBRANCH   3  20
BRANCH   1  24
ATOM     24  C   LIG d   1      11.095   5.889   1.291  0.00  0.00    -0.051 C 
ATOM     25  H   LIG d   1      11.500   6.608   2.003  0.00  0.00     0.024 H 
ATOM     26  H   LIG d   1      10.053   5.682   1.535  0.00  0.00     0.024 H 
ATOM     27  H   LIG d   1      11.671   4.965   1.341  0.00  0.00     0.024 H 
ENDBRANCH   1  24
BRANCH   5  28
ATOM     28  C   LIG d   1      10.024   5.177  -3.559  0.00  0.00    -0.051 C 
ATOM     29  H   LIG d   1       8.946   5.332  -3.584  0.00  0.00     0.024 H 
ATOM     30  H   LIG d   1      10.444   5.388  -4.543  0.00  0.00     0.024 H 
ATOM     31  H   LIG d   1      10.236   4.143  -3.287  0.00  0.00     0.024 H 
ENDBRANCH   5  28
BRANCH   6  32
ATOM     32  O   LIG d   1      11.200   4.246  -1.095  0.00  0.00    -0.390 OA
ATOM     33  H   LIG d   1      11.921   4.200  -0.453  0.00  0.00     0.210 HD
ENDBRANCH   6  32
BRANCH   8  34
ATOM     34  C   LIG d   1      10.003   9.714  -1.624  0.00  0.00    -0.013 C 
ATOM     35  H   LIG d   1       9.237   9.828  -0.857  0.00  0.00     0.039 H 
ATOM     36  H   LIG d   1      10.791  10.449  -1.463  0.00  0.00     0.039 H 
ATOM     37  H   LIG d   1       9.557   9.869  -2.607  0.00  0.00     0.039 H 
ENDBRANCH   8  34
TORSDOF 5
ENDMDL
MODEL 8
REMARK VINA RESULT:      -3.5      9.383     11.118
REMARK  5 active torsions:
REMARK  status: ('A' for Active; 'I' for Inactive)
REMARK    1  A    between atoms: C_1  and  C_2 
REMARK    2  A    between atoms: N_4  and  C_14 
REMARK    3  A    between atoms: C_6  and  C_13 
REMARK    4  A    between atoms: C_7  and  O_8 
REMARK    5  A    between atoms: N_10  and  C_12 
ROOT
ATOM      1  C   LIG d   1      10.456   7.082  -2.102  0.00  0.00     0.047 C 
ATOM      2  C   LIG d   1      10.054   7.676  -3.455  0.00  0.00    -0.023 C 
ATOM      3  N   LIG d   1      10.504   9.071  -3.532  0.00  0.00     0.234 N 
ATOM      4  C   LIG d   1       9.839   9.872  -2.499  0.00  0.00    -0.023 C 
ATOM      5  C   LIG d   1      10.232   9.352  -1.113  0.00  0.00     0.047 C 
ATOM      6  C   LIG d   1       9.779   7.891  -0.988  0.00  0.00     0.078 C 
ATOM      7  C   LIG d   1      11.756   9.408  -0.972  0.00  0.00     0.011 C 
ATOM      8  N   LIG d   1      12.376   8.602  -2.031  0.00  0.00    -0.304 N 
ATOM      9  C   LIG d   1      11.975   7.182  -1.929  0.00  0.00     0.011 C 
ATOM     10  H   LIG d   1      10.518   7.100  -4.256  0.00  0.00     0.082 H 
ATOM     11  H   LIG d   1       8.970   7.638  -3.562  0.00  0.00     0.082 H 
ATOM     12  H   LIG d   1      10.143  10.915  -2.595  0.00  0.00     0.082 H 
ATOM     13  H   LIG d   1       8.758   9.797  -2.621  0.00  0.00     0.082 H 
ATOM     14  H   LIG d   1      10.066   7.490  -0.016  0.00  0.00     0.061 H 
ATOM     15  H   LIG d   1      12.091  10.442  -1.059  0.00  0.00     0.043 H 
ATOM     16  H   LIG d   1      12.046   9.012   0.001  0.00  0.00     0.043 H 
ATOM     17  H   LIG d   1      12.256   6.779  -0.956  0.00  0.00     0.043 H 
ATOM     18  H   LIG d   1      12.468   6.610  -2.715  0.00  0.00     0.043 H 
ATOM     19  H   LIG d   1      11.503   9.109  -3.394  0.00  0.00     0.203 HD
ENDROOT
BRANCH   3  20
ATOM     20  C   LIG d   1      10.178   9.615  -4.857  0.00  0.00    -0.043 C 
ATOM     21  H   LIG d   1       9.223   9.212  -5.191  0.00  0.00     0.078 H 
ATOM     22  H   LIG d   1      10.112  10.702  -4.797  0.00  0.00     0.078 H 
ATOM     23  H   LIG d   1      10.958   9.338  -5.567  0.00  0.00     0.078 H 
ENDBRANCH   3  20
BRANCH   1  24
ATOM     24  C   LIG d   1      10.017   5.618  -2.024  0.00  0.00    -0.051 C 
ATOM     25  H   LIG d   1       9.100   5.484  -2.598  0.00  0.00     0.024 H 
ATOM     26  H   LIG d   1      10.801   4.982  -2.435  0.00  0.00     0.024 H 
ATOM     27  H   LIG d   1       9.837   5.348  -0.984  0.00  0.00     0.024 H 
ENDBRANCH   1  24
BRANCH   5  28
ATOM     28  C   LIG d   1       9.564  10.200  -0.029  0.00  0.00    -0.051 C 
ATOM     29  H   LIG d   1      10.270  10.946   0.335  0.00  0.00     0.024 H 
ATOM     30  H   LIG d   1       8.690  10.699  -0.446  0.00  0.00     0.024 H 
ATOM     31  H   LIG d   1       9.256   9.557   0.797  0.00  0.00     0.024 H 
ENDBRANCH   5  28
BRANCH   6  32
ATOM     32  O   LIG d   1       8.359   7.824  -1.137  0.00  0.00    -0.390 OA
ATOM     33  H   LIG d   1       7.992   6.938  -1.012  0.00  0.00     0.210 HD
ENDBRANCH   6  32
BRANCH   8  34
ATOM     34  C   LIG d   1      13.839   8.736  -2.007  0.00  0.00    -0.013 C 
ATOM     35  H   LIG d   1      14.129   9.393  -1.188  0.00  0.00     0.039 H 
ATOM     36  H   LIG d   1      14.292   7.755  -1.866  0.00  0.00     0.039 H 
ATOM     37  H   LIG d   1      14.180   9.160  -2.952  0.00  0.00     0.039 H 
ENDBRANCH   8  34
TORSDOF 5
ENDMDL
MODEL 9
REMARK VINA RESULT:      -3.4      7.958      9.823
REMARK  5 active torsions:
REMARK  status: ('A' for Active; 'I' for Inactive)
REMARK    1  A    between atoms: C_1  and  C_2 
REMARK    2  A    between atoms: N_4  and  C_14 
REMARK    3  A    between atoms: C_6  and  C_13 
REMARK    4  A    between atoms: C_7  and  O_8 
REMARK    5  A    between atoms: N_10  and  C_12 
ROOT
ATOM      1  C   LIG d   1       6.919 -10.156  -2.912  0.00  0.00     0.047 C 
ATOM      2  C   LIG d   1       7.273 -11.410  -3.718  0.00  0.00    -0.023 C 
ATOM      3  N   LIG d   1       6.415 -11.488  -4.906  0.00  0.00     0.234 N 
ATOM      4  C   LIG d   1       5.010 -11.620  -4.504  0.00  0.00    -0.023 C 
ATOM      5  C   LIG d   1       4.580 -10.374  -3.724  0.00  0.00     0.047 C 
ATOM      6  C   LIG d   1       5.453 -10.253  -2.469  0.00  0.00     0.078 C 
ATOM      7  C   LIG d   1       4.799  -9.136  -4.598  0.00  0.00     0.011 C 
ATOM      8  N   LIG d   1       6.214  -9.053  -4.982  0.00  0.00    -0.304 N 
ATOM      9  C   LIG d   1       7.085  -8.915  -3.795  0.00  0.00     0.011 C 
ATOM     10  H   LIG d   1       8.318 -11.359  -4.026  0.00  0.00     0.082 H 
ATOM     11  H   LIG d   1       7.120 -12.294  -3.100  0.00  0.00     0.082 H 
ATOM     12  H   LIG d   1       4.387 -11.726  -5.393  0.00  0.00     0.082 H 
ATOM     13  H   LIG d   1       4.895 -12.502  -3.873  0.00  0.00     0.082 H 
ATOM     14  H   LIG d   1       5.180  -9.361  -1.905  0.00  0.00     0.061 H 
ATOM     15  H   LIG d   1       4.183  -9.211  -5.494  0.00  0.00     0.043 H 
ATOM     16  H   LIG d   1       4.522  -8.243  -4.039  0.00  0.00     0.043 H 
ATOM     17  H   LIG d   1       6.811  -8.027  -3.227  0.00  0.00     0.043 H 
ATOM     18  H   LIG d   1       8.123  -8.835  -4.116  0.00  0.00     0.043 H 
ATOM     19  H   LIG d   1       6.528 -10.650  -5.457  0.00  0.00     0.203 HD
ENDROOT
BRANCH   3  20
ATOM     20  C   LIG d   1       6.804 -12.653  -5.711  0.00  0.00    -0.043 C 
ATOM     21  H   LIG d   1       6.675 -12.425  -6.768  0.00  0.00     0.078 H 
ATOM     22  H   LIG d   1       7.849 -12.897  -5.517  0.00  0.00     0.078 H 
ATOM     23  H   LIG d   1       6.178 -13.505  -5.444  0.00  0.00     0.078 H 
ENDBRANCH   3  20
BRANCH   1  24
ATOM     24  C   LIG d   1       7.829 -10.050  -1.686  0.00  0.00    -0.051 C 
ATOM     25  H   LIG d   1       8.506  -9.204  -1.809  0.00  0.00     0.024 H 
ATOM     26  H   LIG d   1       7.221  -9.903  -0.794  0.00  0.00     0.024 H 
ATOM     27  H   LIG d   1       8.409 -10.967  -1.585  0.00  0.00     0.024 H 
ENDBRANCH   1  24
BRANCH   5  28
ATOM     28  C   LIG d   1       3.107 -10.492  -3.325  0.00  0.00    -0.051 C 
ATOM     29  H   LIG d   1       2.591  -9.562  -3.560  0.00  0.00     0.024 H 
ATOM     30  H   LIG d   1       2.647 -11.312  -3.876  0.00  0.00     0.024 H 
ATOM     31  H   LIG d   1       3.035 -10.688  -2.255  0.00  0.00     0.024 H 
ENDBRANCH   5  28
BRANCH   6  32
ATOM     32  O   LIG d   1       5.271 -11.412  -1.653  0.00  0.00    -0.390 OA
ATOM     33  H   LIG d   1       5.310 -12.246  -2.140  0.00  0.00     0.210 HD
ENDBRANCH   6  32
BRANCH   8  34
ATOM     34  C   LIG d   1       6.439  -7.951  -5.927  0.00  0.00    -0.013 C 
ATOM     35  H   LIG d   1       5.757  -7.132  -5.698  0.00  0.00     0.039 H 
ATOM     36  H   LIG d   1       7.468  -7.602  -5.841  0.00  0.00     0.039 H 
ATOM     37  H   LIG d   1       6.258  -8.301  -6.943  0.00  0.00     0.039 H 
ENDBRANCH   8  34
TORSDOF 5
ENDMDL
MODEL 10
REMARK VINA RESULT:      -3.4      9.640     11.719
REMARK  5 active torsions:
REMARK  status: ('A' for Active; 'I' for Inactive)
REMARK    1  A    between atoms: C_1  and  C_2 
REMARK    2  A    between atoms: N_4  and  C_14 
REMARK    3  A    between atoms: C_6  and  C_13 
REMARK    4  A    between atoms: C_7  and  O_8 
REMARK    5  A    between atoms: N_10  and  C_12 
ROOT
ATOM      1  C   LIG d   1      11.129   8.877  -0.420  0.00  0.00     0.047 C 
ATOM      2  C   LIG d   1      12.582   8.749  -0.890  0.00  0.00    -0.023 C 
ATOM      3  N   LIG d   1      12.842   7.366  -1.309  0.00  0.00     0.234 N 
ATOM      4  C   LIG d   1      12.678   6.456  -0.170  0.00  0.00    -0.023 C 
ATOM      5  C   LIG d   1      11.229   6.508   0.325  0.00  0.00     0.047 C 
ATOM      6  C   LIG d   1      10.913   7.940   0.775  0.00  0.00     0.078 C 
ATOM      7  C   LIG d   1      10.293   6.137  -0.829  0.00  0.00     0.011 C 
ATOM      8  N   LIG d   1      10.500   7.067  -1.946  0.00  0.00    -0.304 N 
ATOM      9  C   LIG d   1      10.186   8.457  -1.552  0.00  0.00     0.011 C 
ATOM     10  H   LIG d   1      12.752   9.421  -1.731  0.00  0.00     0.082 H 
ATOM     11  H   LIG d   1      13.253   9.012  -0.072  0.00  0.00     0.082 H 
ATOM     12  H   LIG d   1      12.920   5.439  -0.480  0.00  0.00     0.082 H 
ATOM     13  H   LIG d   1      13.347   6.759   0.636  0.00  0.00     0.082 H 
ATOM     14  H   LIG d   1       9.879   8.008   1.113  0.00  0.00     0.061 H 
ATOM     15  H   LIG d   1      10.508   5.119  -1.158  0.00  0.00     0.043 H 
ATOM     16  H   LIG d   1       9.258   6.199  -0.492  0.00  0.00     0.043 H 
ATOM     17  H   LIG d   1       9.154   8.528  -1.209  0.00  0.00     0.043 H 
ATOM     18  H   LIG d   1      10.330   9.116  -2.408  0.00  0.00     0.043 H 
ATOM     19  H   LIG d   1      12.193   7.109  -2.038  0.00  0.00     0.203 HD
ENDROOT
BRANCH   3  20
ATOM     20  C   LIG d   1      14.214   7.263  -1.822  0.00  0.00    -0.043 C 
ATOM     21  H   LIG d   1      14.917   7.538  -1.037  0.00  0.00     0.078 H 
ATOM     22  H   LIG d   1      14.407   6.238  -2.141  0.00  0.00     0.078 H 
ATOM     23  H   LIG d   1      14.336   7.935  -2.672  0.00  0.00     0.078 H 
ENDBRANCH   3  20
BRANCH   1  24
ATOM     24  C   LIG d   1      10.841  10.322  -0.009  0.00  0.00    -0.051 C 
ATOM     25  H   LIG d   1       9.858  10.616  -0.380  0.00  0.00     0.024 H 
ATOM     26  H   LIG d   1      10.858  10.402   1.078  0.00  0.00     0.024 H 
ATOM     27  H   LIG d   1      11.600  10.979  -0.434  0.00  0.00     0.024 H 
ENDBRANCH   1  24
BRANCH   5  28
ATOM     28  C   LIG d   1      11.043   5.540   1.495  0.00  0.00    -0.051 C 
ATOM     29  H   LIG d   1      11.810   5.726   2.246  0.00  0.00     0.024 H 
ATOM     30  H   LIG d   1      10.058   5.690   1.937  0.00  0.00     0.024 H 
ATOM     31  H   LIG d   1      11.128   4.514   1.136  0.00  0.00     0.024 H 
ENDBRANCH   5  28
BRANCH   6  32
ATOM     32  O   LIG d   1      11.793   8.305   1.840  0.00  0.00    -0.390 OA
ATOM     33  H   LIG d   1      12.149   9.200   1.767  0.00  0.00     0.210 HD
ENDBRANCH   6  32
BRANCH   8  34
ATOM     34  C   LIG d   1       9.713   6.665  -3.120  0.00  0.00    -0.013 C 
ATOM     35  H   LIG d   1       8.660   6.879  -2.940  0.00  0.00     0.039 H 
ATOM     36  H   LIG d   1      10.054   7.219  -3.993  0.00  0.00     0.039 H 
ATOM     37  H   LIG d   1       9.842   5.597  -3.295  0.00  0.00     0.039 H 
ENDBRANCH   8  34
TORSDOF 5
ENDMDL
