MODEL 1
REMARK VINA RESULT:      -7.4      0.000      0.000
REMARK  5 active torsions:
REMARK  status: ('A' for Active; 'I' for Inactive)
REMARK    1  A    between atoms: C_4  and  C_7 
REMARK    2  A    between atoms: C_7  and  C_8 
REMARK    3  A    between atoms: N_12  and  C_14 
REMARK    4  A    between atoms: C_14  and  C_15 
REMARK    5  A    between atoms: C_15  and  C_17 
ROOT
ATOM      1  C   LIG d   1       3.000   0.307  -6.225  0.00  0.00     0.021 A 
ATOM      2  C   LIG d   1       2.689   1.125  -7.301  0.00  0.00    -0.047 A 
ATOM      3  C   LIG d   1       3.519   1.101  -8.410  0.00  0.00     0.002 A 
ATOM      4  C   LIG d   1       4.623   0.268  -8.409  0.00  0.00     0.172 A 
ATOM      5  N   LIG d   1       4.887  -0.498  -7.369  0.00  0.00    -0.196 N 
ATOM      6  C   LIG d   1       4.123  -0.496  -6.294  0.00  0.00     0.175 A 
ATOM      7  H   LIG d   1       1.820   1.765  -7.274  0.00  0.00     0.062 H 
ATOM      8  H   LIG d   1       3.307   1.726  -9.266  0.00  0.00     0.068 H 
ATOM      9  H   LIG d   1       5.274   0.243  -9.270  0.00  0.00     0.138 H 
ATOM     10  H   LIG d   1       4.375  -1.134  -5.459  0.00  0.00     0.138 H 
ENDROOT
BRANCH   5  11
ATOM     11  C   LIG d   1       6.065  -1.368  -7.405  0.00  0.00     0.212 C 
ATOM     12  H   LIG d   1       5.751  -2.397  -7.579  0.00  0.00     0.112 H 
ATOM     13  H   LIG d   1       6.728  -1.049  -8.210  0.00  0.00     0.112 H 
BRANCH  11  14
ATOM     14  C   LIG d   1       6.795  -1.280  -6.091  0.00  0.00     0.228 C 
ATOM     15  O   LIG d   1       6.927  -2.270  -5.402  0.00  0.00    -0.285 OA
BRANCH  14  16
ATOM     16  C   LIG d   1       7.350   0.006  -5.641  0.00  0.00     0.025 A 
ATOM     17  C   LIG d   1       8.051   0.820  -6.537  0.00  0.00    -0.031 A 
ATOM     18  C   LIG d   1       8.563   2.028  -6.110  0.00  0.00     0.060 A 
ATOM     19  H   LIG d   1       8.185   0.508  -7.562  0.00  0.00     0.064 H 
ATOM     20  C   LIG d   1       8.396   2.428  -4.792  0.00  0.00     0.059 A 
ATOM     21 CL   LIG d   1       9.426   3.045  -7.220  0.00  0.00    -0.082 Cl
ATOM     22  C   LIG d   1       7.708   1.622  -3.899  0.00  0.00    -0.041 A 
ATOM     23 CL   LIG d   1       9.051   3.946  -4.260  0.00  0.00    -0.082 Cl
ATOM     24  C   LIG d   1       7.186   0.417  -4.314  0.00  0.00    -0.050 A 
ATOM     25  H   LIG d   1       7.582   1.941  -2.874  0.00  0.00     0.063 H 
ATOM     26  H   LIG d   1       6.649  -0.209  -3.616  0.00  0.00     0.062 H 
ENDBRANCH  14  16
ENDBRANCH  11  14
ENDBRANCH   5  11
BRANCH   1  27
ATOM     27  C   LIG d   1       2.128   0.296  -4.996  0.00  0.00     0.003 C 
ATOM     28  H   LIG d   1       1.401  -0.513  -5.073  0.00  0.00     0.036 H 
ATOM     29  H   LIG d   1       1.606   1.249  -4.914  0.00  0.00     0.036 H 
BRANCH  27  30
ATOM     30  C   LIG d   1       2.986   0.087  -3.775  0.00  0.00    -0.043 A 
ATOM     31  C   LIG d   1       3.213  -1.191  -3.300  0.00  0.00    -0.058 A 
ATOM     32  C   LIG d   1       4.001  -1.384  -2.181  0.00  0.00    -0.061 A 
ATOM     33  H   LIG d   1       2.775  -2.040  -3.805  0.00  0.00     0.062 H 
ATOM     34  C   LIG d   1       4.562  -0.296  -1.536  0.00  0.00    -0.062 A 
ATOM     35  H   LIG d   1       4.178  -2.381  -1.810  0.00  0.00     0.062 H 
ATOM     36  C   LIG d   1       4.335   0.982  -2.011  0.00  0.00    -0.061 A 
ATOM     37  H   LIG d   1       5.173  -0.446  -0.659  0.00  0.00     0.062 H 
ATOM     38  C   LIG d   1       3.547   1.174  -3.130  0.00  0.00    -0.058 A 
ATOM     39  H   LIG d   1       4.774   1.831  -1.507  0.00  0.00     0.062 H 
ATOM     40  H   LIG d   1       3.370   2.173  -3.501  0.00  0.00     0.062 H 
ENDBRANCH  27  30
ENDBRANCH   1  27
TORSDOF 5
ENDMDL
MODEL 2
REMARK VINA RESULT:      -7.4      2.958      4.504
REMARK  5 active torsions:
REMARK  status: ('A' for Active; 'I' for Inactive)
REMARK    1  A    between atoms: C_4  and  C_7 
REMARK    2  A    between atoms: C_7  and  C_8 
REMARK    3  A    between atoms: N_12  and  C_14 
REMARK    4  A    between atoms: C_14  and  C_15 
REMARK    5  A    between atoms: C_15  and  C_17 
ROOT
ATOM      1  C   LIG d   1       5.163  -2.906  -4.168  0.00  0.00     0.021 A 
ATOM      2  C   LIG d   1       6.520  -2.684  -3.986  0.00  0.00    -0.047 A 
ATOM      3  C   LIG d   1       7.380  -2.951  -5.039  0.00  0.00     0.002 A 
ATOM      4  C   LIG d   1       6.861  -3.427  -6.229  0.00  0.00     0.172 A 
ATOM      5  N   LIG d   1       5.565  -3.625  -6.367  0.00  0.00    -0.196 N 
ATOM      6  C   LIG d   1       4.718  -3.388  -5.385  0.00  0.00     0.175 A 
ATOM      7  H   LIG d   1       6.896  -2.311  -3.045  0.00  0.00     0.062 H 
ATOM      8  H   LIG d   1       8.443  -2.789  -4.932  0.00  0.00     0.068 H 
ATOM      9  H   LIG d   1       7.526  -3.636  -7.055  0.00  0.00     0.138 H 
ATOM     10  H   LIG d   1       3.664  -3.568  -5.535  0.00  0.00     0.138 H 
ENDROOT
BRANCH   5  11
ATOM     11  C   LIG d   1       5.054  -4.130  -7.644  0.00  0.00     0.212 C 
ATOM     12  H   LIG d   1       5.556  -5.065  -7.893  0.00  0.00     0.112 H 
ATOM     13  H   LIG d   1       3.981  -4.304  -7.563  0.00  0.00     0.112 H 
BRANCH  11  14
ATOM     14  C   LIG d   1       5.316  -3.115  -8.726  0.00  0.00     0.228 C 
ATOM     15  O   LIG d   1       6.036  -3.397  -9.660  0.00  0.00    -0.285 OA
BRANCH  14  16
ATOM     16  C   LIG d   1       4.698  -1.782  -8.651  0.00  0.00     0.025 A 
ATOM     17  C   LIG d   1       5.481  -0.635  -8.808  0.00  0.00    -0.031 A 
ATOM     18  C   LIG d   1       4.893   0.612  -8.741  0.00  0.00     0.060 A 
ATOM     19  H   LIG d   1       6.542  -0.723  -8.986  0.00  0.00     0.064 H 
ATOM     20  C   LIG d   1       3.531   0.727  -8.507  0.00  0.00     0.059 A 
ATOM     21 CL   LIG d   1       5.861   2.039  -8.944  0.00  0.00    -0.082 Cl
ATOM     22  C   LIG d   1       2.751  -0.406  -8.344  0.00  0.00    -0.041 A 
ATOM     23 CL   LIG d   1       2.800   2.300  -8.417  0.00  0.00    -0.082 Cl
ATOM     24  C   LIG d   1       3.324  -1.657  -8.414  0.00  0.00    -0.050 A 
ATOM     25  H   LIG d   1       1.691  -0.308  -8.162  0.00  0.00     0.063 H 
ATOM     26  H   LIG d   1       2.714  -2.540  -8.288  0.00  0.00     0.062 H 
ENDBRANCH  14  16
ENDBRANCH  11  14
ENDBRANCH   5  11
BRANCH   1  27
ATOM     27  C   LIG d   1       4.187  -2.631  -3.054  0.00  0.00     0.003 C 
ATOM     28  H   LIG d   1       4.574  -3.043  -2.122  0.00  0.00     0.036 H 
ATOM     29  H   LIG d   1       3.229  -3.095  -3.287  0.00  0.00     0.036 H 
BRANCH  27  30
ATOM     30  C   LIG d   1       4.001  -1.143  -2.906  0.00  0.00    -0.043 A 
ATOM     31  C   LIG d   1       4.563  -0.478  -1.832  0.00  0.00    -0.058 A 
ATOM     32  C   LIG d   1       4.394   0.887  -1.698  0.00  0.00    -0.061 A 
ATOM     33  H   LIG d   1       5.135  -1.027  -1.099  0.00  0.00     0.062 H 
ATOM     34  C   LIG d   1       3.662   1.588  -2.638  0.00  0.00    -0.062 A 
ATOM     35  H   LIG d   1       4.832   1.405  -0.859  0.00  0.00     0.062 H 
ATOM     36  C   LIG d   1       3.101   0.924  -3.713  0.00  0.00    -0.061 A 
ATOM     37  H   LIG d   1       3.526   2.654  -2.531  0.00  0.00     0.062 H 
ATOM     38  C   LIG d   1       3.269  -0.441  -3.847  0.00  0.00    -0.058 A 
ATOM     39  H   LIG d   1       2.529   1.472  -4.448  0.00  0.00     0.062 H 
ATOM     40  H   LIG d   1       2.830  -0.960  -4.686  0.00  0.00     0.062 H 
ENDBRANCH  27  30
ENDBRANCH   1  27
TORSDOF 5
ENDMDL
MODEL 3
REMARK VINA RESULT:      -7.1      3.336      4.903
REMARK  5 active torsions:
REMARK  status: ('A' for Active; 'I' for Inactive)
REMARK    1  A    between atoms: C_4  and  C_7 
REMARK    2  A    between atoms: C_7  and  C_8 
REMARK    3  A    between atoms: N_12  and  C_14 
REMARK    4  A    between atoms: C_14  and  C_15 
REMARK    5  A    between atoms: C_15  and  C_17 
ROOT
ATOM      1  C   LIG d   1       5.192  -2.890  -4.073  0.00  0.00     0.021 A 
ATOM      2  C   LIG d   1       6.535  -2.643  -3.830  0.00  0.00    -0.047 A 
ATOM      3  C   LIG d   1       7.451  -2.934  -4.828  0.00  0.00     0.002 A 
ATOM      4  C   LIG d   1       7.000  -3.457  -6.026  0.00  0.00     0.172 A 
ATOM      5  N   LIG d   1       5.715  -3.677  -6.223  0.00  0.00    -0.196 N 
ATOM      6  C   LIG d   1       4.816  -3.419  -5.293  0.00  0.00     0.175 A 
ATOM      7  H   LIG d   1       6.859  -2.235  -2.884  0.00  0.00     0.062 H 
ATOM      8  H   LIG d   1       8.506  -2.755  -4.672  0.00  0.00     0.068 H 
ATOM      9  H   LIG d   1       7.708  -3.685  -6.809  0.00  0.00     0.138 H 
ATOM     10  H   LIG d   1       3.773  -3.618  -5.490  0.00  0.00     0.138 H 
ENDROOT
BRANCH   5  11
ATOM     11  C   LIG d   1       5.275  -4.231  -7.506  0.00  0.00     0.212 C 
ATOM     12  H   LIG d   1       5.811  -5.160  -7.704  0.00  0.00     0.112 H 
ATOM     13  H   LIG d   1       4.204  -4.431  -7.468  0.00  0.00     0.112 H 
BRANCH  11  14
ATOM     14  C   LIG d   1       5.562  -3.241  -8.605  0.00  0.00     0.228 C 
ATOM     15  O   LIG d   1       6.381  -3.503  -9.459  0.00  0.00    -0.285 OA
BRANCH  14  16
ATOM     16  C   LIG d   1       4.847  -1.956  -8.642  0.00  0.00     0.025 A 
ATOM     17  C   LIG d   1       3.551  -1.888  -9.163  0.00  0.00    -0.031 A 
ATOM     18  C   LIG d   1       2.884  -0.680  -9.189  0.00  0.00     0.060 A 
ATOM     19  H   LIG d   1       3.070  -2.779  -9.537  0.00  0.00     0.064 H 
ATOM     20  C   LIG d   1       3.502   0.467  -8.714  0.00  0.00     0.059 A 
ATOM     21 CL   LIG d   1       1.272  -0.594  -9.827  0.00  0.00    -0.082 Cl
ATOM     22  C   LIG d   1       4.789   0.406  -8.203  0.00  0.00    -0.041 A 
ATOM     23 CL   LIG d   1       2.660   1.984  -8.758  0.00  0.00    -0.082 Cl
ATOM     24  C   LIG d   1       5.463  -0.794  -8.164  0.00  0.00    -0.050 A 
ATOM     25  H   LIG d   1       5.263   1.304  -7.834  0.00  0.00     0.063 H 
ATOM     26  H   LIG d   1       6.466  -0.839  -7.764  0.00  0.00     0.062 H 
ENDBRANCH  14  16
ENDBRANCH  11  14
ENDBRANCH   5  11
BRANCH   1  27
ATOM     27  C   LIG d   1       4.158  -2.591  -3.019  0.00  0.00     0.003 C 
ATOM     28  H   LIG d   1       4.487  -2.995  -2.061  0.00  0.00     0.036 H 
ATOM     29  H   LIG d   1       3.210  -3.048  -3.301  0.00  0.00     0.036 H 
BRANCH  27  30
ATOM     30  C   LIG d   1       3.980  -1.099  -2.901  0.00  0.00    -0.043 A 
ATOM     31  C   LIG d   1       3.268  -0.408  -3.864  0.00  0.00    -0.058 A 
ATOM     32  C   LIG d   1       3.104   0.960  -3.754  0.00  0.00    -0.061 A 
ATOM     33  H   LIG d   1       2.840  -0.939  -4.701  0.00  0.00     0.062 H 
ATOM     34  C   LIG d   1       3.652   1.638  -2.680  0.00  0.00    -0.062 A 
ATOM     35  H   LIG d   1       2.549   1.499  -4.506  0.00  0.00     0.062 H 
ATOM     36  C   LIG d   1       4.363   0.947  -1.717  0.00  0.00    -0.061 A 
ATOM     37  H   LIG d   1       3.528   2.707  -2.597  0.00  0.00     0.062 H 
ATOM     38  C   LIG d   1       4.528  -0.421  -1.827  0.00  0.00    -0.058 A 
ATOM     39  H   LIG d   1       4.791   1.477  -0.878  0.00  0.00     0.062 H 
ATOM     40  H   LIG d   1       5.083  -0.960  -1.074  0.00  0.00     0.062 H 
ENDBRANCH  27  30
ENDBRANCH   1  27
TORSDOF 5
ENDMDL
MODEL 4
REMARK VINA RESULT:      -7.1      2.848      5.280
REMARK  5 active torsions:
REMARK  status: ('A' for Active; 'I' for Inactive)
REMARK    1  A    between atoms: C_4  and  C_7 
REMARK    2  A    between atoms: C_7  and  C_8 
REMARK    3  A    between atoms: N_12  and  C_14 
REMARK    4  A    between atoms: C_14  and  C_15 
REMARK    5  A    between atoms: C_15  and  C_17 
ROOT
ATOM      1  C   LIG d   1       2.983  -2.475  -9.091  0.00  0.00     0.021 A 
ATOM      2  C   LIG d   1       3.059  -3.592  -9.909  0.00  0.00    -0.047 A 
ATOM      3  C   LIG d   1       4.022  -4.549  -9.631  0.00  0.00     0.002 A 
ATOM      4  C   LIG d   1       4.869  -4.361  -8.554  0.00  0.00     0.172 A 
ATOM      5  N   LIG d   1       4.767  -3.286  -7.797  0.00  0.00    -0.196 N 
ATOM      6  C   LIG d   1       3.868  -2.352  -8.036  0.00  0.00     0.175 A 
ATOM      7  H   LIG d   1       2.384  -3.713 -10.743  0.00  0.00     0.062 H 
ATOM      8  H   LIG d   1       4.110  -5.432 -10.248  0.00  0.00     0.068 H 
ATOM      9  H   LIG d   1       5.621  -5.103  -8.331  0.00  0.00     0.138 H 
ATOM     10  H   LIG d   1       3.819  -1.483  -7.396  0.00  0.00     0.138 H 
ENDROOT
BRANCH   5  11
ATOM     11  C   LIG d   1       5.683  -3.123  -6.665  0.00  0.00     0.212 C 
ATOM     12  H   LIG d   1       6.494  -3.847  -6.746  0.00  0.00     0.112 H 
ATOM     13  H   LIG d   1       6.095  -2.114  -6.674  0.00  0.00     0.112 H 
BRANCH  11  14
ATOM     14  C   LIG d   1       4.934  -3.348  -5.378  0.00  0.00     0.228 C 
ATOM     15  O   LIG d   1       4.375  -4.405  -5.178  0.00  0.00    -0.285 OA
BRANCH  14  16
ATOM     16  C   LIG d   1       4.882  -2.285  -4.361  0.00  0.00     0.025 A 
ATOM     17  C   LIG d   1       5.744  -1.188  -4.448  0.00  0.00    -0.031 A 
ATOM     18  C   LIG d   1       5.685  -0.192  -3.494  0.00  0.00     0.060 A 
ATOM     19  H   LIG d   1       6.450  -1.116  -5.261  0.00  0.00     0.064 H 
ATOM     20  C   LIG d   1       4.783  -0.286  -2.445  0.00  0.00     0.059 A 
ATOM     21 CL   LIG d   1       6.748   1.176  -3.602  0.00  0.00    -0.082 Cl
ATOM     22  C   LIG d   1       3.931  -1.374  -2.351  0.00  0.00    -0.041 A 
ATOM     23 CL   LIG d   1       4.720   0.967  -1.244  0.00  0.00    -0.082 Cl
ATOM     24  C   LIG d   1       3.974  -2.372  -3.300  0.00  0.00    -0.050 A 
ATOM     25  H   LIG d   1       3.230  -1.440  -1.531  0.00  0.00     0.063 H 
ATOM     26  H   LIG d   1       3.308  -3.219  -3.225  0.00  0.00     0.062 H 
ENDBRANCH  14  16
ENDBRANCH  11  14
ENDBRANCH   5  11
BRANCH   1  27
ATOM     27  C   LIG d   1       1.953  -1.406  -9.351  0.00  0.00     0.003 C 
ATOM     28  H   LIG d   1       1.261  -1.356  -8.511  0.00  0.00     0.036 H 
ATOM     29  H   LIG d   1       1.405  -1.645 -10.262  0.00  0.00     0.036 H 
BRANCH  27  30
ATOM     30  C   LIG d   1       2.642  -0.075  -9.515  0.00  0.00    -0.043 A 
ATOM     31  C   LIG d   1       2.541   0.882  -8.523  0.00  0.00    -0.058 A 
ATOM     32  C   LIG d   1       3.174   2.102  -8.672  0.00  0.00    -0.061 A 
ATOM     33  H   LIG d   1       1.969   0.676  -7.631  0.00  0.00     0.062 H 
ATOM     34  C   LIG d   1       3.908   2.364  -9.814  0.00  0.00    -0.062 A 
ATOM     35  H   LIG d   1       3.095   2.849  -7.898  0.00  0.00     0.062 H 
ATOM     36  C   LIG d   1       4.010   1.407 -10.806  0.00  0.00    -0.061 A 
ATOM     37  H   LIG d   1       4.399   3.318  -9.933  0.00  0.00     0.062 H 
ATOM     38  C   LIG d   1       3.376   0.187 -10.657  0.00  0.00    -0.058 A 
ATOM     39  H   LIG d   1       4.583   1.612 -11.698  0.00  0.00     0.062 H 
ATOM     40  H   LIG d   1       3.455  -0.561 -11.432  0.00  0.00     0.062 H 
ENDBRANCH  27  30
ENDBRANCH   1  27
TORSDOF 5
ENDMDL
MODEL 5
REMARK VINA RESULT:      -7.1      3.314      4.881
REMARK  5 active torsions:
REMARK  status: ('A' for Active; 'I' for Inactive)
REMARK    1  A    between atoms: C_4  and  C_7 
REMARK    2  A    between atoms: C_7  and  C_8 
REMARK    3  A    between atoms: N_12  and  C_14 
REMARK    4  A    between atoms: C_14  and  C_15 
REMARK    5  A    between atoms: C_15  and  C_17 
ROOT
ATOM      1  C   LIG d   1       4.837  -2.987  -4.277  0.00  0.00     0.021 A 
ATOM      2  C   LIG d   1       4.623  -4.216  -4.884  0.00  0.00    -0.047 A 
ATOM      3  C   LIG d   1       5.234  -4.465  -6.103  0.00  0.00     0.002 A 
ATOM      4  C   LIG d   1       6.032  -3.488  -6.669  0.00  0.00     0.172 A 
ATOM      5  N   LIG d   1       6.213  -2.331  -6.063  0.00  0.00    -0.196 N 
ATOM      6  C   LIG d   1       5.642  -2.058  -4.906  0.00  0.00     0.175 A 
ATOM      7  H   LIG d   1       3.995  -4.961  -4.418  0.00  0.00     0.062 H 
ATOM      8  H   LIG d   1       5.089  -5.411  -6.604  0.00  0.00     0.068 H 
ATOM      9  H   LIG d   1       6.512  -3.675  -7.619  0.00  0.00     0.138 H 
ATOM     10  H   LIG d   1       5.812  -1.097  -4.443  0.00  0.00     0.138 H 
ENDROOT
BRANCH   5  11
ATOM     11  C   LIG d   1       7.066  -1.321  -6.695  0.00  0.00     0.212 C 
ATOM     12  H   LIG d   1       7.869  -1.045  -6.011  0.00  0.00     0.112 H 
ATOM     13  H   LIG d   1       7.493  -1.728  -7.612  0.00  0.00     0.112 H 
BRANCH  11  14
ATOM     14  C   LIG d   1       6.243  -0.103  -7.022  0.00  0.00     0.228 C 
ATOM     15  O   LIG d   1       6.599   0.991  -6.637  0.00  0.00    -0.285 OA
BRANCH  14  16
ATOM     16  C   LIG d   1       5.008  -0.239  -7.810  0.00  0.00     0.025 A 
ATOM     17  C   LIG d   1       5.072  -0.600  -9.159  0.00  0.00    -0.031 A 
ATOM     18  C   LIG d   1       3.909  -0.732  -9.890  0.00  0.00     0.060 A 
ATOM     19  H   LIG d   1       6.028  -0.782  -9.627  0.00  0.00     0.064 H 
ATOM     20  C   LIG d   1       2.680  -0.493  -9.292  0.00  0.00     0.059 A 
ATOM     21 CL   LIG d   1       3.983  -1.188 -11.563  0.00  0.00    -0.082 Cl
ATOM     22  C   LIG d   1       2.612  -0.128  -7.957  0.00  0.00    -0.041 A 
ATOM     23 CL   LIG d   1       1.222  -0.653 -10.221  0.00  0.00    -0.082 Cl
ATOM     24  C   LIG d   1       3.765  -0.000  -7.214  0.00  0.00    -0.050 A 
ATOM     25  H   LIG d   1       1.651   0.055  -7.498  0.00  0.00     0.063 H 
ATOM     26  H   LIG d   1       3.709   0.283  -6.173  0.00  0.00     0.062 H 
ENDBRANCH  14  16
ENDBRANCH  11  14
ENDBRANCH   5  11
BRANCH   1  27
ATOM     27  C   LIG d   1       4.195  -2.669  -2.951  0.00  0.00     0.003 C 
ATOM     28  H   LIG d   1       4.840  -3.016  -2.143  0.00  0.00     0.036 H 
ATOM     29  H   LIG d   1       3.229  -3.168  -2.886  0.00  0.00     0.036 H 
BRANCH  27  30
ATOM     30  C   LIG d   1       3.999  -1.179  -2.834  0.00  0.00    -0.043 A 
ATOM     31  C   LIG d   1       4.645  -0.473  -1.837  0.00  0.00    -0.058 A 
ATOM     32  C   LIG d   1       4.466   0.894  -1.730  0.00  0.00    -0.061 A 
ATOM     33  H   LIG d   1       5.290  -0.989  -1.142  0.00  0.00     0.062 H 
ATOM     34  C   LIG d   1       3.641   1.554  -2.622  0.00  0.00    -0.062 A 
ATOM     35  H   LIG d   1       4.970   1.445  -0.952  0.00  0.00     0.062 H 
ATOM     36  C   LIG d   1       2.996   0.848  -3.620  0.00  0.00    -0.061 A 
ATOM     37  H   LIG d   1       3.498   2.621  -2.537  0.00  0.00     0.062 H 
ATOM     38  C   LIG d   1       3.174  -0.519  -3.726  0.00  0.00    -0.058 A 
ATOM     39  H   LIG d   1       2.351   1.364  -4.316  0.00  0.00     0.062 H 
ATOM     40  H   LIG d   1       2.669  -1.071  -4.505  0.00  0.00     0.062 H 
ENDBRANCH  27  30
ENDBRANCH   1  27
TORSDOF 5
ENDMDL
MODEL 6
REMARK VINA RESULT:      -6.9      2.743      3.124
REMARK  5 active torsions:
REMARK  status: ('A' for Active; 'I' for Inactive)
REMARK    1  A    between atoms: C_4  and  C_7 
REMARK    2  A    between atoms: C_7  and  C_8 
REMARK    3  A    between atoms: N_12  and  C_14 
REMARK    4  A    between atoms: C_14  and  C_15 
REMARK    5  A    between atoms: C_15  and  C_17 
ROOT
ATOM      1  C   LIG d   1       2.941   0.329  -6.227  0.00  0.00     0.021 A 
ATOM      2  C   LIG d   1       2.585   1.243  -7.208  0.00  0.00    -0.047 A 
ATOM      3  C   LIG d   1       3.400   1.368  -8.321  0.00  0.00     0.002 A 
ATOM      4  C   LIG d   1       4.533   0.582  -8.419  0.00  0.00     0.172 A 
ATOM      5  N   LIG d   1       4.840  -0.278  -7.467  0.00  0.00    -0.196 N 
ATOM      6  C   LIG d   1       4.091  -0.418  -6.391  0.00  0.00     0.175 A 
ATOM      7  H   LIG d   1       1.693   1.843  -7.105  0.00  0.00     0.062 H 
ATOM      8  H   LIG d   1       3.153   2.070  -9.104  0.00  0.00     0.068 H 
ATOM      9  H   LIG d   1       5.173   0.673  -9.284  0.00  0.00     0.138 H 
ATOM     10  H   LIG d   1       4.379  -1.130  -5.631  0.00  0.00     0.138 H 
ENDROOT
BRANCH   5  11
ATOM     11  C   LIG d   1       6.049  -1.094  -7.607  0.00  0.00     0.212 C 
ATOM     12  H   LIG d   1       5.813  -2.135  -7.387  0.00  0.00     0.112 H 
ATOM     13  H   LIG d   1       6.426  -1.014  -8.627  0.00  0.00     0.112 H 
BRANCH  11  14
ATOM     14  C   LIG d   1       7.100  -0.603  -6.645  0.00  0.00     0.228 C 
ATOM     15  O   LIG d   1       7.495   0.541  -6.711  0.00  0.00    -0.285 OA
BRANCH  14  16
ATOM     16  C   LIG d   1       7.646  -1.513  -5.626  0.00  0.00     0.025 A 
ATOM     17  C   LIG d   1       8.784  -2.277  -5.903  0.00  0.00    -0.031 A 
ATOM     18  C   LIG d   1       9.293  -3.123  -4.939  0.00  0.00     0.060 A 
ATOM     19  H   LIG d   1       9.266  -2.201  -6.865  0.00  0.00     0.064 H 
ATOM     20  C   LIG d   1       8.671  -3.226  -3.703  0.00  0.00     0.059 A 
ATOM     21 CL   LIG d   1      10.710  -4.067  -5.276  0.00  0.00    -0.082 Cl
ATOM     22  C   LIG d   1       7.540  -2.475  -3.426  0.00  0.00    -0.041 A 
ATOM     23 CL   LIG d   1       9.314  -4.298  -2.499  0.00  0.00    -0.082 Cl
ATOM     24  C   LIG d   1       7.024  -1.622  -4.377  0.00  0.00    -0.050 A 
ATOM     25  H   LIG d   1       7.061  -2.560  -2.461  0.00  0.00     0.063 H 
ATOM     26  H   LIG d   1       6.143  -1.037  -4.158  0.00  0.00     0.062 H 
ENDBRANCH  14  16
ENDBRANCH  11  14
ENDBRANCH   5  11
BRANCH   1  27
ATOM     27  C   LIG d   1       2.087   0.156  -4.998  0.00  0.00     0.003 C 
ATOM     28  H   LIG d   1       1.450  -0.721  -5.118  0.00  0.00     0.036 H 
ATOM     29  H   LIG d   1       1.466   1.041  -4.860  0.00  0.00     0.036 H 
BRANCH  27  30
ATOM     30  C   LIG d   1       2.974  -0.028  -3.793  0.00  0.00    -0.043 A 
ATOM     31  C   LIG d   1       3.214  -1.296  -3.298  0.00  0.00    -0.058 A 
ATOM     32  C   LIG d   1       4.029  -1.464  -2.194  0.00  0.00    -0.061 A 
ATOM     33  H   LIG d   1       2.765  -2.154  -3.775  0.00  0.00     0.062 H 
ATOM     34  C   LIG d   1       4.604  -0.364  -1.585  0.00  0.00    -0.062 A 
ATOM     35  H   LIG d   1       4.216  -2.454  -1.807  0.00  0.00     0.062 H 
ATOM     36  C   LIG d   1       4.364   0.904  -2.081  0.00  0.00    -0.061 A 
ATOM     37  H   LIG d   1       5.237  -0.495  -0.721  0.00  0.00     0.062 H 
ATOM     38  C   LIG d   1       3.549   1.073  -3.184  0.00  0.00    -0.058 A 
ATOM     39  H   LIG d   1       4.814   1.764  -1.605  0.00  0.00     0.062 H 
ATOM     40  H   LIG d   1       3.362   2.064  -3.571  0.00  0.00     0.062 H 
ENDBRANCH  27  30
ENDBRANCH   1  27
TORSDOF 5
ENDMDL
MODEL 7
REMARK VINA RESULT:      -6.9      3.011      5.665
REMARK  5 active torsions:
REMARK  status: ('A' for Active; 'I' for Inactive)
REMARK    1  A    between atoms: C_4  and  C_7 
REMARK    2  A    between atoms: C_7  and  C_8 
REMARK    3  A    between atoms: N_12  and  C_14 
REMARK    4  A    between atoms: C_14  and  C_15 
REMARK    5  A    between atoms: C_15  and  C_17 
ROOT
ATOM      1  C   LIG d   1       7.765   1.520  -8.364  0.00  0.00     0.021 A 
ATOM      2  C   LIG d   1       8.327   2.740  -8.707  0.00  0.00    -0.047 A 
ATOM      3  C   LIG d   1       9.198   3.341  -7.813  0.00  0.00     0.002 A 
ATOM      4  C   LIG d   1       9.477   2.709  -6.616  0.00  0.00     0.172 A 
ATOM      5  N   LIG d   1       8.925   1.548  -6.323  0.00  0.00    -0.196 N 
ATOM      6  C   LIG d   1       8.087   0.950  -7.147  0.00  0.00     0.175 A 
ATOM      7  H   LIG d   1       8.090   3.211  -9.650  0.00  0.00     0.062 H 
ATOM      8  H   LIG d   1       9.653   4.293  -8.048  0.00  0.00     0.068 H 
ATOM      9  H   LIG d   1      10.156   3.171  -5.914  0.00  0.00     0.138 H 
ATOM     10  H   LIG d   1       7.652   0.002  -6.869  0.00  0.00     0.138 H 
ENDROOT
BRANCH   5  11
ATOM     11  C   LIG d   1       9.247   0.908  -5.044  0.00  0.00     0.212 C 
ATOM     12  H   LIG d   1       9.182  -0.175  -5.153  0.00  0.00     0.112 H 
ATOM     13  H   LIG d   1      10.259   1.183  -4.745  0.00  0.00     0.112 H 
BRANCH  11  14
ATOM     14  C   LIG d   1       8.271   1.368  -3.993  0.00  0.00     0.228 C 
ATOM     15  O   LIG d   1       8.404   2.457  -3.477  0.00  0.00    -0.285 OA
BRANCH  14  16
ATOM     16  C   LIG d   1       7.155   0.496  -3.594  0.00  0.00     0.025 A 
ATOM     17  C   LIG d   1       5.959   1.053  -3.131  0.00  0.00    -0.031 A 
ATOM     18  C   LIG d   1       4.915   0.229  -2.763  0.00  0.00     0.060 A 
ATOM     19  H   LIG d   1       5.850   2.125  -3.066  0.00  0.00     0.064 H 
ATOM     20  C   LIG d   1       5.056  -1.148  -2.840  0.00  0.00     0.059 A 
ATOM     21 CL   LIG d   1       3.426   0.918  -2.196  0.00  0.00    -0.082 Cl
ATOM     22  C   LIG d   1       6.241  -1.706  -3.292  0.00  0.00    -0.041 A 
ATOM     23 CL   LIG d   1       3.740  -2.179  -2.368  0.00  0.00    -0.082 Cl
ATOM     24  C   LIG d   1       7.289  -0.895  -3.668  0.00  0.00    -0.050 A 
ATOM     25  H   LIG d   1       6.343  -2.780  -3.349  0.00  0.00     0.063 H 
ATOM     26  H   LIG d   1       8.212  -1.332  -4.021  0.00  0.00     0.062 H 
ENDBRANCH  14  16
ENDBRANCH  11  14
ENDBRANCH   5  11
BRANCH   1  27
ATOM     27  C   LIG d   1       6.812   0.826  -9.303  0.00  0.00     0.003 C 
ATOM     28  H   LIG d   1       6.948  -0.253  -9.227  0.00  0.00     0.036 H 
ATOM     29  H   LIG d   1       7.012   1.147 -10.325  0.00  0.00     0.036 H 
BRANCH  27  30
ATOM     30  C   LIG d   1       5.395   1.181  -8.932  0.00  0.00    -0.043 A 
ATOM     31  C   LIG d   1       4.844   2.371  -9.368  0.00  0.00    -0.058 A 
ATOM     32  C   LIG d   1       3.544   2.696  -9.030  0.00  0.00    -0.061 A 
ATOM     33  H   LIG d   1       5.429   3.047  -9.974  0.00  0.00     0.062 H 
ATOM     34  C   LIG d   1       2.795   1.830  -8.254  0.00  0.00    -0.062 A 
ATOM     35  H   LIG d   1       3.114   3.626  -9.370  0.00  0.00     0.062 H 
ATOM     36  C   LIG d   1       3.346   0.640  -7.819  0.00  0.00    -0.061 A 
ATOM     37  H   LIG d   1       1.781   2.086  -7.986  0.00  0.00     0.062 H 
ATOM     38  C   LIG d   1       4.646   0.315  -8.157  0.00  0.00    -0.058 A 
ATOM     39  H   LIG d   1       2.760  -0.037  -7.214  0.00  0.00     0.062 H 
ATOM     40  H   LIG d   1       5.077  -0.615  -7.817  0.00  0.00     0.062 H 
ENDBRANCH  27  30
ENDBRANCH   1  27
TORSDOF 5
ENDMDL
MODEL 8
REMARK VINA RESULT:      -6.8      1.924      2.860
REMARK  5 active torsions:
REMARK  status: ('A' for Active; 'I' for Inactive)
REMARK    1  A    between atoms: C_4  and  C_7 
REMARK    2  A    between atoms: C_7  and  C_8 
REMARK    3  A    between atoms: N_12  and  C_14 
REMARK    4  A    between atoms: C_14  and  C_15 
REMARK    5  A    between atoms: C_15  and  C_17 
ROOT
ATOM      1  C   LIG d   1       4.897  -3.040  -4.202  0.00  0.00     0.021 A 
ATOM      2  C   LIG d   1       4.515  -4.161  -4.923  0.00  0.00    -0.047 A 
ATOM      3  C   LIG d   1       5.194  -4.457  -6.094  0.00  0.00     0.002 A 
ATOM      4  C   LIG d   1       6.224  -3.630  -6.503  0.00  0.00     0.172 A 
ATOM      5  N   LIG d   1       6.561  -2.572  -5.792  0.00  0.00    -0.196 N 
ATOM      6  C   LIG d   1       5.932  -2.257  -4.676  0.00  0.00     0.175 A 
ATOM      7  H   LIG d   1       3.706  -4.789  -4.579  0.00  0.00     0.062 H 
ATOM      8  H   LIG d   1       4.922  -5.322  -6.681  0.00  0.00     0.068 H 
ATOM      9  H   LIG d   1       6.759  -3.854  -7.414  0.00  0.00     0.138 H 
ATOM     10  H   LIG d   1       6.235  -1.379  -4.124  0.00  0.00     0.138 H 
ENDROOT
BRANCH   5  11
ATOM     11  C   LIG d   1       7.659  -1.720  -6.257  0.00  0.00     0.212 C 
ATOM     12  H   LIG d   1       8.444  -1.695  -5.501  0.00  0.00     0.112 H 
ATOM     13  H   LIG d   1       8.062  -2.123  -7.187  0.00  0.00     0.112 H 
BRANCH  11  14
ATOM     14  C   LIG d   1       7.145  -0.325  -6.496  0.00  0.00     0.228 C 
ATOM     15  O   LIG d   1       6.243  -0.137  -7.284  0.00  0.00    -0.285 OA
BRANCH  14  16
ATOM     16  C   LIG d   1       7.737   0.811  -5.773  0.00  0.00     0.025 A 
ATOM     17  C   LIG d   1       8.470   1.780  -6.465  0.00  0.00    -0.031 A 
ATOM     18  C   LIG d   1       9.017   2.846  -5.781  0.00  0.00     0.060 A 
ATOM     19  H   LIG d   1       8.603   1.699  -7.534  0.00  0.00     0.064 H 
ATOM     20  C   LIG d   1       8.853   2.949  -4.407  0.00  0.00     0.059 A 
ATOM     21 CL   LIG d   1       9.920   4.055  -6.638  0.00  0.00    -0.082 Cl
ATOM     22  C   LIG d   1       8.133   1.989  -3.715  0.00  0.00    -0.041 A 
ATOM     23 CL   LIG d   1       9.551   4.289  -3.552  0.00  0.00    -0.082 Cl
ATOM     24  C   LIG d   1       7.575   0.923  -4.387  0.00  0.00    -0.050 A 
ATOM     25  H   LIG d   1       8.009   2.077  -2.646  0.00  0.00     0.063 H 
ATOM     26  H   LIG d   1       7.014   0.176  -3.846  0.00  0.00     0.062 H 
ENDBRANCH  14  16
ENDBRANCH  11  14
ENDBRANCH   5  11
BRANCH   1  27
ATOM     27  C   LIG d   1       4.189  -2.676  -2.922  0.00  0.00     0.003 C 
ATOM     28  H   LIG d   1       4.776  -3.023  -2.072  0.00  0.00     0.036 H 
ATOM     29  H   LIG d   1       3.207  -3.149  -2.904  0.00  0.00     0.036 H 
BRANCH  27  30
ATOM     30  C   LIG d   1       4.028  -1.180  -2.846  0.00  0.00    -0.043 A 
ATOM     31  C   LIG d   1       3.261  -0.518  -3.785  0.00  0.00    -0.058 A 
ATOM     32  C   LIG d   1       3.112   0.854  -3.714  0.00  0.00    -0.061 A 
ATOM     33  H   LIG d   1       2.777  -1.073  -4.574  0.00  0.00     0.062 H 
ATOM     34  C   LIG d   1       3.732   1.565  -2.702  0.00  0.00    -0.062 A 
ATOM     35  H   LIG d   1       2.513   1.372  -4.448  0.00  0.00     0.062 H 
ATOM     36  C   LIG d   1       4.498   0.903  -1.762  0.00  0.00    -0.061 A 
ATOM     37  H   LIG d   1       3.619   2.637  -2.649  0.00  0.00     0.062 H 
ATOM     38  C   LIG d   1       4.648  -0.469  -1.834  0.00  0.00    -0.058 A 
ATOM     39  H   LIG d   1       4.982   1.458  -0.971  0.00  0.00     0.062 H 
ATOM     40  H   LIG d   1       5.247  -0.987  -1.099  0.00  0.00     0.062 H 
ENDBRANCH  27  30
ENDBRANCH   1  27
TORSDOF 5
ENDMDL
MODEL 9
REMARK VINA RESULT:      -6.8      4.502      5.603
REMARK  5 active torsions:
REMARK  status: ('A' for Active; 'I' for Inactive)
REMARK    1  A    between atoms: C_4  and  C_7 
REMARK    2  A    between atoms: C_7  and  C_8 
REMARK    3  A    between atoms: N_12  and  C_14 
REMARK    4  A    between atoms: C_14  and  C_15 
REMARK    5  A    between atoms: C_15  and  C_17 
ROOT
ATOM      1  C   LIG d   1       2.817   0.320  -6.250  0.00  0.00     0.021 A 
ATOM      2  C   LIG d   1       2.794   1.382  -7.142  0.00  0.00    -0.047 A 
ATOM      3  C   LIG d   1       3.543   1.284  -8.303  0.00  0.00     0.002 A 
ATOM      4  C   LIG d   1       4.284   0.140  -8.534  0.00  0.00     0.172 A 
ATOM      5  N   LIG d   1       4.281  -0.851  -7.664  0.00  0.00    -0.196 N 
ATOM      6  C   LIG d   1       3.585  -0.790  -6.545  0.00  0.00     0.175 A 
ATOM      7  H   LIG d   1       2.205   2.263  -6.935  0.00  0.00     0.062 H 
ATOM      8  H   LIG d   1       3.549   2.093  -9.020  0.00  0.00     0.068 H 
ATOM      9  H   LIG d   1       4.870   0.056  -9.437  0.00  0.00     0.138 H 
ATOM     10  H   LIG d   1       3.613  -1.620  -5.855  0.00  0.00     0.138 H 
ENDROOT
BRANCH   5  11
ATOM     11  C   LIG d   1       5.078  -2.048  -7.944  0.00  0.00     0.212 C 
ATOM     12  H   LIG d   1       5.681  -1.882  -8.838  0.00  0.00     0.112 H 
ATOM     13  H   LIG d   1       5.733  -2.255  -7.097  0.00  0.00     0.112 H 
BRANCH  11  14
ATOM     14  C   LIG d   1       4.161  -3.221  -8.167  0.00  0.00     0.228 C 
ATOM     15  O   LIG d   1       3.269  -3.148  -8.985  0.00  0.00    -0.285 OA
BRANCH  14  16
ATOM     16  C   LIG d   1       4.346  -4.458  -7.392  0.00  0.00     0.025 A 
ATOM     17  C   LIG d   1       4.217  -5.703  -8.015  0.00  0.00    -0.031 A 
ATOM     18  C   LIG d   1       4.399  -6.859  -7.283  0.00  0.00     0.060 A 
ATOM     19  H   LIG d   1       3.982  -5.762  -9.067  0.00  0.00     0.064 H 
ATOM     20  C   LIG d   1       4.695  -6.786  -5.929  0.00  0.00     0.059 A 
ATOM     21 CL   LIG d   1       4.248  -8.407  -8.054  0.00  0.00    -0.082 Cl
ATOM     22  C   LIG d   1       4.818  -5.555  -5.306  0.00  0.00    -0.041 A 
ATOM     23 CL   LIG d   1       4.914  -8.245  -5.013  0.00  0.00    -0.082 Cl
ATOM     24  C   LIG d   1       4.646  -4.393  -6.026  0.00  0.00    -0.050 A 
ATOM     25  H   LIG d   1       5.049  -5.507  -4.252  0.00  0.00     0.063 H 
ATOM     26  H   LIG d   1       4.743  -3.435  -5.538  0.00  0.00     0.062 H 
ENDBRANCH  14  16
ENDBRANCH  11  14
ENDBRANCH   5  11
BRANCH   1  27
ATOM     27  C   LIG d   1       2.019   0.377  -4.973  0.00  0.00     0.003 C 
ATOM     28  H   LIG d   1       1.228  -0.373  -5.004  0.00  0.00     0.036 H 
ATOM     29  H   LIG d   1       1.577   1.368  -4.865  0.00  0.00     0.036 H 
BRANCH  27  30
ATOM     30  C   LIG d   1       2.926   0.102  -3.801  0.00  0.00    -0.043 A 
ATOM     31  C   LIG d   1       3.088  -1.191  -3.341  0.00  0.00    -0.058 A 
ATOM     32  C   LIG d   1       3.922  -1.443  -2.267  0.00  0.00    -0.061 A 
ATOM     33  H   LIG d   1       2.564  -2.004  -3.821  0.00  0.00     0.062 H 
ATOM     34  C   LIG d   1       4.593  -0.401  -1.654  0.00  0.00    -0.062 A 
ATOM     35  H   LIG d   1       4.048  -2.453  -1.907  0.00  0.00     0.062 H 
ATOM     36  C   LIG d   1       4.432   0.892  -2.115  0.00  0.00    -0.061 A 
ATOM     37  H   LIG d   1       5.241  -0.598  -0.813  0.00  0.00     0.062 H 
ATOM     38  C   LIG d   1       3.598   1.144  -3.188  0.00  0.00    -0.058 A 
ATOM     39  H   LIG d   1       4.956   1.706  -1.636  0.00  0.00     0.062 H 
ATOM     40  H   LIG d   1       3.471   2.155  -3.548  0.00  0.00     0.062 H 
ENDBRANCH  27  30
ENDBRANCH   1  27
TORSDOF 5
ENDMDL
