MODEL 1
REMARK VINA RESULT:      -5.8      0.000      0.000
REMARK  4 active torsions:
REMARK  status: ('A' for Active; 'I' for Inactive)
REMARK    1  A    between atoms: C_1  and  C_2 
REMARK    2  A    between atoms: C_4  and  C_20 
REMARK    3  A    between atoms: C_10  and  C_19 
REMARK    4  A    between atoms: C_12  and  C_15 
ROOT
ATOM      1  C   LIG d   1       4.503   0.870  -3.006  0.00  0.00     0.019 C 
ATOM      2  H   LIG d   1       4.853   1.785  -3.484  0.00  0.00     0.038 H 
ATOM      3  C   LIG d   1       3.012   0.670  -3.306  0.00  0.00     0.103 C 
ATOM      4  H   LIG d   1       2.433   1.448  -2.809  0.00  0.00     0.074 H 
ATOM      5  O   LIG d   1       2.610  -0.613  -2.817  0.00  0.00    -0.495 OA
ATOM      6  C   LIG d   1       3.269  -1.678  -3.291  0.00  0.00     0.092 C 
ATOM      7  C   LIG d   1       4.603  -1.565  -3.671  0.00  0.00     0.006 A 
ATOM      8  C   LIG d   1       5.269  -0.313  -3.554  0.00  0.00    -0.025 A 
ATOM      9  C   LIG d   1       6.561  -0.166  -3.921  0.00  0.00     0.001 A 
ATOM     10  C   LIG d   1       7.293  -1.261  -4.431  0.00  0.00     0.190 A 
ATOM     11  C   LIG d   1       6.640  -2.566  -4.558  0.00  0.00     0.037 A 
ATOM     12  C   LIG d   1       5.290  -2.696  -4.172  0.00  0.00    -0.085 A 
ATOM     13  O   LIG d   1       4.658  -3.886  -4.277  0.00  0.00    -0.873 OA
ATOM     14  O   LIG d   1       8.459  -1.119  -4.764  0.00  0.00    -0.287 OA
ATOM     15  H   LIG d   1       2.762  -2.627  -3.380  0.00  0.00     0.103 H 
ENDROOT
BRANCH   1  16
ATOM     16  C   LIG d   1       4.715   0.965  -1.494  0.00  0.00    -0.055 C 
ATOM     17  H   LIG d   1       5.213   0.062  -1.140  0.00  0.00     0.024 H 
ATOM     18  H   LIG d   1       5.333   1.834  -1.268  0.00  0.00     0.024 H 
ATOM     19  H   LIG d   1       3.750   1.066  -0.998  0.00  0.00     0.024 H 
ENDBRANCH   1  16
BRANCH   3  20
ATOM     20  C   LIG d   1       2.778   0.743  -4.815  0.00  0.00    -0.027 C 
ATOM     21  H   LIG d   1       3.579   1.319  -5.280  0.00  0.00     0.026 H 
ATOM     22  H   LIG d   1       2.767  -0.264  -5.231  0.00  0.00     0.026 H 
ATOM     23  H   LIG d   1       1.821   1.228  -5.012  0.00  0.00     0.026 H 
ENDBRANCH   3  20
BRANCH   9  24
ATOM     24  C   LIG d   1       7.226   1.179  -3.785  0.00  0.00    -0.036 C 
ATOM     25  H   LIG d   1       8.162   1.180  -4.345  0.00  0.00     0.028 H 
ATOM     26  H   LIG d   1       6.567   1.952  -4.179  0.00  0.00     0.028 H 
ATOM     27  H   LIG d   1       7.432   1.377  -2.733  0.00  0.00     0.028 H 
ENDBRANCH   9  24
BRANCH  11  28
ATOM     28  C   LIG d   1       7.377  -3.718  -5.080  0.00  0.00     0.075 C 
ATOM     29  O   LIG d   1       8.041  -4.413  -4.321  0.00  0.00    -0.544 OA
ATOM     30  O   LIG d   1       7.330  -3.985  -6.274  0.00  0.00    -0.544 OA
ENDBRANCH  11  28
TORSDOF 4
ENDMDL
MODEL 2
REMARK VINA RESULT:      -5.8      2.731      4.013
REMARK  4 active torsions:
REMARK  status: ('A' for Active; 'I' for Inactive)
REMARK    1  A    between atoms: C_1  and  C_2 
REMARK    2  A    between atoms: C_4  and  C_20 
REMARK    3  A    between atoms: C_10  and  C_19 
REMARK    4  A    between atoms: C_12  and  C_15 
ROOT
ATOM      1  C   LIG d   1       4.748  -1.370  -2.826  0.00  0.00     0.019 C 
ATOM      2  H   LIG d   1       5.751  -1.751  -2.630  0.00  0.00     0.038 H 
ATOM      3  C   LIG d   1       4.592   0.020  -2.197  0.00  0.00     0.103 C 
ATOM      4  H   LIG d   1       4.619  -0.066  -1.110  0.00  0.00     0.074 H 
ATOM      5  O   LIG d   1       3.337   0.573  -2.604  0.00  0.00    -0.495 OA
ATOM      6  C   LIG d   1       3.124   0.693  -3.920  0.00  0.00     0.092 C 
ATOM      7  C   LIG d   1       3.707  -0.204  -4.809  0.00  0.00     0.006 A 
ATOM      8  C   LIG d   1       4.532  -1.253  -4.317  0.00  0.00    -0.025 A 
ATOM      9  C   LIG d   1       5.121  -2.137  -5.153  0.00  0.00     0.001 A 
ATOM     10  C   LIG d   1       4.928  -2.046  -6.548  0.00  0.00     0.190 A 
ATOM     11  C   LIG d   1       4.078  -0.981  -7.089  0.00  0.00     0.037 A 
ATOM     12  C   LIG d   1       3.476  -0.069  -6.199  0.00  0.00    -0.085 A 
ATOM     13  O   LIG d   1       2.687   0.925  -6.664  0.00  0.00    -0.873 OA
ATOM     14  O   LIG d   1       5.466  -2.846  -7.298  0.00  0.00    -0.287 OA
ATOM     15  H   LIG d   1       2.498   1.490  -4.292  0.00  0.00     0.103 H 
ENDROOT
BRANCH   1  16
ATOM     16  C   LIG d   1       3.711  -2.324  -2.228  0.00  0.00    -0.055 C 
ATOM     17  H   LIG d   1       3.003  -2.620  -3.002  0.00  0.00     0.024 H 
ATOM     18  H   LIG d   1       4.214  -3.208  -1.837  0.00  0.00     0.024 H 
ATOM     19  H   LIG d   1       3.179  -1.821  -1.421  0.00  0.00     0.024 H 
ENDBRANCH   1  16
BRANCH   3  20
ATOM     20  C   LIG d   1       5.732   0.926  -2.667  0.00  0.00    -0.027 C 
ATOM     21  H   LIG d   1       5.332   1.707  -3.314  0.00  0.00     0.026 H 
ATOM     22  H   LIG d   1       6.213   1.383  -1.802  0.00  0.00     0.026 H 
ATOM     23  H   LIG d   1       6.463   0.335  -3.219  0.00  0.00     0.026 H 
ENDBRANCH   3  20
BRANCH   9  24
ATOM     24  C   LIG d   1       5.992  -3.230  -4.589  0.00  0.00    -0.036 C 
ATOM     25  H   LIG d   1       5.824  -4.152  -5.146  0.00  0.00     0.028 H 
ATOM     26  H   LIG d   1       7.039  -2.940  -4.675  0.00  0.00     0.028 H 
ATOM     27  H   LIG d   1       5.743  -3.388  -3.540  0.00  0.00     0.028 H 
ENDBRANCH   9  24
BRANCH  11  28
ATOM     28  C   LIG d   1       3.858  -0.867  -8.531  0.00  0.00     0.075 C 
ATOM     29  O   LIG d   1       2.918  -1.451  -9.055  0.00  0.00    -0.544 OA
ATOM     30  O   LIG d   1       4.614  -0.187  -9.214  0.00  0.00    -0.544 OA
ENDBRANCH  11  28
TORSDOF 4
ENDMDL
MODEL 3
REMARK VINA RESULT:      -5.4      2.719      3.941
REMARK  4 active torsions:
REMARK  status: ('A' for Active; 'I' for Inactive)
REMARK    1  A    between atoms: C_1  and  C_2 
REMARK    2  A    between atoms: C_4  and  C_20 
REMARK    3  A    between atoms: C_10  and  C_19 
REMARK    4  A    between atoms: C_12  and  C_15 
ROOT
ATOM      1  C   LIG d   1       3.515   0.051  -2.938  0.00  0.00     0.019 C 
ATOM      2  H   LIG d   1       2.452  -0.174  -2.855  0.00  0.00     0.038 H 
ATOM      3  C   LIG d   1       4.313  -0.878  -2.015  0.00  0.00     0.103 C 
ATOM      4  H   LIG d   1       4.088  -0.641  -0.975  0.00  0.00     0.074 H 
ATOM      5  O   LIG d   1       5.709  -0.686  -2.259  0.00  0.00    -0.495 OA
ATOM      6  C   LIG d   1       6.140  -0.885  -3.511  0.00  0.00     0.092 C 
ATOM      7  C   LIG d   1       5.296  -0.638  -4.590  0.00  0.00     0.006 A 
ATOM      8  C   LIG d   1       3.971  -0.173  -4.361  0.00  0.00    -0.025 A 
ATOM      9  C   LIG d   1       3.123   0.067  -5.385  0.00  0.00     0.001 A 
ATOM     10  C   LIG d   1       3.533  -0.133  -6.721  0.00  0.00     0.190 A 
ATOM     11  C   LIG d   1       4.893  -0.604  -6.994  0.00  0.00     0.037 A 
ATOM     12  C   LIG d   1       5.760  -0.852  -5.910  0.00  0.00    -0.085 A 
ATOM     13  O   LIG d   1       7.021  -1.289  -6.126  0.00  0.00    -0.873 OA
ATOM     14  O   LIG d   1       2.759   0.084  -7.642  0.00  0.00    -0.287 OA
ATOM     15  H   LIG d   1       7.145  -1.238  -3.684  0.00  0.00     0.103 H 
ENDROOT
BRANCH   1  16
ATOM     16  C   LIG d   1       3.764   1.507  -2.541  0.00  0.00    -0.055 C 
ATOM     17  H   LIG d   1       4.825   1.652  -2.339  0.00  0.00     0.024 H 
ATOM     18  H   LIG d   1       3.455   2.164  -3.354  0.00  0.00     0.024 H 
ATOM     19  H   LIG d   1       3.189   1.742  -1.645  0.00  0.00     0.024 H 
ENDBRANCH   1  16
BRANCH   3  20
ATOM     20  C   LIG d   1       3.935  -2.333  -2.301  0.00  0.00    -0.027 C 
ATOM     21  H   LIG d   1       3.347  -2.725  -1.470  0.00  0.00     0.026 H 
ATOM     22  H   LIG d   1       3.347  -2.383  -3.217  0.00  0.00     0.026 H 
ATOM     23  H   LIG d   1       4.841  -2.928  -2.418  0.00  0.00     0.026 H 
ENDBRANCH   3  20
BRANCH   9  24
ATOM     24  C   LIG d   1       1.726   0.554  -5.098  0.00  0.00    -0.036 C 
ATOM     25  H   LIG d   1       1.767   1.369  -4.374  0.00  0.00     0.028 H 
ATOM     26  H   LIG d   1       1.269   0.910  -6.020  0.00  0.00     0.028 H 
ATOM     27  H   LIG d   1       1.133  -0.264  -4.690  0.00  0.00     0.028 H 
ENDBRANCH   9  24
BRANCH  11  28
ATOM     28  C   LIG d   1       5.345  -0.816  -8.369  0.00  0.00     0.075 C 
ATOM     29  O   LIG d   1       5.195  -1.909  -8.900  0.00  0.00    -0.544 OA
ATOM     30  O   LIG d   1       5.872   0.099  -8.989  0.00  0.00    -0.544 OA
ENDBRANCH  11  28
TORSDOF 4
ENDMDL
MODEL 4
REMARK VINA RESULT:      -5.3      2.394      3.762
REMARK  4 active torsions:
REMARK  status: ('A' for Active; 'I' for Inactive)
REMARK    1  A    between atoms: C_1  and  C_2 
REMARK    2  A    between atoms: C_4  and  C_20 
REMARK    3  A    between atoms: C_10  and  C_19 
REMARK    4  A    between atoms: C_12  and  C_15 
ROOT
ATOM      1  C   LIG d   1       3.357  -0.635  -4.202  0.00  0.00     0.019 C 
ATOM      2  H   LIG d   1       3.101  -1.622  -4.586  0.00  0.00     0.038 H 
ATOM      3  C   LIG d   1       3.262  -0.637  -2.671  0.00  0.00     0.103 C 
ATOM      4  H   LIG d   1       2.222  -0.761  -2.370  0.00  0.00     0.074 H 
ATOM      5  O   LIG d   1       3.760   0.609  -2.176  0.00  0.00    -0.495 OA
ATOM      6  C   LIG d   1       5.014   0.938  -2.508  0.00  0.00     0.092 C 
ATOM      7  C   LIG d   1       5.556   0.507  -3.715  0.00  0.00     0.006 A 
ATOM      8  C   LIG d   1       4.773  -0.286  -4.599  0.00  0.00    -0.025 A 
ATOM      9  C   LIG d   1       5.270  -0.730  -5.774  0.00  0.00     0.001 A 
ATOM     10  C   LIG d   1       6.589  -0.411  -6.164  0.00  0.00     0.190 A 
ATOM     11  C   LIG d   1       7.422   0.410  -5.280  0.00  0.00     0.037 A 
ATOM     12  C   LIG d   1       6.883   0.859  -4.057  0.00  0.00    -0.085 A 
ATOM     13  O   LIG d   1       7.624   1.617  -3.219  0.00  0.00    -0.873 OA
ATOM     14  O   LIG d   1       7.033  -0.818  -7.226  0.00  0.00    -0.287 OA
ATOM     15  H   LIG d   1       5.608   1.540  -1.836  0.00  0.00     0.103 H 
ENDROOT
BRANCH   1  16
ATOM     16  C   LIG d   1       2.391   0.404  -4.775  0.00  0.00    -0.055 C 
ATOM     17  H   LIG d   1       2.534   1.355  -4.261  0.00  0.00     0.024 H 
ATOM     18  H   LIG d   1       2.585   0.533  -5.840  0.00  0.00     0.024 H 
ATOM     19  H   LIG d   1       1.365   0.065  -4.630  0.00  0.00     0.024 H 
ENDBRANCH   1  16
BRANCH   3  20
ATOM     20  C   LIG d   1       4.099  -1.787  -2.108  0.00  0.00    -0.027 C 
ATOM     21  H   LIG d   1       3.827  -2.715  -2.612  0.00  0.00     0.026 H 
ATOM     22  H   LIG d   1       5.157  -1.581  -2.271  0.00  0.00     0.026 H 
ATOM     23  H   LIG d   1       3.909  -1.885  -1.038  0.00  0.00     0.026 H 
ENDBRANCH   3  20
BRANCH   9  24
ATOM     24  C   LIG d   1       4.407  -1.572  -6.679  0.00  0.00    -0.036 C 
ATOM     25  H   LIG d   1       5.008  -2.371  -7.113  0.00  0.00     0.028 H 
ATOM     26  H   LIG d   1       3.590  -2.004  -6.102  0.00  0.00     0.028 H 
ATOM     27  H   LIG d   1       4.001  -0.949  -7.476  0.00  0.00     0.028 H 
ENDBRANCH   9  24
BRANCH  11  28
ATOM     28  C   LIG d   1       8.791   0.758  -5.661  0.00  0.00     0.075 C 
ATOM     29  O   LIG d   1       9.005   1.775  -6.309  0.00  0.00    -0.544 OA
ATOM     30  O   LIG d   1       9.721   0.033  -5.333  0.00  0.00    -0.544 OA
ENDBRANCH  11  28
TORSDOF 4
ENDMDL
MODEL 5
REMARK VINA RESULT:      -5.2      1.740      5.467
REMARK  4 active torsions:
REMARK  status: ('A' for Active; 'I' for Inactive)
REMARK    1  A    between atoms: C_1  and  C_2 
REMARK    2  A    between atoms: C_4  and  C_20 
REMARK    3  A    between atoms: C_10  and  C_19 
REMARK    4  A    between atoms: C_12  and  C_15 
ROOT
ATOM      1  C   LIG d   1       7.427  -2.783  -5.140  0.00  0.00     0.019 C 
ATOM      2  H   LIG d   1       6.841  -3.433  -5.790  0.00  0.00     0.038 H 
ATOM      3  C   LIG d   1       8.515  -2.079  -5.961  0.00  0.00     0.103 C 
ATOM      4  H   LIG d   1       9.245  -2.812  -6.304  0.00  0.00     0.074 H 
ATOM      5  O   LIG d   1       9.163  -1.108  -5.134  0.00  0.00    -0.495 OA
ATOM      6  C   LIG d   1       8.389  -0.164  -4.585  0.00  0.00     0.092 C 
ATOM      7  C   LIG d   1       7.063  -0.441  -4.268  0.00  0.00     0.006 A 
ATOM      8  C   LIG d   1       6.528  -1.733  -4.528  0.00  0.00    -0.025 A 
ATOM      9  C   LIG d   1       5.242  -2.034  -4.241  0.00  0.00     0.001 A 
ATOM     10  C   LIG d   1       4.389  -1.068  -3.666  0.00  0.00     0.190 A 
ATOM     11  C   LIG d   1       4.909   0.272  -3.378  0.00  0.00     0.037 A 
ATOM     12  C   LIG d   1       6.252   0.564  -3.689  0.00  0.00    -0.085 A 
ATOM     13  O   LIG d   1       6.763   1.790  -3.437  0.00  0.00    -0.873 OA
ATOM     14  O   LIG d   1       3.226  -1.346  -3.412  0.00  0.00    -0.287 OA
ATOM     15  H   LIG d   1       8.796   0.817  -4.388  0.00  0.00     0.103 H 
ENDROOT
BRANCH   1  16
ATOM     16  C   LIG d   1       8.077  -3.614  -4.032  0.00  0.00    -0.055 C 
ATOM     17  H   LIG d   1       7.301  -4.045  -3.399  0.00  0.00     0.024 H 
ATOM     18  H   LIG d   1       8.669  -4.413  -4.477  0.00  0.00     0.024 H 
ATOM     19  H   LIG d   1       8.723  -2.974  -3.430  0.00  0.00     0.024 H 
ENDBRANCH   1  16
BRANCH   3  20
ATOM     20  C   LIG d   1       7.879  -1.386  -7.167  0.00  0.00    -0.027 C 
ATOM     21  H   LIG d   1       6.805  -1.576  -7.171  0.00  0.00     0.026 H 
ATOM     22  H   LIG d   1       8.058  -0.313  -7.107  0.00  0.00     0.026 H 
ATOM     23  H   LIG d   1       8.320  -1.777  -8.086  0.00  0.00     0.026 H 
ENDBRANCH   3  20
BRANCH   9  24
ATOM     24  C   LIG d   1       4.715  -3.414  -4.538  0.00  0.00    -0.036 C 
ATOM     25  H   LIG d   1       3.669  -3.476  -4.239  0.00  0.00     0.028 H 
ATOM     26  H   LIG d   1       4.800  -3.613  -5.606  0.00  0.00     0.028 H 
ATOM     27  H   LIG d   1       5.296  -4.151  -3.983  0.00  0.00     0.028 H 
ENDBRANCH   9  24
BRANCH  11  28
ATOM     28  C   LIG d   1       4.046   1.290  -2.778  0.00  0.00     0.075 C 
ATOM     29  O   LIG d   1       3.453   2.088  -3.494  0.00  0.00    -0.544 OA
ATOM     30  O   LIG d   1       3.918   1.346  -1.562  0.00  0.00    -0.544 OA
ENDBRANCH  11  28
TORSDOF 4
ENDMDL
MODEL 6
REMARK VINA RESULT:      -5.0      1.827      4.926
REMARK  4 active torsions:
REMARK  status: ('A' for Active; 'I' for Inactive)
REMARK    1  A    between atoms: C_1  and  C_2 
REMARK    2  A    between atoms: C_4  and  C_20 
REMARK    3  A    between atoms: C_10  and  C_19 
REMARK    4  A    between atoms: C_12  and  C_15 
ROOT
ATOM      1  C   LIG d   1       8.233  -2.207  -5.616  0.00  0.00     0.019 C 
ATOM      2  H   LIG d   1       9.274  -1.924  -5.455  0.00  0.00     0.038 H 
ATOM      3  C   LIG d   1       8.018  -3.657  -5.167  0.00  0.00     0.103 C 
ATOM      4  H   LIG d   1       8.564  -4.329  -5.829  0.00  0.00     0.074 H 
ATOM      5  O   LIG d   1       6.620  -3.957  -5.226  0.00  0.00    -0.495 OA
ATOM      6  C   LIG d   1       5.801  -3.180  -4.507  0.00  0.00     0.092 C 
ATOM      7  C   LIG d   1       6.126  -1.847  -4.272  0.00  0.00     0.006 A 
ATOM      8  C   LIG d   1       7.332  -1.309  -4.799  0.00  0.00    -0.025 A 
ATOM      9  C   LIG d   1       7.683  -0.022  -4.583  0.00  0.00     0.001 A 
ATOM     10  C   LIG d   1       6.851   0.833  -3.826  0.00  0.00     0.190 A 
ATOM     11  C   LIG d   1       5.597   0.313  -3.274  0.00  0.00     0.037 A 
ATOM     12  C   LIG d   1       5.254  -1.034  -3.510  0.00  0.00    -0.085 A 
ATOM     13  O   LIG d   1       4.105  -1.545  -3.014  0.00  0.00    -0.873 OA
ATOM     14  O   LIG d   1       7.176   1.994  -3.632  0.00  0.00    -0.287 OA
ATOM     15  H   LIG d   1       4.886  -3.589  -4.107  0.00  0.00     0.103 H 
ENDROOT
BRANCH   1  16
ATOM     16  C   LIG d   1       7.888  -2.071  -7.100  0.00  0.00    -0.055 C 
ATOM     17  H   LIG d   1       6.971  -2.622  -7.311  0.00  0.00     0.024 H 
ATOM     18  H   LIG d   1       7.744  -1.019  -7.345  0.00  0.00     0.024 H 
ATOM     19  H   LIG d   1       8.702  -2.477  -7.701  0.00  0.00     0.024 H 
ENDBRANCH   1  16
BRANCH   3  20
ATOM     20  C   LIG d   1       8.522  -3.831  -3.733  0.00  0.00    -0.027 C 
ATOM     21  H   LIG d   1       9.180  -3.000  -3.477  0.00  0.00     0.026 H 
ATOM     22  H   LIG d   1       7.673  -3.847  -3.049  0.00  0.00     0.026 H 
ATOM     23  H   LIG d   1       9.072  -4.769  -3.652  0.00  0.00     0.026 H 
ENDBRANCH   3  20
BRANCH   9  24
ATOM     24  C   LIG d   1       8.973   0.506  -5.156  0.00  0.00    -0.036 C 
ATOM     25  H   LIG d   1       9.799  -0.130  -4.838  0.00  0.00     0.028 H 
ATOM     26  H   LIG d   1       8.913   0.508  -6.244  0.00  0.00     0.028 H 
ATOM     27  H   LIG d   1       9.139   1.522  -4.799  0.00  0.00     0.028 H 
ENDBRANCH   9  24
BRANCH  11  28
ATOM     28  C   LIG d   1       4.716   1.178  -2.490  0.00  0.00     0.075 C 
ATOM     29  O   LIG d   1       3.891   1.885  -3.055  0.00  0.00    -0.544 OA
ATOM     30  O   LIG d   1       4.804   1.196  -1.269  0.00  0.00    -0.544 OA
ENDBRANCH  11  28
TORSDOF 4
ENDMDL
MODEL 7
REMARK VINA RESULT:      -4.9      2.888      4.457
REMARK  4 active torsions:
REMARK  status: ('A' for Active; 'I' for Inactive)
REMARK    1  A    between atoms: C_1  and  C_2 
REMARK    2  A    between atoms: C_4  and  C_20 
REMARK    3  A    between atoms: C_10  and  C_19 
REMARK    4  A    between atoms: C_12  and  C_15 
ROOT
ATOM      1  C   LIG d   1       5.451  -0.437  -7.933  0.00  0.00     0.019 C 
ATOM      2  H   LIG d   1       6.251  -1.135  -8.180  0.00  0.00     0.038 H 
ATOM      3  C   LIG d   1       4.150  -0.884  -8.611  0.00  0.00     0.103 C 
ATOM      4  H   LIG d   1       4.248  -0.781  -9.692  0.00  0.00     0.074 H 
ATOM      5  O   LIG d   1       3.079  -0.058  -8.146  0.00  0.00    -0.495 OA
ATOM      6  C   LIG d   1       2.863  -0.029  -6.825  0.00  0.00     0.092 C 
ATOM      7  C   LIG d   1       3.921  -0.207  -5.938  0.00  0.00     0.006 A 
ATOM      8  C   LIG d   1       5.236  -0.418  -6.438  0.00  0.00    -0.025 A 
ATOM      9  C   LIG d   1       6.284  -0.603  -5.605  0.00  0.00     0.001 A 
ATOM     10  C   LIG d   1       6.102  -0.585  -4.205  0.00  0.00     0.190 A 
ATOM     11  C   LIG d   1       4.762  -0.362  -3.656  0.00  0.00     0.037 A 
ATOM     12  C   LIG d   1       3.682  -0.176  -4.543  0.00  0.00    -0.085 A 
ATOM     13  O   LIG d   1       2.434   0.031  -4.070  0.00  0.00    -0.873 OA
ATOM     14  O   LIG d   1       7.054  -0.756  -3.459  0.00  0.00    -0.287 OA
ATOM     15  H   LIG d   1       1.865   0.131  -6.447  0.00  0.00     0.103 H 
ENDROOT
BRANCH   1  16
ATOM     16  C   LIG d   1       5.827   0.966  -8.417  0.00  0.00    -0.055 C 
ATOM     17  H   LIG d   1       6.371   0.891  -9.358  0.00  0.00     0.024 H 
ATOM     18  H   LIG d   1       4.921   1.554  -8.565  0.00  0.00     0.024 H 
ATOM     19  H   LIG d   1       6.456   1.450  -7.670  0.00  0.00     0.024 H 
ENDBRANCH   1  16
BRANCH   3  20
ATOM     20  C   LIG d   1       3.865  -2.345  -8.260  0.00  0.00    -0.027 C 
ATOM     21  H   LIG d   1       2.787  -2.505  -8.220  0.00  0.00     0.026 H 
ATOM     22  H   LIG d   1       4.300  -2.993  -9.020  0.00  0.00     0.026 H 
ATOM     23  H   LIG d   1       4.304  -2.578  -7.289  0.00  0.00     0.026 H 
ENDBRANCH   3  20
BRANCH   9  24
ATOM     24  C   LIG d   1       7.660  -0.829  -6.177  0.00  0.00    -0.036 C 
ATOM     25  H   LIG d   1       7.573  -1.179  -7.206  0.00  0.00     0.028 H 
ATOM     26  H   LIG d   1       8.219   0.106  -6.157  0.00  0.00     0.028 H 
ATOM     27  H   LIG d   1       8.181  -1.578  -5.582  0.00  0.00     0.028 H 
ENDBRANCH   9  24
BRANCH  11  28
ATOM     28  C   LIG d   1       4.547  -0.336  -2.209  0.00  0.00     0.075 C 
ATOM     29  O   LIG d   1       4.328  -1.378  -1.604  0.00  0.00    -0.544 OA
ATOM     30  O   LIG d   1       4.586   0.728  -1.603  0.00  0.00    -0.544 OA
ENDBRANCH  11  28
TORSDOF 4
ENDMDL
MODEL 8
REMARK VINA RESULT:      -4.6      3.278      5.076
REMARK  4 active torsions:
REMARK  status: ('A' for Active; 'I' for Inactive)
REMARK    1  A    between atoms: C_1  and  C_2 
REMARK    2  A    between atoms: C_4  and  C_20 
REMARK    3  A    between atoms: C_10  and  C_19 
REMARK    4  A    between atoms: C_12  and  C_15 
ROOT
ATOM      1  C   LIG d   1       5.811  -2.824  -4.949  0.00  0.00     0.019 C 
ATOM      2  H   LIG d   1       6.833  -3.007  -5.280  0.00  0.00     0.038 H 
ATOM      3  C   LIG d   1       5.823  -2.264  -3.522  0.00  0.00     0.103 C 
ATOM      4  H   LIG d   1       6.175  -3.031  -2.832  0.00  0.00     0.074 H 
ATOM      5  O   LIG d   1       4.494  -1.873  -3.167  0.00  0.00    -0.495 OA
ATOM      6  C   LIG d   1       3.894  -0.973  -3.955  0.00  0.00     0.092 C 
ATOM      7  C   LIG d   1       4.201  -0.912  -5.310  0.00  0.00     0.006 A 
ATOM      8  C   LIG d   1       5.156  -1.811  -5.861  0.00  0.00    -0.025 A 
ATOM      9  C   LIG d   1       5.485  -1.775  -7.171  0.00  0.00     0.001 A 
ATOM     10  C   LIG d   1       4.881  -0.838  -8.038  0.00  0.00     0.190 A 
ATOM     11  C   LIG d   1       3.887   0.099  -7.506  0.00  0.00     0.037 A 
ATOM     12  C   LIG d   1       3.563   0.045  -6.135  0.00  0.00    -0.085 A 
ATOM     13  O   LIG d   1       2.651   0.895  -5.612  0.00  0.00    -0.873 OA
ATOM     14  O   LIG d   1       5.186  -0.808  -9.221  0.00  0.00    -0.287 OA
ATOM     15  H   LIG d   1       3.169  -0.290  -3.536  0.00  0.00     0.103 H 
ENDROOT
BRANCH   1  16
ATOM     16  C   LIG d   1       5.019  -4.133  -4.981  0.00  0.00    -0.055 C 
ATOM     17  H   LIG d   1       5.461  -4.807  -5.715  0.00  0.00     0.024 H 
ATOM     18  H   LIG d   1       5.046  -4.598  -3.996  0.00  0.00     0.024 H 
ATOM     19  H   LIG d   1       3.985  -3.925  -5.257  0.00  0.00     0.024 H 
ENDBRANCH   1  16
BRANCH   3  20
ATOM     20  C   LIG d   1       6.752  -1.051  -3.456  0.00  0.00    -0.027 C 
ATOM     21  H   LIG d   1       7.617  -1.220  -4.098  0.00  0.00     0.026 H 
ATOM     22  H   LIG d   1       6.216  -0.163  -3.793  0.00  0.00     0.026 H 
ATOM     23  H   LIG d   1       7.086  -0.904  -2.428  0.00  0.00     0.026 H 
ENDBRANCH   3  20
BRANCH   9  24
ATOM     24  C   LIG d   1       6.505  -2.743  -7.711  0.00  0.00    -0.036 C 
ATOM     25  H   LIG d   1       6.135  -3.181  -8.638  0.00  0.00     0.028 H 
ATOM     26  H   LIG d   1       7.439  -2.215  -7.906  0.00  0.00     0.028 H 
ATOM     27  H   LIG d   1       6.679  -3.532  -6.981  0.00  0.00     0.028 H 
ENDBRANCH   9  24
BRANCH  11  28
ATOM     28  C   LIG d   1       3.244   1.077  -8.384  0.00  0.00     0.075 C 
ATOM     29  O   LIG d   1       2.272   0.751  -9.053  0.00  0.00    -0.544 OA
ATOM     30  O   LIG d   1       3.677   2.220  -8.448  0.00  0.00    -0.544 OA
ENDBRANCH  11  28
TORSDOF 4
ENDMDL
MODEL 9
REMARK VINA RESULT:      -4.6      7.180      9.094
REMARK  4 active torsions:
REMARK  status: ('A' for Active; 'I' for Inactive)
REMARK    1  A    between atoms: C_1  and  C_2 
REMARK    2  A    between atoms: C_4  and  C_20 
REMARK    3  A    between atoms: C_10  and  C_19 
REMARK    4  A    between atoms: C_12  and  C_15 
ROOT
ATOM      1  C   LIG d   1       8.886  -8.478  -3.934  0.00  0.00     0.019 C 
ATOM      2  H   LIG d   1       9.559  -9.251  -3.564  0.00  0.00     0.038 H 
ATOM      3  C   LIG d   1       9.206  -8.175  -5.403  0.00  0.00     0.103 C 
ATOM      4  H   LIG d   1      10.187  -7.706  -5.473  0.00  0.00     0.074 H 
ATOM      5  O   LIG d   1       8.211  -7.286  -5.919  0.00  0.00    -0.495 OA
ATOM      6  C   LIG d   1       6.938  -7.695  -5.854  0.00  0.00     0.092 C 
ATOM      7  C   LIG d   1       6.524  -8.536  -4.826  0.00  0.00     0.006 A 
ATOM      8  C   LIG d   1       7.457  -8.963  -3.841  0.00  0.00    -0.025 A 
ATOM      9  C   LIG d   1       7.091  -9.786  -2.834  0.00  0.00     0.001 A 
ATOM     10  C   LIG d   1       5.760 -10.246  -2.728  0.00  0.00     0.190 A 
ATOM     11  C   LIG d   1       4.771  -9.820  -3.722  0.00  0.00     0.037 A 
ATOM     12  C   LIG d   1       5.176  -8.963  -4.766  0.00  0.00    -0.085 A 
ATOM     13  O   LIG d   1       4.289  -8.553  -5.699  0.00  0.00    -0.873 OA
ATOM     14  O   LIG d   1       5.437 -10.993  -1.817  0.00  0.00    -0.287 OA
ATOM     15  H   LIG d   1       6.230  -7.370  -6.602  0.00  0.00     0.103 H 
ENDROOT
BRANCH   1  16
ATOM     16  C   LIG d   1       9.054  -7.208  -3.099  0.00  0.00    -0.055 C 
ATOM     17  H   LIG d   1      10.024  -7.227  -2.600  0.00  0.00     0.024 H 
ATOM     18  H   LIG d   1       8.996  -6.335  -3.749  0.00  0.00     0.024 H 
ATOM     19  H   LIG d   1       8.263  -7.158  -2.351  0.00  0.00     0.024 H 
ENDBRANCH   1  16
BRANCH   3  20
ATOM     20  C   LIG d   1       9.202  -9.476  -6.207  0.00  0.00    -0.027 C 
ATOM     21  H   LIG d   1       8.780 -10.278  -5.600  0.00  0.00     0.026 H 
ATOM     22  H   LIG d   1       8.599  -9.346  -7.107  0.00  0.00     0.026 H 
ATOM     23  H   LIG d   1      10.224  -9.733  -6.489  0.00  0.00     0.026 H 
ENDBRANCH   3  20
BRANCH   9  24
ATOM     24  C   LIG d   1       8.113 -10.218  -1.814  0.00  0.00    -0.036 C 
ATOM     25  H   LIG d   1       9.114 -10.098  -2.230  0.00  0.00     0.028 H 
ATOM     26  H   LIG d   1       8.015  -9.604  -0.919  0.00  0.00     0.028 H 
ATOM     27  H   LIG d   1       7.950 -11.264  -1.557  0.00  0.00     0.028 H 
ENDBRANCH   9  24
BRANCH  11  28
ATOM     28  C   LIG d   1       3.384 -10.279  -3.634  0.00  0.00     0.075 C 
ATOM     29  O   LIG d   1       3.041 -11.304  -4.209  0.00  0.00    -0.544 OA
ATOM     30  O   LIG d   1       2.567  -9.638  -2.984  0.00  0.00    -0.544 OA
ENDBRANCH  11  28
TORSDOF 4
ENDMDL
MODEL 10
REMARK VINA RESULT:      -4.4      7.710     10.443
REMARK  4 active torsions:
REMARK  status: ('A' for Active; 'I' for Inactive)
REMARK    1  A    between atoms: C_1  and  C_2 
REMARK    2  A    between atoms: C_4  and  C_20 
REMARK    3  A    between atoms: C_10  and  C_19 
REMARK    4  A    between atoms: C_12  and  C_15 
ROOT
ATOM      1  C   LIG d   1      11.560   4.988  -4.274  0.00  0.00     0.019 C 
ATOM      2  H   LIG d   1      12.186   4.095  -4.266  0.00  0.00     0.038 H 
ATOM      3  C   LIG d   1      10.129   4.610  -4.674  0.00  0.00     0.103 C 
ATOM      4  H   LIG d   1      10.115   4.285  -5.715  0.00  0.00     0.074 H 
ATOM      5  O   LIG d   1       9.287   5.756  -4.518  0.00  0.00    -0.495 OA
ATOM      6  C   LIG d   1       9.239   6.313  -3.302  0.00  0.00     0.092 C 
ATOM      7  C   LIG d   1      10.345   6.254  -2.459  0.00  0.00     0.006 A 
ATOM      8  C   LIG d   1      11.531   5.600  -2.893  0.00  0.00    -0.025 A 
ATOM      9  C   LIG d   1      12.620   5.516  -2.097  0.00  0.00     0.001 A 
ATOM     10  C   LIG d   1      12.612   6.085  -0.805  0.00  0.00     0.190 A 
ATOM     11  C   LIG d   1      11.409   6.773  -0.328  0.00  0.00     0.037 A 
ATOM     12  C   LIG d   1      10.284   6.845  -1.174  0.00  0.00    -0.085 A 
ATOM     13  O   LIG d   1       9.158   7.471  -0.766  0.00  0.00    -0.873 OA
ATOM     14  O   LIG d   1      13.600   6.002  -0.090  0.00  0.00    -0.287 OA
ATOM     15  H   LIG d   1       8.338   6.809  -2.973  0.00  0.00     0.103 H 
ENDROOT
BRANCH   1  16
ATOM     16  C   LIG d   1      12.123   6.000  -5.274  0.00  0.00    -0.055 C 
ATOM     17  H   LIG d   1      12.555   6.843  -4.733  0.00  0.00     0.024 H 
ATOM     18  H   LIG d   1      12.894   5.524  -5.880  0.00  0.00     0.024 H 
ATOM     19  H   LIG d   1      11.321   6.356  -5.920  0.00  0.00     0.024 H 
ENDBRANCH   1  16
BRANCH   3  20
ATOM     20  C   LIG d   1       9.628   3.477  -3.777  0.00  0.00    -0.027 C 
ATOM     21  H   LIG d   1      10.344   3.308  -2.972  0.00  0.00     0.026 H 
ATOM     22  H   LIG d   1       8.661   3.748  -3.354  0.00  0.00     0.026 H 
ATOM     23  H   LIG d   1       9.524   2.565  -4.367  0.00  0.00     0.026 H 
ENDBRANCH   3  20
BRANCH   9  24
ATOM     24  C   LIG d   1      13.855   4.809  -2.594  0.00  0.00    -0.036 C 
ATOM     25  H   LIG d   1      13.622   3.761  -2.782  0.00  0.00     0.028 H 
ATOM     26  H   LIG d   1      14.194   5.277  -3.518  0.00  0.00     0.028 H 
ATOM     27  H   LIG d   1      14.640   4.877  -1.842  0.00  0.00     0.028 H 
ENDBRANCH   9  24
BRANCH  11  28
ATOM     28  C   LIG d   1      11.376   7.375   1.005  0.00  0.00     0.075 C 
ATOM     29  O   LIG d   1      11.174   6.672   1.987  0.00  0.00    -0.544 OA
ATOM     30  O   LIG d   1      11.550   8.579   1.138  0.00  0.00    -0.544 OA
ENDBRANCH  11  28
TORSDOF 4
ENDMDL
