MODEL 1
REMARK VINA RESULT:      -6.0      0.000      0.000
REMARK  9 active torsions:
REMARK  status: ('A' for Active; 'I' for Inactive)
REMARK    1  A    between atoms: C_1  and  C_2 
REMARK    2  A    between atoms: C_2  and  O_3 
REMARK    3  A    between atoms: O_3  and  C_4 
REMARK    4  A    between atoms: C_4  and  C_6 
REMARK    5  A    between atoms: C_7  and  C_26 
REMARK    6  A    between atoms: C_11  and  N_15 
REMARK       I    between atoms: N_15  and  C_16 
REMARK    7  A    between atoms: C_16  and  C_18 
REMARK    8  A    between atoms: C_22  and  O_24 
REMARK    9  A    between atoms: O_24  and  C_25 
ROOT
ATOM      1  C   LIG d   1       0.720  10.346 -16.414  0.00  0.00     0.215 A 
ATOM      2  C   LIG d   1      -0.516  10.908 -16.408  0.00  0.00     0.010 A 
ATOM      3  C   LIG d   1      -1.390   9.978 -15.792  0.00  0.00     0.024 A 
ATOM      4  C   LIG d   1      -2.759   9.983 -15.500  0.00  0.00    -0.049 A 
ATOM      5  C   LIG d   1      -3.328   8.906 -14.888  0.00  0.00    -0.040 A 
ATOM      6  C   LIG d   1      -2.551   7.801 -14.539  0.00  0.00     0.037 A 
ATOM      7  C   LIG d   1      -1.194   7.777 -14.819  0.00  0.00     0.003 A 
ATOM      8  C   LIG d   1      -0.602   8.864 -15.447  0.00  0.00     0.138 A 
ATOM      9  O   LIG d   1       0.663   9.125 -15.839  0.00  0.00    -0.448 OA
ATOM     10  H   LIG d   1      -3.365  10.838 -15.764  0.00  0.00     0.062 H 
ATOM     11  H   LIG d   1      -4.385   8.909 -14.668  0.00  0.00     0.064 H 
ATOM     12  H   LIG d   1      -0.600   6.917 -14.550  0.00  0.00     0.067 H 
ENDROOT
BRANCH   6  13
ATOM     13  N   LIG d   1      -3.146   6.707 -13.906  0.00  0.00    -0.281 N 
ATOM     14  C   LIG d   1      -3.574   5.657 -14.634  0.00  0.00     0.248 C 
ATOM     15  O   LIG d   1      -3.518   5.697 -15.849  0.00  0.00    -0.270 OA
ATOM     16  H   LIG d   1      -3.251   6.703 -12.941  0.00  0.00     0.155 HD
BRANCH  14  17
ATOM     17  C   LIG d   1      -4.110   4.458 -13.958  0.00  0.00     0.041 A 
ATOM     18  C   LIG d   1      -3.356   3.285 -13.910  0.00  0.00    -0.008 A 
ATOM     19  C   LIG d   1      -3.867   2.163 -13.279  0.00  0.00     0.121 A 
ATOM     20  H   LIG d   1      -2.378   3.251 -14.367  0.00  0.00     0.066 H 
ATOM     21  C   LIG d   1      -5.122   2.210 -12.688  0.00  0.00    -0.020 A 
ATOM     22  C   LIG d   1      -5.869   3.374 -12.730  0.00  0.00    -0.058 A 
ATOM     23  H   LIG d   1      -5.517   1.335 -12.193  0.00  0.00     0.065 H 
ATOM     24  C   LIG d   1      -5.371   4.496 -13.359  0.00  0.00    -0.049 A 
ATOM     25  H   LIG d   1      -6.844   3.405 -12.266  0.00  0.00     0.062 H 
ATOM     26  H   LIG d   1      -5.957   5.403 -13.391  0.00  0.00     0.062 H 
BRANCH  19  27
ATOM     27  O   LIG d   1      -3.138   1.017 -13.234  0.00  0.00    -0.495 OA
BRANCH  27  28
ATOM     28  C   LIG d   1      -3.863  -0.214 -13.250  0.00  0.00     0.079 C 
ATOM     29  H   LIG d   1      -4.876  -0.035 -13.610  0.00  0.00     0.066 H 
ATOM     30  H   LIG d   1      -3.902  -0.626 -12.242  0.00  0.00     0.066 H 
ATOM     31  H   LIG d   1      -3.363  -0.920 -13.913  0.00  0.00     0.066 H 
ENDBRANCH  27  28
ENDBRANCH  19  27
ENDBRANCH  14  17
ENDBRANCH   6  13
BRANCH   2  32
ATOM     32  C   LIG d   1      -0.888  12.264 -16.953  0.00  0.00    -0.035 C 
ATOM     33  H   LIG d   1      -0.376  13.038 -16.382  0.00  0.00     0.028 H 
ATOM     34  H   LIG d   1      -0.593  12.328 -18.000  0.00  0.00     0.028 H 
ATOM     35  H   LIG d   1      -1.966  12.405 -16.870  0.00  0.00     0.028 H 
ENDBRANCH   2  32
BRANCH   1  36
ATOM     36  C   LIG d   1       1.931  10.968 -16.959  0.00  0.00     0.375 C 
ATOM     37  O   LIG d   1       2.141  10.943 -18.157  0.00  0.00    -0.241 OA
BRANCH  36  38
ATOM     38  O   LIG d   1       2.812  11.568 -16.133  0.00  0.00    -0.459 OA
BRANCH  38  39
ATOM     39  C   LIG d   1       3.780  12.465 -16.739  0.00  0.00     0.090 C 
ATOM     40  H   LIG d   1       4.150  12.027 -17.666  0.00  0.00     0.070 H 
ATOM     41  H   LIG d   1       3.303  13.422 -16.954  0.00  0.00     0.070 H 
BRANCH  39  42
ATOM     42  C   LIG d   1       4.948  12.683 -15.775  0.00  0.00    -0.031 C 
ATOM     43  H   LIG d   1       4.581  13.139 -14.855  0.00  0.00     0.026 H 
ATOM     44  H   LIG d   1       5.412  11.724 -15.545  0.00  0.00     0.026 H 
ATOM     45  H   LIG d   1       5.683  13.340 -16.239  0.00  0.00     0.026 H 
ENDBRANCH  39  42
ENDBRANCH  38  39
ENDBRANCH  36  38
ENDBRANCH   1  36
TORSDOF 9
ENDMDL
MODEL 2
REMARK VINA RESULT:      -5.8     14.886     15.864
REMARK  9 active torsions:
REMARK  status: ('A' for Active; 'I' for Inactive)
REMARK    1  A    between atoms: C_1  and  C_2 
REMARK    2  A    between atoms: C_2  and  O_3 
REMARK    3  A    between atoms: O_3  and  C_4 
REMARK    4  A    between atoms: C_4  and  C_6 
REMARK    5  A    between atoms: C_7  and  C_26 
REMARK    6  A    between atoms: C_11  and  N_15 
REMARK       I    between atoms: N_15  and  C_16 
REMARK    7  A    between atoms: C_16  and  C_18 
REMARK    8  A    between atoms: C_22  and  O_24 
REMARK    9  A    between atoms: O_24  and  C_25 
ROOT
ATOM      1  C   LIG d   1      10.864   5.464  -3.861  0.00  0.00     0.215 A 
ATOM      2  C   LIG d   1      10.619   5.136  -5.157  0.00  0.00     0.010 A 
ATOM      3  C   LIG d   1       9.825   3.962  -5.143  0.00  0.00     0.024 A 
ATOM      4  C   LIG d   1       9.265   3.162  -6.146  0.00  0.00    -0.049 A 
ATOM      5  C   LIG d   1       8.534   2.061  -5.808  0.00  0.00    -0.040 A 
ATOM      6  C   LIG d   1       8.330   1.733  -4.467  0.00  0.00     0.037 A 
ATOM      7  C   LIG d   1       8.877   2.514  -3.461  0.00  0.00     0.003 A 
ATOM      8  C   LIG d   1       9.628   3.634  -3.789  0.00  0.00     0.138 A 
ATOM      9  O   LIG d   1      10.269   4.562  -3.049  0.00  0.00    -0.448 OA
ATOM     10  H   LIG d   1       9.415   3.413  -7.186  0.00  0.00     0.062 H 
ATOM     11  H   LIG d   1       8.107   1.442  -6.583  0.00  0.00     0.064 H 
ATOM     12  H   LIG d   1       8.718   2.252  -2.425  0.00  0.00     0.067 H 
ENDROOT
BRANCH   6  13
ATOM     13  N   LIG d   1       7.574   0.607  -4.136  0.00  0.00    -0.281 N 
ATOM     14  C   LIG d   1       6.380   0.750  -3.528  0.00  0.00     0.248 C 
ATOM     15  O   LIG d   1       5.998   1.856  -3.192  0.00  0.00    -0.270 OA
ATOM     16  H   LIG d   1       7.909  -0.280  -4.345  0.00  0.00     0.155 HD
BRANCH  14  17
ATOM     17  C   LIG d   1       5.536  -0.434  -3.269  0.00  0.00     0.041 A 
ATOM     18  C   LIG d   1       5.523  -1.497  -4.173  0.00  0.00    -0.008 A 
ATOM     19  C   LIG d   1       4.725  -2.601  -3.927  0.00  0.00     0.121 A 
ATOM     20  H   LIG d   1       6.132  -1.456  -5.064  0.00  0.00     0.066 H 
ATOM     21  C   LIG d   1       3.947  -2.653  -2.778  0.00  0.00    -0.020 A 
ATOM     22  C   LIG d   1       3.962  -1.603  -1.879  0.00  0.00    -0.058 A 
ATOM     23  H   LIG d   1       3.328  -3.517  -2.586  0.00  0.00     0.065 H 
ATOM     24  C   LIG d   1       4.750  -0.496  -2.116  0.00  0.00    -0.049 A 
ATOM     25  H   LIG d   1       3.355  -1.650  -0.985  0.00  0.00     0.062 H 
ATOM     26  H   LIG d   1       4.759   0.323  -1.411  0.00  0.00     0.062 H 
BRANCH  19  27
ATOM     27  O   LIG d   1       4.706  -3.636  -4.807  0.00  0.00    -0.495 OA
BRANCH  27  28
ATOM     28  C   LIG d   1       4.732  -3.308  -6.197  0.00  0.00     0.079 C 
ATOM     29  H   LIG d   1       3.789  -3.602  -6.657  0.00  0.00     0.066 H 
ATOM     30  H   LIG d   1       5.553  -3.836  -6.680  0.00  0.00     0.066 H 
ATOM     31  H   LIG d   1       4.872  -2.233  -6.313  0.00  0.00     0.066 H 
ENDBRANCH  27  28
ENDBRANCH  19  27
ENDBRANCH  14  17
ENDBRANCH   6  13
BRANCH   2  32
ATOM     32  C   LIG d   1      11.099   5.881  -6.376  0.00  0.00    -0.035 C 
ATOM     33  H   LIG d   1      10.256   6.076  -7.040  0.00  0.00     0.028 H 
ATOM     34  H   LIG d   1      11.548   6.826  -6.072  0.00  0.00     0.028 H 
ATOM     35  H   LIG d   1      11.842   5.278  -6.900  0.00  0.00     0.028 H 
ENDBRANCH   2  32
BRANCH   1  36
ATOM     36  C   LIG d   1      11.650   6.617  -3.413  0.00  0.00     0.375 C 
ATOM     37  O   LIG d   1      12.826   6.480  -3.134  0.00  0.00    -0.241 OA
BRANCH  36  38
ATOM     38  O   LIG d   1      11.070   7.830  -3.311  0.00  0.00    -0.459 OA
BRANCH  38  39
ATOM     39  C   LIG d   1      10.861   8.350  -1.970  0.00  0.00     0.090 C 
ATOM     40  H   LIG d   1      11.687   8.043  -1.329  0.00  0.00     0.070 H 
ATOM     41  H   LIG d   1      10.813   9.438  -2.006  0.00  0.00     0.070 H 
BRANCH  39  42
ATOM     42  C   LIG d   1       9.548   7.800  -1.409  0.00  0.00    -0.031 C 
ATOM     43  H   LIG d   1       8.711   8.197  -1.985  0.00  0.00     0.026 H 
ATOM     44  H   LIG d   1       9.551   6.712  -1.476  0.00  0.00     0.026 H 
ATOM     45  H   LIG d   1       9.446   8.100  -0.365  0.00  0.00     0.026 H 
ENDBRANCH  39  42
ENDBRANCH  38  39
ENDBRANCH  36  38
ENDBRANCH   1  36
TORSDOF 9
ENDMDL
MODEL 3
REMARK VINA RESULT:      -5.8     13.730     15.042
REMARK  9 active torsions:
REMARK  status: ('A' for Active; 'I' for Inactive)
REMARK    1  A    between atoms: C_1  and  C_2 
REMARK    2  A    between atoms: C_2  and  O_3 
REMARK    3  A    between atoms: O_3  and  C_4 
REMARK    4  A    between atoms: C_4  and  C_6 
REMARK    5  A    between atoms: C_7  and  C_26 
REMARK    6  A    between atoms: C_11  and  N_15 
REMARK       I    between atoms: N_15  and  C_16 
REMARK    7  A    between atoms: C_16  and  C_18 
REMARK    8  A    between atoms: C_22  and  O_24 
REMARK    9  A    between atoms: O_24  and  C_25 
ROOT
ATOM      1  C   LIG d   1      10.444   4.894  -6.996  0.00  0.00     0.215 A 
ATOM      2  C   LIG d   1      10.878   4.870  -5.709  0.00  0.00     0.010 A 
ATOM      3  C   LIG d   1      10.194   3.811  -5.062  0.00  0.00     0.024 A 
ATOM      4  C   LIG d   1      10.215   3.300  -3.758  0.00  0.00    -0.049 A 
ATOM      5  C   LIG d   1       9.415   2.246  -3.429  0.00  0.00    -0.040 A 
ATOM      6  C   LIG d   1       8.584   1.664  -4.386  0.00  0.00     0.037 A 
ATOM      7  C   LIG d   1       8.550   2.156  -5.682  0.00  0.00     0.003 A 
ATOM      8  C   LIG d   1       9.354   3.232  -6.031  0.00  0.00     0.138 A 
ATOM      9  O   LIG d   1       9.534   3.913  -7.182  0.00  0.00    -0.448 OA
ATOM     10  H   LIG d   1      10.860   3.743  -3.014  0.00  0.00     0.062 H 
ATOM     11  H   LIG d   1       9.428   1.856  -2.422  0.00  0.00     0.064 H 
ATOM     12  H   LIG d   1       7.901   1.703  -6.416  0.00  0.00     0.067 H 
ENDROOT
BRANCH   6  13
ATOM     13  N   LIG d   1       7.775   0.581  -4.037  0.00  0.00    -0.281 N 
ATOM     14  C   LIG d   1       6.564   0.793  -3.486  0.00  0.00     0.248 C 
ATOM     15  O   LIG d   1       6.208   1.925  -3.217  0.00  0.00    -0.270 OA
ATOM     16  H   LIG d   1       8.086  -0.325  -4.191  0.00  0.00     0.155 HD
BRANCH  14  17
ATOM     17  C   LIG d   1       5.667  -0.348  -3.209  0.00  0.00     0.041 A 
ATOM     18  C   LIG d   1       5.651  -1.450  -4.066  0.00  0.00    -0.008 A 
ATOM     19  C   LIG d   1       4.804  -2.513  -3.803  0.00  0.00     0.121 A 
ATOM     20  H   LIG d   1       6.294  -1.471  -4.932  0.00  0.00     0.066 H 
ATOM     21  C   LIG d   1       3.981  -2.486  -2.685  0.00  0.00    -0.020 A 
ATOM     22  C   LIG d   1       3.999  -1.397  -1.833  0.00  0.00    -0.058 A 
ATOM     23  H   LIG d   1       3.324  -3.319  -2.481  0.00  0.00     0.065 H 
ATOM     24  C   LIG d   1       4.836  -0.331  -2.087  0.00  0.00    -0.049 A 
ATOM     25  H   LIG d   1       3.358  -1.383  -0.964  0.00  0.00     0.062 H 
ATOM     26  H   LIG d   1       4.848   0.518  -1.419  0.00  0.00     0.062 H 
BRANCH  19  27
ATOM     27  O   LIG d   1       4.782  -3.586  -4.637  0.00  0.00    -0.495 OA
BRANCH  27  28
ATOM     28  C   LIG d   1       4.774  -3.318  -6.040  0.00  0.00     0.079 C 
ATOM     29  H   LIG d   1       5.638  -2.705  -6.298  0.00  0.00     0.066 H 
ATOM     30  H   LIG d   1       3.860  -2.786  -6.304  0.00  0.00     0.066 H 
ATOM     31  H   LIG d   1       4.821  -4.258  -6.589  0.00  0.00     0.066 H 
ENDBRANCH  27  28
ENDBRANCH  19  27
ENDBRANCH  14  17
ENDBRANCH   6  13
BRANCH   2  32
ATOM     32  C   LIG d   1      11.894   5.795  -5.088  0.00  0.00    -0.035 C 
ATOM     33  H   LIG d   1      12.790   5.821  -5.709  0.00  0.00     0.028 H 
ATOM     34  H   LIG d   1      11.474   6.798  -5.013  0.00  0.00     0.028 H 
ATOM     35  H   LIG d   1      12.153   5.434  -4.093  0.00  0.00     0.028 H 
ENDBRANCH   2  32
BRANCH   1  36
ATOM     36  C   LIG d   1      10.894   5.836  -8.025  0.00  0.00     0.375 C 
ATOM     37  O   LIG d   1      11.950   5.651  -8.599  0.00  0.00    -0.241 OA
BRANCH  36  38
ATOM     38  O   LIG d   1      10.138   6.909  -8.334  0.00  0.00    -0.459 OA
BRANCH  38  39
ATOM     39  C   LIG d   1      10.408   8.138  -7.607  0.00  0.00     0.090 C 
ATOM     40  H   LIG d   1      11.342   8.035  -7.055  0.00  0.00     0.070 H 
ATOM     41  H   LIG d   1      10.492   8.965  -8.312  0.00  0.00     0.070 H 
BRANCH  39  42
ATOM     42  C   LIG d   1       9.264   8.413  -6.629  0.00  0.00    -0.031 C 
ATOM     43  H   LIG d   1       9.524   8.022  -5.646  0.00  0.00     0.026 H 
ATOM     44  H   LIG d   1       9.097   9.488  -6.560  0.00  0.00     0.026 H 
ATOM     45  H   LIG d   1       8.356   7.926  -6.986  0.00  0.00     0.026 H 
ENDBRANCH  39  42
ENDBRANCH  38  39
ENDBRANCH  36  38
ENDBRANCH   1  36
TORSDOF 9
ENDMDL
MODEL 4
REMARK VINA RESULT:      -5.8     15.340     16.697
REMARK  9 active torsions:
REMARK  status: ('A' for Active; 'I' for Inactive)
REMARK    1  A    between atoms: C_1  and  C_2 
REMARK    2  A    between atoms: C_2  and  O_3 
REMARK    3  A    between atoms: O_3  and  C_4 
REMARK    4  A    between atoms: C_4  and  C_6 
REMARK    5  A    between atoms: C_7  and  C_26 
REMARK    6  A    between atoms: C_11  and  N_15 
REMARK       I    between atoms: N_15  and  C_16 
REMARK    7  A    between atoms: C_16  and  C_18 
REMARK    8  A    between atoms: C_22  and  O_24 
REMARK    9  A    between atoms: O_24  and  C_25 
ROOT
ATOM      1  C   LIG d   1      11.383   6.021  -2.539  0.00  0.00     0.215 A 
ATOM      2  C   LIG d   1      10.916   6.131  -3.810  0.00  0.00     0.010 A 
ATOM      3  C   LIG d   1      10.266   4.911  -4.119  0.00  0.00     0.024 A 
ATOM      4  C   LIG d   1       9.600   4.428  -5.252  0.00  0.00    -0.049 A 
ATOM      5  C   LIG d   1       9.070   3.172  -5.246  0.00  0.00    -0.040 A 
ATOM      6  C   LIG d   1       9.177   2.366  -4.112  0.00  0.00     0.037 A 
ATOM      7  C   LIG d   1       9.832   2.826  -2.981  0.00  0.00     0.003 A 
ATOM      8  C   LIG d   1      10.382   4.100  -2.974  0.00  0.00     0.138 A 
ATOM      9  O   LIG d   1      11.061   4.805  -2.045  0.00  0.00    -0.448 OA
ATOM     10  H   LIG d   1       9.510   5.049  -6.131  0.00  0.00     0.062 H 
ATOM     11  H   LIG d   1       8.561   2.800  -6.123  0.00  0.00     0.064 H 
ATOM     12  H   LIG d   1       9.915   2.195  -2.109  0.00  0.00     0.067 H 
ENDROOT
BRANCH   6  13
ATOM     13  N   LIG d   1       8.624   1.084  -4.118  0.00  0.00    -0.281 N 
ATOM     14  C   LIG d   1       7.333   0.904  -3.774  0.00  0.00     0.248 C 
ATOM     15  O   LIG d   1       6.673   1.846  -3.380  0.00  0.00    -0.270 OA
ATOM     16  H   LIG d   1       9.169   0.322  -4.371  0.00  0.00     0.155 HD
BRANCH  14  17
ATOM     17  C   LIG d   1       6.720  -0.436  -3.878  0.00  0.00     0.041 A 
ATOM     18  C   LIG d   1       5.362  -0.608  -3.609  0.00  0.00    -0.008 A 
ATOM     19  C   LIG d   1       4.796  -1.868  -3.703  0.00  0.00     0.121 A 
ATOM     20  H   LIG d   1       4.755   0.238  -3.324  0.00  0.00     0.066 H 
ATOM     21  C   LIG d   1       5.577  -2.955  -4.074  0.00  0.00    -0.020 A 
ATOM     22  C   LIG d   1       6.922  -2.785  -4.346  0.00  0.00    -0.058 A 
ATOM     23  H   LIG d   1       5.131  -3.936  -4.150  0.00  0.00     0.065 H 
ATOM     24  C   LIG d   1       7.497  -1.535  -4.251  0.00  0.00    -0.049 A 
ATOM     25  H   LIG d   1       7.524  -3.634  -4.636  0.00  0.00     0.062 H 
ATOM     26  H   LIG d   1       8.548  -1.406  -4.464  0.00  0.00     0.062 H 
BRANCH  19  27
ATOM     27  O   LIG d   1       3.475  -2.041  -3.437  0.00  0.00    -0.495 OA
BRANCH  27  28
ATOM     28  C   LIG d   1       2.713  -0.870  -3.139  0.00  0.00     0.079 C 
ATOM     29  H   LIG d   1       2.479  -0.850  -2.074  0.00  0.00     0.066 H 
ATOM     30  H   LIG d   1       1.788  -0.882  -3.714  0.00  0.00     0.066 H 
ATOM     31  H   LIG d   1       3.293   0.016  -3.399  0.00  0.00     0.066 H 
ENDBRANCH  27  28
ENDBRANCH  19  27
ENDBRANCH  14  17
ENDBRANCH   6  13
BRANCH   2  32
ATOM     32  C   LIG d   1      11.060   7.326  -4.718  0.00  0.00    -0.035 C 
ATOM     33  H   LIG d   1      11.700   8.070  -4.243  0.00  0.00     0.028 H 
ATOM     34  H   LIG d   1      11.506   7.013  -5.662  0.00  0.00     0.028 H 
ATOM     35  H   LIG d   1      10.077   7.759  -4.907  0.00  0.00     0.028 H 
ENDBRANCH   2  32
BRANCH   1  36
ATOM     36  C   LIG d   1      12.121   7.061  -1.815  0.00  0.00     0.375 C 
ATOM     37  O   LIG d   1      13.334   7.009  -1.746  0.00  0.00    -0.241 OA
BRANCH  36  38
ATOM     38  O   LIG d   1      11.454   8.073  -1.224  0.00  0.00    -0.459 OA
BRANCH  38  39
ATOM     39  C   LIG d   1      10.501   7.719  -0.187  0.00  0.00     0.090 C 
ATOM     40  H   LIG d   1      10.014   8.622   0.183  0.00  0.00     0.070 H 
ATOM     41  H   LIG d   1       9.750   7.045  -0.600  0.00  0.00     0.070 H 
BRANCH  39  42
ATOM     42  C   LIG d   1      11.233   7.025   0.964  0.00  0.00    -0.031 C 
ATOM     43  H   LIG d   1      10.608   7.045   1.857  0.00  0.00     0.026 H 
ATOM     44  H   LIG d   1      11.442   5.991   0.690  0.00  0.00     0.026 H 
ATOM     45  H   LIG d   1      12.170   7.545   1.163  0.00  0.00     0.026 H 
ENDBRANCH  39  42
ENDBRANCH  38  39
ENDBRANCH  36  38
ENDBRANCH   1  36
TORSDOF 9
ENDMDL
MODEL 5
REMARK VINA RESULT:      -5.7     15.782     19.196
REMARK  9 active torsions:
REMARK  status: ('A' for Active; 'I' for Inactive)
REMARK    1  A    between atoms: C_1  and  C_2 
REMARK    2  A    between atoms: C_2  and  O_3 
REMARK    3  A    between atoms: O_3  and  C_4 
REMARK    4  A    between atoms: C_4  and  C_6 
REMARK    5  A    between atoms: C_7  and  C_26 
REMARK    6  A    between atoms: C_11  and  N_15 
REMARK       I    between atoms: N_15  and  C_16 
REMARK    7  A    between atoms: C_16  and  C_18 
REMARK    8  A    between atoms: C_22  and  O_24 
REMARK    9  A    between atoms: O_24  and  C_25 
ROOT
ATOM      1  C   LIG d   1       4.874  -8.871  -7.172  0.00  0.00     0.215 A 
ATOM      2  C   LIG d   1       4.921  -7.965  -8.184  0.00  0.00     0.010 A 
ATOM      3  C   LIG d   1       4.784  -6.683  -7.598  0.00  0.00     0.024 A 
ATOM      4  C   LIG d   1       4.757  -5.381  -8.113  0.00  0.00    -0.049 A 
ATOM      5  C   LIG d   1       4.601  -4.320  -7.270  0.00  0.00    -0.040 A 
ATOM      6  C   LIG d   1       4.480  -4.521  -5.895  0.00  0.00     0.037 A 
ATOM      7  C   LIG d   1       4.504  -5.803  -5.367  0.00  0.00     0.003 A 
ATOM      8  C   LIG d   1       4.656  -6.893  -6.212  0.00  0.00     0.138 A 
ATOM      9  O   LIG d   1       4.715  -8.224  -5.997  0.00  0.00    -0.448 OA
ATOM     10  H   LIG d   1       4.856  -5.218  -9.176  0.00  0.00     0.062 H 
ATOM     11  H   LIG d   1       4.576  -3.317  -7.670  0.00  0.00     0.064 H 
ATOM     12  H   LIG d   1       4.405  -5.951  -4.302  0.00  0.00     0.067 H 
ENDROOT
BRANCH   6  13
ATOM     13  N   LIG d   1       4.327  -3.425  -5.045  0.00  0.00    -0.281 N 
ATOM     14  C   LIG d   1       5.397  -2.913  -4.404  0.00  0.00     0.248 C 
ATOM     15  O   LIG d   1       6.481  -3.457  -4.502  0.00  0.00    -0.270 OA
ATOM     16  H   LIG d   1       3.450  -3.031  -4.915  0.00  0.00     0.155 HD
BRANCH  14  17
ATOM     17  C   LIG d   1       5.254  -1.692  -3.585  0.00  0.00     0.041 A 
ATOM     18  C   LIG d   1       5.992  -0.550  -3.895  0.00  0.00    -0.008 A 
ATOM     19  C   LIG d   1       5.856   0.589  -3.119  0.00  0.00     0.121 A 
ATOM     20  H   LIG d   1       6.670  -0.555  -4.736  0.00  0.00     0.066 H 
ATOM     21  C   LIG d   1       4.981   0.596  -2.042  0.00  0.00    -0.020 A 
ATOM     22  C   LIG d   1       4.245  -0.534  -1.736  0.00  0.00    -0.058 A 
ATOM     23  H   LIG d   1       4.874   1.486  -1.441  0.00  0.00     0.065 H 
ATOM     24  C   LIG d   1       4.375  -1.676  -2.500  0.00  0.00    -0.049 A 
ATOM     25  H   LIG d   1       3.564  -0.523  -0.897  0.00  0.00     0.062 H 
ATOM     26  H   LIG d   1       3.798  -2.557  -2.258  0.00  0.00     0.062 H 
BRANCH  19  27
ATOM     27  O   LIG d   1       6.577   1.703  -3.415  0.00  0.00    -0.495 OA
BRANCH  27  28
ATOM     28  C   LIG d   1       7.918   1.507  -3.868  0.00  0.00     0.079 C 
ATOM     29  H   LIG d   1       8.220   2.353  -4.486  0.00  0.00     0.066 H 
ATOM     30  H   LIG d   1       7.974   0.590  -4.454  0.00  0.00     0.066 H 
ATOM     31  H   LIG d   1       8.584   1.431  -3.008  0.00  0.00     0.066 H 
ENDBRANCH  27  28
ENDBRANCH  19  27
ENDBRANCH  14  17
ENDBRANCH   6  13
BRANCH   2  32
ATOM     32  C   LIG d   1       5.089  -8.268  -9.651  0.00  0.00    -0.035 C 
ATOM     33  H   LIG d   1       4.378  -7.677 -10.229  0.00  0.00     0.028 H 
ATOM     34  H   LIG d   1       6.104  -8.019  -9.960  0.00  0.00     0.028 H 
ATOM     35  H   LIG d   1       4.907  -9.329  -9.826  0.00  0.00     0.028 H 
ENDBRANCH   2  32
BRANCH   1  36
ATOM     36  C   LIG d   1       4.980 -10.325  -7.331  0.00  0.00     0.375 C 
ATOM     37  O   LIG d   1       4.083 -10.944  -7.870  0.00  0.00    -0.241 OA
BRANCH  36  38
ATOM     38  O   LIG d   1       6.071 -10.974  -6.878  0.00  0.00    -0.459 OA
BRANCH  38  39
ATOM     39  C   LIG d   1       5.845 -12.127  -6.023  0.00  0.00     0.090 C 
ATOM     40  H   LIG d   1       5.084 -12.767  -6.471  0.00  0.00     0.070 H 
ATOM     41  H   LIG d   1       6.774 -12.687  -5.917  0.00  0.00     0.070 H 
BRANCH  39  42
ATOM     42  C   LIG d   1       5.372 -11.656  -4.647  0.00  0.00    -0.031 C 
ATOM     43  H   LIG d   1       4.667 -10.833  -4.766  0.00  0.00     0.026 H 
ATOM     44  H   LIG d   1       4.882 -12.481  -4.129  0.00  0.00     0.026 H 
ATOM     45  H   LIG d   1       6.230 -11.319  -4.064  0.00  0.00     0.026 H 
ENDBRANCH  39  42
ENDBRANCH  38  39
ENDBRANCH  36  38
ENDBRANCH   1  36
TORSDOF 9
ENDMDL
MODEL 6
REMARK VINA RESULT:      -5.7     14.035     15.461
REMARK  9 active torsions:
REMARK  status: ('A' for Active; 'I' for Inactive)
REMARK    1  A    between atoms: C_1  and  C_2 
REMARK    2  A    between atoms: C_2  and  O_3 
REMARK    3  A    between atoms: O_3  and  C_4 
REMARK    4  A    between atoms: C_4  and  C_6 
REMARK    5  A    between atoms: C_7  and  C_26 
REMARK    6  A    between atoms: C_11  and  N_15 
REMARK       I    between atoms: N_15  and  C_16 
REMARK    7  A    between atoms: C_16  and  C_18 
REMARK    8  A    between atoms: C_22  and  O_24 
REMARK    9  A    between atoms: O_24  and  C_25 
ROOT
ATOM      1  C   LIG d   1       9.976   6.842  -4.944  0.00  0.00     0.215 A 
ATOM      2  C   LIG d   1      10.587   6.413  -3.809  0.00  0.00     0.010 A 
ATOM      3  C   LIG d   1      10.242   5.049  -3.644  0.00  0.00     0.024 A 
ATOM      4  C   LIG d   1      10.557   4.080  -2.683  0.00  0.00    -0.049 A 
ATOM      5  C   LIG d   1      10.052   2.819  -2.798  0.00  0.00    -0.040 A 
ATOM      6  C   LIG d   1       9.231   2.483  -3.875  0.00  0.00     0.037 A 
ATOM      7  C   LIG d   1       8.908   3.428  -4.836  0.00  0.00     0.003 A 
ATOM      8  C   LIG d   1       9.409   4.718  -4.729  0.00  0.00     0.138 A 
ATOM      9  O   LIG d   1       9.274   5.824  -5.489  0.00  0.00    -0.448 OA
ATOM     10  H   LIG d   1      11.196   4.334  -1.850  0.00  0.00     0.062 H 
ATOM     11  H   LIG d   1      10.292   2.075  -2.054  0.00  0.00     0.064 H 
ATOM     12  H   LIG d   1       8.268   3.161  -5.664  0.00  0.00     0.067 H 
ENDROOT
BRANCH   6  13
ATOM     13  N   LIG d   1       8.726   1.186  -3.983  0.00  0.00    -0.281 N 
ATOM     14  C   LIG d   1       7.427   0.942  -3.721  0.00  0.00     0.248 C 
ATOM     15  O   LIG d   1       6.713   1.837  -3.310  0.00  0.00    -0.270 OA
ATOM     16  H   LIG d   1       9.312   0.458  -4.248  0.00  0.00     0.155 HD
BRANCH  14  17
ATOM     17  C   LIG d   1       6.870  -0.410  -3.934  0.00  0.00     0.041 A 
ATOM     18  C   LIG d   1       5.521  -0.660  -3.678  0.00  0.00    -0.008 A 
ATOM     19  C   LIG d   1       5.008  -1.930  -3.874  0.00  0.00     0.121 A 
ATOM     20  H   LIG d   1       4.881   0.135  -3.324  0.00  0.00     0.066 H 
ATOM     21  C   LIG d   1       5.831  -2.949  -4.334  0.00  0.00    -0.020 A 
ATOM     22  C   LIG d   1       7.167  -2.702  -4.592  0.00  0.00    -0.058 A 
ATOM     23  H   LIG d   1       5.427  -3.938  -4.490  0.00  0.00     0.065 H 
ATOM     24  C   LIG d   1       7.690  -1.441  -4.396  0.00  0.00    -0.049 A 
ATOM     25  H   LIG d   1       7.803  -3.498  -4.951  0.00  0.00     0.062 H 
ATOM     26  H   LIG d   1       8.734  -1.251  -4.599  0.00  0.00     0.062 H 
BRANCH  19  27
ATOM     27  O   LIG d   1       3.696  -2.180  -3.622  0.00  0.00    -0.495 OA
BRANCH  27  28
ATOM     28  C   LIG d   1       2.921  -1.105  -3.088  0.00  0.00     0.079 C 
ATOM     29  H   LIG d   1       2.617  -0.439  -3.896  0.00  0.00     0.066 H 
ATOM     30  H   LIG d   1       3.520  -0.549  -2.366  0.00  0.00     0.066 H 
ATOM     31  H   LIG d   1       2.035  -1.506  -2.596  0.00  0.00     0.066 H 
ENDBRANCH  27  28
ENDBRANCH  19  27
ENDBRANCH  14  17
ENDBRANCH   6  13
BRANCH   2  32
ATOM     32  C   LIG d   1      11.466   7.233  -2.899  0.00  0.00    -0.035 C 
ATOM     33  H   LIG d   1      10.988   7.334  -1.924  0.00  0.00     0.028 H 
ATOM     34  H   LIG d   1      12.430   6.738  -2.782  0.00  0.00     0.028 H 
ATOM     35  H   LIG d   1      11.616   8.222  -3.333  0.00  0.00     0.028 H 
ENDBRANCH   2  32
BRANCH   1  36
ATOM     36  C   LIG d   1      10.065   8.199  -5.493  0.00  0.00     0.375 C 
ATOM     37  O   LIG d   1       9.539   9.127  -4.910  0.00  0.00    -0.241 OA
BRANCH  36  38
ATOM     38  O   LIG d   1      10.730   8.416  -6.646  0.00  0.00    -0.459 OA
BRANCH  38  39
ATOM     39  C   LIG d   1      10.053   9.208  -7.659  0.00  0.00     0.090 C 
ATOM     40  H   LIG d   1       9.681  10.130  -7.210  0.00  0.00     0.070 H 
ATOM     41  H   LIG d   1      10.753   9.450  -8.458  0.00  0.00     0.070 H 
BRANCH  39  42
ATOM     42  C   LIG d   1       8.880   8.409  -8.231  0.00  0.00    -0.031 C 
ATOM     43  H   LIG d   1       8.987   8.331  -9.313  0.00  0.00     0.026 H 
ATOM     44  H   LIG d   1       8.873   7.411  -7.793  0.00  0.00     0.026 H 
ATOM     45  H   LIG d   1       7.945   8.918  -7.993  0.00  0.00     0.026 H 
ENDBRANCH  39  42
ENDBRANCH  38  39
ENDBRANCH  36  38
ENDBRANCH   1  36
TORSDOF 9
ENDMDL
MODEL 7
REMARK VINA RESULT:      -5.4     10.222     12.853
REMARK  9 active torsions:
REMARK  status: ('A' for Active; 'I' for Inactive)
REMARK    1  A    between atoms: C_1  and  C_2 
REMARK    2  A    between atoms: C_2  and  O_3 
REMARK    3  A    between atoms: O_3  and  C_4 
REMARK    4  A    between atoms: C_4  and  C_6 
REMARK    5  A    between atoms: C_7  and  C_26 
REMARK    6  A    between atoms: C_11  and  N_15 
REMARK       I    between atoms: N_15  and  C_16 
REMARK    7  A    between atoms: C_16  and  C_18 
REMARK    8  A    between atoms: C_22  and  O_24 
REMARK    9  A    between atoms: O_24  and  C_25 
ROOT
ATOM      1  C   LIG d   1       4.160  -0.601 -12.876  0.00  0.00     0.215 A 
ATOM      2  C   LIG d   1       2.958  -1.098 -12.483  0.00  0.00     0.010 A 
ATOM      3  C   LIG d   1       2.833  -0.830 -11.097  0.00  0.00     0.024 A 
ATOM      4  C   LIG d   1       1.839  -1.092 -10.147  0.00  0.00    -0.049 A 
ATOM      5  C   LIG d   1       2.017  -0.703  -8.852  0.00  0.00    -0.040 A 
ATOM      6  C   LIG d   1       3.179  -0.034  -8.469  0.00  0.00     0.037 A 
ATOM      7  C   LIG d   1       4.175   0.235  -9.395  0.00  0.00     0.003 A 
ATOM      8  C   LIG d   1       4.011  -0.159 -10.716  0.00  0.00     0.138 A 
ATOM      9  O   LIG d   1       4.784  -0.041 -11.815  0.00  0.00    -0.448 OA
ATOM     10  H   LIG d   1       0.935  -1.606 -10.438  0.00  0.00     0.062 H 
ATOM     11  H   LIG d   1       1.251  -0.911  -8.119  0.00  0.00     0.064 H 
ATOM     12  H   LIG d   1       5.073   0.750  -9.091  0.00  0.00     0.067 H 
ENDROOT
BRANCH   6  13
ATOM     13  N   LIG d   1       3.345   0.364  -7.141  0.00  0.00    -0.281 N 
ATOM     14  C   LIG d   1       3.873  -0.488  -6.241  0.00  0.00     0.248 C 
ATOM     15  O   LIG d   1       4.130  -1.632  -6.567  0.00  0.00    -0.270 OA
ATOM     16  H   LIG d   1       3.079   1.256  -6.866  0.00  0.00     0.155 HD
BRANCH  14  17
ATOM     17  C   LIG d   1       4.142  -0.034  -4.861  0.00  0.00     0.041 A 
ATOM     18  C   LIG d   1       5.437   0.320  -4.480  0.00  0.00    -0.008 A 
ATOM     19  C   LIG d   1       5.683   0.740  -3.184  0.00  0.00     0.121 A 
ATOM     20  H   LIG d   1       6.246   0.263  -5.193  0.00  0.00     0.066 H 
ATOM     21  C   LIG d   1       4.641   0.817  -2.270  0.00  0.00    -0.020 A 
ATOM     22  C   LIG d   1       3.356   0.471  -2.647  0.00  0.00    -0.058 A 
ATOM     23  H   LIG d   1       4.835   1.148  -1.260  0.00  0.00     0.065 H 
ATOM     24  C   LIG d   1       3.101   0.048  -3.935  0.00  0.00    -0.049 A 
ATOM     25  H   LIG d   1       2.549   0.534  -1.932  0.00  0.00     0.062 H 
ATOM     26  H   LIG d   1       2.096  -0.222  -4.226  0.00  0.00     0.062 H 
BRANCH  19  27
ATOM     27  O   LIG d   1       6.943   1.081  -2.807  0.00  0.00    -0.495 OA
BRANCH  27  28
ATOM     28  C   LIG d   1       7.784   1.664  -3.804  0.00  0.00     0.079 C 
ATOM     29  H   LIG d   1       8.663   2.099  -3.329  0.00  0.00     0.066 H 
ATOM     30  H   LIG d   1       7.234   2.442  -4.333  0.00  0.00     0.066 H 
ATOM     31  H   LIG d   1       8.096   0.894  -4.510  0.00  0.00     0.066 H 
ENDBRANCH  27  28
ENDBRANCH  19  27
ENDBRANCH  14  17
ENDBRANCH   6  13
BRANCH   2  32
ATOM     32  C   LIG d   1       1.950  -1.801 -13.355  0.00  0.00    -0.035 C 
ATOM     33  H   LIG d   1       2.290  -2.817 -13.559  0.00  0.00     0.028 H 
ATOM     34  H   LIG d   1       0.988  -1.835 -12.844  0.00  0.00     0.028 H 
ATOM     35  H   LIG d   1       1.843  -1.259 -14.295  0.00  0.00     0.028 H 
ENDBRANCH   2  32
BRANCH   1  36
ATOM     36  C   LIG d   1       4.696  -0.660 -14.239  0.00  0.00     0.375 C 
ATOM     37  O   LIG d   1       5.705  -1.299 -14.468  0.00  0.00    -0.241 OA
BRANCH  36  38
ATOM     38  O   LIG d   1       4.072  -0.004 -15.238  0.00  0.00    -0.459 OA
BRANCH  38  39
ATOM     39  C   LIG d   1       4.872   0.345 -16.399  0.00  0.00     0.090 C 
ATOM     40  H   LIG d   1       5.917   0.442 -16.104  0.00  0.00     0.070 H 
ATOM     41  H   LIG d   1       4.778  -0.436 -17.153  0.00  0.00     0.070 H 
BRANCH  39  42
ATOM     42  C   LIG d   1       4.380   1.674 -16.977  0.00  0.00    -0.031 C 
ATOM     43  H   LIG d   1       3.317   1.600 -17.205  0.00  0.00     0.026 H 
ATOM     44  H   LIG d   1       4.541   2.469 -16.249  0.00  0.00     0.026 H 
ATOM     45  H   LIG d   1       4.933   1.899 -17.890  0.00  0.00     0.026 H 
ENDBRANCH  39  42
ENDBRANCH  38  39
ENDBRANCH  36  38
ENDBRANCH   1  36
TORSDOF 9
ENDMDL
MODEL 8
REMARK VINA RESULT:      -5.4     10.495     13.740
REMARK  9 active torsions:
REMARK  status: ('A' for Active; 'I' for Inactive)
REMARK    1  A    between atoms: C_1  and  C_2 
REMARK    2  A    between atoms: C_2  and  O_3 
REMARK    3  A    between atoms: O_3  and  C_4 
REMARK    4  A    between atoms: C_4  and  C_6 
REMARK    5  A    between atoms: C_7  and  C_26 
REMARK    6  A    between atoms: C_11  and  N_15 
REMARK       I    between atoms: N_15  and  C_16 
REMARK    7  A    between atoms: C_16  and  C_18 
REMARK    8  A    between atoms: C_22  and  O_24 
REMARK    9  A    between atoms: O_24  and  C_25 
ROOT
ATOM      1  C   LIG d   1       4.241  -1.280  -4.871  0.00  0.00     0.215 A 
ATOM      2  C   LIG d   1       3.484  -0.193  -5.175  0.00  0.00     0.010 A 
ATOM      3  C   LIG d   1       3.468  -0.083  -6.587  0.00  0.00     0.024 A 
ATOM      4  C   LIG d   1       2.870   0.814  -7.481  0.00  0.00    -0.049 A 
ATOM      5  C   LIG d   1       3.049   0.655  -8.824  0.00  0.00    -0.040 A 
ATOM      6  C   LIG d   1       3.813  -0.403  -9.315  0.00  0.00     0.037 A 
ATOM      7  C   LIG d   1       4.413  -1.302  -8.446  0.00  0.00     0.003 A 
ATOM      8  C   LIG d   1       4.245  -1.150  -7.076  0.00  0.00     0.138 A 
ATOM      9  O   LIG d   1       4.693  -1.847  -6.011  0.00  0.00    -0.448 OA
ATOM     10  H   LIG d   1       2.273   1.632  -7.108  0.00  0.00     0.062 H 
ATOM     11  H   LIG d   1       2.591   1.350  -9.512  0.00  0.00     0.064 H 
ATOM     12  H   LIG d   1       5.007  -2.116  -8.833  0.00  0.00     0.067 H 
ENDROOT
BRANCH   6  13
ATOM     13  N   LIG d   1       3.982  -0.557 -10.692  0.00  0.00    -0.281 N 
ATOM     14  C   LIG d   1       3.039  -1.185 -11.422  0.00  0.00     0.248 C 
ATOM     15  O   LIG d   1       2.080  -1.691 -10.869  0.00  0.00    -0.270 OA
ATOM     16  H   LIG d   1       4.778  -0.210 -11.125  0.00  0.00     0.155 HD
BRANCH  14  17
ATOM     17  C   LIG d   1       3.168  -1.258 -12.892  0.00  0.00     0.041 A 
ATOM     18  C   LIG d   1       4.237  -0.631 -13.533  0.00  0.00    -0.008 A 
ATOM     19  C   LIG d   1       4.349  -0.699 -14.912  0.00  0.00     0.121 A 
ATOM     20  H   LIG d   1       4.972  -0.090 -12.956  0.00  0.00     0.066 H 
ATOM     21  C   LIG d   1       3.405  -1.399 -15.651  0.00  0.00    -0.020 A 
ATOM     22  C   LIG d   1       2.348  -2.025 -15.017  0.00  0.00    -0.058 A 
ATOM     23  H   LIG d   1       3.496  -1.454 -16.726  0.00  0.00     0.065 H 
ATOM     24  C   LIG d   1       2.224  -1.960 -13.644  0.00  0.00    -0.049 A 
ATOM     25  H   LIG d   1       1.617  -2.570 -15.597  0.00  0.00     0.062 H 
ATOM     26  H   LIG d   1       1.397  -2.451 -13.152  0.00  0.00     0.062 H 
BRANCH  19  27
ATOM     27  O   LIG d   1       5.385  -0.085 -15.541  0.00  0.00    -0.495 OA
BRANCH  27  28
ATOM     28  C   LIG d   1       5.143   0.408 -16.859  0.00  0.00     0.079 C 
ATOM     29  H   LIG d   1       5.251  -0.405 -17.578  0.00  0.00     0.066 H 
ATOM     30  H   LIG d   1       5.862   1.195 -17.090  0.00  0.00     0.066 H 
ATOM     31  H   LIG d   1       4.132   0.810 -16.917  0.00  0.00     0.066 H 
ENDBRANCH  27  28
ENDBRANCH  19  27
ENDBRANCH  14  17
ENDBRANCH   6  13
BRANCH   2  32
ATOM     32  C   LIG d   1       2.793   0.721  -4.196  0.00  0.00    -0.035 C 
ATOM     33  H   LIG d   1       3.428   1.582  -3.991  0.00  0.00     0.028 H 
ATOM     34  H   LIG d   1       1.847   1.058  -4.619  0.00  0.00     0.028 H 
ATOM     35  H   LIG d   1       2.603   0.181  -3.267  0.00  0.00     0.028 H 
ENDBRANCH   2  32
BRANCH   1  36
ATOM     36  C   LIG d   1       4.524  -1.763  -3.516  0.00  0.00     0.375 C 
ATOM     37  O   LIG d   1       3.918  -2.720  -3.073  0.00  0.00    -0.241 OA
BRANCH  36  38
ATOM     38  O   LIG d   1       5.454  -1.145  -2.759  0.00  0.00    -0.459 OA
BRANCH  38  39
ATOM     39  C   LIG d   1       6.651  -0.679  -3.437  0.00  0.00     0.090 C 
ATOM     40  H   LIG d   1       7.532  -1.056  -2.917  0.00  0.00     0.070 H 
ATOM     41  H   LIG d   1       6.651  -1.042  -4.465  0.00  0.00     0.070 H 
BRANCH  39  42
ATOM     42  C   LIG d   1       6.674   0.851  -3.437  0.00  0.00    -0.031 C 
ATOM     43  H   LIG d   1       7.582   1.202  -3.928  0.00  0.00     0.026 H 
ATOM     44  H   LIG d   1       5.802   1.227  -3.973  0.00  0.00     0.026 H 
ATOM     45  H   LIG d   1       6.653   1.214  -2.409  0.00  0.00     0.026 H 
ENDBRANCH  39  42
ENDBRANCH  38  39
ENDBRANCH  36  38
ENDBRANCH   1  36
TORSDOF 9
ENDMDL
MODEL 9
REMARK VINA RESULT:      -5.3     22.806     25.914
REMARK  9 active torsions:
REMARK  status: ('A' for Active; 'I' for Inactive)
REMARK    1  A    between atoms: C_1  and  C_2 
REMARK    2  A    between atoms: C_2  and  O_3 
REMARK    3  A    between atoms: O_3  and  C_4 
REMARK    4  A    between atoms: C_4  and  C_6 
REMARK    5  A    between atoms: C_7  and  C_26 
REMARK    6  A    between atoms: C_11  and  N_15 
REMARK       I    between atoms: N_15  and  C_16 
REMARK    7  A    between atoms: C_16  and  C_18 
REMARK    8  A    between atoms: C_22  and  O_24 
REMARK    9  A    between atoms: O_24  and  C_25 
ROOT
ATOM      1  C   LIG d   1      11.640  -9.009   2.154  0.00  0.00     0.215 A 
ATOM      2  C   LIG d   1      11.620 -10.364   2.255  0.00  0.00     0.010 A 
ATOM      3  C   LIG d   1      10.746 -10.841   1.248  0.00  0.00     0.024 A 
ATOM      4  C   LIG d   1      10.324 -12.118   0.858  0.00  0.00    -0.049 A 
ATOM      5  C   LIG d   1       9.447 -12.257  -0.176  0.00  0.00    -0.040 A 
ATOM      6  C   LIG d   1       8.974 -11.136  -0.858  0.00  0.00     0.037 A 
ATOM      7  C   LIG d   1       9.379  -9.863  -0.486  0.00  0.00     0.003 A 
ATOM      8  C   LIG d   1      10.268  -9.705   0.568  0.00  0.00     0.138 A 
ATOM      9  O   LIG d   1      10.830  -8.622   1.144  0.00  0.00    -0.448 OA
ATOM     10  H   LIG d   1      10.691 -12.990   1.378  0.00  0.00     0.062 H 
ATOM     11  H   LIG d   1       9.118 -13.243  -0.473  0.00  0.00     0.064 H 
ATOM     12  H   LIG d   1       9.006  -9.000  -1.016  0.00  0.00     0.067 H 
ENDROOT
BRANCH   6  13
ATOM     13  N   LIG d   1       8.080 -11.294  -1.919  0.00  0.00    -0.281 N 
ATOM     14  C   LIG d   1       6.757 -11.140  -1.716  0.00  0.00     0.248 C 
ATOM     15  O   LIG d   1       6.334 -10.943  -0.593  0.00  0.00    -0.270 OA
ATOM     16  H   LIG d   1       8.413 -11.516  -2.803  0.00  0.00     0.155 HD
BRANCH  14  17
ATOM     17  C   LIG d   1       5.821 -11.207  -2.857  0.00  0.00     0.041 A 
ATOM     18  C   LIG d   1       6.211 -11.823  -4.048  0.00  0.00    -0.008 A 
ATOM     19  C   LIG d   1       5.331 -11.878  -5.115  0.00  0.00     0.121 A 
ATOM     20  H   LIG d   1       7.198 -12.251  -4.137  0.00  0.00     0.066 H 
ATOM     21  C   LIG d   1       4.060 -11.330  -4.996  0.00  0.00    -0.020 A 
ATOM     22  C   LIG d   1       3.671 -10.724  -3.816  0.00  0.00    -0.058 A 
ATOM     23  H   LIG d   1       3.374 -11.378  -5.829  0.00  0.00     0.065 H 
ATOM     24  C   LIG d   1       4.541 -10.660  -2.748  0.00  0.00    -0.049 A 
ATOM     25  H   LIG d   1       2.680 -10.301  -3.729  0.00  0.00     0.062 H 
ATOM     26  H   LIG d   1       4.234 -10.186  -1.827  0.00  0.00     0.062 H 
BRANCH  19  27
ATOM     27  O   LIG d   1       5.708 -12.472  -6.277  0.00  0.00    -0.495 OA
BRANCH  27  28
ATOM     28  C   LIG d   1       4.671 -12.808  -7.201  0.00  0.00     0.079 C 
ATOM     29  H   LIG d   1       5.038 -13.557  -7.903  0.00  0.00     0.066 H 
ATOM     30  H   LIG d   1       4.367 -11.916  -7.747  0.00  0.00     0.066 H 
ATOM     31  H   LIG d   1       3.817 -13.210  -6.656  0.00  0.00     0.066 H 
ENDBRANCH  27  28
ENDBRANCH  19  27
ENDBRANCH  14  17
ENDBRANCH   6  13
BRANCH   2  32
ATOM     32  C   LIG d   1      12.384 -11.199   3.250  0.00  0.00    -0.035 C 
ATOM     33  H   LIG d   1      13.151 -10.588   3.727  0.00  0.00     0.028 H 
ATOM     34  H   LIG d   1      11.699 -11.579   4.008  0.00  0.00     0.028 H 
ATOM     35  H   LIG d   1      12.856 -12.037   2.735  0.00  0.00     0.028 H 
ENDBRANCH   2  32
BRANCH   1  36
ATOM     36  C   LIG d   1      12.420  -8.107   3.007  0.00  0.00     0.375 C 
ATOM     37  O   LIG d   1      12.040  -7.858   4.135  0.00  0.00    -0.241 OA
BRANCH  36  38
ATOM     38  O   LIG d   1      13.557  -7.553   2.540  0.00  0.00    -0.459 OA
BRANCH  38  39
ATOM     39  C   LIG d   1      14.807  -8.162   2.958  0.00  0.00     0.090 C 
ATOM     40  H   LIG d   1      15.544  -7.381   3.152  0.00  0.00     0.070 H 
ATOM     41  H   LIG d   1      14.643  -8.740   3.868  0.00  0.00     0.070 H 
BRANCH  39  42
ATOM     42  C   LIG d   1      15.321  -9.085   1.852  0.00  0.00    -0.031 C 
ATOM     43  H   LIG d   1      16.408  -9.027   1.804  0.00  0.00     0.026 H 
ATOM     44  H   LIG d   1      15.021 -10.111   2.066  0.00  0.00     0.026 H 
ATOM     45  H   LIG d   1      14.898  -8.775   0.895  0.00  0.00     0.026 H 
ENDBRANCH  39  42
ENDBRANCH  38  39
ENDBRANCH  36  38
ENDBRANCH   1  36
TORSDOF 9
ENDMDL
