MODEL 1
REMARK VINA RESULT:      -6.6      0.000      0.000
REMARK  13 active torsions:
REMARK  status: ('A' for Active; 'I' for Inactive)
REMARK    1  A    between atoms: C_1  and  C_2 
REMARK    2  A    between atoms: C_19  and  C_21 
REMARK    3  A    between atoms: C_21  and  N_22 
REMARK    4  A    between atoms: N_22  and  C_23 
REMARK    5  A    between atoms: N_22  and  C_32 
REMARK    6  A    between atoms: C_23  and  C_24 
REMARK    7  A    between atoms: C_24  and  C_25 
REMARK    8  A    between atoms: C_25  and  N_26 
REMARK    9  A    between atoms: C_32  and  C_33 
REMARK   10  A    between atoms: C_37  and  O_41 
REMARK   11  A    between atoms: C_38  and  O_39 
REMARK   12  A    between atoms: O_39  and  C_40 
REMARK   13  A    between atoms: O_41  and  C_42 
ROOT
ATOM      1  N   LIG d   1       6.334  -3.723  -5.665  0.00  0.00    -0.297 N 
ENDROOT
BRANCH   1   2
ATOM      2  C   LIG d   1       6.452  -5.178  -5.498  0.00  0.00     0.013 C 
ATOM      3  H   LIG d   1       5.978  -5.476  -4.564  0.00  0.00     0.043 H 
ATOM      4  H   LIG d   1       7.506  -5.457  -5.476  0.00  0.00     0.043 H 
BRANCH   2   5
ATOM      5  C   LIG d   1       5.764  -5.883  -6.668  0.00  0.00     0.075 C 
ATOM      6  C   LIG d   1       6.309  -7.334  -6.831  0.00  0.00     0.011 C 
ATOM      7  C   LIG d   1       6.853  -7.749  -5.461  0.00  0.00    -0.039 C 
ATOM      8  H   LIG d   1       7.055  -7.422  -7.621  0.00  0.00     0.035 H 
ATOM      9  C   LIG d   1       5.005  -8.085  -7.158  0.00  0.00     0.107 C 
ATOM     10  C   LIG d   1       6.979  -9.267  -5.374  0.00  0.00    -0.014 C 
ATOM     11  H   LIG d   1       6.174  -7.398  -4.684  0.00  0.00     0.028 H 
ATOM     12  H   LIG d   1       7.834  -7.298  -5.312  0.00  0.00     0.028 H 
ATOM     13  C   LIG d   1       5.574  -9.871  -5.505  0.00  0.00    -0.022 C 
ATOM     14  C   LIG d   1       7.536  -9.651  -4.022  0.00  0.00    -0.073 C 
ATOM     15  H   LIG d   1       7.622  -9.642  -6.170  0.00  0.00     0.035 H 
ATOM     16  C   LIG d   1       5.060  -9.560  -6.911  0.00  0.00    -0.009 C 
ATOM     17  C   LIG d   1       5.652 -11.380  -5.279  0.00  0.00    -0.047 C 
ATOM     18  H   LIG d   1       5.730 -10.010  -7.644  0.00  0.00     0.031 H 
ATOM     19  H   LIG d   1       4.064  -9.986  -7.030  0.00  0.00     0.031 H 
ATOM     20  C   LIG d   1       6.106 -11.662  -3.845  0.00  0.00    -0.049 C 
ATOM     21  H   LIG d   1       4.670 -11.823  -5.442  0.00  0.00     0.027 H 
ATOM     22  H   LIG d   1       6.367 -11.815  -5.977  0.00  0.00     0.027 H 
ATOM     23  C   LIG d   1       7.521 -11.113  -3.636  0.00  0.00    -0.032 C 
ATOM     24  H   LIG d   1       5.423 -11.180  -3.146  0.00  0.00     0.027 H 
ATOM     25  H   LIG d   1       6.104 -12.738  -3.669  0.00  0.00     0.027 H 
ATOM     26  H   LIG d   1       7.801 -11.218  -2.587  0.00  0.00     0.031 H 
ATOM     27  H   LIG d   1       8.223 -11.664  -4.261  0.00  0.00     0.031 H 
ATOM     28  C   LIG d   1       8.017  -8.743  -3.209  0.00  0.00    -0.099 C 
ATOM     29  H   LIG d   1       8.412  -9.035  -2.247  0.00  0.00     0.053 H 
ATOM     30  H   LIG d   1       8.021  -7.704  -3.501  0.00  0.00     0.053 H 
ATOM     31  H   LIG d   1       4.753  -7.916  -8.206  0.00  0.00     0.074 H 
ATOM     32  O   LIG d   1       4.024  -7.441  -6.335  0.00  0.00    -0.461 OA
ATOM     33  C   LIG d   1       4.269  -6.113  -6.378  0.00  0.00     0.312 C 
ATOM     34  O   LIG d   1       3.448  -5.241  -6.215  0.00  0.00    -0.251 OA
ATOM     35  H   LIG d   1       5.899  -5.317  -7.591  0.00  0.00     0.043 H 
BRANCH  13  36
ATOM     36  C   LIG d   1       4.643  -9.242  -4.467  0.00  0.00    -0.059 C 
ATOM     37  H   LIG d   1       4.317  -8.264  -4.817  0.00  0.00     0.024 H 
ATOM     38  H   LIG d   1       3.775  -9.885  -4.321  0.00  0.00     0.024 H 
ATOM     39  H   LIG d   1       5.176  -9.132  -3.523  0.00  0.00     0.024 H 
ENDBRANCH  13  36
ENDBRANCH   2   5
ENDBRANCH   1   2
BRANCH   1  40
ATOM     40  C   LIG d   1       6.903  -3.292  -6.949  0.00  0.00     0.000 C 
ATOM     41  H   LIG d   1       7.957  -3.050  -6.816  0.00  0.00     0.043 H 
ATOM     42  H   LIG d   1       6.803  -4.096  -7.678  0.00  0.00     0.043 H 
BRANCH  40  43
ATOM     43  C   LIG d   1       6.155  -2.055  -7.449  0.00  0.00    -0.027 C 
ATOM     44  H   LIG d   1       6.040  -1.345  -6.630  0.00  0.00     0.029 H 
ATOM     45  H   LIG d   1       6.720  -1.590  -8.256  0.00  0.00     0.029 H 
BRANCH  43  46
ATOM     46  C   LIG d   1       4.775  -2.466  -7.964  0.00  0.00     0.000 C 
ATOM     47  H   LIG d   1       4.829  -2.654  -9.037  0.00  0.00     0.043 H 
ATOM     48  H   LIG d   1       4.451  -3.373  -7.453  0.00  0.00     0.043 H 
BRANCH  46  49
ATOM     49  N   LIG d   1       3.812  -1.388  -7.704  0.00  0.00    -0.298 N 
ATOM     50  C   LIG d   1       4.057  -0.768  -6.393  0.00  0.00     0.022 C 
ATOM     51  C   LIG d   1       2.998   0.306  -6.136  0.00  0.00     0.060 C 
ATOM     52  H   LIG d   1       4.000  -1.530  -5.614  0.00  0.00     0.045 H 
ATOM     53  H   LIG d   1       5.047  -0.313  -6.384  0.00  0.00     0.045 H 
ATOM     54  O   LIG d   1       3.027   1.261  -7.201  0.00  0.00    -0.377 OA
ATOM     55  H   LIG d   1       3.208   0.807  -5.191  0.00  0.00     0.057 H 
ATOM     56  H   LIG d   1       2.012  -0.158  -6.091  0.00  0.00     0.057 H 
ATOM     57  C   LIG d   1       2.792   0.692  -8.491  0.00  0.00     0.060 C 
ATOM     58  C   LIG d   1       3.849  -0.378  -8.772  0.00  0.00     0.022 C 
ATOM     59  H   LIG d   1       2.854   1.473  -9.250  0.00  0.00     0.057 H 
ATOM     60  H   LIG d   1       1.800   0.240  -8.514  0.00  0.00     0.057 H 
ATOM     61  H   LIG d   1       4.836   0.084  -8.801  0.00  0.00     0.045 H 
ATOM     62  H   LIG d   1       3.640  -0.854  -9.730  0.00  0.00     0.045 H 
ENDBRANCH  46  49
ENDBRANCH  43  46
ENDBRANCH  40  43
ENDBRANCH   1  40
BRANCH   1  63
ATOM     63  C   LIG d   1       6.964  -3.012  -4.545  0.00  0.00     0.028 C 
ATOM     64  H   LIG d   1       7.481  -3.727  -3.905  0.00  0.00     0.048 H 
ATOM     65  H   LIG d   1       7.679  -2.286  -4.931  0.00  0.00     0.048 H 
BRANCH  63  66
ATOM     66  C   LIG d   1       5.906  -2.297  -3.745  0.00  0.00     0.012 A 
ATOM     67  C   LIG d   1       6.111  -0.989  -3.338  0.00  0.00     0.166 A 
ATOM     68  C   LIG d   1       5.130  -0.329  -2.602  0.00  0.00     0.162 A 
ATOM     69  C   LIG d   1       3.957  -0.987  -2.273  0.00  0.00    -0.016 A 
ATOM     70  C   LIG d   1       3.761  -2.295  -2.678  0.00  0.00    -0.058 A 
ATOM     71  H   LIG d   1       3.195  -0.479  -1.700  0.00  0.00     0.066 H 
ATOM     72  C   LIG d   1       4.732  -2.948  -3.412  0.00  0.00    -0.054 A 
ATOM     73  H   LIG d   1       2.845  -2.807  -2.419  0.00  0.00     0.062 H 
ATOM     74  H   LIG d   1       4.575  -3.969  -3.726  0.00  0.00     0.062 H 
BRANCH  67  75
ATOM     75  O   LIG d   1       7.268  -0.348  -3.659  0.00  0.00    -0.491 OA
BRANCH  75  76
ATOM     76  C   LIG d   1       7.260   0.445  -4.848  0.00  0.00     0.079 C 
ATOM     77  H   LIG d   1       7.022  -0.186  -5.705  0.00  0.00     0.066 H 
ATOM     78  H   LIG d   1       6.511   1.231  -4.756  0.00  0.00     0.066 H 
ATOM     79  H   LIG d   1       8.243   0.895  -4.990  0.00  0.00     0.066 H 
ENDBRANCH  75  76
ENDBRANCH  67  75
BRANCH  68  80
ATOM     80  O   LIG d   1       5.325   0.957  -2.206  0.00  0.00    -0.491 OA
BRANCH  80  81
ATOM     81  C   LIG d   1       4.273   1.885  -2.479  0.00  0.00     0.079 C 
ATOM     82  H   LIG d   1       3.796   2.180  -1.544  0.00  0.00     0.066 H 
ATOM     83  H   LIG d   1       4.686   2.768  -2.970  0.00  0.00     0.066 H 
ATOM     84  H   LIG d   1       3.536   1.418  -3.132  0.00  0.00     0.066 H 
ENDBRANCH  80  81
ENDBRANCH  68  80
ENDBRANCH  63  66
ENDBRANCH   1  63
TORSDOF 13
ENDMDL
MODEL 2
REMARK VINA RESULT:      -6.6      3.381      7.228
REMARK  13 active torsions:
REMARK  status: ('A' for Active; 'I' for Inactive)
REMARK    1  A    between atoms: C_1  and  C_2 
REMARK    2  A    between atoms: C_19  and  C_21 
REMARK    3  A    between atoms: C_21  and  N_22 
REMARK    4  A    between atoms: N_22  and  C_23 
REMARK    5  A    between atoms: N_22  and  C_32 
REMARK    6  A    between atoms: C_23  and  C_24 
REMARK    7  A    between atoms: C_24  and  C_25 
REMARK    8  A    between atoms: C_25  and  N_26 
REMARK    9  A    between atoms: C_32  and  C_33 
REMARK   10  A    between atoms: C_37  and  O_41 
REMARK   11  A    between atoms: C_38  and  O_39 
REMARK   12  A    between atoms: O_39  and  C_40 
REMARK   13  A    between atoms: O_41  and  C_42 
ROOT
ATOM      1  N   LIG d   1       4.060  -3.970  -8.687  0.00  0.00    -0.297 N 
ENDROOT
BRANCH   1   2
ATOM      2  C   LIG d   1       3.921  -3.571  -7.280  0.00  0.00     0.013 C 
ATOM      3  H   LIG d   1       3.154  -4.182  -6.804  0.00  0.00     0.043 H 
ATOM      4  H   LIG d   1       3.634  -2.521  -7.227  0.00  0.00     0.043 H 
BRANCH   2   5
ATOM      5  C   LIG d   1       5.255  -3.771  -6.560  0.00  0.00     0.075 C 
ATOM      6  C   LIG d   1       5.731  -2.439  -5.907  0.00  0.00     0.011 C 
ATOM      7  C   LIG d   1       4.474  -1.593  -5.682  0.00  0.00    -0.039 C 
ATOM      8  H   LIG d   1       6.483  -1.919  -6.500  0.00  0.00     0.035 H 
ATOM      9  C   LIG d   1       6.286  -2.967  -4.570  0.00  0.00     0.107 C 
ATOM     10  C   LIG d   1       4.742  -0.500  -4.652  0.00  0.00    -0.014 C 
ATOM     11  H   LIG d   1       3.669  -2.234  -5.326  0.00  0.00     0.028 H 
ATOM     12  H   LIG d   1       4.178  -1.133  -6.625  0.00  0.00     0.028 H 
ATOM     13  C   LIG d   1       5.078  -1.175  -3.315  0.00  0.00    -0.022 C 
ATOM     14  C   LIG d   1       3.495   0.333  -4.463  0.00  0.00    -0.073 C 
ATOM     15  H   LIG d   1       5.574   0.128  -4.971  0.00  0.00     0.035 H 
ATOM     16  C   LIG d   1       6.392  -1.935  -3.492  0.00  0.00    -0.009 C 
ATOM     17  C   LIG d   1       5.211  -0.107  -2.231  0.00  0.00    -0.047 C 
ATOM     18  H   LIG d   1       7.179  -1.231  -3.762  0.00  0.00     0.031 H 
ATOM     19  H   LIG d   1       6.654  -2.419  -2.551  0.00  0.00     0.031 H 
ATOM     20  C   LIG d   1       3.865   0.592  -2.030  0.00  0.00    -0.049 C 
ATOM     21  H   LIG d   1       5.519  -0.575  -1.297  0.00  0.00     0.027 H 
ATOM     22  H   LIG d   1       5.958   0.626  -2.534  0.00  0.00     0.027 H 
ATOM     23  C   LIG d   1       3.466   1.320  -3.317  0.00  0.00    -0.032 C 
ATOM     24  H   LIG d   1       3.105  -0.148  -1.781  0.00  0.00     0.027 H 
ATOM     25  H   LIG d   1       3.948   1.312  -1.216  0.00  0.00     0.027 H 
ATOM     26  H   LIG d   1       2.461   1.727  -3.210  0.00  0.00     0.031 H 
ATOM     27  H   LIG d   1       4.171   2.129  -3.513  0.00  0.00     0.031 H 
ATOM     28  C   LIG d   1       2.469   0.202  -5.267  0.00  0.00    -0.099 C 
ATOM     29  H   LIG d   1       1.586   0.806  -5.118  0.00  0.00     0.053 H 
ATOM     30  H   LIG d   1       2.507  -0.507  -6.080  0.00  0.00     0.053 H 
ATOM     31  H   LIG d   1       7.275  -3.394  -4.743  0.00  0.00     0.074 H 
ATOM     32  O   LIG d   1       5.381  -4.020  -4.217  0.00  0.00    -0.461 OA
ATOM     33  C   LIG d   1       5.098  -4.707  -5.346  0.00  0.00     0.312 C 
ATOM     34  O   LIG d   1       4.771  -5.869  -5.398  0.00  0.00    -0.251 OA
ATOM     35  H   LIG d   1       6.011  -4.152  -7.248  0.00  0.00     0.043 H 
BRANCH  13  36
ATOM     36  C   LIG d   1       3.965  -2.155  -2.939  0.00  0.00    -0.059 C 
ATOM     37  H   LIG d   1       3.012  -1.785  -3.318  0.00  0.00     0.024 H 
ATOM     38  H   LIG d   1       4.176  -3.131  -3.378  0.00  0.00     0.024 H 
ATOM     39  H   LIG d   1       3.914  -2.247  -1.854  0.00  0.00     0.024 H 
ENDBRANCH  13  36
ENDBRANCH   2   5
ENDBRANCH   1   2
BRANCH   1  40
ATOM     40  C   LIG d   1       4.831  -5.214  -8.810  0.00  0.00     0.000 C 
ATOM     41  H   LIG d   1       5.418  -5.187  -9.728  0.00  0.00     0.043 H 
ATOM     42  H   LIG d   1       5.499  -5.312  -7.954  0.00  0.00     0.043 H 
BRANCH  40  43
ATOM     43  C   LIG d   1       3.874  -6.406  -8.850  0.00  0.00    -0.027 C 
ATOM     44  H   LIG d   1       4.436  -7.328  -8.698  0.00  0.00     0.029 H 
ATOM     45  H   LIG d   1       3.129  -6.301  -8.061  0.00  0.00     0.029 H 
BRANCH  43  46
ATOM     46  C   LIG d   1       3.174  -6.453 -10.209  0.00  0.00     0.000 C 
ATOM     47  H   LIG d   1       3.598  -5.690 -10.863  0.00  0.00     0.043 H 
ATOM     48  H   LIG d   1       3.318  -7.436 -10.658  0.00  0.00     0.043 H 
BRANCH  46  49
ATOM     49  N   LIG d   1       1.738  -6.203 -10.030  0.00  0.00    -0.298 N 
ATOM     50  C   LIG d   1       1.306  -5.032 -10.807  0.00  0.00     0.022 C 
ATOM     51  C   LIG d   1      -0.179  -4.771 -10.544  0.00  0.00     0.060 C 
ATOM     52  H   LIG d   1       1.888  -4.160 -10.505  0.00  0.00     0.045 H 
ATOM     53  H   LIG d   1       1.461  -5.222 -11.869  0.00  0.00     0.045 H 
ATOM     54  O   LIG d   1      -0.929  -5.945 -10.872  0.00  0.00    -0.377 OA
ATOM     55  H   LIG d   1      -0.517  -3.939 -11.162  0.00  0.00     0.057 H 
ATOM     56  H   LIG d   1      -0.326  -4.527  -9.492  0.00  0.00     0.057 H 
ATOM     57  C   LIG d   1      -0.535  -7.104 -10.133  0.00  0.00     0.060 C 
ATOM     58  C   LIG d   1       0.947  -7.388 -10.392  0.00  0.00     0.022 C 
ATOM     59  H   LIG d   1      -1.130  -7.959 -10.453  0.00  0.00     0.057 H 
ATOM     60  H   LIG d   1      -0.692  -6.927  -9.069  0.00  0.00     0.057 H 
ATOM     61  H   LIG d   1       1.096  -7.616 -11.447  0.00  0.00     0.045 H 
ATOM     62  H   LIG d   1       1.266  -8.237  -9.786  0.00  0.00     0.045 H 
ENDBRANCH  46  49
ENDBRANCH  43  46
ENDBRANCH  40  43
ENDBRANCH   1  40
BRANCH   1  63
ATOM     63  C   LIG d   1       4.666  -2.894  -9.482  0.00  0.00     0.028 C 
ATOM     64  H   LIG d   1       5.682  -2.710  -9.131  0.00  0.00     0.048 H 
ATOM     65  H   LIG d   1       4.692  -3.187 -10.532  0.00  0.00     0.048 H 
BRANCH  63  66
ATOM     66  C   LIG d   1       3.849  -1.637  -9.333  0.00  0.00     0.012 A 
ATOM     67  C   LIG d   1       4.457  -0.459  -8.928  0.00  0.00     0.166 A 
ATOM     68  C   LIG d   1       3.700   0.702  -8.795  0.00  0.00     0.162 A 
ATOM     69  C   LIG d   1       2.341   0.673  -9.059  0.00  0.00    -0.016 A 
ATOM     70  C   LIG d   1       1.740  -0.507  -9.458  0.00  0.00    -0.058 A 
ATOM     71  H   LIG d   1       1.751   1.571  -8.955  0.00  0.00     0.066 H 
ATOM     72  C   LIG d   1       2.491  -1.658  -9.594  0.00  0.00    -0.054 A 
ATOM     73  H   LIG d   1       0.679  -0.528  -9.663  0.00  0.00     0.062 H 
ATOM     74  H   LIG d   1       2.018  -2.578  -9.906  0.00  0.00     0.062 H 
BRANCH  67  75
ATOM     75  O   LIG d   1       5.792  -0.437  -8.664  0.00  0.00    -0.491 OA
BRANCH  75  76
ATOM     76  C   LIG d   1       6.653  -0.004  -9.719  0.00  0.00     0.079 C 
ATOM     77  H   LIG d   1       6.531   1.068  -9.872  0.00  0.00     0.066 H 
ATOM     78  H   LIG d   1       7.689  -0.219  -9.455  0.00  0.00     0.066 H 
ATOM     79  H   LIG d   1       6.395  -0.533 -10.637  0.00  0.00     0.066 H 
ENDBRANCH  75  76
ENDBRANCH  67  75
BRANCH  68  80
ATOM     80  O   LIG d   1       4.294   1.861  -8.405  0.00  0.00    -0.491 OA
BRANCH  80  81
ATOM     81  C   LIG d   1       4.281   2.943  -9.338  0.00  0.00     0.079 C 
ATOM     82  H   LIG d   1       3.511   2.767 -10.089  0.00  0.00     0.066 H 
ATOM     83  H   LIG d   1       4.070   3.875  -8.812  0.00  0.00     0.066 H 
ATOM     84  H   LIG d   1       5.254   3.014  -9.825  0.00  0.00     0.066 H 
ENDBRANCH  80  81
ENDBRANCH  68  80
ENDBRANCH  63  66
ENDBRANCH   1  63
TORSDOF 13
ENDMDL
MODEL 3
REMARK VINA RESULT:      -6.5      2.193      8.069
REMARK  13 active torsions:
REMARK  status: ('A' for Active; 'I' for Inactive)
REMARK    1  A    between atoms: C_1  and  C_2 
REMARK    2  A    between atoms: C_19  and  C_21 
REMARK    3  A    between atoms: C_21  and  N_22 
REMARK    4  A    between atoms: N_22  and  C_23 
REMARK    5  A    between atoms: N_22  and  C_32 
REMARK    6  A    between atoms: C_23  and  C_24 
REMARK    7  A    between atoms: C_24  and  C_25 
REMARK    8  A    between atoms: C_25  and  N_26 
REMARK    9  A    between atoms: C_32  and  C_33 
REMARK   10  A    between atoms: C_37  and  O_41 
REMARK   11  A    between atoms: C_38  and  O_39 
REMARK   12  A    between atoms: O_39  and  C_40 
REMARK   13  A    between atoms: O_41  and  C_42 
ROOT
ATOM      1  N   LIG d   1       3.918  -3.957  -7.847  0.00  0.00    -0.297 N 
ENDROOT
BRANCH   1   2
ATOM      2  C   LIG d   1       4.515  -3.663  -6.538  0.00  0.00     0.013 C 
ATOM      3  H   LIG d   1       4.714  -4.596  -6.011  0.00  0.00     0.043 H 
ATOM      4  H   LIG d   1       3.825  -3.055  -5.952  0.00  0.00     0.043 H 
BRANCH   2   5
ATOM      5  C   LIG d   1       5.825  -2.898  -6.736  0.00  0.00     0.075 C 
ATOM      6  C   LIG d   1       5.659  -1.407  -6.314  0.00  0.00     0.011 C 
ATOM      7  C   LIG d   1       4.500  -1.366  -5.314  0.00  0.00    -0.039 C 
ATOM      8  H   LIG d   1       5.502  -0.740  -7.161  0.00  0.00     0.035 H 
ATOM      9  C   LIG d   1       7.007  -1.166  -5.608  0.00  0.00     0.107 C 
ATOM     10  C   LIG d   1       4.545  -0.079  -4.496  0.00  0.00    -0.014 C 
ATOM     11  H   LIG d   1       4.575  -2.222  -4.643  0.00  0.00     0.028 H 
ATOM     12  H   LIG d   1       3.556  -1.415  -5.855  0.00  0.00     0.028 H 
ATOM     13  C   LIG d   1       5.847  -0.075  -3.682  0.00  0.00    -0.022 C 
ATOM     14  C   LIG d   1       3.382  -0.053  -3.530  0.00  0.00    -0.073 C 
ATOM     15  H   LIG d   1       4.514   0.790  -5.153  0.00  0.00     0.035 H 
ATOM     16  C   LIG d   1       7.014  -0.004  -4.666  0.00  0.00    -0.009 C 
ATOM     17  C   LIG d   1       5.851   1.132  -2.746  0.00  0.00    -0.047 C 
ATOM     18  H   LIG d   1       6.935   0.915  -5.248  0.00  0.00     0.031 H 
ATOM     19  H   LIG d   1       7.951   0.006  -4.109  0.00  0.00     0.031 H 
ATOM     20  C   LIG d   1       4.713   1.002  -1.732  0.00  0.00    -0.049 C 
ATOM     21  H   LIG d   1       6.804   1.179  -2.219  0.00  0.00     0.027 H 
ATOM     22  H   LIG d   1       5.714   2.043  -3.329  0.00  0.00     0.027 H 
ATOM     23  C   LIG d   1       3.368   1.019  -2.463  0.00  0.00    -0.032 C 
ATOM     24  H   LIG d   1       4.819   0.064  -1.187  0.00  0.00     0.027 H 
ATOM     25  H   LIG d   1       4.756   1.835  -1.030  0.00  0.00     0.027 H 
ATOM     26  H   LIG d   1       2.564   0.818  -1.754  0.00  0.00     0.031 H 
ATOM     27  H   LIG d   1       3.215   1.994  -2.925  0.00  0.00     0.031 H 
ATOM     28  C   LIG d   1       2.415  -0.933  -3.616  0.00  0.00    -0.099 C 
ATOM     29  H   LIG d   1       1.591  -0.899  -2.919  0.00  0.00     0.053 H 
ATOM     30  H   LIG d   1       2.441  -1.690  -4.385  0.00  0.00     0.053 H 
ATOM     31  H   LIG d   1       7.778  -1.009  -6.363  0.00  0.00     0.074 H 
ATOM     32  O   LIG d   1       7.264  -2.404  -4.933  0.00  0.00    -0.461 OA
ATOM     33  C   LIG d   1       6.916  -3.404  -5.773  0.00  0.00     0.312 C 
ATOM     34  O   LIG d   1       7.383  -4.518  -5.771  0.00  0.00    -0.251 OA
ATOM     35  H   LIG d   1       6.159  -2.968  -7.772  0.00  0.00     0.043 H 
BRANCH  13  36
ATOM     36  C   LIG d   1       5.945  -1.363  -2.861  0.00  0.00    -0.059 C 
ATOM     37  H   LIG d   1       4.961  -1.827  -2.794  0.00  0.00     0.024 H 
ATOM     38  H   LIG d   1       6.638  -2.050  -3.345  0.00  0.00     0.024 H 
ATOM     39  H   LIG d   1       6.305  -1.128  -1.860  0.00  0.00     0.024 H 
ENDBRANCH  13  36
ENDBRANCH   2   5
ENDBRANCH   1   2
BRANCH   1  40
ATOM     40  C   LIG d   1       3.918  -5.402  -8.114  0.00  0.00     0.000 C 
ATOM     41  H   LIG d   1       2.901  -5.731  -8.328  0.00  0.00     0.043 H 
ATOM     42  H   LIG d   1       4.557  -5.613  -8.971  0.00  0.00     0.043 H 
BRANCH  40  43
ATOM     43  C   LIG d   1       4.448  -6.147  -6.888  0.00  0.00    -0.027 C 
ATOM     44  H   LIG d   1       4.857  -5.431  -6.176  0.00  0.00     0.029 H 
ATOM     45  H   LIG d   1       3.634  -6.700  -6.419  0.00  0.00     0.029 H 
BRANCH  43  46
ATOM     46  C   LIG d   1       5.545  -7.123  -7.318  0.00  0.00     0.000 C 
ATOM     47  H   LIG d   1       5.458  -7.318  -8.387  0.00  0.00     0.043 H 
ATOM     48  H   LIG d   1       6.521  -6.687  -7.107  0.00  0.00     0.043 H 
BRANCH  46  49
ATOM     49  N   LIG d   1       5.400  -8.382  -6.576  0.00  0.00    -0.298 N 
ATOM     50  C   LIG d   1       4.874  -8.140  -5.225  0.00  0.00     0.022 C 
ATOM     51  C   LIG d   1       4.797  -9.467  -4.467  0.00  0.00     0.060 C 
ATOM     52  H   LIG d   1       5.535  -7.455  -4.693  0.00  0.00     0.045 H 
ATOM     53  H   LIG d   1       3.878  -7.702  -5.295  0.00  0.00     0.045 H 
ATOM     54  O   LIG d   1       3.987 -10.386  -5.207  0.00  0.00    -0.377 OA
ATOM     55  H   LIG d   1       4.353  -9.301  -3.485  0.00  0.00     0.057 H 
ATOM     56  H   LIG d   1       5.799  -9.878  -4.349  0.00  0.00     0.057 H 
ATOM     57  C   LIG d   1       4.472 -10.645  -6.527  0.00  0.00     0.060 C 
ATOM     58  C   LIG d   1       4.546  -9.329  -7.306  0.00  0.00     0.022 C 
ATOM     59  H   LIG d   1       3.795 -11.331  -7.036  0.00  0.00     0.057 H 
ATOM     60  H   LIG d   1       5.466 -11.091  -6.469  0.00  0.00     0.057 H 
ATOM     61  H   LIG d   1       3.545  -8.911  -7.410  0.00  0.00     0.045 H 
ATOM     62  H   LIG d   1       4.969  -9.514  -8.293  0.00  0.00     0.045 H 
ENDBRANCH  46  49
ENDBRANCH  43  46
ENDBRANCH  40  43
ENDBRANCH   1  40
BRANCH   1  63
ATOM     63  C   LIG d   1       4.606  -3.224  -8.918  0.00  0.00     0.028 C 
ATOM     64  H   LIG d   1       5.507  -2.760  -8.519  0.00  0.00     0.048 H 
ATOM     65  H   LIG d   1       4.876  -3.915  -9.716  0.00  0.00     0.048 H 
BRANCH  63  66
ATOM     66  C   LIG d   1       3.692  -2.158  -9.465  0.00  0.00     0.012 A 
ATOM     67  C   LIG d   1       4.214  -0.942  -9.876  0.00  0.00     0.166 A 
ATOM     68  C   LIG d   1       3.368   0.039 -10.386  0.00  0.00     0.162 A 
ATOM     69  C   LIG d   1       2.007  -0.201 -10.470  0.00  0.00    -0.016 A 
ATOM     70  C   LIG d   1       1.492  -1.414 -10.052  0.00  0.00    -0.058 A 
ATOM     71  H   LIG d   1       1.348   0.559 -10.862  0.00  0.00     0.066 H 
ATOM     72  C   LIG d   1       2.331  -2.390  -9.551  0.00  0.00    -0.054 A 
ATOM     73  H   LIG d   1       0.429  -1.599 -10.118  0.00  0.00     0.062 H 
ATOM     74  H   LIG d   1       1.925  -3.337  -9.226  0.00  0.00     0.062 H 
BRANCH  67  75
ATOM     75  O   LIG d   1       5.552  -0.710  -9.786  0.00  0.00    -0.491 OA
BRANCH  75  76
ATOM     76  C   LIG d   1       6.328  -0.928 -10.966  0.00  0.00     0.079 C 
ATOM     77  H   LIG d   1       6.951  -1.813 -10.834  0.00  0.00     0.066 H 
ATOM     78  H   LIG d   1       5.662  -1.075 -11.817  0.00  0.00     0.066 H 
ATOM     79  H   LIG d   1       6.963  -0.061 -11.148  0.00  0.00     0.066 H 
ENDBRANCH  75  76
ENDBRANCH  67  75
BRANCH  68  80
ATOM     80  O   LIG d   1       3.878   1.231 -10.797  0.00  0.00    -0.491 OA
BRANCH  80  81
ATOM     81  C   LIG d   1       3.683   2.351  -9.931  0.00  0.00     0.079 C 
ATOM     82  H   LIG d   1       4.638   2.646  -9.497  0.00  0.00     0.066 H 
ATOM     83  H   LIG d   1       3.271   3.184 -10.503  0.00  0.00     0.066 H 
ATOM     84  H   LIG d   1       2.990   2.080  -9.135  0.00  0.00     0.066 H 
ENDBRANCH  80  81
ENDBRANCH  68  80
ENDBRANCH  63  66
ENDBRANCH   1  63
TORSDOF 13
ENDMDL
MODEL 4
REMARK VINA RESULT:      -6.5      2.647      8.550
REMARK  13 active torsions:
REMARK  status: ('A' for Active; 'I' for Inactive)
REMARK    1  A    between atoms: C_1  and  C_2 
REMARK    2  A    between atoms: C_19  and  C_21 
REMARK    3  A    between atoms: C_21  and  N_22 
REMARK    4  A    between atoms: N_22  and  C_23 
REMARK    5  A    between atoms: N_22  and  C_32 
REMARK    6  A    between atoms: C_23  and  C_24 
REMARK    7  A    between atoms: C_24  and  C_25 
REMARK    8  A    between atoms: C_25  and  N_26 
REMARK    9  A    between atoms: C_32  and  C_33 
REMARK   10  A    between atoms: C_37  and  O_41 
REMARK   11  A    between atoms: C_38  and  O_39 
REMARK   12  A    between atoms: O_39  and  C_40 
REMARK   13  A    between atoms: O_41  and  C_42 
ROOT
ATOM      1  N   LIG d   1       3.988  -4.396  -7.490  0.00  0.00    -0.297 N 
ENDROOT
BRANCH   1   2
ATOM      2  C   LIG d   1       4.412  -3.848  -6.195  0.00  0.00     0.013 C 
ATOM      3  H   LIG d   1       4.468  -4.652  -5.461  0.00  0.00     0.043 H 
ATOM      4  H   LIG d   1       3.689  -3.103  -5.862  0.00  0.00     0.043 H 
BRANCH   2   5
ATOM      5  C   LIG d   1       5.786  -3.193  -6.342  0.00  0.00     0.075 C 
ATOM      6  C   LIG d   1       5.704  -1.669  -6.028  0.00  0.00     0.011 C 
ATOM      7  C   LIG d   1       4.484  -1.479  -5.121  0.00  0.00    -0.039 C 
ATOM      8  H   LIG d   1       5.657  -1.052  -6.925  0.00  0.00     0.035 H 
ATOM      9  C   LIG d   1       7.013  -1.477  -5.240  0.00  0.00     0.107 C 
ATOM     10  C   LIG d   1       4.569  -0.146  -4.385  0.00  0.00    -0.014 C 
ATOM     11  H   LIG d   1       4.447  -2.290  -4.395  0.00  0.00     0.028 H 
ATOM     12  H   LIG d   1       3.579  -1.497  -5.728  0.00  0.00     0.028 H 
ATOM     13  C   LIG d   1       5.808  -0.178  -3.478  0.00  0.00    -0.022 C 
ATOM     14  C   LIG d   1       3.347   0.029  -3.512  0.00  0.00    -0.073 C 
ATOM     15  H   LIG d   1       4.650   0.677  -5.095  0.00  0.00     0.035 H 
ATOM     16  C   LIG d   1       7.043  -0.256  -4.375  0.00  0.00    -0.009 C 
ATOM     17  C   LIG d   1       5.838   1.087  -2.622  0.00  0.00    -0.047 C 
ATOM     18  H   LIG d   1       7.074   0.624  -5.018  0.00  0.00     0.031 H 
ATOM     19  H   LIG d   1       7.936  -0.275  -3.752  0.00  0.00     0.031 H 
ATOM     20  C   LIG d   1       4.626   1.106  -1.689  0.00  0.00    -0.049 C 
ATOM     21  H   LIG d   1       6.752   1.102  -2.030  0.00  0.00     0.027 H 
ATOM     22  H   LIG d   1       5.811   1.963  -3.269  0.00  0.00     0.027 H 
ATOM     23  C   LIG d   1       3.340   1.168  -2.518  0.00  0.00    -0.032 C 
ATOM     24  H   LIG d   1       4.622   0.203  -1.080  0.00  0.00     0.027 H 
ATOM     25  H   LIG d   1       4.682   1.980  -1.040  0.00  0.00     0.027 H 
ATOM     26  H   LIG d   1       2.476   1.074  -1.859  0.00  0.00     0.031 H 
ATOM     27  H   LIG d   1       3.293   2.119  -3.050  0.00  0.00     0.031 H 
ATOM     28  C   LIG d   1       2.325  -0.785  -3.614  0.00  0.00    -0.099 C 
ATOM     29  H   LIG d   1       1.459  -0.646  -2.983  0.00  0.00     0.053 H 
ATOM     30  H   LIG d   1       2.347  -1.593  -4.330  0.00  0.00     0.053 H 
ATOM     31  H   LIG d   1       7.845  -1.426  -5.944  0.00  0.00     0.074 H 
ATOM     32  O   LIG d   1       7.129  -2.681  -4.472  0.00  0.00    -0.461 OA
ATOM     33  C   LIG d   1       6.765  -3.708  -5.271  0.00  0.00     0.312 C 
ATOM     34  O   LIG d   1       7.146  -4.850  -5.164  0.00  0.00    -0.251 OA
ATOM     35  H   LIG d   1       6.184  -3.357  -7.344  0.00  0.00     0.043 H 
BRANCH  13  36
ATOM     36  C   LIG d   1       5.751  -1.411  -2.573  0.00  0.00    -0.059 C 
ATOM     37  H   LIG d   1       6.357  -2.206  -3.005  0.00  0.00     0.024 H 
ATOM     38  H   LIG d   1       6.137  -1.154  -1.586  0.00  0.00     0.024 H 
ATOM     39  H   LIG d   1       4.718  -1.747  -2.483  0.00  0.00     0.024 H 
ENDBRANCH  13  36
ENDBRANCH   2   5
ENDBRANCH   1   2
BRANCH   1  40
ATOM     40  C   LIG d   1       4.422  -5.792  -7.640  0.00  0.00     0.000 C 
ATOM     41  H   LIG d   1       3.744  -6.312  -8.316  0.00  0.00     0.043 H 
ATOM     42  H   LIG d   1       5.433  -5.816  -8.048  0.00  0.00     0.043 H 
BRANCH  40  43
ATOM     43  C   LIG d   1       4.407  -6.480  -6.274  0.00  0.00    -0.027 C 
ATOM     44  H   LIG d   1       5.058  -5.938  -5.587  0.00  0.00     0.029 H 
ATOM     45  H   LIG d   1       3.390  -6.487  -5.881  0.00  0.00     0.029 H 
BRANCH  43  46
ATOM     46  C   LIG d   1       4.906  -7.919  -6.421  0.00  0.00     0.000 C 
ATOM     47  H   LIG d   1       4.109  -8.539  -6.831  0.00  0.00     0.043 H 
ATOM     48  H   LIG d   1       5.764  -7.938  -7.094  0.00  0.00     0.043 H 
BRANCH  46  49
ATOM     49  N   LIG d   1       5.305  -8.437  -5.106  0.00  0.00    -0.298 N 
ATOM     50  C   LIG d   1       4.575  -9.671  -4.783  0.00  0.00     0.022 C 
ATOM     51  C   LIG d   1       4.974 -10.142  -3.383  0.00  0.00     0.060 C 
ATOM     52  H   LIG d   1       3.501  -9.477  -4.809  0.00  0.00     0.045 H 
ATOM     53  H   LIG d   1       4.822 -10.443  -5.511  0.00  0.00     0.045 H 
ATOM     54  O   LIG d   1       6.392 -10.323  -3.333  0.00  0.00    -0.377 OA
ATOM     55  H   LIG d   1       4.478 -11.088  -3.161  0.00  0.00     0.057 H 
ATOM     56  H   LIG d   1       4.676  -9.394  -2.647  0.00  0.00     0.057 H 
ATOM     57  C   LIG d   1       7.134  -9.140  -3.641  0.00  0.00     0.060 C 
ATOM     58  C   LIG d   1       6.756  -8.659  -5.044  0.00  0.00     0.022 C 
ATOM     59  H   LIG d   1       8.201  -9.361  -3.607  0.00  0.00     0.057 H 
ATOM     60  H   LIG d   1       6.899  -8.363  -2.914  0.00  0.00     0.057 H 
ATOM     61  H   LIG d   1       7.040  -9.415  -5.777  0.00  0.00     0.045 H 
ATOM     62  H   LIG d   1       7.277  -7.726  -5.262  0.00  0.00     0.045 H 
ENDBRANCH  46  49
ENDBRANCH  43  46
ENDBRANCH  40  43
ENDBRANCH   1  40
BRANCH   1  63
ATOM     63  C   LIG d   1       4.483  -3.570  -8.599  0.00  0.00     0.028 C 
ATOM     64  H   LIG d   1       5.316  -2.958  -8.252  0.00  0.00     0.048 H 
ATOM     65  H   LIG d   1       4.820  -4.214  -9.411  0.00  0.00     0.048 H 
BRANCH  63  66
ATOM     66  C   LIG d   1       3.376  -2.676  -9.093  0.00  0.00     0.012 A 
ATOM     67  C   LIG d   1       2.530  -3.113 -10.100  0.00  0.00     0.166 A 
ATOM     68  C   LIG d   1       1.504  -2.287 -10.551  0.00  0.00     0.162 A 
ATOM     69  C   LIG d   1       1.339  -1.028  -9.999  0.00  0.00    -0.016 A 
ATOM     70  C   LIG d   1       2.191  -0.595  -8.999  0.00  0.00    -0.058 A 
ATOM     71  H   LIG d   1       0.547  -0.384 -10.349  0.00  0.00     0.066 H 
ATOM     72  C   LIG d   1       3.206  -1.417  -8.547  0.00  0.00    -0.054 A 
ATOM     73  H   LIG d   1       2.062   0.388  -8.569  0.00  0.00     0.062 H 
ATOM     74  H   LIG d   1       3.869  -1.076  -7.765  0.00  0.00     0.062 H 
BRANCH  67  75
ATOM     75  O   LIG d   1       2.698  -4.349 -10.643  0.00  0.00    -0.491 OA
BRANCH  75  76
ATOM     76  C   LIG d   1       1.799  -5.373 -10.214  0.00  0.00     0.079 C 
ATOM     77  H   LIG d   1       1.320  -5.826 -11.083  0.00  0.00     0.066 H 
ATOM     78  H   LIG d   1       2.351  -6.136  -9.664  0.00  0.00     0.066 H 
ATOM     79  H   LIG d   1       1.037  -4.939  -9.566  0.00  0.00     0.066 H 
ENDBRANCH  75  76
ENDBRANCH  67  75
BRANCH  68  80
ATOM     80  O   LIG d   1       0.667  -2.715 -11.535  0.00  0.00    -0.491 OA
BRANCH  80  81
ATOM     81  C   LIG d   1       0.892  -2.198 -12.847  0.00  0.00     0.079 C 
ATOM     82  H   LIG d   1       1.832  -2.588 -13.237  0.00  0.00     0.066 H 
ATOM     83  H   LIG d   1       0.074  -2.500 -13.502  0.00  0.00     0.066 H 
ATOM     84  H   LIG d   1       0.940  -1.109 -12.806  0.00  0.00     0.066 H 
ENDBRANCH  80  81
ENDBRANCH  68  80
ENDBRANCH  63  66
ENDBRANCH   1  63
TORSDOF 13
ENDMDL
MODEL 5
REMARK VINA RESULT:      -6.4      5.851      9.750
REMARK  13 active torsions:
REMARK  status: ('A' for Active; 'I' for Inactive)
REMARK    1  A    between atoms: C_1  and  C_2 
REMARK    2  A    between atoms: C_19  and  C_21 
REMARK    3  A    between atoms: C_21  and  N_22 
REMARK    4  A    between atoms: N_22  and  C_23 
REMARK    5  A    between atoms: N_22  and  C_32 
REMARK    6  A    between atoms: C_23  and  C_24 
REMARK    7  A    between atoms: C_24  and  C_25 
REMARK    8  A    between atoms: C_25  and  N_26 
REMARK    9  A    between atoms: C_32  and  C_33 
REMARK   10  A    between atoms: C_37  and  O_41 
REMARK   11  A    between atoms: C_38  and  O_39 
REMARK   12  A    between atoms: O_39  and  C_40 
REMARK   13  A    between atoms: O_41  and  C_42 
ROOT
ATOM      1  N   LIG d   1       9.404   3.520  -4.486  0.00  0.00    -0.297 N 
ENDROOT
BRANCH   1   2
ATOM      2  C   LIG d   1       8.243   2.655  -4.740  0.00  0.00     0.013 C 
ATOM      3  H   LIG d   1       7.544   3.170  -5.399  0.00  0.00     0.043 H 
ATOM      4  H   LIG d   1       7.749   2.424  -3.796  0.00  0.00     0.043 H 
BRANCH   2   5
ATOM      5  C   LIG d   1       8.709   1.357  -5.402  0.00  0.00     0.075 C 
ATOM      6  C   LIG d   1       8.294   0.125  -4.543  0.00  0.00     0.011 C 
ATOM      7  C   LIG d   1       7.088   0.564  -3.708  0.00  0.00    -0.039 C 
ATOM      8  H   LIG d   1       9.109  -0.259  -3.929  0.00  0.00     0.035 H 
ATOM      9  C   LIG d   1       7.870  -0.856  -5.652  0.00  0.00     0.107 C 
ATOM     10  C   LIG d   1       6.322  -0.651  -3.194  0.00  0.00    -0.014 C 
ATOM     11  H   LIG d   1       6.427   1.173  -4.324  0.00  0.00     0.028 H 
ATOM     12  H   LIG d   1       7.434   1.156  -2.860  0.00  0.00     0.028 H 
ATOM     13  C   LIG d   1       5.778  -1.420  -4.406  0.00  0.00    -0.022 C 
ATOM     14  C   LIG d   1       5.150  -0.193  -2.357  0.00  0.00    -0.073 C 
ATOM     15  H   LIG d   1       6.979  -1.295  -2.609  0.00  0.00     0.035 H 
ATOM     16  C   LIG d   1       6.972  -1.962  -5.191  0.00  0.00    -0.009 C 
ATOM     17  C   LIG d   1       4.887  -2.562  -3.919  0.00  0.00    -0.047 C 
ATOM     18  H   LIG d   1       7.547  -2.631  -4.552  0.00  0.00     0.031 H 
ATOM     19  H   LIG d   1       6.609  -2.518  -6.055  0.00  0.00     0.031 H 
ATOM     20  C   LIG d   1       3.668  -1.989  -3.193  0.00  0.00    -0.049 C 
ATOM     21  H   LIG d   1       4.557  -3.153  -4.772  0.00  0.00     0.027 H 
ATOM     22  H   LIG d   1       5.451  -3.195  -3.234  0.00  0.00     0.027 H 
ATOM     23  C   LIG d   1       4.123  -1.225  -1.946  0.00  0.00    -0.032 C 
ATOM     24  H   LIG d   1       3.134  -1.312  -3.860  0.00  0.00     0.027 H 
ATOM     25  H   LIG d   1       3.006  -2.803  -2.899  0.00  0.00     0.027 H 
ATOM     26  H   LIG d   1       3.267  -0.727  -1.491  0.00  0.00     0.031 H 
ATOM     27  H   LIG d   1       4.567  -1.920  -1.233  0.00  0.00     0.031 H 
ATOM     28  C   LIG d   1       5.026   1.061  -1.999  0.00  0.00    -0.099 C 
ATOM     29  H   LIG d   1       4.183   1.372  -1.401  0.00  0.00     0.053 H 
ATOM     30  H   LIG d   1       5.769   1.784  -2.301  0.00  0.00     0.053 H 
ATOM     31  H   LIG d   1       8.764  -1.295  -6.096  0.00  0.00     0.074 H 
ATOM     32  O   LIG d   1       7.232  -0.018  -6.623  0.00  0.00    -0.461 OA
ATOM     33  C   LIG d   1       7.967   1.112  -6.728  0.00  0.00     0.312 C 
ATOM     34  O   LIG d   1       8.032   1.818  -7.706  0.00  0.00    -0.251 OA
ATOM     35  H   LIG d   1       9.788   1.371  -5.557  0.00  0.00     0.043 H 
BRANCH  13  36
ATOM     36  C   LIG d   1       4.965  -0.475  -5.293  0.00  0.00    -0.059 C 
ATOM     37  H   LIG d   1       4.027  -0.955  -5.570  0.00  0.00     0.024 H 
ATOM     38  H   LIG d   1       4.756   0.445  -4.747  0.00  0.00     0.024 H 
ATOM     39  H   LIG d   1       5.535  -0.242  -6.192  0.00  0.00     0.024 H 
ENDBRANCH  13  36
ENDBRANCH   2   5
ENDBRANCH   1   2
BRANCH   1  40
ATOM     40  C   LIG d   1       9.807   3.460  -3.075  0.00  0.00     0.000 C 
ATOM     41  H   LIG d   1       9.494   4.375  -2.570  0.00  0.00     0.043 H 
ATOM     42  H   LIG d   1       9.334   2.602  -2.598  0.00  0.00     0.043 H 
BRANCH  40  43
ATOM     43  C   LIG d   1      11.327   3.322  -2.984  0.00  0.00    -0.027 C 
ATOM     44  H   LIG d   1      11.580   2.593  -2.214  0.00  0.00     0.029 H 
ATOM     45  H   LIG d   1      11.720   2.987  -3.944  0.00  0.00     0.029 H 
BRANCH  43  46
ATOM     46  C   LIG d   1      11.943   4.676  -2.626  0.00  0.00     0.000 C 
ATOM     47  H   LIG d   1      12.954   4.526  -2.245  0.00  0.00     0.043 H 
ATOM     48  H   LIG d   1      11.980   5.304  -3.516  0.00  0.00     0.043 H 
BRANCH  46  49
ATOM     49  N   LIG d   1      11.124   5.331  -1.598  0.00  0.00    -0.298 N 
ATOM     50  C   LIG d   1      11.814   5.340  -0.301  0.00  0.00     0.022 C 
ATOM     51  C   LIG d   1      10.903   5.975   0.752  0.00  0.00     0.060 C 
ATOM     52  H   LIG d   1      12.052   4.316  -0.007  0.00  0.00     0.045 H 
ATOM     53  H   LIG d   1      12.735   5.917  -0.382  0.00  0.00     0.045 H 
ATOM     54  O   LIG d   1      10.534   7.290   0.325  0.00  0.00    -0.377 OA
ATOM     55  H   LIG d   1      11.432   6.036   1.703  0.00  0.00     0.057 H 
ATOM     56  H   LIG d   1      10.006   5.367   0.873  0.00  0.00     0.057 H 
ATOM     57  C   LIG d   1       9.859   7.318  -0.935  0.00  0.00     0.060 C 
ATOM     58  C   LIG d   1      10.760   6.696  -2.004  0.00  0.00     0.022 C 
ATOM     59  H   LIG d   1       9.633   8.349  -1.204  0.00  0.00     0.057 H 
ATOM     60  H   LIG d   1       8.932   6.748  -0.863  0.00  0.00     0.057 H 
ATOM     61  H   LIG d   1      11.664   7.295  -2.113  0.00  0.00     0.045 H 
ATOM     62  H   LIG d   1      10.227   6.663  -2.955  0.00  0.00     0.045 H 
ENDBRANCH  46  49
ENDBRANCH  43  46
ENDBRANCH  40  43
ENDBRANCH   1  40
BRANCH   1  63
ATOM     63  C   LIG d   1       9.130   4.903  -4.898  0.00  0.00     0.028 C 
ATOM     64  H   LIG d   1       8.077   5.003  -5.160  0.00  0.00     0.048 H 
ATOM     65  H   LIG d   1       9.366   5.580  -4.078  0.00  0.00     0.048 H 
BRANCH  63  66
ATOM     66  C   LIG d   1       9.979   5.249  -6.093  0.00  0.00     0.012 A 
ATOM     67  C   LIG d   1       9.951   6.532  -6.616  0.00  0.00     0.166 A 
ATOM     68  C   LIG d   1      10.741   6.849  -7.718  0.00  0.00     0.162 A 
ATOM     69  C   LIG d   1      11.543   5.879  -8.294  0.00  0.00    -0.016 A 
ATOM     70  C   LIG d   1      11.563   4.599  -7.771  0.00  0.00    -0.058 A 
ATOM     71  H   LIG d   1      12.154   6.122  -9.150  0.00  0.00     0.066 H 
ATOM     72  C   LIG d   1      10.783   4.284  -6.674  0.00  0.00    -0.054 A 
ATOM     73  H   LIG d   1      12.189   3.843  -8.221  0.00  0.00     0.062 H 
ATOM     74  H   LIG d   1      10.801   3.283  -6.269  0.00  0.00     0.062 H 
BRANCH  67  75
ATOM     75  O   LIG d   1       9.156   7.480  -6.050  0.00  0.00    -0.491 OA
BRANCH  75  76
ATOM     76  C   LIG d   1       9.785   8.403  -5.158  0.00  0.00     0.079 C 
ATOM     77  H   LIG d   1      10.699   8.785  -5.613  0.00  0.00     0.066 H 
ATOM     78  H   LIG d   1       9.106   9.232  -4.954  0.00  0.00     0.066 H 
ATOM     79  H   LIG d   1      10.029   7.895  -4.224  0.00  0.00     0.066 H 
ENDBRANCH  75  76
ENDBRANCH  67  75
BRANCH  68  80
ATOM     80  O   LIG d   1      10.721   8.110  -8.229  0.00  0.00    -0.491 OA
BRANCH  80  81
ATOM     81  C   LIG d   1      10.132   8.275  -9.521  0.00  0.00     0.079 C 
ATOM     82  H   LIG d   1      10.315   9.289  -9.877  0.00  0.00     0.066 H 
ATOM     83  H   LIG d   1      10.575   7.560 -10.216  0.00  0.00     0.066 H 
ATOM     84  H   LIG d   1       9.058   8.101  -9.456  0.00  0.00     0.066 H 
ENDBRANCH  80  81
ENDBRANCH  68  80
ENDBRANCH  63  66
ENDBRANCH   1  63
TORSDOF 13
ENDMDL
MODEL 6
REMARK VINA RESULT:      -6.4      3.276      7.672
REMARK  13 active torsions:
REMARK  status: ('A' for Active; 'I' for Inactive)
REMARK    1  A    between atoms: C_1  and  C_2 
REMARK    2  A    between atoms: C_19  and  C_21 
REMARK    3  A    between atoms: C_21  and  N_22 
REMARK    4  A    between atoms: N_22  and  C_23 
REMARK    5  A    between atoms: N_22  and  C_32 
REMARK    6  A    between atoms: C_23  and  C_24 
REMARK    7  A    between atoms: C_24  and  C_25 
REMARK    8  A    between atoms: C_25  and  N_26 
REMARK    9  A    between atoms: C_32  and  C_33 
REMARK   10  A    between atoms: C_37  and  O_41 
REMARK   11  A    between atoms: C_38  and  O_39 
REMARK   12  A    between atoms: O_39  and  C_40 
REMARK   13  A    between atoms: O_41  and  C_42 
ROOT
ATOM      1  N   LIG d   1       9.540  -2.590  -5.259  0.00  0.00    -0.297 N 
ENDROOT
BRANCH   1   2
ATOM      2  C   LIG d   1       8.277  -2.335  -5.966  0.00  0.00     0.013 C 
ATOM      3  H   LIG d   1       8.450  -2.370  -7.041  0.00  0.00     0.043 H 
ATOM      4  H   LIG d   1       7.900  -1.350  -5.691  0.00  0.00     0.043 H 
BRANCH   2   5
ATOM      5  C   LIG d   1       7.251  -3.401  -5.577  0.00  0.00     0.075 C 
ATOM      6  C   LIG d   1       6.575  -3.042  -4.220  0.00  0.00     0.011 C 
ATOM      7  C   LIG d   1       6.701  -1.524  -4.061  0.00  0.00    -0.039 C 
ATOM      8  H   LIG d   1       6.999  -3.586  -3.377  0.00  0.00     0.035 H 
ATOM      9  C   LIG d   1       5.119  -3.447  -4.519  0.00  0.00     0.107 C 
ATOM     10  C   LIG d   1       5.697  -1.009  -3.035  0.00  0.00    -0.014 C 
ATOM     11  H   LIG d   1       6.513  -1.045  -5.022  0.00  0.00     0.028 H 
ATOM     12  H   LIG d   1       7.711  -1.280  -3.729  0.00  0.00     0.028 H 
ATOM     13  C   LIG d   1       4.284  -1.293  -3.565  0.00  0.00    -0.022 C 
ATOM     14  C   LIG d   1       5.853   0.487  -2.881  0.00  0.00    -0.073 C 
ATOM     15  H   LIG d   1       5.842  -1.507  -2.077  0.00  0.00     0.035 H 
ATOM     16  C   LIG d   1       4.103  -2.810  -3.625  0.00  0.00    -0.009 C 
ATOM     17  C   LIG d   1       3.258  -0.661  -2.627  0.00  0.00    -0.047 C 
ATOM     18  H   LIG d   1       4.215  -3.223  -2.622  0.00  0.00     0.031 H 
ATOM     19  H   LIG d   1       3.102  -3.036  -3.994  0.00  0.00     0.031 H 
ATOM     20  C   LIG d   1       3.419   0.860  -2.637  0.00  0.00    -0.049 C 
ATOM     21  H   LIG d   1       2.253  -0.921  -2.960  0.00  0.00     0.027 H 
ATOM     22  H   LIG d   1       3.412  -1.035  -1.615  0.00  0.00     0.027 H 
ATOM     23  C   LIG d   1       4.801   1.235  -2.092  0.00  0.00    -0.032 C 
ATOM     24  H   LIG d   1       3.319   1.229  -3.658  0.00  0.00     0.027 H 
ATOM     25  H   LIG d   1       2.648   1.311  -2.013  0.00  0.00     0.027 H 
ATOM     26  H   LIG d   1       4.957   2.308  -2.200  0.00  0.00     0.031 H 
ATOM     27  H   LIG d   1       4.866   0.957  -1.040  0.00  0.00     0.031 H 
ATOM     28  C   LIG d   1       6.869   1.117  -3.416  0.00  0.00    -0.099 C 
ATOM     29  H   LIG d   1       6.967   2.186  -3.296  0.00  0.00     0.053 H 
ATOM     30  H   LIG d   1       7.611   0.567  -3.975  0.00  0.00     0.053 H 
ATOM     31  H   LIG d   1       5.030  -4.530  -4.433  0.00  0.00     0.074 H 
ATOM     32  O   LIG d   1       4.936  -3.073  -5.890  0.00  0.00    -0.461 OA
ATOM     33  C   LIG d   1       6.062  -3.411  -6.556  0.00  0.00     0.312 C 
ATOM     34  O   LIG d   1       6.129  -3.678  -7.733  0.00  0.00    -0.251 OA
ATOM     35  H   LIG d   1       7.719  -4.384  -5.524  0.00  0.00     0.043 H 
BRANCH  13  36
ATOM     36  C   LIG d   1       4.132  -0.702  -4.968  0.00  0.00    -0.059 C 
ATOM     37  H   LIG d   1       3.106  -0.836  -5.309  0.00  0.00     0.024 H 
ATOM     38  H   LIG d   1       4.370   0.362  -4.942  0.00  0.00     0.024 H 
ATOM     39  H   LIG d   1       4.812  -1.210  -5.651  0.00  0.00     0.024 H 
ENDBRANCH  13  36
ENDBRANCH   2   5
ENDBRANCH   1   2
BRANCH   1  40
ATOM     40  C   LIG d   1      10.567  -1.613  -5.644  0.00  0.00     0.000 C 
ATOM     41  H   LIG d   1      11.427  -1.711  -4.982  0.00  0.00     0.043 H 
ATOM     42  H   LIG d   1      10.877  -1.799  -6.673  0.00  0.00     0.043 H 
BRANCH  40  43
ATOM     43  C   LIG d   1       9.994  -0.199  -5.533  0.00  0.00    -0.027 C 
ATOM     44  H   LIG d   1       9.778   0.185  -6.529  0.00  0.00     0.029 H 
ATOM     45  H   LIG d   1       9.076  -0.225  -4.946  0.00  0.00     0.029 H 
BRANCH  43  46
ATOM     46  C   LIG d   1      11.013   0.711  -4.845  0.00  0.00     0.000 C 
ATOM     47  H   LIG d   1      11.503   0.165  -4.038  0.00  0.00     0.043 H 
ATOM     48  H   LIG d   1      11.760   1.034  -5.571  0.00  0.00     0.043 H 
BRANCH  46  49
ATOM     49  N   LIG d   1      10.327   1.887  -4.294  0.00  0.00    -0.298 N 
ATOM     50  C   LIG d   1      11.135   2.527  -3.247  0.00  0.00     0.022 C 
ATOM     51  C   LIG d   1      10.358   3.708  -2.660  0.00  0.00     0.060 C 
ATOM     52  H   LIG d   1      11.348   1.804  -2.458  0.00  0.00     0.045 H 
ATOM     53  H   LIG d   1      12.071   2.884  -3.675  0.00  0.00     0.045 H 
ATOM     54  O   LIG d   1      10.017   4.617  -3.711  0.00  0.00    -0.377 OA
ATOM     55  H   LIG d   1      10.977   4.220  -1.922  0.00  0.00     0.057 H 
ATOM     56  H   LIG d   1       9.448   3.345  -2.182  0.00  0.00     0.057 H 
ATOM     57  C   LIG d   1       9.229   4.027  -4.748  0.00  0.00     0.060 C 
ATOM     58  C   LIG d   1       9.994   2.849  -5.355  0.00  0.00     0.022 C 
ATOM     59  H   LIG d   1       9.030   4.769  -5.521  0.00  0.00     0.057 H 
ATOM     60  H   LIG d   1       8.285   3.673  -4.331  0.00  0.00     0.057 H 
ATOM     61  H   LIG d   1      10.912   3.211  -5.818  0.00  0.00     0.045 H 
ATOM     62  H   LIG d   1       9.374   2.361  -6.107  0.00  0.00     0.045 H 
ENDBRANCH  46  49
ENDBRANCH  43  46
ENDBRANCH  40  43
ENDBRANCH   1  40
BRANCH   1  63
ATOM     63  C   LIG d   1      10.006  -3.963  -5.492  0.00  0.00     0.028 C 
ATOM     64  H   LIG d   1       9.403  -4.424  -6.274  0.00  0.00     0.048 H 
ATOM     65  H   LIG d   1      11.051  -3.946  -5.801  0.00  0.00     0.048 H 
BRANCH  63  66
ATOM     66  C   LIG d   1       9.873  -4.762  -4.221  0.00  0.00     0.012 A 
ATOM     67  C   LIG d   1       9.740  -6.140  -4.279  0.00  0.00     0.166 A 
ATOM     68  C   LIG d   1       9.623  -6.875  -3.102  0.00  0.00     0.162 A 
ATOM     69  C   LIG d   1       9.629  -6.225  -1.879  0.00  0.00    -0.016 A 
ATOM     70  C   LIG d   1       9.756  -4.848  -1.829  0.00  0.00    -0.058 A 
ATOM     71  H   LIG d   1       9.535  -6.792  -0.966  0.00  0.00     0.066 H 
ATOM     72  C   LIG d   1       9.878  -4.119  -2.996  0.00  0.00    -0.054 A 
ATOM     73  H   LIG d   1       9.760  -4.343  -0.874  0.00  0.00     0.062 H 
ATOM     74  H   LIG d   1       9.977  -3.044  -2.952  0.00  0.00     0.062 H 
BRANCH  67  75
ATOM     75  O   LIG d   1       9.729  -6.773  -5.482  0.00  0.00    -0.491 OA
BRANCH  75  76
ATOM     76  C   LIG d   1       8.452  -7.009  -6.078  0.00  0.00     0.079 C 
ATOM     77  H   LIG d   1       8.581  -7.256  -7.132  0.00  0.00     0.066 H 
ATOM     78  H   LIG d   1       7.960  -7.838  -5.568  0.00  0.00     0.066 H 
ATOM     79  H   LIG d   1       7.838  -6.112  -5.987  0.00  0.00     0.066 H 
ENDBRANCH  75  76
ENDBRANCH  67  75
BRANCH  68  80
ATOM     80  O   LIG d   1       9.499  -8.228  -3.154  0.00  0.00    -0.491 OA
BRANCH  80  81
ATOM     81  C   LIG d   1       8.277  -8.786  -2.668  0.00  0.00     0.079 C 
ATOM     82  H   LIG d   1       7.765  -8.054  -2.044  0.00  0.00     0.066 H 
ATOM     83  H   LIG d   1       7.639  -9.054  -3.511  0.00  0.00     0.066 H 
ATOM     84  H   LIG d   1       8.493  -9.678  -2.079  0.00  0.00     0.066 H 
ENDBRANCH  80  81
ENDBRANCH  68  80
ENDBRANCH  63  66
ENDBRANCH   1  63
TORSDOF 13
ENDMDL
MODEL 7
REMARK VINA RESULT:      -6.4      5.527      8.774
REMARK  13 active torsions:
REMARK  status: ('A' for Active; 'I' for Inactive)
REMARK    1  A    between atoms: C_1  and  C_2 
REMARK    2  A    between atoms: C_19  and  C_21 
REMARK    3  A    between atoms: C_21  and  N_22 
REMARK    4  A    between atoms: N_22  and  C_23 
REMARK    5  A    between atoms: N_22  and  C_32 
REMARK    6  A    between atoms: C_23  and  C_24 
REMARK    7  A    between atoms: C_24  and  C_25 
REMARK    8  A    between atoms: C_25  and  N_26 
REMARK    9  A    between atoms: C_32  and  C_33 
REMARK   10  A    between atoms: C_37  and  O_41 
REMARK   11  A    between atoms: C_38  and  O_39 
REMARK   12  A    between atoms: O_39  and  C_40 
REMARK   13  A    between atoms: O_41  and  C_42 
ROOT
ATOM      1  N   LIG d   1       9.366   3.435  -4.870  0.00  0.00    -0.297 N 
ENDROOT
BRANCH   1   2
ATOM      2  C   LIG d   1       8.218   2.520  -4.927  0.00  0.00     0.013 C 
ATOM      3  H   LIG d   1       7.426   2.967  -5.527  0.00  0.00     0.043 H 
ATOM      4  H   LIG d   1       7.850   2.336  -3.918  0.00  0.00     0.043 H 
BRANCH   2   5
ATOM      5  C   LIG d   1       8.652   1.196  -5.559  0.00  0.00     0.075 C 
ATOM      6  C   LIG d   1       8.254  -0.004  -4.647  0.00  0.00     0.011 C 
ATOM      7  C   LIG d   1       7.078   0.475  -3.790  0.00  0.00    -0.039 C 
ATOM      8  H   LIG d   1       9.084  -0.375  -4.047  0.00  0.00     0.035 H 
ATOM      9  C   LIG d   1       7.786  -1.017  -5.709  0.00  0.00     0.107 C 
ATOM     10  C   LIG d   1       6.318  -0.715  -3.213  0.00  0.00    -0.014 C 
ATOM     11  H   LIG d   1       6.403   1.069  -4.406  0.00  0.00     0.028 H 
ATOM     12  H   LIG d   1       7.456   1.091  -2.974  0.00  0.00     0.028 H 
ATOM     13  C   LIG d   1       5.730  -1.519  -4.381  0.00  0.00    -0.022 C 
ATOM     14  C   LIG d   1       5.176  -0.218  -2.357  0.00  0.00    -0.073 C 
ATOM     15  H   LIG d   1       6.987  -1.346  -2.627  0.00  0.00     0.035 H 
ATOM     16  C   LIG d   1       6.895  -2.097  -5.185  0.00  0.00    -0.009 C 
ATOM     17  C   LIG d   1       4.845  -2.635  -3.829  0.00  0.00    -0.047 C 
ATOM     18  H   LIG d   1       7.483  -2.751  -4.541  0.00  0.00     0.031 H 
ATOM     19  H   LIG d   1       6.500  -2.678  -6.018  0.00  0.00     0.031 H 
ATOM     20  C   LIG d   1       3.654  -2.027  -3.086  0.00  0.00    -0.049 C 
ATOM     21  H   LIG d   1       4.483  -3.251  -4.652  0.00  0.00     0.027 H 
ATOM     22  H   LIG d   1       5.425  -3.251  -3.142  0.00  0.00     0.027 H 
ATOM     23  C   LIG d   1       4.154  -1.226  -1.880  0.00  0.00    -0.032 C 
ATOM     24  H   LIG d   1       3.105  -1.367  -3.758  0.00  0.00     0.027 H 
ATOM     25  H   LIG d   1       2.994  -2.825  -2.745  0.00  0.00     0.027 H 
ATOM     26  H   LIG d   1       3.316  -0.706  -1.415  0.00  0.00     0.031 H 
ATOM     27  H   LIG d   1       4.614  -1.901  -1.158  0.00  0.00     0.031 H 
ATOM     28  C   LIG d   1       5.075   1.048  -2.037  0.00  0.00    -0.099 C 
ATOM     29  H   LIG d   1       4.253   1.386  -1.424  0.00  0.00     0.053 H 
ATOM     30  H   LIG d   1       5.814   1.754  -2.385  0.00  0.00     0.053 H 
ATOM     31  H   LIG d   1       8.663  -1.478  -6.166  0.00  0.00     0.074 H 
ATOM     32  O   LIG d   1       7.126  -0.205  -6.688  0.00  0.00    -0.461 OA
ATOM     33  C   LIG d   1       7.867   0.913  -6.853  0.00  0.00     0.312 C 
ATOM     34  O   LIG d   1       7.908   1.587  -7.856  0.00  0.00    -0.251 OA
ATOM     35  H   LIG d   1       9.726   1.194  -5.748  0.00  0.00     0.043 H 
BRANCH  13  36
ATOM     36  C   LIG d   1       4.898  -0.596  -5.274  0.00  0.00    -0.059 C 
ATOM     37  H   LIG d   1       3.868  -0.581  -4.920  0.00  0.00     0.024 H 
ATOM     38  H   LIG d   1       5.310   0.413  -5.237  0.00  0.00     0.024 H 
ATOM     39  H   LIG d   1       4.926  -0.962  -6.300  0.00  0.00     0.024 H 
ENDBRANCH  13  36
ENDBRANCH   2   5
ENDBRANCH   1   2
BRANCH   1  40
ATOM     40  C   LIG d   1      10.586   2.782  -5.363  0.00  0.00     0.000 C 
ATOM     41  H   LIG d   1      11.251   2.575  -4.524  0.00  0.00     0.043 H 
ATOM     42  H   LIG d   1      10.323   1.847  -5.858  0.00  0.00     0.043 H 
BRANCH  40  43
ATOM     43  C   LIG d   1      11.293   3.704  -6.358  0.00  0.00    -0.027 C 
ATOM     44  H   LIG d   1      11.166   4.740  -6.045  0.00  0.00     0.029 H 
ATOM     45  H   LIG d   1      12.355   3.461  -6.387  0.00  0.00     0.029 H 
BRANCH  43  46
ATOM     46  C   LIG d   1      10.688   3.512  -7.750  0.00  0.00     0.000 C 
ATOM     47  H   LIG d   1      11.485   3.323  -8.469  0.00  0.00     0.043 H 
ATOM     48  H   LIG d   1      10.003   2.664  -7.735  0.00  0.00     0.043 H 
BRANCH  46  49
ATOM     49  N   LIG d   1       9.955   4.725  -8.137  0.00  0.00    -0.298 N 
ATOM     50  C   LIG d   1      10.844   5.896  -8.152  0.00  0.00     0.022 C 
ATOM     51  C   LIG d   1      10.029   7.143  -8.500  0.00  0.00     0.060 C 
ATOM     52  H   LIG d   1      11.299   6.021  -7.169  0.00  0.00     0.045 H 
ATOM     53  H   LIG d   1      11.625   5.750  -8.899  0.00  0.00     0.045 H 
ATOM     54  O   LIG d   1       9.374   6.944  -9.756  0.00  0.00    -0.377 OA
ATOM     55  H   LIG d   1      10.694   8.005  -8.569  0.00  0.00     0.057 H 
ATOM     56  H   LIG d   1       9.283   7.320  -7.725  0.00  0.00     0.057 H 
ATOM     57  C   LIG d   1       8.500   5.813  -9.776  0.00  0.00     0.060 C 
ATOM     58  C   LIG d   1       9.299   4.551  -9.441  0.00  0.00     0.022 C 
ATOM     59  H   LIG d   1       8.058   5.711 -10.767  0.00  0.00     0.057 H 
ATOM     60  H   LIG d   1       7.710   5.951  -9.037  0.00  0.00     0.057 H 
ATOM     61  H   LIG d   1      10.055   4.384 -10.208  0.00  0.00     0.045 H 
ATOM     62  H   LIG d   1       8.626   3.695  -9.399  0.00  0.00     0.045 H 
ENDBRANCH  46  49
ENDBRANCH  43  46
ENDBRANCH  40  43
ENDBRANCH   1  40
BRANCH   1  63
ATOM     63  C   LIG d   1       9.559   3.953  -3.510  0.00  0.00     0.028 C 
ATOM     64  H   LIG d   1       8.697   3.694  -2.896  0.00  0.00     0.048 H 
ATOM     65  H   LIG d   1      10.458   3.514  -3.076  0.00  0.00     0.048 H 
BRANCH  63  66
ATOM     66  C   LIG d   1       9.708   5.451  -3.559  0.00  0.00     0.012 A 
ATOM     67  C   LIG d   1      10.105   6.146  -2.428  0.00  0.00     0.166 A 
ATOM     68  C   LIG d   1      10.246   7.530  -2.478  0.00  0.00     0.162 A 
ATOM     69  C   LIG d   1       9.978   8.209  -3.655  0.00  0.00    -0.016 A 
ATOM     70  C   LIG d   1       9.576   7.509  -4.779  0.00  0.00    -0.058 A 
ATOM     71  H   LIG d   1      10.084   9.282  -3.696  0.00  0.00     0.066 H 
ATOM     72  C   LIG d   1       9.441   6.135  -4.731  0.00  0.00    -0.054 A 
ATOM     73  H   LIG d   1       9.367   8.040  -5.696  0.00  0.00     0.062 H 
ATOM     74  H   LIG d   1       9.127   5.593  -5.611  0.00  0.00     0.062 H 
BRANCH  67  75
ATOM     75  O   LIG d   1      10.362   5.476  -1.272  0.00  0.00    -0.491 OA
BRANCH  75  76
ATOM     76  C   LIG d   1      11.727   5.151  -1.001  0.00  0.00     0.079 C 
ATOM     77  H   LIG d   1      12.373   5.677  -1.705  0.00  0.00     0.066 H 
ATOM     78  H   LIG d   1      11.978   5.450   0.017  0.00  0.00     0.066 H 
ATOM     79  H   LIG d   1      11.872   4.076  -1.110  0.00  0.00     0.066 H 
ENDBRANCH  75  76
ENDBRANCH  67  75
BRANCH  68  80
ATOM     80  O   LIG d   1      10.643   8.215  -1.372  0.00  0.00    -0.491 OA
BRANCH  80  81
ATOM     81  C   LIG d   1       9.800   9.282  -0.934  0.00  0.00     0.079 C 
ATOM     82  H   LIG d   1       9.074   9.516  -1.712  0.00  0.00     0.066 H 
ATOM     83  H   LIG d   1       9.275   8.982  -0.026  0.00  0.00     0.066 H 
ATOM     84  H   LIG d   1      10.408  10.164  -0.726  0.00  0.00     0.066 H 
ENDBRANCH  80  81
ENDBRANCH  68  80
ENDBRANCH  63  66
ENDBRANCH   1  63
TORSDOF 13
ENDMDL
MODEL 8
REMARK VINA RESULT:      -6.2      5.622      9.477
REMARK  13 active torsions:
REMARK  status: ('A' for Active; 'I' for Inactive)
REMARK    1  A    between atoms: C_1  and  C_2 
REMARK    2  A    between atoms: C_19  and  C_21 
REMARK    3  A    between atoms: C_21  and  N_22 
REMARK    4  A    between atoms: N_22  and  C_23 
REMARK    5  A    between atoms: N_22  and  C_32 
REMARK    6  A    between atoms: C_23  and  C_24 
REMARK    7  A    between atoms: C_24  and  C_25 
REMARK    8  A    between atoms: C_25  and  N_26 
REMARK    9  A    between atoms: C_32  and  C_33 
REMARK   10  A    between atoms: C_37  and  O_41 
REMARK   11  A    between atoms: C_38  and  O_39 
REMARK   12  A    between atoms: O_39  and  C_40 
REMARK   13  A    between atoms: O_41  and  C_42 
ROOT
ATOM      1  N   LIG d   1       9.456   3.343  -4.749  0.00  0.00    -0.297 N 
ENDROOT
BRANCH   1   2
ATOM      2  C   LIG d   1       8.277   2.475  -4.867  0.00  0.00     0.013 C 
ATOM      3  H   LIG d   1       7.522   2.969  -5.478  0.00  0.00     0.043 H 
ATOM      4  H   LIG d   1       7.870   2.279  -3.874  0.00  0.00     0.043 H 
BRANCH   2   5
ATOM      5  C   LIG d   1       8.681   1.153  -5.522  0.00  0.00     0.075 C 
ATOM      6  C   LIG d   1       8.248  -0.053  -4.635  0.00  0.00     0.011 C 
ATOM      7  C   LIG d   1       7.080   0.438  -3.775  0.00  0.00    -0.039 C 
ATOM      8  H   LIG d   1       9.065  -0.457  -4.038  0.00  0.00     0.035 H 
ATOM      9  C   LIG d   1       7.760  -1.034  -5.719  0.00  0.00     0.107 C 
ATOM     10  C   LIG d   1       6.287  -0.742  -3.224  0.00  0.00    -0.014 C 
ATOM     11  H   LIG d   1       6.424   1.061  -4.382  0.00  0.00     0.028 H 
ATOM     12  H   LIG d   1       7.469   1.029  -2.945  0.00  0.00     0.028 H 
ATOM     13  C   LIG d   1       5.685  -1.509  -4.410  0.00  0.00    -0.022 C 
ATOM     14  C   LIG d   1       5.154  -0.233  -2.363  0.00  0.00    -0.073 C 
ATOM     15  H   LIG d   1       6.937  -1.401  -2.647  0.00  0.00     0.035 H 
ATOM     16  C   LIG d   1       6.838  -2.101  -5.219  0.00  0.00    -0.009 C 
ATOM     17  C   LIG d   1       4.769  -2.612  -3.883  0.00  0.00    -0.047 C 
ATOM     18  H   LIG d   1       7.407  -2.782  -4.585  0.00  0.00     0.031 H 
ATOM     19  H   LIG d   1       6.433  -2.656  -6.065  0.00  0.00     0.031 H 
ATOM     20  C   LIG d   1       3.589  -1.988  -3.134  0.00  0.00    -0.049 C 
ATOM     21  H   LIG d   1       4.396  -3.203  -4.719  0.00  0.00     0.027 H 
ATOM     22  H   LIG d   1       5.329  -3.256  -3.205  0.00  0.00     0.027 H 
ATOM     23  C   LIG d   1       4.104  -1.224  -1.911  0.00  0.00    -0.032 C 
ATOM     24  H   LIG d   1       3.061  -1.302  -3.796  0.00  0.00     0.027 H 
ATOM     25  H   LIG d   1       2.908  -2.775  -2.811  0.00  0.00     0.027 H 
ATOM     26  H   LIG d   1       3.277  -0.691  -1.439  0.00  0.00     0.031 H 
ATOM     27  H   LIG d   1       4.543  -1.924  -1.200  0.00  0.00     0.031 H 
ATOM     28  C   LIG d   1       5.083   1.029  -2.020  0.00  0.00    -0.099 C 
ATOM     29  H   LIG d   1       4.267   1.376  -1.404  0.00  0.00     0.053 H 
ATOM     30  H   LIG d   1       5.842   1.722  -2.351  0.00  0.00     0.053 H 
ATOM     31  H   LIG d   1       8.626  -1.509  -6.180  0.00  0.00     0.074 H 
ATOM     32  O   LIG d   1       7.125  -0.187  -6.684  0.00  0.00    -0.461 OA
ATOM     33  C   LIG d   1       7.895   0.915  -6.825  0.00  0.00     0.312 C 
ATOM     34  O   LIG d   1       7.958   1.606  -7.814  0.00  0.00    -0.251 OA
ATOM     35  H   LIG d   1       9.755   1.127  -5.706  0.00  0.00     0.043 H 
BRANCH  13  36
ATOM     36  C   LIG d   1       4.881  -0.548  -5.288  0.00  0.00    -0.059 C 
ATOM     37  H   LIG d   1       3.816  -0.697  -5.110  0.00  0.00     0.024 H 
ATOM     38  H   LIG d   1       5.149   0.480  -5.043  0.00  0.00     0.024 H 
ATOM     39  H   LIG d   1       5.105  -0.742  -6.337  0.00  0.00     0.024 H 
ENDBRANCH  13  36
ENDBRANCH   2   5
ENDBRANCH   1   2
BRANCH   1  40
ATOM     40  C   LIG d   1      10.686   2.610  -5.079  0.00  0.00     0.000 C 
ATOM     41  H   LIG d   1      10.427   1.632  -5.485  0.00  0.00     0.043 H 
ATOM     42  H   LIG d   1      11.256   3.172  -5.819  0.00  0.00     0.043 H 
BRANCH  40  43
ATOM     43  C   LIG d   1      11.529   2.432  -3.815  0.00  0.00    -0.027 C 
ATOM     44  H   LIG d   1      12.278   3.221  -3.764  0.00  0.00     0.029 H 
ATOM     45  H   LIG d   1      10.883   2.485  -2.938  0.00  0.00     0.029 H 
BRANCH  43  46
ATOM     46  C   LIG d   1      12.225   1.070  -3.854  0.00  0.00     0.000 C 
ATOM     47  H   LIG d   1      11.990   0.516  -2.944  0.00  0.00     0.043 H 
ATOM     48  H   LIG d   1      11.876   0.508  -4.720  0.00  0.00     0.043 H 
BRANCH  46  49
ATOM     49  N   LIG d   1      13.677   1.264  -3.949  0.00  0.00    -0.298 N 
ATOM     50  C   LIG d   1      14.050   2.639  -3.585  0.00  0.00     0.022 C 
ATOM     51  C   LIG d   1      15.561   2.814  -3.756  0.00  0.00     0.060 C 
ATOM     52  H   LIG d   1      13.526   3.343  -4.233  0.00  0.00     0.045 H 
ATOM     53  H   LIG d   1      13.776   2.828  -2.547  0.00  0.00     0.045 H 
ATOM     54  O   LIG d   1      16.242   1.840  -2.960  0.00  0.00    -0.377 OA
ATOM     55  H   LIG d   1      15.850   3.815  -3.433  0.00  0.00     0.057 H 
ATOM     56  H   LIG d   1      15.827   2.679  -4.804  0.00  0.00     0.057 H 
ATOM     57  C   LIG d   1      15.903   0.490  -3.289  0.00  0.00     0.060 C 
ATOM     58  C   LIG d   1      14.396   0.291  -3.113  0.00  0.00     0.022 C 
ATOM     59  H   LIG d   1      16.439  -0.191  -2.629  0.00  0.00     0.057 H 
ATOM     60  H   LIG d   1      16.179   0.288  -4.324  0.00  0.00     0.057 H 
ATOM     61  H   LIG d   1      14.128   0.442  -2.068  0.00  0.00     0.045 H 
ATOM     62  H   LIG d   1      14.124  -0.720  -3.417  0.00  0.00     0.045 H 
ENDBRANCH  46  49
ENDBRANCH  43  46
ENDBRANCH  40  43
ENDBRANCH   1  40
BRANCH   1  63
ATOM     63  C   LIG d   1       9.541   3.938  -3.409  0.00  0.00     0.028 C 
ATOM     64  H   LIG d   1       8.630   3.714  -2.854  0.00  0.00     0.048 H 
ATOM     65  H   LIG d   1      10.399   3.523  -2.880  0.00  0.00     0.048 H 
BRANCH  63  66
ATOM     66  C   LIG d   1       9.701   5.431  -3.531  0.00  0.00     0.012 A 
ATOM     67  C   LIG d   1      10.088   6.178  -2.430  0.00  0.00     0.166 A 
ATOM     68  C   LIG d   1      10.239   7.557  -2.547  0.00  0.00     0.162 A 
ATOM     69  C   LIG d   1       9.993   8.178  -3.760  0.00  0.00    -0.016 A 
ATOM     70  C   LIG d   1       9.602   7.426  -4.854  0.00  0.00    -0.058 A 
ATOM     71  H   LIG d   1      10.107   9.247  -3.853  0.00  0.00     0.066 H 
ATOM     72  C   LIG d   1       9.457   6.057  -4.740  0.00  0.00    -0.054 A 
ATOM     73  H   LIG d   1       9.410   7.912  -5.799  0.00  0.00     0.062 H 
ATOM     74  H   LIG d   1       9.151   5.474  -5.596  0.00  0.00     0.062 H 
BRANCH  67  75
ATOM     75  O   LIG d   1      10.323   5.565  -1.238  0.00  0.00    -0.491 OA
BRANCH  75  76
ATOM     76  C   LIG d   1      11.677   5.212  -0.948  0.00  0.00     0.079 C 
ATOM     77  H   LIG d   1      12.348   5.944  -1.398  0.00  0.00     0.066 H 
ATOM     78  H   LIG d   1      11.826   5.199   0.132  0.00  0.00     0.066 H 
ATOM     79  H   LIG d   1      11.890   4.224  -1.356  0.00  0.00     0.066 H 
ENDBRANCH  75  76
ENDBRANCH  67  75
BRANCH  68  80
ATOM     80  O   LIG d   1      10.625   8.294  -1.470  0.00  0.00    -0.491 OA
BRANCH  80  81
ATOM     81  C   LIG d   1       9.603   9.015  -0.779  0.00  0.00     0.079 C 
ATOM     82  H   LIG d   1      10.051   9.841  -0.226  0.00  0.00     0.066 H 
ATOM     83  H   LIG d   1       8.885   9.408  -1.500  0.00  0.00     0.066 H 
ATOM     84  H   LIG d   1       9.092   8.347  -0.085  0.00  0.00     0.066 H 
ENDBRANCH  80  81
ENDBRANCH  68  80
ENDBRANCH  63  66
ENDBRANCH   1  63
TORSDOF 13
ENDMDL
MODEL 9
REMARK VINA RESULT:      -6.2      6.036      9.246
REMARK  13 active torsions:
REMARK  status: ('A' for Active; 'I' for Inactive)
REMARK    1  A    between atoms: C_1  and  C_2 
REMARK    2  A    between atoms: C_19  and  C_21 
REMARK    3  A    between atoms: C_21  and  N_22 
REMARK    4  A    between atoms: N_22  and  C_23 
REMARK    5  A    between atoms: N_22  and  C_32 
REMARK    6  A    between atoms: C_23  and  C_24 
REMARK    7  A    between atoms: C_24  and  C_25 
REMARK    8  A    between atoms: C_25  and  N_26 
REMARK    9  A    between atoms: C_32  and  C_33 
REMARK   10  A    between atoms: C_37  and  O_41 
REMARK   11  A    between atoms: C_38  and  O_39 
REMARK   12  A    between atoms: O_39  and  C_40 
REMARK   13  A    between atoms: O_41  and  C_42 
ROOT
ATOM      1  N   LIG d   1       9.182   3.872  -4.392  0.00  0.00    -0.297 N 
ENDROOT
BRANCH   1   2
ATOM      2  C   LIG d   1       8.117   2.880  -4.589  0.00  0.00     0.013 C 
ATOM      3  H   LIG d   1       7.346   3.299  -5.234  0.00  0.00     0.043 H 
ATOM      4  H   LIG d   1       7.681   2.618  -3.624  0.00  0.00     0.043 H 
BRANCH   2   5
ATOM      5  C   LIG d   1       8.702   1.625  -5.240  0.00  0.00     0.075 C 
ATOM      6  C   LIG d   1       8.351   0.358  -4.402  0.00  0.00     0.011 C 
ATOM      7  C   LIG d   1       7.086   0.700  -3.609  0.00  0.00    -0.039 C 
ATOM      8  H   LIG d   1       9.170   0.032  -3.762  0.00  0.00     0.035 H 
ATOM      9  C   LIG d   1       8.041  -0.643  -5.531  0.00  0.00     0.107 C 
ATOM     10  C   LIG d   1       6.396  -0.573  -3.129  0.00  0.00    -0.014 C 
ATOM     11  H   LIG d   1       6.404   1.262  -4.246  0.00  0.00     0.028 H 
ATOM     12  H   LIG d   1       7.357   1.309  -2.747  0.00  0.00     0.028 H 
ATOM     13  C   LIG d   1       5.955  -1.371  -4.364  0.00  0.00    -0.022 C 
ATOM     14  C   LIG d   1       5.163  -0.210  -2.333  0.00  0.00    -0.073 C 
ATOM     15  H   LIG d   1       7.078  -1.170  -2.524  0.00  0.00     0.035 H 
ATOM     16  C   LIG d   1       7.213  -1.816  -5.108  0.00  0.00    -0.009 C 
ATOM     17  C   LIG d   1       5.135  -2.580  -3.915  0.00  0.00    -0.047 C 
ATOM     18  H   LIG d   1       7.814  -2.446  -4.452  0.00  0.00     0.031 H 
ATOM     19  H   LIG d   1       6.924  -2.391  -5.988  0.00  0.00     0.031 H 
ATOM     20  C   LIG d   1       3.851  -2.106  -3.231  0.00  0.00    -0.049 C 
ATOM     21  H   LIG d   1       4.881  -3.188  -4.782  0.00  0.00     0.027 H 
ATOM     22  H   LIG d   1       5.720  -3.175  -3.214  0.00  0.00     0.027 H 
ATOM     23  C   LIG d   1       4.203  -1.319  -1.965  0.00  0.00    -0.032 C 
ATOM     24  H   LIG d   1       3.292  -1.465  -3.913  0.00  0.00     0.027 H 
ATOM     25  H   LIG d   1       3.242  -2.969  -2.965  0.00  0.00     0.027 H 
ATOM     26  H   LIG d   1       3.296  -0.891  -1.538  0.00  0.00     0.031 H 
ATOM     27  H   LIG d   1       4.672  -1.984  -1.240  0.00  0.00     0.031 H 
ATOM     28  C   LIG d   1       4.933   1.029  -1.974  0.00  0.00    -0.099 C 
ATOM     29  H   LIG d   1       4.048   1.270  -1.405  0.00  0.00     0.053 H 
ATOM     30  H   LIG d   1       5.630   1.807  -2.245  0.00  0.00     0.053 H 
ATOM     31  H   LIG d   1       8.981  -1.010  -5.945  0.00  0.00     0.074 H 
ATOM     32  O   LIG d   1       7.377   0.152  -6.520  0.00  0.00    -0.461 OA
ATOM     33  C   LIG d   1       8.028   1.334  -6.594  0.00  0.00     0.312 C 
ATOM     34  O   LIG d   1       8.075   2.052  -7.565  0.00  0.00    -0.251 OA
ATOM     35  H   LIG d   1       9.782   1.720  -5.356  0.00  0.00     0.043 H 
BRANCH  13  36
ATOM     36  C   LIG d   1       5.105  -0.483  -5.275  0.00  0.00    -0.059 C 
ATOM     37  H   LIG d   1       5.261   0.562  -5.011  0.00  0.00     0.024 H 
ATOM     38  H   LIG d   1       5.397  -0.643  -6.313  0.00  0.00     0.024 H 
ATOM     39  H   LIG d   1       4.053  -0.738  -5.150  0.00  0.00     0.024 H 
ENDBRANCH  13  36
ENDBRANCH   2   5
ENDBRANCH   1   2
BRANCH   1  40
ATOM     40  C   LIG d   1      10.062   3.941  -5.566  0.00  0.00     0.000 C 
ATOM     41  H   LIG d   1      11.098   3.814  -5.251  0.00  0.00     0.043 H 
ATOM     42  H   LIG d   1       9.796   3.149  -6.267  0.00  0.00     0.043 H 
BRANCH  40  43
ATOM     43  C   LIG d   1       9.899   5.300  -6.247  0.00  0.00    -0.027 C 
ATOM     44  H   LIG d   1       8.961   5.755  -5.930  0.00  0.00     0.029 H 
ATOM     45  H   LIG d   1      10.730   5.949  -5.968  0.00  0.00     0.029 H 
BRANCH  43  46
ATOM     46  C   LIG d   1       9.888   5.113  -7.766  0.00  0.00     0.000 C 
ATOM     47  H   LIG d   1      10.872   4.782  -8.098  0.00  0.00     0.043 H 
ATOM     48  H   LIG d   1       9.143   4.363  -8.033  0.00  0.00     0.043 H 
BRANCH  46  49
ATOM     49  N   LIG d   1       9.554   6.387  -8.415  0.00  0.00    -0.298 N 
ATOM     50  C   LIG d   1       9.530   7.486  -7.438  0.00  0.00     0.022 C 
ATOM     51  C   LIG d   1       9.120   8.780  -8.144  0.00  0.00     0.060 C 
ATOM     52  H   LIG d   1       8.812   7.257  -6.650  0.00  0.00     0.045 H 
ATOM     53  H   LIG d   1      10.522   7.607  -7.002  0.00  0.00     0.045 H 
ATOM     54  O   LIG d   1      10.022   9.035  -9.224  0.00  0.00    -0.377 OA
ATOM     55  H   LIG d   1       9.156   9.608  -7.436  0.00  0.00     0.057 H 
ATOM     56  H   LIG d   1       8.106   8.678  -8.533  0.00  0.00     0.057 H 
ATOM     57  C   LIG d   1      10.069   7.986 -10.194  0.00  0.00     0.060 C 
ATOM     58  C   LIG d   1      10.490   6.683  -9.509  0.00  0.00     0.022 C 
ATOM     59  H   LIG d   1      10.793   8.239 -10.970  0.00  0.00     0.057 H 
ATOM     60  H   LIG d   1       9.083   7.860 -10.643  0.00  0.00     0.057 H 
ATOM     61  H   LIG d   1      11.497   6.791  -9.107  0.00  0.00     0.045 H 
ATOM     62  H   LIG d   1      10.472   5.869 -10.233  0.00  0.00     0.045 H 
ENDBRANCH  46  49
ENDBRANCH  43  46
ENDBRANCH  40  43
ENDBRANCH   1  40
BRANCH   1  63
ATOM     63  C   LIG d   1       9.951   3.584  -3.174  0.00  0.00     0.028 C 
ATOM     64  H   LIG d   1       9.298   3.125  -2.432  0.00  0.00     0.048 H 
ATOM     65  H   LIG d   1      10.767   2.901  -3.411  0.00  0.00     0.048 H 
BRANCH  63  66
ATOM     66  C   LIG d   1      10.516   4.867  -2.621  0.00  0.00     0.012 A 
ATOM     67  C   LIG d   1      11.885   5.009  -2.460  0.00  0.00     0.166 A 
ATOM     68  C   LIG d   1      12.403   6.197  -1.953  0.00  0.00     0.162 A 
ATOM     69  C   LIG d   1      11.549   7.229  -1.603  0.00  0.00    -0.016 A 
ATOM     70  C   LIG d   1      10.183   7.078  -1.761  0.00  0.00    -0.058 A 
ATOM     71  H   LIG d   1      11.948   8.150  -1.207  0.00  0.00     0.066 H 
ATOM     72  C   LIG d   1       9.668   5.901  -2.269  0.00  0.00    -0.054 A 
ATOM     73  H   LIG d   1       9.517   7.884  -1.487  0.00  0.00     0.062 H 
ATOM     74  H   LIG d   1       8.601   5.788  -2.391  0.00  0.00     0.062 H 
BRANCH  67  75
ATOM     75  O   LIG d   1      12.720   3.990  -2.799  0.00  0.00    -0.491 OA
BRANCH  75  76
ATOM     76  C   LIG d   1      13.367   4.080  -4.071  0.00  0.00     0.079 C 
ATOM     77  H   LIG d   1      14.254   3.447  -4.074  0.00  0.00     0.066 H 
ATOM     78  H   LIG d   1      12.681   3.750  -4.852  0.00  0.00     0.066 H 
ATOM     79  H   LIG d   1      13.658   5.114  -4.257  0.00  0.00     0.066 H 
ENDBRANCH  75  76
ENDBRANCH  67  75
BRANCH  68  80
ATOM     80  O   LIG d   1      13.747   6.343  -1.799  0.00  0.00    -0.491 OA
BRANCH  80  81
ATOM     81  C   LIG d   1      14.263   7.675  -1.836  0.00  0.00     0.079 C 
ATOM     82  H   LIG d   1      14.482   7.952  -2.868  0.00  0.00     0.066 H 
ATOM     83  H   LIG d   1      13.523   8.362  -1.424  0.00  0.00     0.066 H 
ATOM     84  H   LIG d   1      15.177   7.727  -1.244  0.00  0.00     0.066 H 
ENDBRANCH  80  81
ENDBRANCH  68  80
ENDBRANCH  63  66
ENDBRANCH   1  63
TORSDOF 13
ENDMDL
