MODEL 1
REMARK VINA RESULT:      -5.5      0.000      0.000
REMARK  1 active torsions:
REMARK  status: ('A' for Active; 'I' for Inactive)
REMARK    1  A    between atoms: C_1  and  C_2 
ROOT
ATOM      1  C   LIG d   1       3.233  -0.328  -6.997  0.00  0.00     0.015 C 
ATOM      2  H   LIG d   1       2.880  -1.273  -6.584  0.00  0.00     0.037 H 
ATOM      3  C   LIG d   1       2.944   0.800  -6.006  0.00  0.00    -0.044 C 
ATOM      4  C   LIG d   1       2.228   0.232  -4.779  0.00  0.00    -0.052 C 
ATOM      5  C   LIG d   1       2.941   0.700  -3.509  0.00  0.00    -0.053 C 
ATOM      6  C   LIG d   1       3.283  -0.512  -2.641  0.00  0.00    -0.053 C 
ATOM      7  C   LIG d   1       4.780  -0.505  -2.322  0.00  0.00    -0.053 C 
ATOM      8  C   LIG d   1       5.385  -1.861  -2.686  0.00  0.00    -0.053 C 
ATOM      9  C   LIG d   1       6.596  -1.651  -3.599  0.00  0.00    -0.053 C 
ATOM     10  C   LIG d   1       6.409  -2.456  -4.886  0.00  0.00    -0.053 C 
ATOM     11  C   LIG d   1       6.603  -1.538  -6.095  0.00  0.00    -0.046 C 
ATOM     12  C   LIG d   1       5.438  -1.723  -7.069  0.00  0.00     0.006 C 
ATOM     13  C   LIG d   1       4.717  -0.412  -7.245  0.00  0.00     0.136 C 
ATOM     14  O   LIG d   1       5.329   0.572  -7.585  0.00  0.00    -0.297 OA
ATOM     15  H   LIG d   1       3.882   1.262  -5.698  0.00  0.00     0.027 H 
ATOM     16  H   LIG d   1       2.311   1.550  -6.482  0.00  0.00     0.027 H 
ATOM     17  H   LIG d   1       1.196   0.582  -4.767  0.00  0.00     0.026 H 
ATOM     18  H   LIG d   1       2.241  -0.858  -4.823  0.00  0.00     0.026 H 
ATOM     19  H   LIG d   1       3.858   1.224  -3.780  0.00  0.00     0.026 H 
ATOM     20  H   LIG d   1       2.288   1.373  -2.953  0.00  0.00     0.026 H 
ATOM     21  H   LIG d   1       2.714  -0.466  -1.712  0.00  0.00     0.026 H 
ATOM     22  H   LIG d   1       3.030  -1.426  -3.177  0.00  0.00     0.026 H 
ATOM     23  H   LIG d   1       5.271   0.279  -2.899  0.00  0.00     0.026 H 
ATOM     24  H   LIG d   1       4.924  -0.317  -1.257  0.00  0.00     0.026 H 
ATOM     25  H   LIG d   1       5.701  -2.375  -1.778  0.00  0.00     0.026 H 
ATOM     26  H   LIG d   1       4.639  -2.465  -3.205  0.00  0.00     0.026 H 
ATOM     27  H   LIG d   1       6.688  -0.593  -3.842  0.00  0.00     0.026 H 
ATOM     28  H   LIG d   1       7.497  -1.986  -3.088  0.00  0.00     0.026 H 
ATOM     29  H   LIG d   1       7.142  -3.262  -4.920  0.00  0.00     0.026 H 
ATOM     30  H   LIG d   1       5.405  -2.879  -4.909  0.00  0.00     0.026 H 
ATOM     31  H   LIG d   1       6.636  -0.501  -5.761  0.00  0.00     0.027 H 
ATOM     32  H   LIG d   1       7.538  -1.789  -6.595  0.00  0.00     0.027 H 
ATOM     33  H   LIG d   1       5.819  -2.061  -8.033  0.00  0.00     0.034 H 
ATOM     34  H   LIG d   1       4.747  -2.468  -6.671  0.00  0.00     0.034 H 
ENDROOT
BRANCH   1  35
ATOM     35  C   LIG d   1       2.510  -0.046  -8.316  0.00  0.00    -0.056 C 
ATOM     36  H   LIG d   1       3.044  -0.532  -9.133  0.00  0.00     0.024 H 
ATOM     37  H   LIG d   1       1.493  -0.435  -8.264  0.00  0.00     0.024 H 
ATOM     38  H   LIG d   1       2.480   1.029  -8.490  0.00  0.00     0.024 H 
ENDBRANCH   1  35
TORSDOF 1
ENDMDL
MODEL 2
REMARK VINA RESULT:      -5.2      1.878      4.298
REMARK  1 active torsions:
REMARK  status: ('A' for Active; 'I' for Inactive)
REMARK    1  A    between atoms: C_1  and  C_2 
ROOT
ATOM      1  C   LIG d   1       4.405  -0.932  -3.072  0.00  0.00     0.015 C 
ATOM      2  H   LIG d   1       5.102  -0.248  -3.557  0.00  0.00     0.037 H 
ATOM      3  C   LIG d   1       2.974  -0.568  -3.470  0.00  0.00    -0.044 C 
ATOM      4  C   LIG d   1       2.995   0.655  -4.390  0.00  0.00    -0.052 C 
ATOM      5  C   LIG d   1       2.164   0.366  -5.643  0.00  0.00    -0.053 C 
ATOM      6  C   LIG d   1       3.006   0.647  -6.889  0.00  0.00    -0.053 C 
ATOM      7  C   LIG d   1       3.016  -0.591  -7.788  0.00  0.00    -0.053 C 
ATOM      8  C   LIG d   1       4.461  -0.962  -8.128  0.00  0.00    -0.053 C 
ATOM      9  C   LIG d   1       4.702  -2.435  -7.790  0.00  0.00    -0.053 C 
ATOM     10  C   LIG d   1       5.898  -2.552  -6.844  0.00  0.00    -0.053 C 
ATOM     11  C   LIG d   1       5.499  -3.374  -5.616  0.00  0.00    -0.046 C 
ATOM     12  C   LIG d   1       5.920  -2.634  -4.346  0.00  0.00     0.006 C 
ATOM     13  C   LIG d   1       4.703  -2.344  -3.506  0.00  0.00     0.136 C 
ATOM     14  O   LIG d   1       3.966  -3.244  -3.181  0.00  0.00    -0.297 OA
ATOM     15  H   LIG d   1       2.517  -1.407  -3.992  0.00  0.00     0.027 H 
ATOM     16  H   LIG d   1       2.394  -0.338  -2.575  0.00  0.00     0.027 H 
ATOM     17  H   LIG d   1       2.575   1.512  -3.865  0.00  0.00     0.026 H 
ATOM     18  H   LIG d   1       4.024   0.874  -4.679  0.00  0.00     0.026 H 
ATOM     19  H   LIG d   1       1.857  -0.680  -5.641  0.00  0.00     0.026 H 
ATOM     20  H   LIG d   1       1.282   1.004  -5.648  0.00  0.00     0.026 H 
ATOM     21  H   LIG d   1       2.578   1.488  -7.433  0.00  0.00     0.026 H 
ATOM     22  H   LIG d   1       4.027   0.889  -6.591  0.00  0.00     0.026 H 
ATOM     23  H   LIG d   1       2.540  -1.422  -7.268  0.00  0.00     0.026 H 
ATOM     24  H   LIG d   1       2.470  -0.376  -8.707  0.00  0.00     0.026 H 
ATOM     25  H   LIG d   1       4.637  -0.800  -9.192  0.00  0.00     0.026 H 
ATOM     26  H   LIG d   1       5.142  -0.340  -7.548  0.00  0.00     0.026 H 
ATOM     27  H   LIG d   1       3.815  -2.847  -7.309  0.00  0.00     0.026 H 
ATOM     28  H   LIG d   1       4.908  -2.988  -8.706  0.00  0.00     0.026 H 
ATOM     29  H   LIG d   1       6.722  -3.043  -7.359  0.00  0.00     0.026 H 
ATOM     30  H   LIG d   1       6.210  -1.556  -6.527  0.00  0.00     0.026 H 
ATOM     31  H   LIG d   1       4.419  -3.519  -5.612  0.00  0.00     0.027 H 
ATOM     32  H   LIG d   1       5.995  -4.344  -5.653  0.00  0.00     0.027 H 
ATOM     33  H   LIG d   1       6.615  -3.252  -3.778  0.00  0.00     0.034 H 
ATOM     34  H   LIG d   1       6.406  -1.696  -4.617  0.00  0.00     0.034 H 
ENDROOT
BRANCH   1  35
ATOM     35  C   LIG d   1       4.556  -0.822  -1.554  0.00  0.00    -0.056 C 
ATOM     36  H   LIG d   1       4.135  -1.710  -1.082  0.00  0.00     0.024 H 
ATOM     37  H   LIG d   1       5.612  -0.741  -1.298  0.00  0.00     0.024 H 
ATOM     38  H   LIG d   1       4.027   0.062  -1.200  0.00  0.00     0.024 H 
ENDBRANCH   1  35
TORSDOF 1
ENDMDL
MODEL 3
REMARK VINA RESULT:      -5.2      1.984      4.963
REMARK  1 active torsions:
REMARK  status: ('A' for Active; 'I' for Inactive)
REMARK    1  A    between atoms: C_1  and  C_2 
ROOT
ATOM      1  C   LIG d   1       4.808   0.347  -2.919  0.00  0.00     0.015 C 
ATOM      2  H   LIG d   1       5.016  -0.685  -3.204  0.00  0.00     0.037 H 
ATOM      3  C   LIG d   1       6.034   1.214  -3.214  0.00  0.00    -0.044 C 
ATOM      4  C   LIG d   1       7.153   0.338  -3.780  0.00  0.00    -0.052 C 
ATOM      5  C   LIG d   1       7.690   0.966  -5.068  0.00  0.00    -0.053 C 
ATOM      6  C   LIG d   1       7.658  -0.071  -6.193  0.00  0.00    -0.053 C 
ATOM      7  C   LIG d   1       6.884   0.494  -7.385  0.00  0.00    -0.053 C 
ATOM      8  C   LIG d   1       5.799  -0.499  -7.805  0.00  0.00    -0.053 C 
ATOM      9  C   LIG d   1       4.447   0.219  -7.865  0.00  0.00    -0.053 C 
ATOM     10  C   LIG d   1       3.441  -0.515  -6.976  0.00  0.00    -0.053 C 
ATOM     11  C   LIG d   1       2.793   0.479  -6.010  0.00  0.00    -0.046 C 
ATOM     12  C   LIG d   1       2.847  -0.081  -4.588  0.00  0.00     0.006 C 
ATOM     13  C   LIG d   1       3.630   0.859  -3.707  0.00  0.00     0.136 C 
ATOM     14  O   LIG d   1       3.313   2.021  -3.634  0.00  0.00    -0.297 OA
ATOM     15  H   LIG d   1       5.770   1.981  -3.940  0.00  0.00     0.027 H 
ATOM     16  H   LIG d   1       6.374   1.688  -2.293  0.00  0.00     0.027 H 
ATOM     17  H   LIG d   1       7.959   0.261  -3.050  0.00  0.00     0.026 H 
ATOM     18  H   LIG d   1       6.763  -0.657  -3.996  0.00  0.00     0.026 H 
ATOM     19  H   LIG d   1       7.069   1.819  -5.343  0.00  0.00     0.026 H 
ATOM     20  H   LIG d   1       8.716   1.299  -4.910  0.00  0.00     0.026 H 
ATOM     21  H   LIG d   1       8.677  -0.305  -6.499  0.00  0.00     0.026 H 
ATOM     22  H   LIG d   1       7.168  -0.977  -5.837  0.00  0.00     0.026 H 
ATOM     23  H   LIG d   1       6.423   1.440  -7.104  0.00  0.00     0.026 H 
ATOM     24  H   LIG d   1       7.569   0.657  -8.219  0.00  0.00     0.026 H 
ATOM     25  H   LIG d   1       6.037  -0.905  -8.787  0.00  0.00     0.026 H 
ATOM     26  H   LIG d   1       5.747  -1.310  -7.078  0.00  0.00     0.026 H 
ATOM     27  H   LIG d   1       4.564   1.243  -7.512  0.00  0.00     0.026 H 
ATOM     28  H   LIG d   1       4.087   0.227  -8.892  0.00  0.00     0.026 H 
ATOM     29  H   LIG d   1       2.672  -0.971  -7.599  0.00  0.00     0.026 H 
ATOM     30  H   LIG d   1       3.955  -1.290  -6.408  0.00  0.00     0.026 H 
ATOM     31  H   LIG d   1       3.332   1.426  -6.049  0.00  0.00     0.027 H 
ATOM     32  H   LIG d   1       1.754   0.640  -6.298  0.00  0.00     0.027 H 
ATOM     33  H   LIG d   1       1.834  -0.185  -4.199  0.00  0.00     0.034 H 
ATOM     34  H   LIG d   1       3.333  -1.057  -4.601  0.00  0.00     0.034 H 
ENDROOT
BRANCH   1  35
ATOM     35  C   LIG d   1       4.487   0.409  -1.424  0.00  0.00    -0.056 C 
ATOM     36  H   LIG d   1       4.798  -0.521  -0.947  0.00  0.00     0.024 H 
ATOM     37  H   LIG d   1       5.020   1.245  -0.972  0.00  0.00     0.024 H 
ATOM     38  H   LIG d   1       3.415   0.545  -1.289  0.00  0.00     0.024 H 
ENDBRANCH   1  35
TORSDOF 1
ENDMDL
MODEL 4
REMARK VINA RESULT:      -5.2      1.435      4.747
REMARK  1 active torsions:
REMARK  status: ('A' for Active; 'I' for Inactive)
REMARK    1  A    between atoms: C_1  and  C_2 
ROOT
ATOM      1  C   LIG d   1       6.207  -2.719  -4.729  0.00  0.00     0.015 C 
ATOM      2  H   LIG d   1       5.237  -3.204  -4.837  0.00  0.00     0.037 H 
ATOM      3  C   LIG d   1       6.496  -1.875  -5.971  0.00  0.00    -0.044 C 
ATOM      4  C   LIG d   1       5.343  -2.019  -6.966  0.00  0.00    -0.052 C 
ATOM      5  C   LIG d   1       4.872  -0.632  -7.407  0.00  0.00    -0.053 C 
ATOM      6  C   LIG d   1       3.362  -0.514  -7.190  0.00  0.00    -0.053 C 
ATOM      7  C   LIG d   1       3.065   0.720  -6.335  0.00  0.00    -0.053 C 
ATOM      8  C   LIG d   1       2.186   0.318  -5.149  0.00  0.00    -0.053 C 
ATOM      9  C   LIG d   1       2.830   0.807  -3.849  0.00  0.00    -0.053 C 
ATOM     10  C   LIG d   1       3.011  -0.375  -2.894  0.00  0.00    -0.053 C 
ATOM     11  C   LIG d   1       4.464  -0.427  -2.417  0.00  0.00    -0.046 C 
ATOM     12  C   LIG d   1       5.005  -1.848  -2.581  0.00  0.00     0.006 C 
ATOM     13  C   LIG d   1       6.191  -1.830  -3.511  0.00  0.00     0.136 C 
ATOM     14  O   LIG d   1       7.127  -1.104  -3.281  0.00  0.00    -0.297 OA
ATOM     15  H   LIG d   1       6.600  -0.829  -5.685  0.00  0.00     0.027 H 
ATOM     16  H   LIG d   1       7.422  -2.217  -6.436  0.00  0.00     0.027 H 
ATOM     17  H   LIG d   1       5.682  -2.581  -7.836  0.00  0.00     0.026 H 
ATOM     18  H   LIG d   1       4.517  -2.549  -6.490  0.00  0.00     0.026 H 
ATOM     19  H   LIG d   1       5.384   0.130  -6.817  0.00  0.00     0.026 H 
ATOM     20  H   LIG d   1       5.099  -0.489  -8.462  0.00  0.00     0.026 H 
ATOM     21  H   LIG d   1       2.863  -0.416  -8.154  0.00  0.00     0.026 H 
ATOM     22  H   LIG d   1       2.997  -1.406  -6.681  0.00  0.00     0.026 H 
ATOM     23  H   LIG d   1       4.000   1.143  -5.968  0.00  0.00     0.026 H 
ATOM     24  H   LIG d   1       2.542   1.463  -6.938  0.00  0.00     0.026 H 
ATOM     25  H   LIG d   1       1.200   0.770  -5.256  0.00  0.00     0.026 H 
ATOM     26  H   LIG d   1       2.089  -0.767  -5.120  0.00  0.00     0.026 H 
ATOM     27  H   LIG d   1       3.802   1.249  -4.069  0.00  0.00     0.026 H 
ATOM     28  H   LIG d   1       2.188   1.554  -3.385  0.00  0.00     0.026 H 
ATOM     29  H   LIG d   1       2.351  -0.253  -2.036  0.00  0.00     0.026 H 
ATOM     30  H   LIG d   1       2.766  -1.302  -3.412  0.00  0.00     0.026 H 
ATOM     31  H   LIG d   1       5.066   0.262  -3.009  0.00  0.00     0.027 H 
ATOM     32  H   LIG d   1       4.511  -0.139  -1.366  0.00  0.00     0.027 H 
ATOM     33  H   LIG d   1       5.311  -2.236  -1.610  0.00  0.00     0.034 H 
ATOM     34  H   LIG d   1       4.225  -2.487  -2.998  0.00  0.00     0.034 H 
ENDROOT
BRANCH   1  35
ATOM     35  C   LIG d   1       7.296  -3.782  -4.570  0.00  0.00    -0.056 C 
ATOM     36  H   LIG d   1       8.250  -3.379  -4.910  0.00  0.00     0.024 H 
ATOM     37  H   LIG d   1       7.374  -4.068  -3.521  0.00  0.00     0.024 H 
ATOM     38  H   LIG d   1       7.038  -4.657  -5.167  0.00  0.00     0.024 H 
ENDBRANCH   1  35
TORSDOF 1
ENDMDL
MODEL 5
REMARK VINA RESULT:      -5.1      1.303      3.929
REMARK  1 active torsions:
REMARK  status: ('A' for Active; 'I' for Inactive)
REMARK    1  A    between atoms: C_1  and  C_2 
ROOT
ATOM      1  C   LIG d   1       6.613  -2.149  -5.546  0.00  0.00     0.015 C 
ATOM      2  H   LIG d   1       6.862  -1.107  -5.342  0.00  0.00     0.037 H 
ATOM      3  C   LIG d   1       6.099  -2.809  -4.265  0.00  0.00    -0.044 C 
ATOM      4  C   LIG d   1       6.138  -1.797  -3.118  0.00  0.00    -0.052 C 
ATOM      5  C   LIG d   1       4.779  -1.772  -2.414  0.00  0.00    -0.053 C 
ATOM      6  C   LIG d   1       4.264  -0.332  -2.352  0.00  0.00    -0.053 C 
ATOM      7  C   LIG d   1       2.863  -0.265  -2.963  0.00  0.00    -0.053 C 
ATOM      8  C   LIG d   1       2.823   0.834  -4.026  0.00  0.00    -0.053 C 
ATOM      9  C   LIG d   1       2.279   0.256  -5.336  0.00  0.00    -0.053 C 
ATOM     10  C   LIG d   1       3.280   0.520  -6.463  0.00  0.00    -0.053 C 
ATOM     11  C   LIG d   1       3.594  -0.793  -7.184  0.00  0.00    -0.046 C 
ATOM     12  C   LIG d   1       5.109  -0.954  -7.314  0.00  0.00     0.006 C 
ATOM     13  C   LIG d   1       5.544  -2.211  -6.606  0.00  0.00     0.136 C 
ATOM     14  O   LIG d   1       5.035  -3.270  -6.889  0.00  0.00    -0.297 OA
ATOM     15  H   LIG d   1       5.076  -3.148  -4.416  0.00  0.00     0.027 H 
ATOM     16  H   LIG d   1       6.731  -3.662  -4.017  0.00  0.00     0.027 H 
ATOM     17  H   LIG d   1       6.911  -2.084  -2.405  0.00  0.00     0.026 H 
ATOM     18  H   LIG d   1       6.359  -0.806  -3.515  0.00  0.00     0.026 H 
ATOM     19  H   LIG d   1       4.071  -2.387  -2.970  0.00  0.00     0.026 H 
ATOM     20  H   LIG d   1       4.886  -2.163  -1.404  0.00  0.00     0.026 H 
ATOM     21  H   LIG d   1       4.223  -0.006  -1.313  0.00  0.00     0.026 H 
ATOM     22  H   LIG d   1       4.936   0.318  -2.911  0.00  0.00     0.026 H 
ATOM     23  H   LIG d   1       2.619  -1.224  -3.421  0.00  0.00     0.026 H 
ATOM     24  H   LIG d   1       2.136  -0.041  -2.182  0.00  0.00     0.026 H 
ATOM     25  H   LIG d   1       2.174   1.642  -3.690  0.00  0.00     0.026 H 
ATOM     26  H   LIG d   1       3.830   1.219  -4.190  0.00  0.00     0.026 H 
ATOM     27  H   LIG d   1       2.131  -0.818  -5.225  0.00  0.00     0.026 H 
ATOM     28  H   LIG d   1       1.329   0.731  -5.575  0.00  0.00     0.026 H 
ATOM     29  H   LIG d   1       2.851   1.229  -7.170  0.00  0.00     0.026 H 
ATOM     30  H   LIG d   1       4.197   0.933  -6.046  0.00  0.00     0.026 H 
ATOM     31  H   LIG d   1       3.188  -1.627  -6.612  0.00  0.00     0.027 H 
ATOM     32  H   LIG d   1       3.143  -0.779  -8.176  0.00  0.00     0.027 H 
ATOM     33  H   LIG d   1       5.380  -1.018  -8.368  0.00  0.00     0.034 H 
ATOM     34  H   LIG d   1       5.606  -0.093  -6.863  0.00  0.00     0.034 H 
ENDROOT
BRANCH   1  35
ATOM     35  C   LIG d   1       7.861  -2.886  -6.035  0.00  0.00    -0.056 C 
ATOM     36  H   LIG d   1       8.483  -3.153  -5.180  0.00  0.00     0.024 H 
ATOM     37  H   LIG d   1       7.565  -3.790  -6.566  0.00  0.00     0.024 H 
ATOM     38  H   LIG d   1       8.426  -2.238  -6.706  0.00  0.00     0.024 H 
ENDBRANCH   1  35
TORSDOF 1
ENDMDL
MODEL 6
REMARK VINA RESULT:      -5.1      1.878      5.100
REMARK  1 active torsions:
REMARK  status: ('A' for Active; 'I' for Inactive)
REMARK    1  A    between atoms: C_1  and  C_2 
ROOT
ATOM      1  C   LIG d   1       3.916  -1.652  -3.815  0.00  0.00     0.015 C 
ATOM      2  H   LIG d   1       3.032  -2.203  -4.139  0.00  0.00     0.037 H 
ATOM      3  C   LIG d   1       5.174  -2.421  -4.225  0.00  0.00    -0.044 C 
ATOM      4  C   LIG d   1       4.772  -3.721  -4.923  0.00  0.00    -0.052 C 
ATOM      5  C   LIG d   1       5.525  -3.842  -6.250  0.00  0.00    -0.053 C 
ATOM      6  C   LIG d   1       4.526  -4.085  -7.383  0.00  0.00    -0.053 C 
ATOM      7  C   LIG d   1       4.728  -3.033  -8.475  0.00  0.00    -0.053 C 
ATOM      8  C   LIG d   1       3.389  -2.365  -8.794  0.00  0.00    -0.053 C 
ATOM      9  C   LIG d   1       3.542  -0.845  -8.696  0.00  0.00    -0.053 C 
ATOM     10  C   LIG d   1       2.504  -0.290  -7.718  0.00  0.00    -0.053 C 
ATOM     11  C   LIG d   1       3.204   0.579  -6.670  0.00  0.00    -0.046 C 
ATOM     12  C   LIG d   1       2.739   0.167  -5.273  0.00  0.00     0.006 C 
ATOM     13  C   LIG d   1       3.926  -0.291  -4.464  0.00  0.00     0.136 C 
ATOM     14  O   LIG d   1       4.885   0.431  -4.336  0.00  0.00    -0.297 OA
ATOM     15  H   LIG d   1       5.767  -1.811  -4.905  0.00  0.00     0.027 H 
ATOM     16  H   LIG d   1       5.763  -2.652  -3.337  0.00  0.00     0.027 H 
ATOM     17  H   LIG d   1       5.022  -4.569  -4.285  0.00  0.00     0.026 H 
ATOM     18  H   LIG d   1       3.698  -3.715  -5.114  0.00  0.00     0.026 H 
ATOM     19  H   LIG d   1       6.073  -2.919  -6.441  0.00  0.00     0.026 H 
ATOM     20  H   LIG d   1       6.224  -4.676  -6.197  0.00  0.00     0.026 H 
ATOM     21  H   LIG d   1       4.686  -5.078  -7.801  0.00  0.00     0.026 H 
ATOM     22  H   LIG d   1       3.510  -4.014  -6.993  0.00  0.00     0.026 H 
ATOM     23  H   LIG d   1       5.436  -2.281  -8.130  0.00  0.00     0.026 H 
ATOM     24  H   LIG d   1       5.117  -3.513  -9.374  0.00  0.00     0.026 H 
ATOM     25  H   LIG d   1       3.079  -2.634  -9.803  0.00  0.00     0.026 H 
ATOM     26  H   LIG d   1       2.636  -2.701  -8.080  0.00  0.00     0.026 H 
ATOM     27  H   LIG d   1       4.543  -0.603  -8.340  0.00  0.00     0.026 H 
ATOM     28  H   LIG d   1       3.388  -0.401  -9.678  0.00  0.00     0.026 H 
ATOM     29  H   LIG d   1       1.777   0.311  -8.262  0.00  0.00     0.026 H 
ATOM     30  H   LIG d   1       1.994  -1.116  -7.222  0.00  0.00     0.026 H 
ATOM     31  H   LIG d   1       4.282   0.445  -6.749  0.00  0.00     0.027 H 
ATOM     32  H   LIG d   1       2.953   1.626  -6.843  0.00  0.00     0.027 H 
ATOM     33  H   LIG d   1       2.270   1.018  -4.779  0.00  0.00     0.034 H 
ATOM     34  H   LIG d   1       2.019  -0.648  -5.354  0.00  0.00     0.034 H 
ENDROOT
BRANCH   1  35
ATOM     35  C   LIG d   1       3.888  -1.492  -2.294  0.00  0.00    -0.056 C 
ATOM     36  H   LIG d   1       2.897  -1.162  -1.982  0.00  0.00     0.024 H 
ATOM     37  H   LIG d   1       4.118  -2.448  -1.824  0.00  0.00     0.024 H 
ATOM     38  H   LIG d   1       4.629  -0.751  -1.994  0.00  0.00     0.024 H 
ENDBRANCH   1  35
TORSDOF 1
ENDMDL
MODEL 7
REMARK VINA RESULT:      -5.1      1.211      3.619
REMARK  1 active torsions:
REMARK  status: ('A' for Active; 'I' for Inactive)
REMARK    1  A    between atoms: C_1  and  C_2 
ROOT
ATOM      1  C   LIG d   1       5.611  -0.868  -7.298  0.00  0.00     0.015 C 
ATOM      2  H   LIG d   1       6.007  -0.059  -6.684  0.00  0.00     0.037 H 
ATOM      3  C   LIG d   1       5.963  -2.212  -6.658  0.00  0.00    -0.044 C 
ATOM      4  C   LIG d   1       6.780  -1.974  -5.387  0.00  0.00    -0.052 C 
ATOM      5  C   LIG d   1       6.162  -2.761  -4.229  0.00  0.00    -0.053 C 
ATOM      6  C   LIG d   1       5.904  -1.818  -3.052  0.00  0.00    -0.053 C 
ATOM      7  C   LIG d   1       4.436  -1.920  -2.630  0.00  0.00    -0.053 C 
ATOM      8  C   LIG d   1       3.821  -0.521  -2.582  0.00  0.00    -0.053 C 
ATOM      9  C   LIG d   1       2.540  -0.498  -3.420  0.00  0.00    -0.053 C 
ATOM     10  C   LIG d   1       2.635   0.614  -4.466  0.00  0.00    -0.053 C 
ATOM     11  C   LIG d   1       2.337   0.038  -5.852  0.00  0.00    -0.046 C 
ATOM     12  C   LIG d   1       3.424   0.479  -6.833  0.00  0.00     0.006 C 
ATOM     13  C   LIG d   1       4.113  -0.736  -7.399  0.00  0.00     0.136 C 
ATOM     14  O   LIG d   1       3.465  -1.604  -7.933  0.00  0.00    -0.297 OA
ATOM     15  H   LIG d   1       5.047  -2.746  -6.407  0.00  0.00     0.027 H 
ATOM     16  H   LIG d   1       6.548  -2.808  -7.360  0.00  0.00     0.027 H 
ATOM     17  H   LIG d   1       7.805  -2.307  -5.546  0.00  0.00     0.026 H 
ATOM     18  H   LIG d   1       6.776  -0.911  -5.146  0.00  0.00     0.026 H 
ATOM     19  H   LIG d   1       5.220  -3.205  -4.553  0.00  0.00     0.026 H 
ATOM     20  H   LIG d   1       6.848  -3.549  -3.919  0.00  0.00     0.026 H 
ATOM     21  H   LIG d   1       6.543  -2.098  -2.215  0.00  0.00     0.026 H 
ATOM     22  H   LIG d   1       6.125  -0.794  -3.352  0.00  0.00     0.026 H 
ATOM     23  H   LIG d   1       3.893  -2.532  -3.349  0.00  0.00     0.026 H 
ATOM     24  H   LIG d   1       4.374  -2.378  -1.642  0.00  0.00     0.026 H 
ATOM     25  H   LIG d   1       3.584  -0.262  -1.550  0.00  0.00     0.026 H 
ATOM     26  H   LIG d   1       4.531   0.203  -2.984  0.00  0.00     0.026 H 
ATOM     27  H   LIG d   1       2.417  -1.458  -3.921  0.00  0.00     0.026 H 
ATOM     28  H   LIG d   1       1.685  -0.314  -2.771  0.00  0.00     0.026 H 
ATOM     29  H   LIG d   1       1.912   1.395  -4.233  0.00  0.00     0.026 H 
ATOM     30  H   LIG d   1       3.640   1.037  -4.458  0.00  0.00     0.026 H 
ATOM     31  H   LIG d   1       2.317  -1.050  -5.797  0.00  0.00     0.027 H 
ATOM     32  H   LIG d   1       1.368   0.402  -6.195  0.00  0.00     0.027 H 
ATOM     33  H   LIG d   1       2.973   1.051  -7.644  0.00  0.00     0.034 H 
ATOM     34  H   LIG d   1       4.153   1.101  -6.312  0.00  0.00     0.034 H 
ENDROOT
BRANCH   1  35
ATOM     35  C   LIG d   1       6.226  -0.793  -8.698  0.00  0.00    -0.056 C 
ATOM     36  H   LIG d   1       5.884   0.114  -9.196  0.00  0.00     0.024 H 
ATOM     37  H   LIG d   1       7.312  -0.777  -8.618  0.00  0.00     0.024 H 
ATOM     38  H   LIG d   1       5.916  -1.663  -9.277  0.00  0.00     0.024 H 
ENDBRANCH   1  35
TORSDOF 1
ENDMDL
MODEL 8
REMARK VINA RESULT:      -5.0      2.611      3.605
REMARK  1 active torsions:
REMARK  status: ('A' for Active; 'I' for Inactive)
REMARK    1  A    between atoms: C_1  and  C_2 
ROOT
ATOM      1  C   LIG d   1       6.279  -3.172  -4.723  0.00  0.00     0.015 C 
ATOM      2  H   LIG d   1       6.654  -3.104  -3.701  0.00  0.00     0.037 H 
ATOM      3  C   LIG d   1       4.758  -3.007  -4.720  0.00  0.00    -0.044 C 
ATOM      4  C   LIG d   1       4.267  -2.833  -3.281  0.00  0.00    -0.052 C 
ATOM      5  C   LIG d   1       3.360  -1.603  -3.197  0.00  0.00    -0.053 C 
ATOM      6  C   LIG d   1       3.862  -0.675  -2.089  0.00  0.00    -0.053 C 
ATOM      7  C   LIG d   1       4.084   0.728  -2.661  0.00  0.00    -0.053 C 
ATOM      8  C   LIG d   1       5.495   1.202  -2.312  0.00  0.00    -0.053 C 
ATOM      9  C   LIG d   1       6.210   1.656  -3.587  0.00  0.00    -0.053 C 
ATOM     10  C   LIG d   1       7.529   0.893  -3.731  0.00  0.00    -0.053 C 
ATOM     11  C   LIG d   1       7.599   0.253  -5.119  0.00  0.00    -0.046 C 
ATOM     12  C   LIG d   1       7.991  -1.219  -4.983  0.00  0.00     0.006 C 
ATOM     13  C   LIG d   1       6.901  -2.085  -5.561  0.00  0.00     0.136 C 
ATOM     14  O   LIG d   1       6.525  -1.906  -6.694  0.00  0.00    -0.297 OA
ATOM     15  H   LIG d   1       4.487  -2.130  -5.305  0.00  0.00     0.027 H 
ATOM     16  H   LIG d   1       4.295  -3.893  -5.157  0.00  0.00     0.027 H 
ATOM     17  H   LIG d   1       3.708  -3.718  -2.978  0.00  0.00     0.026 H 
ATOM     18  H   LIG d   1       5.123  -2.699  -2.619  0.00  0.00     0.026 H 
ATOM     19  H   LIG d   1       3.377  -1.074  -4.150  0.00  0.00     0.026 H 
ATOM     20  H   LIG d   1       2.341  -1.918  -2.974  0.00  0.00     0.026 H 
ATOM     21  H   LIG d   1       3.122  -0.629  -1.291  0.00  0.00     0.026 H 
ATOM     22  H   LIG d   1       4.801  -1.058  -1.692  0.00  0.00     0.026 H 
ATOM     23  H   LIG d   1       3.966   0.702  -3.744  0.00  0.00     0.026 H 
ATOM     24  H   LIG d   1       3.353   1.414  -2.232  0.00  0.00     0.026 H 
ATOM     25  H   LIG d   1       5.436   2.037  -1.613  0.00  0.00     0.026 H 
ATOM     26  H   LIG d   1       6.052   0.384  -1.855  0.00  0.00     0.026 H 
ATOM     27  H   LIG d   1       5.577   1.453  -4.450  0.00  0.00     0.026 H 
ATOM     28  H   LIG d   1       6.413   2.724  -3.529  0.00  0.00     0.026 H 
ATOM     29  H   LIG d   1       8.363   1.583  -3.606  0.00  0.00     0.026 H 
ATOM     30  H   LIG d   1       7.584   0.115  -2.970  0.00  0.00     0.026 H 
ATOM     31  H   LIG d   1       6.625   0.327  -5.603  0.00  0.00     0.027 H 
ATOM     32  H   LIG d   1       8.344   0.774  -5.721  0.00  0.00     0.027 H 
ATOM     33  H   LIG d   1       8.921  -1.399  -5.522  0.00  0.00     0.034 H 
ATOM     34  H   LIG d   1       8.129  -1.462  -3.929  0.00  0.00     0.034 H 
ENDROOT
BRANCH   1  35
ATOM     35  C   LIG d   1       6.643  -4.538  -5.309  0.00  0.00    -0.056 C 
ATOM     36  H   LIG d   1       7.393  -4.410  -6.089  0.00  0.00     0.024 H 
ATOM     37  H   LIG d   1       7.042  -5.177  -4.521  0.00  0.00     0.024 H 
ATOM     38  H   LIG d   1       5.751  -4.999  -5.735  0.00  0.00     0.024 H 
ENDBRANCH   1  35
TORSDOF 1
ENDMDL
MODEL 9
REMARK VINA RESULT:      -4.8      1.759      4.231
REMARK  1 active torsions:
REMARK  status: ('A' for Active; 'I' for Inactive)
REMARK    1  A    between atoms: C_1  and  C_2 
ROOT
ATOM      1  C   LIG d   1       7.244  -0.246  -5.995  0.00  0.00     0.015 C 
ATOM      2  H   LIG d   1       6.770  -1.190  -5.723  0.00  0.00     0.037 H 
ATOM      3  C   LIG d   1       6.435   0.430  -7.104  0.00  0.00    -0.044 C 
ATOM      4  C   LIG d   1       5.250  -0.459  -7.485  0.00  0.00    -0.052 C 
ATOM      5  C   LIG d   1       3.964   0.370  -7.469  0.00  0.00    -0.053 C 
ATOM      6  C   LIG d   1       2.924  -0.320  -6.584  0.00  0.00    -0.053 C 
ATOM      7  C   LIG d   1       2.424   0.664  -5.523  0.00  0.00    -0.053 C 
ATOM      8  C   LIG d   1       2.548   0.027  -4.139  0.00  0.00    -0.053 C 
ATOM      9  C   LIG d   1       3.321   0.969  -3.212  0.00  0.00    -0.053 C 
ATOM     10  C   LIG d   1       4.519   0.227  -2.615  0.00  0.00    -0.053 C 
ATOM     11  C   LIG d   1       5.793   1.040  -2.852  0.00  0.00    -0.046 C 
ATOM     12  C   LIG d   1       6.876   0.133  -3.438  0.00  0.00     0.006 C 
ATOM     13  C   LIG d   1       7.294   0.656  -4.789  0.00  0.00     0.136 C 
ATOM     14  O   LIG d   1       7.667   1.799  -4.904  0.00  0.00    -0.297 OA
ATOM     15  H   LIG d   1       6.069   1.393  -6.751  0.00  0.00     0.027 H 
ATOM     16  H   LIG d   1       7.071   0.581  -7.977  0.00  0.00     0.027 H 
ATOM     17  H   LIG d   1       5.407  -0.867  -8.484  0.00  0.00     0.026 H 
ATOM     18  H   LIG d   1       5.164  -1.277  -6.769  0.00  0.00     0.026 H 
ATOM     19  H   LIG d   1       4.178   1.363  -7.072  0.00  0.00     0.026 H 
ATOM     20  H   LIG d   1       3.577   0.459  -8.483  0.00  0.00     0.026 H 
ATOM     21  H   LIG d   1       2.086  -0.648  -7.198  0.00  0.00     0.026 H 
ATOM     22  H   LIG d   1       3.377  -1.182  -6.095  0.00  0.00     0.026 H 
ATOM     23  H   LIG d   1       3.023   1.574  -5.560  0.00  0.00     0.026 H 
ATOM     24  H   LIG d   1       1.379   0.908  -5.718  0.00  0.00     0.026 H 
ATOM     25  H   LIG d   1       1.554  -0.150  -3.728  0.00  0.00     0.026 H 
ATOM     26  H   LIG d   1       3.082  -0.920  -4.221  0.00  0.00     0.026 H 
ATOM     27  H   LIG d   1       3.673   1.830  -3.780  0.00  0.00     0.026 H 
ATOM     28  H   LIG d   1       2.666   1.306  -2.410  0.00  0.00     0.026 H 
ATOM     29  H   LIG d   1       4.367   0.094  -1.544  0.00  0.00     0.026 H 
ATOM     30  H   LIG d   1       4.617  -0.748  -3.091  0.00  0.00     0.026 H 
ATOM     31  H   LIG d   1       5.582   1.851  -3.550  0.00  0.00     0.027 H 
ATOM     32  H   LIG d   1       6.140   1.456  -1.906  0.00  0.00     0.027 H 
ATOM     33  H   LIG d   1       7.739   0.118  -2.772  0.00  0.00     0.034 H 
ATOM     34  H   LIG d   1       6.483  -0.878  -3.546  0.00  0.00     0.034 H 
ENDROOT
BRANCH   1  35
ATOM     35  C   LIG d   1       8.667  -0.513  -6.491  0.00  0.00    -0.056 C 
ATOM     36  H   LIG d   1       8.626  -0.968  -7.481  0.00  0.00     0.024 H 
ATOM     37  H   LIG d   1       9.216   0.427  -6.544  0.00  0.00     0.024 H 
ATOM     38  H   LIG d   1       9.170  -1.190  -5.801  0.00  0.00     0.024 H 
ENDBRANCH   1  35
TORSDOF 1
ENDMDL
MODEL 10
REMARK VINA RESULT:      -4.8      2.161      4.163
REMARK  1 active torsions:
REMARK  status: ('A' for Active; 'I' for Inactive)
REMARK    1  A    between atoms: C_1  and  C_2 
ROOT
ATOM      1  C   LIG d   1       3.876  -0.395  -3.988  0.00  0.00     0.015 C 
ATOM      2  H   LIG d   1       4.541  -1.239  -4.172  0.00  0.00     0.037 H 
ATOM      3  C   LIG d   1       4.655   0.725  -3.296  0.00  0.00    -0.044 C 
ATOM      4  C   LIG d   1       6.099   0.274  -3.063  0.00  0.00    -0.052 C 
ATOM      5  C   LIG d   1       7.059   1.344  -3.589  0.00  0.00    -0.053 C 
ATOM      6  C   LIG d   1       8.059   0.701  -4.552  0.00  0.00    -0.053 C 
ATOM      7  C   LIG d   1       8.033   1.449  -5.887  0.00  0.00    -0.053 C 
ATOM      8  C   LIG d   1       7.829   0.449  -7.027  0.00  0.00    -0.053 C 
ATOM      9  C   LIG d   1       6.649   0.897  -7.893  0.00  0.00    -0.053 C 
ATOM     10  C   LIG d   1       5.626  -0.236  -7.987  0.00  0.00    -0.053 C 
ATOM     11  C   LIG d   1       4.243   0.292  -7.598  0.00  0.00    -0.046 C 
ATOM     12  C   LIG d   1       3.608  -0.648  -6.573  0.00  0.00     0.006 C 
ATOM     13  C   LIG d   1       3.330   0.109  -5.300  0.00  0.00     0.136 C 
ATOM     14  O   LIG d   1       2.671   1.121  -5.331  0.00  0.00    -0.297 OA
ATOM     15  H   LIG d   1       4.650   1.614  -3.925  0.00  0.00     0.027 H 
ATOM     16  H   LIG d   1       4.188   0.956  -2.339  0.00  0.00     0.027 H 
ATOM     17  H   LIG d   1       6.266   0.128  -1.996  0.00  0.00     0.026 H 
ATOM     18  H   LIG d   1       6.276  -0.664  -3.591  0.00  0.00     0.026 H 
ATOM     19  H   LIG d   1       6.492   2.114  -4.113  0.00  0.00     0.026 H 
ATOM     20  H   LIG d   1       7.595   1.792  -2.753  0.00  0.00     0.026 H 
ATOM     21  H   LIG d   1       9.060   0.756  -4.125  0.00  0.00     0.026 H 
ATOM     22  H   LIG d   1       7.789  -0.342  -4.714  0.00  0.00     0.026 H 
ATOM     23  H   LIG d   1       7.215   2.169  -5.885  0.00  0.00     0.026 H 
ATOM     24  H   LIG d   1       8.979   1.973  -6.029  0.00  0.00     0.026 H 
ATOM     25  H   LIG d   1       8.731   0.404  -7.637  0.00  0.00     0.026 H 
ATOM     26  H   LIG d   1       7.620  -0.538  -6.612  0.00  0.00     0.026 H 
ATOM     27  H   LIG d   1       6.181   1.774  -7.445  0.00  0.00     0.026 H 
ATOM     28  H   LIG d   1       7.007   1.148  -8.891  0.00  0.00     0.026 H 
ATOM     29  H   LIG d   1       5.596  -0.615  -9.008  0.00  0.00     0.026 H 
ATOM     30  H   LIG d   1       5.911  -1.040  -7.309  0.00  0.00     0.026 H 
ATOM     31  H   LIG d   1       4.343   1.287  -7.165  0.00  0.00     0.027 H 
ATOM     32  H   LIG d   1       3.611   0.343  -8.485  0.00  0.00     0.027 H 
ATOM     33  H   LIG d   1       2.673  -1.044  -6.971  0.00  0.00     0.034 H 
ATOM     34  H   LIG d   1       4.290  -1.473  -6.364  0.00  0.00     0.034 H 
ENDROOT
BRANCH   1  35
ATOM     35  C   LIG d   1       2.719  -0.841  -3.092  0.00  0.00    -0.056 C 
ATOM     36  H   LIG d   1       2.682  -1.930  -3.062  0.00  0.00     0.024 H 
ATOM     37  H   LIG d   1       2.870  -0.454  -2.084  0.00  0.00     0.024 H 
ATOM     38  H   LIG d   1       1.781  -0.457  -3.492  0.00  0.00     0.024 H 
ENDBRANCH   1  35
TORSDOF 1
ENDMDL
