MODEL 1
REMARK VINA RESULT:      -5.3      0.000      0.000
REMARK  5 active torsions:
REMARK  status: ('A' for Active; 'I' for Inactive)
REMARK    1  A    between atoms: C_1  and  C_2 
REMARK    2  A    between atoms: C_7  and  C_8 
REMARK    3  A    between atoms: C_7  and  C_9 
REMARK    4  A    between atoms: C_11  and  C_12 
REMARK    5  A    between atoms: C_11  and  O_13 
ROOT
ATOM      1  C   LIG d   1       5.090  -0.309  -3.577  0.00  0.00     0.002 C 
ATOM      2  C   LIG d   1       5.365  -1.484  -2.589  0.00  0.00    -0.044 C 
ATOM      3  C   LIG d   1       4.023  -2.246  -2.505  0.00  0.00    -0.049 C 
ATOM      4  C   LIG d   1       3.064  -1.459  -3.449  0.00  0.00    -0.033 C 
ATOM      5  H   LIG d   1       2.186  -2.004  -3.796  0.00  0.00     0.031 H 
ATOM      6  C   LIG d   1       4.070  -0.986  -4.557  0.00  0.00    -0.024 C 
ATOM      7  C   LIG d   1       2.784  -0.123  -2.696  0.00  0.00    -0.020 C 
ATOM      8  C   LIG d   1       4.147   0.663  -2.804  0.00  0.00     0.069 C 
ATOM      9  H   LIG d   1       6.148  -2.133  -2.981  0.00  0.00     0.027 H 
ATOM     10  H   LIG d   1       5.647  -1.099  -1.609  0.00  0.00     0.027 H 
ATOM     11  H   LIG d   1       4.146  -3.271  -2.855  0.00  0.00     0.027 H 
ATOM     12  H   LIG d   1       3.644  -2.235  -1.483  0.00  0.00     0.027 H 
ATOM     13  H   LIG d   1       1.995   0.437  -3.197  0.00  0.00     0.030 H 
ATOM     14  H   LIG d   1       2.512  -0.321  -1.660  0.00  0.00     0.030 H 
ENDROOT
BRANCH   6  15
ATOM     15  C   LIG d   1       4.692  -2.165  -5.308  0.00  0.00    -0.059 C 
ATOM     16  H   LIG d   1       5.175  -1.804  -6.216  0.00  0.00     0.024 H 
ATOM     17  H   LIG d   1       5.433  -2.652  -4.672  0.00  0.00     0.024 H 
ATOM     18  H   LIG d   1       3.912  -2.880  -5.571  0.00  0.00     0.024 H 
ENDBRANCH   6  15
BRANCH   6  19
ATOM     19  C   LIG d   1       3.435   0.024  -5.515  0.00  0.00    -0.059 C 
ATOM     20  H   LIG d   1       4.076   0.902  -5.594  0.00  0.00     0.024 H 
ATOM     21  H   LIG d   1       3.319  -0.430  -6.498  0.00  0.00     0.024 H 
ATOM     22  H   LIG d   1       2.459   0.322  -5.133  0.00  0.00     0.024 H 
ENDBRANCH   6  19
BRANCH   1  23
ATOM     23  C   LIG d   1       6.324   0.329  -4.219  0.00  0.00    -0.057 C 
ATOM     24  H   LIG d   1       6.184   0.385  -5.299  0.00  0.00     0.024 H 
ATOM     25  H   LIG d   1       6.465   1.333  -3.818  0.00  0.00     0.024 H 
ATOM     26  H   LIG d   1       7.203  -0.278  -3.999  0.00  0.00     0.024 H 
ENDBRANCH   1  23
BRANCH   8  27
ATOM     27  C   LIG d   1       4.693   0.935  -1.401  0.00  0.00    -0.035 C 
ATOM     28  H   LIG d   1       4.206   0.271  -0.686  0.00  0.00     0.026 H 
ATOM     29  H   LIG d   1       5.768   0.756  -1.389  0.00  0.00     0.026 H 
ATOM     30  H   LIG d   1       4.494   1.971  -1.129  0.00  0.00     0.026 H 
ENDBRANCH   8  27
BRANCH   8  31
ATOM     31  O   LIG d   1       3.992   1.886  -3.526  0.00  0.00    -0.388 OA
ATOM     32  H   LIG d   1       4.666   2.031  -4.205  0.00  0.00     0.210 HD
ENDBRANCH   8  31
TORSDOF 5
ENDMDL
MODEL 2
REMARK VINA RESULT:      -5.1      1.451      2.392
REMARK  5 active torsions:
REMARK  status: ('A' for Active; 'I' for Inactive)
REMARK    1  A    between atoms: C_1  and  C_2 
REMARK    2  A    between atoms: C_7  and  C_8 
REMARK    3  A    between atoms: C_7  and  C_9 
REMARK    4  A    between atoms: C_11  and  C_12 
REMARK    5  A    between atoms: C_11  and  O_13 
ROOT
ATOM      1  C   LIG d   1       5.000  -0.202  -4.084  0.00  0.00     0.002 C 
ATOM      2  C   LIG d   1       5.206   0.762  -2.876  0.00  0.00    -0.044 C 
ATOM      3  C   LIG d   1       4.612   0.006  -1.665  0.00  0.00    -0.049 C 
ATOM      4  C   LIG d   1       4.103  -1.344  -2.257  0.00  0.00    -0.033 C 
ATOM      5  H   LIG d   1       3.960  -2.153  -1.540  0.00  0.00     0.031 H 
ATOM      6  C   LIG d   1       5.174  -1.592  -3.378  0.00  0.00    -0.024 C 
ATOM      7  C   LIG d   1       2.854  -0.954  -3.104  0.00  0.00    -0.020 C 
ATOM      8  C   LIG d   1       3.464  -0.203  -4.349  0.00  0.00     0.069 C 
ATOM      9  H   LIG d   1       6.267   0.956  -2.721  0.00  0.00     0.027 H 
ATOM     10  H   LIG d   1       4.670   1.698  -3.040  0.00  0.00     0.027 H 
ATOM     11  H   LIG d   1       5.381  -0.173  -0.915  0.00  0.00     0.027 H 
ATOM     12  H   LIG d   1       3.784   0.568  -1.235  0.00  0.00     0.027 H 
ATOM     13  H   LIG d   1       2.325  -1.847  -3.434  0.00  0.00     0.030 H 
ATOM     14  H   LIG d   1       2.191  -0.309  -2.528  0.00  0.00     0.030 H 
ENDROOT
BRANCH   6  15
ATOM     15  C   LIG d   1       6.579  -1.771  -2.800  0.00  0.00    -0.059 C 
ATOM     16  H   LIG d   1       7.254  -2.112  -3.585  0.00  0.00     0.024 H 
ATOM     17  H   LIG d   1       6.934  -0.818  -2.404  0.00  0.00     0.024 H 
ATOM     18  H   LIG d   1       6.551  -2.509  -1.998  0.00  0.00     0.024 H 
ENDBRANCH   6  15
BRANCH   6  19
ATOM     19  C   LIG d   1       4.786  -2.754  -4.294  0.00  0.00    -0.059 C 
ATOM     20  H   LIG d   1       3.728  -2.683  -4.544  0.00  0.00     0.024 H 
ATOM     21  H   LIG d   1       5.378  -2.710  -5.208  0.00  0.00     0.024 H 
ATOM     22  H   LIG d   1       4.975  -3.698  -3.783  0.00  0.00     0.024 H 
ENDBRANCH   6  19
BRANCH   1  23
ATOM     23  C   LIG d   1       5.889   0.053  -5.303  0.00  0.00    -0.057 C 
ATOM     24  H   LIG d   1       6.931  -0.125  -5.037  0.00  0.00     0.024 H 
ATOM     25  H   LIG d   1       5.599  -0.619  -6.111  0.00  0.00     0.024 H 
ATOM     26  H   LIG d   1       5.770   1.087  -5.629  0.00  0.00     0.024 H 
ENDBRANCH   1  23
BRANCH   8  27
ATOM     27  C   LIG d   1       2.929   1.230  -4.395  0.00  0.00    -0.035 C 
ATOM     28  H   LIG d   1       3.652   1.872  -4.898  0.00  0.00     0.026 H 
ATOM     29  H   LIG d   1       1.986   1.248  -4.941  0.00  0.00     0.026 H 
ATOM     30  H   LIG d   1       2.767   1.590  -3.380  0.00  0.00     0.026 H 
ENDBRANCH   8  27
BRANCH   8  31
ATOM     31  O   LIG d   1       3.170  -0.885  -5.570  0.00  0.00    -0.388 OA
ATOM     32  H   LIG d   1       2.362  -1.417  -5.540  0.00  0.00     0.210 HD
ENDBRANCH   8  31
TORSDOF 5
ENDMDL
MODEL 3
REMARK VINA RESULT:      -4.9      1.360      3.263
REMARK  5 active torsions:
REMARK  status: ('A' for Active; 'I' for Inactive)
REMARK    1  A    between atoms: C_1  and  C_2 
REMARK    2  A    between atoms: C_7  and  C_8 
REMARK    3  A    between atoms: C_7  and  C_9 
REMARK    4  A    between atoms: C_11  and  C_12 
REMARK    5  A    between atoms: C_11  and  O_13 
ROOT
ATOM      1  C   LIG d   1       4.069  -0.475  -4.036  0.00  0.00     0.002 C 
ATOM      2  C   LIG d   1       3.177  -1.457  -3.216  0.00  0.00    -0.044 C 
ATOM      3  C   LIG d   1       4.058  -1.878  -2.017  0.00  0.00    -0.049 C 
ATOM      4  C   LIG d   1       5.399  -1.110  -2.227  0.00  0.00    -0.033 C 
ATOM      5  H   LIG d   1       6.025  -0.996  -1.342  0.00  0.00     0.031 H 
ATOM      6  C   LIG d   1       4.876   0.216  -2.882  0.00  0.00    -0.024 C 
ATOM      7  C   LIG d   1       6.066  -1.814  -3.447  0.00  0.00    -0.020 C 
ATOM      8  C   LIG d   1       5.180  -1.365  -4.671  0.00  0.00     0.069 C 
ATOM      9  H   LIG d   1       2.277  -0.951  -2.867  0.00  0.00     0.027 H 
ATOM     10  H   LIG d   1       2.915  -2.327  -3.819  0.00  0.00     0.027 H 
ATOM     11  H   LIG d   1       3.592  -1.579  -1.079  0.00  0.00     0.027 H 
ATOM     12  H   LIG d   1       4.230  -2.954  -2.032  0.00  0.00     0.027 H 
ATOM     13  H   LIG d   1       7.087  -1.458  -3.580  0.00  0.00     0.030 H 
ATOM     14  H   LIG d   1       6.055  -2.896  -3.315  0.00  0.00     0.030 H 
ENDROOT
BRANCH   6  15
ATOM     15  C   LIG d   1       3.965   1.003  -1.936  0.00  0.00    -0.059 C 
ATOM     16  H   LIG d   1       3.301   0.314  -1.415  0.00  0.00     0.024 H 
ATOM     17  H   LIG d   1       4.575   1.540  -1.208  0.00  0.00     0.024 H 
ATOM     18  H   LIG d   1       3.373   1.715  -2.511  0.00  0.00     0.024 H 
ENDBRANCH   6  15
BRANCH   6  19
ATOM     19  C   LIG d   1       6.018   1.081  -3.418  0.00  0.00    -0.059 C 
ATOM     20  H   LIG d   1       6.909   0.925  -2.809  0.00  0.00     0.024 H 
ATOM     21  H   LIG d   1       6.231   0.804  -4.450  0.00  0.00     0.024 H 
ATOM     22  H   LIG d   1       5.729   2.131  -3.375  0.00  0.00     0.024 H 
ENDBRANCH   6  19
BRANCH   1  23
ATOM     23  C   LIG d   1       3.329   0.458  -4.996  0.00  0.00    -0.057 C 
ATOM     24  H   LIG d   1       2.789   1.214  -4.426  0.00  0.00     0.024 H 
ATOM     25  H   LIG d   1       4.048   0.944  -5.657  0.00  0.00     0.024 H 
ATOM     26  H   LIG d   1       2.622  -0.121  -5.592  0.00  0.00     0.024 H 
ENDBRANCH   1  23
BRANCH   8  27
ATOM     27  C   LIG d   1       4.562  -2.597  -5.336  0.00  0.00    -0.035 C 
ATOM     28  H   LIG d   1       3.504  -2.656  -5.080  0.00  0.00     0.026 H 
ATOM     29  H   LIG d   1       4.671  -2.520  -6.417  0.00  0.00     0.026 H 
ATOM     30  H   LIG d   1       5.071  -3.494  -4.983  0.00  0.00     0.026 H 
ENDBRANCH   8  27
BRANCH   8  31
ATOM     31  O   LIG d   1       5.938  -0.613  -5.621  0.00  0.00    -0.388 OA
ATOM     32  H   LIG d   1       6.876  -0.531  -5.400  0.00  0.00     0.210 HD
ENDBRANCH   8  31
TORSDOF 5
ENDMDL
MODEL 4
REMARK VINA RESULT:      -4.9      1.293      2.500
REMARK  5 active torsions:
REMARK  status: ('A' for Active; 'I' for Inactive)
REMARK    1  A    between atoms: C_1  and  C_2 
REMARK    2  A    between atoms: C_7  and  C_8 
REMARK    3  A    between atoms: C_7  and  C_9 
REMARK    4  A    between atoms: C_11  and  C_12 
REMARK    5  A    between atoms: C_11  and  O_13 
ROOT
ATOM      1  C   LIG d   1       4.633  -1.063  -3.813  0.00  0.00     0.002 C 
ATOM      2  C   LIG d   1       4.864  -1.542  -2.347  0.00  0.00    -0.044 C 
ATOM      3  C   LIG d   1       4.476  -0.328  -1.472  0.00  0.00    -0.049 C 
ATOM      4  C   LIG d   1       4.049   0.771  -2.492  0.00  0.00    -0.033 C 
ATOM      5  H   LIG d   1       3.429   1.574  -2.094  0.00  0.00     0.031 H 
ATOM      6  C   LIG d   1       3.401  -0.112  -3.616  0.00  0.00    -0.024 C 
ATOM      7  C   LIG d   1       5.380   1.210  -3.174  0.00  0.00    -0.020 C 
ATOM      8  C   LIG d   1       5.761  -0.020  -4.084  0.00  0.00     0.069 C 
ATOM      9  H   LIG d   1       4.223  -2.395  -2.121  0.00  0.00     0.027 H 
ATOM     10  H   LIG d   1       5.911  -1.804  -2.193  0.00  0.00     0.027 H 
ATOM     11  H   LIG d   1       3.645  -0.583  -0.816  0.00  0.00     0.027 H 
ATOM     12  H   LIG d   1       5.333   0.008  -0.889  0.00  0.00     0.027 H 
ATOM     13  H   LIG d   1       5.216   2.091  -3.795  0.00  0.00     0.030 H 
ATOM     14  H   LIG d   1       6.144   1.410  -2.423  0.00  0.00     0.030 H 
ENDROOT
BRANCH   6  15
ATOM     15  C   LIG d   1       2.168  -0.867  -3.114  0.00  0.00    -0.059 C 
ATOM     16  H   LIG d   1       1.311  -0.621  -3.740  0.00  0.00     0.024 H 
ATOM     17  H   LIG d   1       2.355  -1.941  -3.160  0.00  0.00     0.024 H 
ATOM     18  H   LIG d   1       1.961  -0.579  -2.083  0.00  0.00     0.024 H 
ENDBRANCH   6  15
BRANCH   6  19
ATOM     19  C   LIG d   1       3.093   0.698  -4.877  0.00  0.00    -0.059 C 
ATOM     20  H   LIG d   1       4.020   1.099  -5.287  0.00  0.00     0.024 H 
ATOM     21  H   LIG d   1       2.618   0.054  -5.617  0.00  0.00     0.024 H 
ATOM     22  H   LIG d   1       2.423   1.520  -4.625  0.00  0.00     0.024 H 
ENDBRANCH   6  19
BRANCH   1  23
ATOM     23  C   LIG d   1       4.477  -2.165  -4.862  0.00  0.00    -0.057 C 
ATOM     24  H   LIG d   1       3.418  -2.365  -5.024  0.00  0.00     0.024 H 
ATOM     25  H   LIG d   1       4.934  -1.844  -5.798  0.00  0.00     0.024 H 
ATOM     26  H   LIG d   1       4.967  -3.073  -4.510  0.00  0.00     0.024 H 
ENDBRANCH   1  23
BRANCH   8  27
ATOM     27  C   LIG d   1       7.118  -0.577  -3.650  0.00  0.00    -0.035 C 
ATOM     28  H   LIG d   1       7.552   0.074  -2.891  0.00  0.00     0.026 H 
ATOM     29  H   LIG d   1       6.986  -1.577  -3.239  0.00  0.00     0.026 H 
ATOM     30  H   LIG d   1       7.784  -0.623  -4.512  0.00  0.00     0.026 H 
ENDBRANCH   8  27
BRANCH   8  31
ATOM     31  O   LIG d   1       5.786   0.337  -5.467  0.00  0.00    -0.388 OA
ATOM     32  H   LIG d   1       6.043  -0.386  -6.056  0.00  0.00     0.210 HD
ENDBRANCH   8  31
TORSDOF 5
ENDMDL
MODEL 5
REMARK VINA RESULT:      -4.6      1.160      3.059
REMARK  5 active torsions:
REMARK  status: ('A' for Active; 'I' for Inactive)
REMARK    1  A    between atoms: C_1  and  C_2 
REMARK    2  A    between atoms: C_7  and  C_8 
REMARK    3  A    between atoms: C_7  and  C_9 
REMARK    4  A    between atoms: C_11  and  C_12 
REMARK    5  A    between atoms: C_11  and  O_13 
ROOT
ATOM      1  C   LIG d   1       4.546  -0.735  -4.221  0.00  0.00     0.002 C 
ATOM      2  C   LIG d   1       4.730  -2.065  -5.012  0.00  0.00    -0.044 C 
ATOM      3  C   LIG d   1       5.700  -2.904  -4.148  0.00  0.00    -0.049 C 
ATOM      4  C   LIG d   1       6.011  -2.000  -2.917  0.00  0.00    -0.033 C 
ATOM      5  H   LIG d   1       6.395  -2.513  -2.035  0.00  0.00     0.031 H 
ATOM      6  C   LIG d   1       4.637  -1.260  -2.746  0.00  0.00    -0.024 C 
ATOM      7  C   LIG d   1       6.908  -0.859  -3.485  0.00  0.00    -0.020 C 
ATOM      8  C   LIG d   1       5.911   0.008  -4.347  0.00  0.00     0.069 C 
ATOM      9  H   LIG d   1       3.774  -2.579  -5.119  0.00  0.00     0.027 H 
ATOM     10  H   LIG d   1       5.167  -1.868  -5.992  0.00  0.00     0.027 H 
ATOM     11  H   LIG d   1       5.222  -3.830  -3.830  0.00  0.00     0.027 H 
ATOM     12  H   LIG d   1       6.613  -3.118  -4.703  0.00  0.00     0.027 H 
ATOM     13  H   LIG d   1       7.315  -0.256  -2.674  0.00  0.00     0.030 H 
ATOM     14  H   LIG d   1       7.712  -1.274  -4.093  0.00  0.00     0.030 H 
ENDROOT
BRANCH   6  15
ATOM     15  C   LIG d   1       3.501  -2.229  -2.410  0.00  0.00    -0.059 C 
ATOM     16  H   LIG d   1       3.199  -2.761  -3.312  0.00  0.00     0.024 H 
ATOM     17  H   LIG d   1       3.844  -2.946  -1.662  0.00  0.00     0.024 H 
ATOM     18  H   LIG d   1       2.652  -1.670  -2.016  0.00  0.00     0.024 H 
ENDBRANCH   6  15
BRANCH   6  19
ATOM     19  C   LIG d   1       4.724  -0.116  -1.732  0.00  0.00    -0.059 C 
ATOM     20  H   LIG d   1       5.628  -0.229  -1.134  0.00  0.00     0.024 H 
ATOM     21  H   LIG d   1       4.755   0.837  -2.261  0.00  0.00     0.024 H 
ATOM     22  H   LIG d   1       3.852  -0.143  -1.080  0.00  0.00     0.024 H 
ENDBRANCH   6  19
BRANCH   1  23
ATOM     23  C   LIG d   1       3.304   0.087  -4.571  0.00  0.00    -0.057 C 
ATOM     24  H   LIG d   1       3.530   1.148  -4.472  0.00  0.00     0.024 H 
ATOM     25  H   LIG d   1       3.004  -0.128  -5.597  0.00  0.00     0.024 H 
ATOM     26  H   LIG d   1       2.492  -0.176  -3.892  0.00  0.00     0.024 H 
ENDBRANCH   1  23
BRANCH   8  27
ATOM     27  C   LIG d   1       6.377   0.026  -5.804  0.00  0.00    -0.035 C 
ATOM     28  H   LIG d   1       6.333  -0.984  -6.212  0.00  0.00     0.026 H 
ATOM     29  H   LIG d   1       5.728   0.681  -6.385  0.00  0.00     0.026 H 
ATOM     30  H   LIG d   1       7.402   0.393  -5.854  0.00  0.00     0.026 H 
ENDBRANCH   8  27
BRANCH   8  31
ATOM     31  O   LIG d   1       5.802   1.340  -3.841  0.00  0.00    -0.388 OA
ATOM     32  H   LIG d   1       5.135   1.445  -3.149  0.00  0.00     0.210 HD
ENDBRANCH   8  31
TORSDOF 5
ENDMDL
MODEL 6
REMARK VINA RESULT:      -4.4      1.519      2.659
REMARK  5 active torsions:
REMARK  status: ('A' for Active; 'I' for Inactive)
REMARK    1  A    between atoms: C_1  and  C_2 
REMARK    2  A    between atoms: C_7  and  C_8 
REMARK    3  A    between atoms: C_7  and  C_9 
REMARK    4  A    between atoms: C_11  and  C_12 
REMARK    5  A    between atoms: C_11  and  O_13 
ROOT
ATOM      1  C   LIG d   1       4.841  -0.730  -4.681  0.00  0.00     0.002 C 
ATOM      2  C   LIG d   1       5.953   0.292  -4.293  0.00  0.00    -0.044 C 
ATOM      3  C   LIG d   1       6.789  -0.430  -3.212  0.00  0.00    -0.049 C 
ATOM      4  C   LIG d   1       6.103  -1.821  -3.048  0.00  0.00    -0.033 C 
ATOM      5  H   LIG d   1       6.714  -2.602  -2.596  0.00  0.00     0.031 H 
ATOM      6  C   LIG d   1       5.621  -2.082  -4.519  0.00  0.00    -0.024 C 
ATOM      7  C   LIG d   1       4.754  -1.510  -2.332  0.00  0.00    -0.020 C 
ATOM      8  C   LIG d   1       3.894  -0.794  -3.444  0.00  0.00     0.069 C 
ATOM      9  H   LIG d   1       6.572   0.527  -5.159  0.00  0.00     0.027 H 
ATOM     10  H   LIG d   1       5.509   1.201  -3.886  0.00  0.00     0.027 H 
ATOM     11  H   LIG d   1       7.819  -0.551  -3.546  0.00  0.00     0.027 H 
ATOM     12  H   LIG d   1       6.755   0.123  -2.273  0.00  0.00     0.027 H 
ATOM     13  H   LIG d   1       4.265  -2.433  -2.025  0.00  0.00     0.030 H 
ATOM     14  H   LIG d   1       4.921  -0.863  -1.471  0.00  0.00     0.030 H 
ENDROOT
BRANCH   6  15
ATOM     15  C   LIG d   1       6.794  -2.189  -5.497  0.00  0.00    -0.059 C 
ATOM     16  H   LIG d   1       7.010  -3.239  -5.690  0.00  0.00     0.024 H 
ATOM     17  H   LIG d   1       6.533  -1.693  -6.433  0.00  0.00     0.024 H 
ATOM     18  H   LIG d   1       7.672  -1.710  -5.063  0.00  0.00     0.024 H 
ENDBRANCH   6  15
BRANCH   6  19
ATOM     19  C   LIG d   1       4.694  -3.295  -4.612  0.00  0.00    -0.059 C 
ATOM     20  H   LIG d   1       4.796  -3.756  -5.594  0.00  0.00     0.024 H 
ATOM     21  H   LIG d   1       4.962  -4.018  -3.842  0.00  0.00     0.024 H 
ATOM     22  H   LIG d   1       3.662  -2.975  -4.467  0.00  0.00     0.024 H 
ENDBRANCH   6  19
BRANCH   1  23
ATOM     23  C   LIG d   1       4.161  -0.500  -6.032  0.00  0.00    -0.057 C 
ATOM     24  H   LIG d   1       3.406   0.280  -5.930  0.00  0.00     0.024 H 
ATOM     25  H   LIG d   1       4.906  -0.192  -6.766  0.00  0.00     0.024 H 
ATOM     26  H   LIG d   1       3.686  -1.424  -6.362  0.00  0.00     0.024 H 
ENDBRANCH   1  23
BRANCH   8  27
ATOM     27  C   LIG d   1       3.528   0.617  -2.978  0.00  0.00    -0.035 C 
ATOM     28  H   LIG d   1       4.409   1.101  -2.557  0.00  0.00     0.026 H 
ATOM     29  H   LIG d   1       3.166   1.197  -3.827  0.00  0.00     0.026 H 
ATOM     30  H   LIG d   1       2.748   0.558  -2.220  0.00  0.00     0.026 H 
ENDBRANCH   8  27
BRANCH   8  31
ATOM     31  O   LIG d   1       2.715  -1.538  -3.757  0.00  0.00    -0.388 OA
ATOM     32  H   LIG d   1       2.861  -2.263  -4.381  0.00  0.00     0.210 HD
ENDBRANCH   8  31
TORSDOF 5
ENDMDL
MODEL 7
REMARK VINA RESULT:      -4.1      1.950      3.208
REMARK  5 active torsions:
REMARK  status: ('A' for Active; 'I' for Inactive)
REMARK    1  A    between atoms: C_1  and  C_2 
REMARK    2  A    between atoms: C_7  and  C_8 
REMARK    3  A    between atoms: C_7  and  C_9 
REMARK    4  A    between atoms: C_11  and  C_12 
REMARK    5  A    between atoms: C_11  and  O_13 
ROOT
ATOM      1  C   LIG d   1       6.034  -1.072  -3.694  0.00  0.00     0.002 C 
ATOM      2  C   LIG d   1       5.930   0.373  -3.117  0.00  0.00    -0.044 C 
ATOM      3  C   LIG d   1       4.455   0.777  -3.340  0.00  0.00    -0.049 C 
ATOM      4  C   LIG d   1       3.807  -0.461  -4.031  0.00  0.00    -0.033 C 
ATOM      5  H   LIG d   1       2.721  -0.525  -3.973  0.00  0.00     0.031 H 
ATOM      6  C   LIG d   1       4.608  -1.626  -3.349  0.00  0.00    -0.024 C 
ATOM      7  C   LIG d   1       4.414  -0.469  -5.467  0.00  0.00    -0.020 C 
ATOM      8  C   LIG d   1       5.912  -0.905  -5.240  0.00  0.00     0.069 C 
ATOM      9  H   LIG d   1       6.169   0.375  -2.054  0.00  0.00     0.027 H 
ATOM     10  H   LIG d   1       6.595   1.047  -3.658  0.00  0.00     0.027 H 
ATOM     11  H   LIG d   1       3.968   0.979  -2.386  0.00  0.00     0.027 H 
ATOM     12  H   LIG d   1       4.395   1.650  -3.990  0.00  0.00     0.027 H 
ATOM     13  H   LIG d   1       3.906  -1.205  -6.090  0.00  0.00     0.030 H 
ATOM     14  H   LIG d   1       4.345   0.522  -5.915  0.00  0.00     0.030 H 
ENDROOT
BRANCH   6  15
ATOM     15  C   LIG d   1       4.364  -1.683  -1.839  0.00  0.00    -0.059 C 
ATOM     16  H   LIG d   1       3.397  -1.235  -1.611  0.00  0.00     0.024 H 
ATOM     17  H   LIG d   1       4.370  -2.722  -1.509  0.00  0.00     0.024 H 
ATOM     18  H   LIG d   1       5.151  -1.132  -1.324  0.00  0.00     0.024 H 
ENDBRANCH   6  15
BRANCH   6  19
ATOM     19  C   LIG d   1       4.338  -2.976  -4.017  0.00  0.00    -0.059 C 
ATOM     20  H   LIG d   1       3.417  -3.401  -3.619  0.00  0.00     0.024 H 
ATOM     21  H   LIG d   1       4.237  -2.835  -5.094  0.00  0.00     0.024 H 
ATOM     22  H   LIG d   1       5.168  -3.653  -3.815  0.00  0.00     0.024 H 
ENDBRANCH   6  19
BRANCH   1  23
ATOM     23  C   LIG d   1       7.220  -1.905  -3.204  0.00  0.00    -0.057 C 
ATOM     24  H   LIG d   1       7.298  -2.814  -3.800  0.00  0.00     0.024 H 
ATOM     25  H   LIG d   1       8.138  -1.325  -3.304  0.00  0.00     0.024 H 
ATOM     26  H   LIG d   1       7.070  -2.170  -2.157  0.00  0.00     0.024 H 
ENDBRANCH   1  23
BRANCH   8  27
ATOM     27  C   LIG d   1       6.848   0.201  -5.733  0.00  0.00    -0.035 C 
ATOM     28  H   LIG d   1       7.862   0.000  -5.387  0.00  0.00     0.026 H 
ATOM     29  H   LIG d   1       6.835   0.229  -6.822  0.00  0.00     0.026 H 
ATOM     30  H   LIG d   1       6.513   1.161  -5.341  0.00  0.00     0.026 H 
ENDBRANCH   8  27
BRANCH   8  31
ATOM     31  O   LIG d   1       6.207  -2.139  -5.899  0.00  0.00    -0.388 OA
ATOM     32  H   LIG d   1       5.758  -2.248  -6.749  0.00  0.00     0.210 HD
ENDBRANCH   8  31
TORSDOF 5
ENDMDL
MODEL 8
REMARK VINA RESULT:      -4.0      4.224      6.309
REMARK  5 active torsions:
REMARK  status: ('A' for Active; 'I' for Inactive)
REMARK    1  A    between atoms: C_1  and  C_2 
REMARK    2  A    between atoms: C_7  and  C_8 
REMARK    3  A    between atoms: C_7  and  C_9 
REMARK    4  A    between atoms: C_11  and  C_12 
REMARK    5  A    between atoms: C_11  and  O_13 
ROOT
ATOM      1  C   LIG d   1       2.924   0.184  -9.162  0.00  0.00     0.002 C 
ATOM      2  C   LIG d   1       2.812   1.734  -9.035  0.00  0.00    -0.044 C 
ATOM      3  C   LIG d   1       4.273   2.237  -9.082  0.00  0.00    -0.049 C 
ATOM      4  C   LIG d   1       5.130   0.943  -9.232  0.00  0.00    -0.033 C 
ATOM      5  H   LIG d   1       6.140   1.084  -9.618  0.00  0.00     0.031 H 
ATOM      6  C   LIG d   1       4.171   0.060 -10.106  0.00  0.00    -0.024 C 
ATOM      7  C   LIG d   1       5.021   0.239  -7.846  0.00  0.00    -0.020 C 
ATOM      8  C   LIG d   1       3.537  -0.294  -7.811  0.00  0.00     0.069 C 
ATOM      9  H   LIG d   1       2.242   2.143  -9.869  0.00  0.00     0.027 H 
ATOM     10  H   LIG d   1       2.347   2.006  -8.087  0.00  0.00     0.027 H 
ATOM     11  H   LIG d   1       4.422   2.894  -9.939  0.00  0.00     0.027 H 
ATOM     12  H   LIG d   1       4.526   2.755  -8.157  0.00  0.00     0.027 H 
ATOM     13  H   LIG d   1       5.715  -0.599  -7.790  0.00  0.00     0.030 H 
ATOM     14  H   LIG d   1       5.215   0.949  -7.043  0.00  0.00     0.030 H 
ENDROOT
BRANCH   6  15
ATOM     15  C   LIG d   1       3.914   0.680 -11.482  0.00  0.00    -0.059 C 
ATOM     16  H   LIG d   1       4.830   0.649 -12.071  0.00  0.00     0.024 H 
ATOM     17  H   LIG d   1       3.133   0.117 -11.994  0.00  0.00     0.024 H 
ATOM     18  H   LIG d   1       3.595   1.715 -11.359  0.00  0.00     0.024 H 
ENDBRANCH   6  15
BRANCH   6  19
ATOM     19  C   LIG d   1       4.665  -1.384 -10.219  0.00  0.00    -0.059 C 
ATOM     20  H   LIG d   1       3.942  -2.053  -9.752  0.00  0.00     0.024 H 
ATOM     21  H   LIG d   1       4.778  -1.648 -11.271  0.00  0.00     0.024 H 
ATOM     22  H   LIG d   1       5.626  -1.478  -9.715  0.00  0.00     0.024 H 
ENDBRANCH   6  19
BRANCH   1  23
ATOM     23  C   LIG d   1       1.657  -0.543  -9.616  0.00  0.00    -0.057 C 
ATOM     24  H   LIG d   1       1.932  -1.432 -10.185  0.00  0.00     0.024 H 
ATOM     25  H   LIG d   1       1.074  -0.836  -8.743  0.00  0.00     0.024 H 
ATOM     26  H   LIG d   1       1.063   0.120 -10.245  0.00  0.00     0.024 H 
ENDBRANCH   1  23
BRANCH   8  27
ATOM     27  C   LIG d   1       2.794   0.340  -6.633  0.00  0.00    -0.035 C 
ATOM     28  H   LIG d   1       2.097   1.091  -7.005  0.00  0.00     0.026 H 
ATOM     29  H   LIG d   1       2.243  -0.430  -6.094  0.00  0.00     0.026 H 
ATOM     30  H   LIG d   1       3.511   0.811  -5.962  0.00  0.00     0.026 H 
ENDBRANCH   8  27
BRANCH   8  31
ATOM     31  O   LIG d   1       3.492  -1.719  -7.720  0.00  0.00    -0.388 OA
ATOM     32  H   LIG d   1       2.892  -2.052  -7.039  0.00  0.00     0.210 HD
ENDBRANCH   8  31
TORSDOF 5
ENDMDL
MODEL 9
REMARK VINA RESULT:      -3.7      4.693      6.661
REMARK  5 active torsions:
REMARK  status: ('A' for Active; 'I' for Inactive)
REMARK    1  A    between atoms: C_1  and  C_2 
REMARK    2  A    between atoms: C_7  and  C_8 
REMARK    3  A    between atoms: C_7  and  C_9 
REMARK    4  A    between atoms: C_11  and  C_12 
REMARK    5  A    between atoms: C_11  and  O_13 
ROOT
ATOM      1  C   LIG d   1       4.151  -0.238  -9.834  0.00  0.00     0.002 C 
ATOM      2  C   LIG d   1       3.847   0.768 -10.985  0.00  0.00    -0.044 C 
ATOM      3  C   LIG d   1       3.752   2.144 -10.288  0.00  0.00    -0.049 C 
ATOM      4  C   LIG d   1       4.006   1.839  -8.780  0.00  0.00    -0.033 C 
ATOM      5  H   LIG d   1       4.315   2.687  -8.168  0.00  0.00     0.031 H 
ATOM      6  C   LIG d   1       5.031   0.656  -8.893  0.00  0.00    -0.024 C 
ATOM      7  C   LIG d   1       2.722   1.091  -8.310  0.00  0.00    -0.020 C 
ATOM      8  C   LIG d   1       2.833  -0.320  -9.004  0.00  0.00     0.069 C 
ATOM      9  H   LIG d   1       4.657   0.767 -11.715  0.00  0.00     0.027 H 
ATOM     10  H   LIG d   1       2.901   0.520 -11.468  0.00  0.00     0.027 H 
ATOM     11  H   LIG d   1       4.514   2.820 -10.673  0.00  0.00     0.027 H 
ATOM     12  H   LIG d   1       2.759   2.572 -10.426  0.00  0.00     0.027 H 
ATOM     13  H   LIG d   1       2.727   0.971  -7.227  0.00  0.00     0.030 H 
ATOM     14  H   LIG d   1       1.830   1.630  -8.629  0.00  0.00     0.030 H 
ENDROOT
BRANCH   6  15
ATOM     15  C   LIG d   1       6.335   1.088  -9.566  0.00  0.00    -0.059 C 
ATOM     16  H   LIG d   1       6.107   1.654 -10.469  0.00  0.00     0.024 H 
ATOM     17  H   LIG d   1       6.909   1.713  -8.881  0.00  0.00     0.024 H 
ATOM     18  H   LIG d   1       6.918   0.205  -9.828  0.00  0.00     0.024 H 
ENDBRANCH   6  15
BRANCH   6  19
ATOM     19  C   LIG d   1       5.287  -0.012  -7.540  0.00  0.00    -0.059 C 
ATOM     20  H   LIG d   1       4.466  -0.691  -7.308  0.00  0.00     0.024 H 
ATOM     21  H   LIG d   1       6.221  -0.573  -7.582  0.00  0.00     0.024 H 
ATOM     22  H   LIG d   1       5.356   0.752  -6.766  0.00  0.00     0.024 H 
ENDBRANCH   6  19
BRANCH   1  23
ATOM     23  C   LIG d   1       4.758  -1.577 -10.258  0.00  0.00    -0.057 C 
ATOM     24  H   LIG d   1       5.599  -1.817  -9.608  0.00  0.00     0.024 H 
ATOM     25  H   LIG d   1       4.003  -2.360 -10.180  0.00  0.00     0.024 H 
ATOM     26  H   LIG d   1       5.105  -1.508 -11.289  0.00  0.00     0.024 H 
ENDBRANCH   1  23
BRANCH   8  27
ATOM     27  C   LIG d   1       1.632  -0.532  -9.928  0.00  0.00    -0.035 C 
ATOM     28  H   LIG d   1       1.982  -0.682 -10.950  0.00  0.00     0.026 H 
ATOM     29  H   LIG d   1       1.074  -1.409  -9.603  0.00  0.00     0.026 H 
ATOM     30  H   LIG d   1       0.986   0.344  -9.891  0.00  0.00     0.026 H 
ENDBRANCH   8  27
BRANCH   8  31
ATOM     31  O   LIG d   1       2.915  -1.374  -8.042  0.00  0.00    -0.388 OA
ATOM     32  H   LIG d   1       3.496  -1.180  -7.294  0.00  0.00     0.210 HD
ENDBRANCH   8  31
TORSDOF 5
ENDMDL
MODEL 10
REMARK VINA RESULT:      -3.6      4.903      6.326
REMARK  5 active torsions:
REMARK  status: ('A' for Active; 'I' for Inactive)
REMARK    1  A    between atoms: C_1  and  C_2 
REMARK    2  A    between atoms: C_7  and  C_8 
REMARK    3  A    between atoms: C_7  and  C_9 
REMARK    4  A    between atoms: C_11  and  C_12 
REMARK    5  A    between atoms: C_11  and  O_13 
ROOT
ATOM      1  C   LIG d   1       4.189  -0.278  -9.013  0.00  0.00     0.002 C 
ATOM      2  C   LIG d   1       3.541   0.111  -7.649  0.00  0.00    -0.044 C 
ATOM      3  C   LIG d   1       2.861   1.474  -7.914  0.00  0.00    -0.049 C 
ATOM      4  C   LIG d   1       3.163   1.780  -9.413  0.00  0.00    -0.033 C 
ATOM      5  H   LIG d   1       2.508   2.508  -9.891  0.00  0.00     0.031 H 
ATOM      6  C   LIG d   1       3.146   0.331 -10.014  0.00  0.00    -0.024 C 
ATOM      7  C   LIG d   1       4.687   2.109  -9.445  0.00  0.00    -0.020 C 
ATOM      8  C   LIG d   1       5.378   0.713  -9.198  0.00  0.00     0.069 C 
ATOM      9  H   LIG d   1       2.800  -0.633  -7.355  0.00  0.00     0.027 H 
ATOM     10  H   LIG d   1       4.306   0.211  -6.879  0.00  0.00     0.027 H 
ATOM     11  H   LIG d   1       1.786   1.401  -7.750  0.00  0.00     0.027 H 
ATOM     12  H   LIG d   1       3.292   2.244  -7.274  0.00  0.00     0.027 H 
ATOM     13  H   LIG d   1       4.972   2.494 -10.423  0.00  0.00     0.030 H 
ATOM     14  H   LIG d   1       4.937   2.828  -8.665  0.00  0.00     0.030 H 
ENDROOT
BRANCH   6  15
ATOM     15  C   LIG d   1       1.771  -0.329  -9.882  0.00  0.00    -0.059 C 
ATOM     16  H   LIG d   1       0.995   0.435  -9.931  0.00  0.00     0.024 H 
ATOM     17  H   LIG d   1       1.630  -1.042 -10.695  0.00  0.00     0.024 H 
ATOM     18  H   LIG d   1       1.709  -0.850  -8.927  0.00  0.00     0.024 H 
ENDBRANCH   6  15
BRANCH   6  19
ATOM     19  C   LIG d   1       3.651   0.303 -11.458  0.00  0.00    -0.059 C 
ATOM     20  H   LIG d   1       4.719   0.085 -11.466  0.00  0.00     0.024 H 
ATOM     21  H   LIG d   1       3.119  -0.469 -12.015  0.00  0.00     0.024 H 
ATOM     22  H   LIG d   1       3.475   1.273 -11.922  0.00  0.00     0.024 H 
ENDBRANCH   6  19
BRANCH   1  23
ATOM     23  C   LIG d   1       4.520  -1.760  -9.199  0.00  0.00    -0.057 C 
ATOM     24  H   LIG d   1       4.235  -2.311  -8.303  0.00  0.00     0.024 H 
ATOM     25  H   LIG d   1       3.971  -2.150 -10.057  0.00  0.00     0.024 H 
ATOM     26  H   LIG d   1       5.590  -1.874  -9.370  0.00  0.00     0.024 H 
ENDBRANCH   1  23
BRANCH   8  27
ATOM     27  C   LIG d   1       6.222   0.779  -7.924  0.00  0.00    -0.035 C 
ATOM     28  H   LIG d   1       6.496   1.814  -7.722  0.00  0.00     0.026 H 
ATOM     29  H   LIG d   1       5.647   0.385  -7.087  0.00  0.00     0.026 H 
ATOM     30  H   LIG d   1       7.126   0.183  -8.056  0.00  0.00     0.026 H 
ENDBRANCH   8  27
BRANCH   8  31
ATOM     31  O   LIG d   1       6.184   0.322 -10.312  0.00  0.00    -0.388 OA
ATOM     32  H   LIG d   1       6.940   0.904 -10.475  0.00  0.00     0.210 HD
ENDBRANCH   8  31
TORSDOF 5
ENDMDL
