MODEL 1
REMARK VINA RESULT:      -7.4      0.000      0.000
REMARK  6 active torsions:
REMARK  status: ('A' for Active; 'I' for Inactive)
REMARK    1  A    between atoms: C_1  and  C_2 
REMARK    2  A    between atoms: C_2  and  C_3 
REMARK    3  A    between atoms: C_3  and  C_4 
REMARK    4  A    between atoms: C_9  and  O_10 
REMARK    5  A    between atoms: O_10  and  C_11 
REMARK       I    between atoms: C_11  and  N_13 
REMARK    6  A    between atoms: C_21  and  C_24 
ROOT
ATOM      1  C   LIG d   1       5.725  -2.148  -4.012  0.00  0.00    -0.004 A 
ATOM      2  C   LIG d   1       6.007  -0.837  -3.751  0.00  0.00    -0.041 A 
ATOM      3  C   LIG d   1       7.235  -0.302  -4.142  0.00  0.00     0.065 A 
ATOM      4  C   LIG d   1       8.183  -1.103  -4.802  0.00  0.00     0.142 A 
ATOM      5  C   LIG d   1       7.880  -2.433  -5.060  0.00  0.00     0.024 A 
ATOM      6  C   LIG d   1       6.657  -2.951  -4.666  0.00  0.00     0.140 A 
ATOM      7  O   LIG d   1       9.368  -0.585  -5.178  0.00  0.00    -0.462 OA
ATOM      8  C   LIG d   1       9.716   0.686  -4.958  0.00  0.00     0.104 A 
ATOM      9  C   LIG d   1       8.897   1.569  -4.332  0.00  0.00     0.064 A 
ATOM     10  C   LIG d   1       7.576   1.108  -3.871  0.00  0.00     0.200 A 
ATOM     11  O   LIG d   1       6.801   1.854  -3.299  0.00  0.00    -0.286 OA
ATOM     12  H   LIG d   1       5.283  -0.217  -3.244  0.00  0.00     0.063 H 
ATOM     13  H   LIG d   1       8.596  -3.064  -5.566  0.00  0.00     0.069 H 
ATOM     14  H   LIG d   1      10.685   1.024  -5.292  0.00  0.00     0.104 H 
ENDROOT
BRANCH   9  15
ATOM     15  C   LIG d   1       9.326   2.971  -4.108  0.00  0.00    -0.008 A 
ATOM     16  C   LIG d   1       9.919   3.335  -2.900  0.00  0.00    -0.008 A 
ATOM     17  C   LIG d   1      10.322   4.643  -2.702  0.00  0.00     0.163 A 
ATOM     18  H   LIG d   1      10.070   2.599  -2.125  0.00  0.00     0.066 H 
ATOM     19  C   LIG d   1      10.129   5.591  -3.699  0.00  0.00     0.162 A 
ATOM     20  O   LIG d   1      10.908   5.013  -1.526  0.00  0.00    -0.488 OA
ATOM     21  C   LIG d   1       9.535   5.233  -4.899  0.00  0.00    -0.016 A 
ATOM     22  O   LIG d   1      10.527   6.880  -3.490  0.00  0.00    -0.488 OA
ATOM     23  C   LIG d   1       9.134   3.927  -5.104  0.00  0.00    -0.050 A 
ATOM     24  H   LIG d   1       9.386   5.972  -5.671  0.00  0.00     0.066 H 
ATOM     25  H   LIG d   1       8.671   3.646  -6.039  0.00  0.00     0.062 H 
ATOM     26  C   LIG d   1      11.938   7.094  -3.413  0.00  0.00     0.093 C 
ATOM     27  C   LIG d   1      12.449   6.826  -2.006  0.00  0.00     0.016 C 
ATOM     28  H   LIG d   1      12.440   6.424  -4.111  0.00  0.00     0.070 H 
ATOM     29  H   LIG d   1      12.160   8.126  -3.685  0.00  0.00     0.070 H 
ATOM     30  C   LIG d   1      12.289   5.369  -1.600  0.00  0.00     0.093 C 
ATOM     31  H   LIG d   1      13.505   7.092  -1.958  0.00  0.00     0.033 H 
ATOM     32  H   LIG d   1      11.897   7.451  -1.306  0.00  0.00     0.033 H 
ATOM     33  H   LIG d   1      12.785   4.736  -2.336  0.00  0.00     0.070 H 
ATOM     34  H   LIG d   1      12.752   5.216  -0.625  0.00  0.00     0.070 H 
ENDBRANCH   9  15
BRANCH   1  35
ATOM     35  C   LIG d   1       4.400  -2.729  -3.590  0.00  0.00    -0.024 C 
ATOM     36  H   LIG d   1       3.703  -2.686  -4.427  0.00  0.00     0.031 H 
ATOM     37  H   LIG d   1       4.539  -3.766  -3.285  0.00  0.00     0.031 H 
BRANCH  35  38
ATOM     38  C   LIG d   1       3.839  -1.921  -2.418  0.00  0.00    -0.052 C 
ATOM     39  H   LIG d   1       3.441  -2.603  -1.666  0.00  0.00     0.027 H 
ATOM     40  H   LIG d   1       4.634  -1.320  -1.978  0.00  0.00     0.027 H 
BRANCH  38  41
ATOM     41  C   LIG d   1       2.722  -1.004  -2.919  0.00  0.00    -0.065 C 
ATOM     42  H   LIG d   1       2.151  -0.630  -2.070  0.00  0.00     0.023 H 
ATOM     43  H   LIG d   1       3.157  -0.166  -3.463  0.00  0.00     0.023 H 
ATOM     44  H   LIG d   1       2.062  -1.564  -3.582  0.00  0.00     0.023 H 
ENDBRANCH  38  41
ENDBRANCH  35  38
ENDBRANCH   1  35
BRANCH   6  45
ATOM     45  O   LIG d   1       6.364  -4.252  -4.920  0.00  0.00    -0.411 OA
BRANCH  45  46
ATOM     46  C   LIG d   1       5.973  -4.558  -6.171  0.00  0.00     0.408 C 
ATOM     47  O   LIG d   1       5.732  -3.673  -6.967  0.00  0.00    -0.226 OA
ATOM     48  N   LIG d   1       5.848  -5.849  -6.541  0.00  0.00    -0.263 N 
ATOM     49  C   LIG d   1       5.421  -6.207  -7.903  0.00  0.00     0.041 C 
ATOM     50  C   LIG d   1       6.139  -6.939  -5.597  0.00  0.00     0.041 C 
ATOM     51  C   LIG d   1       4.270  -7.215  -7.800  0.00  0.00     0.064 C 
ATOM     52  H   LIG d   1       5.083  -5.315  -8.429  0.00  0.00     0.049 H 
ATOM     53  H   LIG d   1       6.256  -6.658  -8.442  0.00  0.00     0.049 H 
ATOM     54  O   LIG d   1       4.666  -8.296  -6.952  0.00  0.00    -0.377 OA
ATOM     55  H   LIG d   1       3.393  -6.723  -7.379  0.00  0.00     0.058 H 
ATOM     56  H   LIG d   1       4.032  -7.598  -8.792  0.00  0.00     0.058 H 
ATOM     57  C   LIG d   1       4.948  -7.910  -5.605  0.00  0.00     0.064 C 
ATOM     58  H   LIG d   1       4.073  -7.422  -5.175  0.00  0.00     0.058 H 
ATOM     59  H   LIG d   1       5.197  -8.794  -5.017  0.00  0.00     0.058 H 
ATOM     60  H   LIG d   1       7.044  -7.461  -5.908  0.00  0.00     0.049 H 
ATOM     61  H   LIG d   1       6.275  -6.531  -4.596  0.00  0.00     0.049 H 
ENDBRANCH  45  46
ENDBRANCH   6  45
TORSDOF 6
ENDMDL
MODEL 2
REMARK VINA RESULT:      -7.3      2.700     10.499
REMARK  6 active torsions:
REMARK  status: ('A' for Active; 'I' for Inactive)
REMARK    1  A    between atoms: C_1  and  C_2 
REMARK    2  A    between atoms: C_2  and  C_3 
REMARK    3  A    between atoms: C_3  and  C_4 
REMARK    4  A    between atoms: C_9  and  O_10 
REMARK    5  A    between atoms: O_10  and  C_11 
REMARK       I    between atoms: C_11  and  N_13 
REMARK    6  A    between atoms: C_21  and  C_24 
ROOT
ATOM      1  C   LIG d   1       5.976  -0.089  -3.134  0.00  0.00    -0.004 A 
ATOM      2  C   LIG d   1       5.392  -1.287  -3.433  0.00  0.00    -0.041 A 
ATOM      3  C   LIG d   1       6.037  -2.176  -4.293  0.00  0.00     0.065 A 
ATOM      4  C   LIG d   1       7.283  -1.846  -4.853  0.00  0.00     0.142 A 
ATOM      5  C   LIG d   1       7.863  -0.624  -4.537  0.00  0.00     0.024 A 
ATOM      6  C   LIG d   1       7.211   0.248  -3.682  0.00  0.00     0.140 A 
ATOM      7  O   LIG d   1       7.905  -2.705  -5.684  0.00  0.00    -0.462 OA
ATOM      8  C   LIG d   1       7.398  -3.893  -6.024  0.00  0.00     0.104 A 
ATOM      9  C   LIG d   1       6.203  -4.338  -5.557  0.00  0.00     0.064 A 
ATOM     10  C   LIG d   1       5.433  -3.475  -4.644  0.00  0.00     0.200 A 
ATOM     11  O   LIG d   1       4.353  -3.819  -4.197  0.00  0.00    -0.286 OA
ATOM     12  H   LIG d   1       4.434  -1.545  -3.006  0.00  0.00     0.063 H 
ATOM     13  H   LIG d   1       8.821  -0.354  -4.959  0.00  0.00     0.069 H 
ATOM     14  H   LIG d   1       7.959  -4.524  -6.696  0.00  0.00     0.104 H 
ENDROOT
BRANCH   9  15
ATOM     15  C   LIG d   1       5.678  -5.664  -5.964  0.00  0.00    -0.008 A 
ATOM     16  C   LIG d   1       4.757  -5.761  -7.006  0.00  0.00    -0.008 A 
ATOM     17  C   LIG d   1       4.278  -7.003  -7.382  0.00  0.00     0.163 A 
ATOM     18  H   LIG d   1       4.426  -4.873  -7.522  0.00  0.00     0.066 H 
ATOM     19  C   LIG d   1       4.706  -8.146  -6.720  0.00  0.00     0.162 A 
ATOM     20  O   LIG d   1       3.380  -7.113  -8.404  0.00  0.00    -0.488 OA
ATOM     21  C   LIG d   1       5.617  -8.051  -5.679  0.00  0.00    -0.016 A 
ATOM     22  O   LIG d   1       4.222  -9.365  -7.097  0.00  0.00    -0.488 OA
ATOM     23  C   LIG d   1       6.102  -6.815  -5.301  0.00  0.00    -0.050 A 
ATOM     24  H   LIG d   1       5.947  -8.942  -5.165  0.00  0.00     0.066 H 
ATOM     25  H   LIG d   1       6.813  -6.739  -4.491  0.00  0.00     0.062 H 
ATOM     26  C   LIG d   1       4.634  -9.829  -8.384  0.00  0.00     0.093 C 
ATOM     27  C   LIG d   1       3.740  -9.261  -9.475  0.00  0.00     0.016 C 
ATOM     28  H   LIG d   1       5.663  -9.518  -8.565  0.00  0.00     0.070 H 
ATOM     29  H   LIG d   1       4.580 -10.918  -8.407  0.00  0.00     0.070 H 
ATOM     30  C   LIG d   1       3.857  -7.750  -9.590  0.00  0.00     0.093 C 
ATOM     31  H   LIG d   1       4.019  -9.710 -10.429  0.00  0.00     0.033 H 
ATOM     32  H   LIG d   1       2.705  -9.520  -9.253  0.00  0.00     0.033 H 
ATOM     33  H   LIG d   1       4.902  -7.482  -9.746  0.00  0.00     0.070 H 
ATOM     34  H   LIG d   1       3.269  -7.408 -10.441  0.00  0.00     0.070 H 
ENDBRANCH   9  15
BRANCH   1  35
ATOM     35  C   LIG d   1       5.280   0.873  -2.205  0.00  0.00    -0.024 C 
ATOM     36  H   LIG d   1       5.576   0.663  -1.177  0.00  0.00     0.031 H 
ATOM     37  H   LIG d   1       5.562   1.895  -2.463  0.00  0.00     0.031 H 
BRANCH  35  38
ATOM     38  C   LIG d   1       3.766   0.711  -2.343  0.00  0.00    -0.052 C 
ATOM     39  H   LIG d   1       3.542  -0.277  -2.747  0.00  0.00     0.027 H 
ATOM     40  H   LIG d   1       3.297   0.817  -1.365  0.00  0.00     0.027 H 
BRANCH  38  41
ATOM     41  C   LIG d   1       3.222   1.784  -3.289  0.00  0.00    -0.065 C 
ATOM     42  H   LIG d   1       2.154   1.629  -3.438  0.00  0.00     0.023 H 
ATOM     43  H   LIG d   1       3.390   2.769  -2.855  0.00  0.00     0.023 H 
ATOM     44  H   LIG d   1       3.736   1.717  -4.248  0.00  0.00     0.023 H 
ENDBRANCH  38  41
ENDBRANCH  35  38
ENDBRANCH   1  35
BRANCH   6  45
ATOM     45  O   LIG d   1       7.781   1.442  -3.375  0.00  0.00    -0.411 OA
BRANCH  45  46
ATOM     46  C   LIG d   1       8.275   2.164  -4.398  0.00  0.00     0.408 C 
ATOM     47  O   LIG d   1       7.619   2.312  -5.410  0.00  0.00    -0.226 OA
ATOM     48  N   LIG d   1       9.498   2.724  -4.300  0.00  0.00    -0.263 N 
ATOM     49  C   LIG d   1      10.058   3.517  -5.405  0.00  0.00     0.041 C 
ATOM     50  C   LIG d   1      10.308   2.563  -3.082  0.00  0.00     0.041 C 
ATOM     51  C   LIG d   1      11.469   2.998  -5.705  0.00  0.00     0.064 C 
ATOM     52  H   LIG d   1       9.430   3.409  -6.289  0.00  0.00     0.049 H 
ATOM     53  H   LIG d   1      10.108   4.567  -5.115  0.00  0.00     0.049 H 
ATOM     54  O   LIG d   1      12.228   2.970  -4.495  0.00  0.00    -0.377 OA
ATOM     55  H   LIG d   1      11.406   1.992  -6.120  0.00  0.00     0.058 H 
ATOM     56  H   LIG d   1      11.954   3.657  -6.425  0.00  0.00     0.058 H 
ATOM     57  C   LIG d   1      11.708   2.086  -3.498  0.00  0.00     0.064 C 
ATOM     58  H   LIG d   1      11.647   1.076  -3.904  0.00  0.00     0.058 H 
ATOM     59  H   LIG d   1      12.366   2.090  -2.629  0.00  0.00     0.058 H 
ATOM     60  H   LIG d   1      10.382   3.518  -2.562  0.00  0.00     0.049 H 
ATOM     61  H   LIG d   1       9.846   1.823  -2.429  0.00  0.00     0.049 H 
ENDBRANCH  45  46
ENDBRANCH   6  45
TORSDOF 6
ENDMDL
MODEL 3
REMARK VINA RESULT:      -7.0      1.523      2.408
REMARK  6 active torsions:
REMARK  status: ('A' for Active; 'I' for Inactive)
REMARK    1  A    between atoms: C_1  and  C_2 
REMARK    2  A    between atoms: C_2  and  C_3 
REMARK    3  A    between atoms: C_3  and  C_4 
REMARK    4  A    between atoms: C_9  and  O_10 
REMARK    5  A    between atoms: O_10  and  C_11 
REMARK       I    between atoms: C_11  and  N_13 
REMARK    6  A    between atoms: C_21  and  C_24 
ROOT
ATOM      1  C   LIG d   1       5.736  -2.082  -3.966  0.00  0.00    -0.004 A 
ATOM      2  C   LIG d   1       6.111  -0.799  -3.686  0.00  0.00    -0.041 A 
ATOM      3  C   LIG d   1       7.343  -0.323  -4.136  0.00  0.00     0.065 A 
ATOM      4  C   LIG d   1       8.200  -1.157  -4.876  0.00  0.00     0.142 A 
ATOM      5  C   LIG d   1       7.803  -2.458  -5.153  0.00  0.00     0.024 A 
ATOM      6  C   LIG d   1       6.577  -2.916  -4.700  0.00  0.00     0.140 A 
ATOM      7  O   LIG d   1       9.390  -0.696  -5.310  0.00  0.00    -0.462 OA
ATOM      8  C   LIG d   1       9.825   0.544  -5.075  0.00  0.00     0.104 A 
ATOM      9  C   LIG d   1       9.100   1.453  -4.373  0.00  0.00     0.064 A 
ATOM     10  C   LIG d   1       7.784   1.054  -3.846  0.00  0.00     0.200 A 
ATOM     11  O   LIG d   1       7.091   1.825  -3.206  0.00  0.00    -0.286 OA
ATOM     12  H   LIG d   1       5.457  -0.155  -3.117  0.00  0.00     0.063 H 
ATOM     13  H   LIG d   1       8.449  -3.113  -5.720  0.00  0.00     0.069 H 
ATOM     14  H   LIG d   1      10.792   0.836  -5.458  0.00  0.00     0.104 H 
ENDROOT
BRANCH   9  15
ATOM     15  C   LIG d   1       9.625   2.819  -4.136  0.00  0.00    -0.008 A 
ATOM     16  C   LIG d   1       9.586   3.769  -5.156  0.00  0.00    -0.008 A 
ATOM     17  C   LIG d   1      10.073   5.043  -4.925  0.00  0.00     0.163 A 
ATOM     18  H   LIG d   1       9.170   3.515  -6.120  0.00  0.00     0.066 H 
ATOM     19  C   LIG d   1      10.607   5.371  -3.685  0.00  0.00     0.162 A 
ATOM     20  O   LIG d   1      10.037   5.984  -5.912  0.00  0.00    -0.488 OA
ATOM     21  C   LIG d   1      10.652   4.427  -2.671  0.00  0.00    -0.016 A 
ATOM     22  O   LIG d   1      11.089   6.630  -3.471  0.00  0.00    -0.488 OA
ATOM     23  C   LIG d   1      10.164   3.154  -2.895  0.00  0.00    -0.050 A 
ATOM     24  H   LIG d   1      11.069   4.685  -1.709  0.00  0.00     0.066 H 
ATOM     25  H   LIG d   1      10.198   2.417  -2.105  0.00  0.00     0.062 H 
ATOM     26  C   LIG d   1      10.116   7.675  -3.446  0.00  0.00     0.093 C 
ATOM     27  C   LIG d   1       9.803   8.156  -4.855  0.00  0.00     0.016 C 
ATOM     28  H   LIG d   1       9.202   7.304  -2.983  0.00  0.00     0.070 H 
ATOM     29  H   LIG d   1      10.500   8.510  -2.859  0.00  0.00     0.070 H 
ATOM     30  C   LIG d   1       9.144   7.078  -5.701  0.00  0.00     0.093 C 
ATOM     31  H   LIG d   1       9.136   9.015  -4.794  0.00  0.00     0.033 H 
ATOM     32  H   LIG d   1      10.732   8.465  -5.336  0.00  0.00     0.033 H 
ATOM     33  H   LIG d   1       8.250   6.719  -5.191  0.00  0.00     0.070 H 
ATOM     34  H   LIG d   1       8.861   7.502  -6.665  0.00  0.00     0.070 H 
ENDBRANCH   9  15
BRANCH   1  35
ATOM     35  C   LIG d   1       4.406  -2.598  -3.480  0.00  0.00    -0.024 C 
ATOM     36  H   LIG d   1       3.704  -2.634  -4.314  0.00  0.00     0.031 H 
ATOM     37  H   LIG d   1       4.534  -3.600  -3.069  0.00  0.00     0.031 H 
BRANCH  35  38
ATOM     38  C   LIG d   1       3.862  -1.666  -2.396  0.00  0.00    -0.052 C 
ATOM     39  H   LIG d   1       3.542  -2.256  -1.537  0.00  0.00     0.027 H 
ATOM     40  H   LIG d   1       4.643  -0.971  -2.088  0.00  0.00     0.027 H 
BRANCH  38  41
ATOM     41  C   LIG d   1       2.671  -0.881  -2.949  0.00  0.00    -0.065 C 
ATOM     42  H   LIG d   1       1.798  -1.532  -2.997  0.00  0.00     0.023 H 
ATOM     43  H   LIG d   1       2.458  -0.035  -2.296  0.00  0.00     0.023 H 
ATOM     44  H   LIG d   1       2.908  -0.517  -3.949  0.00  0.00     0.023 H 
ENDBRANCH  38  41
ENDBRANCH  35  38
ENDBRANCH   1  35
BRANCH   6  45
ATOM     45  O   LIG d   1       6.191  -4.189  -4.972  0.00  0.00    -0.411 OA
BRANCH  45  46
ATOM     46  C   LIG d   1       6.496  -4.673  -6.191  0.00  0.00     0.408 C 
ATOM     47  O   LIG d   1       7.575  -5.197  -6.385  0.00  0.00    -0.226 OA
ATOM     48  N   LIG d   1       5.604  -4.575  -7.197  0.00  0.00    -0.263 N 
ATOM     49  C   LIG d   1       5.915  -5.095  -8.537  0.00  0.00     0.041 C 
ATOM     50  C   LIG d   1       4.290  -3.949  -6.985  0.00  0.00     0.041 C 
ATOM     51  C   LIG d   1       5.619  -3.996  -9.564  0.00  0.00     0.064 C 
ATOM     52  H   LIG d   1       6.968  -5.372  -8.589  0.00  0.00     0.049 H 
ATOM     53  H   LIG d   1       5.295  -5.969  -8.745  0.00  0.00     0.049 H 
ATOM     54  O   LIG d   1       4.289  -3.512  -9.364  0.00  0.00    -0.377 OA
ATOM     55  H   LIG d   1       6.328  -3.179  -9.437  0.00  0.00     0.058 H 
ATOM     56  H   LIG d   1       5.710  -4.404 -10.571  0.00  0.00     0.058 H 
ATOM     57  C   LIG d   1       4.074  -2.901  -8.088  0.00  0.00     0.064 C 
ATOM     58  H   LIG d   1       4.778  -2.079  -7.956  0.00  0.00     0.058 H 
ATOM     59  H   LIG d   1       3.054  -2.521  -8.034  0.00  0.00     0.058 H 
ATOM     60  H   LIG d   1       3.509  -4.708  -7.039  0.00  0.00     0.049 H 
ATOM     61  H   LIG d   1       4.266  -3.466  -6.009  0.00  0.00     0.049 H 
ENDBRANCH  45  46
ENDBRANCH   6  45
TORSDOF 6
ENDMDL
MODEL 4
REMARK VINA RESULT:      -6.9      1.582      2.112
REMARK  6 active torsions:
REMARK  status: ('A' for Active; 'I' for Inactive)
REMARK    1  A    between atoms: C_1  and  C_2 
REMARK    2  A    between atoms: C_2  and  C_3 
REMARK    3  A    between atoms: C_3  and  C_4 
REMARK    4  A    between atoms: C_9  and  O_10 
REMARK    5  A    between atoms: O_10  and  C_11 
REMARK       I    between atoms: C_11  and  N_13 
REMARK    6  A    between atoms: C_21  and  C_24 
ROOT
ATOM      1  C   LIG d   1       5.951  -2.080  -4.105  0.00  0.00    -0.004 A 
ATOM      2  C   LIG d   1       6.167  -0.763  -3.813  0.00  0.00    -0.041 A 
ATOM      3  C   LIG d   1       7.369  -0.160  -4.183  0.00  0.00     0.065 A 
ATOM      4  C   LIG d   1       8.359  -0.899  -4.853  0.00  0.00     0.142 A 
ATOM      5  C   LIG d   1       8.124  -2.236  -5.143  0.00  0.00     0.024 A 
ATOM      6  C   LIG d   1       6.925  -2.821  -4.770  0.00  0.00     0.140 A 
ATOM      7  O   LIG d   1       9.521  -0.315  -5.209  0.00  0.00    -0.462 OA
ATOM      8  C   LIG d   1       9.804   0.966  -4.958  0.00  0.00     0.104 A 
ATOM      9  C   LIG d   1       8.939   1.794  -4.318  0.00  0.00     0.064 A 
ATOM     10  C   LIG d   1       7.639   1.258  -3.878  0.00  0.00     0.200 A 
ATOM     11  O   LIG d   1       6.825   1.952  -3.296  0.00  0.00    -0.286 OA
ATOM     12  H   LIG d   1       5.410  -0.191  -3.298  0.00  0.00     0.063 H 
ATOM     13  H   LIG d   1       8.874  -2.820  -5.657  0.00  0.00     0.069 H 
ATOM     14  H   LIG d   1      10.758   1.358  -5.277  0.00  0.00     0.104 H 
ENDROOT
BRANCH   9  15
ATOM     15  C   LIG d   1       9.298   3.210  -4.060  0.00  0.00    -0.008 A 
ATOM     16  C   LIG d   1       9.862   3.575  -2.839  0.00  0.00    -0.008 A 
ATOM     17  C   LIG d   1      10.199   4.897  -2.610  0.00  0.00     0.163 A 
ATOM     18  H   LIG d   1      10.043   2.830  -2.079  0.00  0.00     0.066 H 
ATOM     19  C   LIG d   1       9.969   5.856  -3.587  0.00  0.00     0.162 A 
ATOM     20  O   LIG d   1      10.757   5.268  -1.421  0.00  0.00    -0.488 OA
ATOM     21  C   LIG d   1       9.403   5.496  -4.800  0.00  0.00    -0.016 A 
ATOM     22  O   LIG d   1      10.302   7.157  -3.347  0.00  0.00    -0.488 OA
ATOM     23  C   LIG d   1       9.067   4.177  -5.037  0.00  0.00    -0.050 A 
ATOM     24  H   LIG d   1       9.224   6.244  -5.558  0.00  0.00     0.066 H 
ATOM     25  H   LIG d   1       8.626   3.894  -5.982  0.00  0.00     0.062 H 
ATOM     26  C   LIG d   1      11.700   7.437  -3.252  0.00  0.00     0.093 C 
ATOM     27  C   LIG d   1      12.212   7.164  -1.847  0.00  0.00     0.016 C 
ATOM     28  H   LIG d   1      12.240   6.809  -3.960  0.00  0.00     0.070 H 
ATOM     29  H   LIG d   1      11.873   8.485  -3.500  0.00  0.00     0.070 H 
ATOM     30  C   LIG d   1      12.120   5.693  -1.474  0.00  0.00     0.093 C 
ATOM     31  H   LIG d   1      13.253   7.480  -1.783  0.00  0.00     0.033 H 
ATOM     32  H   LIG d   1      11.624   7.746  -1.138  0.00  0.00     0.033 H 
ATOM     33  H   LIG d   1      12.651   5.100  -2.218  0.00  0.00     0.070 H 
ATOM     34  H   LIG d   1      12.581   5.540  -0.498  0.00  0.00     0.070 H 
ENDBRANCH   9  15
BRANCH   1  35
ATOM     35  C   LIG d   1       4.653  -2.734  -3.706  0.00  0.00    -0.024 C 
ATOM     36  H   LIG d   1       3.947  -2.674  -4.535  0.00  0.00     0.031 H 
ATOM     37  H   LIG d   1       4.835  -3.780  -3.458  0.00  0.00     0.031 H 
BRANCH  35  38
ATOM     38  C   LIG d   1       4.072  -2.014  -2.488  0.00  0.00    -0.052 C 
ATOM     39  H   LIG d   1       3.741  -2.750  -1.755  0.00  0.00     0.027 H 
ATOM     40  H   LIG d   1       4.837  -1.378  -2.043  0.00  0.00     0.027 H 
BRANCH  38  41
ATOM     41  C   LIG d   1       2.883  -1.155  -2.923  0.00  0.00    -0.065 C 
ATOM     42  H   LIG d   1       1.956  -1.687  -2.715  0.00  0.00     0.023 H 
ATOM     43  H   LIG d   1       2.894  -0.214  -2.372  0.00  0.00     0.023 H 
ATOM     44  H   LIG d   1       2.954  -0.951  -3.991  0.00  0.00     0.023 H 
ENDBRANCH  38  41
ENDBRANCH  35  38
ENDBRANCH   1  35
BRANCH   6  45
ATOM     45  O   LIG d   1       6.698  -4.130  -5.054  0.00  0.00    -0.411 OA
BRANCH  45  46
ATOM     46  C   LIG d   1       7.772  -4.939  -5.113  0.00  0.00     0.408 C 
ATOM     47  O   LIG d   1       8.432  -5.145  -4.114  0.00  0.00    -0.226 OA
ATOM     48  N   LIG d   1       8.117  -5.519  -6.280  0.00  0.00    -0.263 N 
ATOM     49  C   LIG d   1       9.287  -6.406  -6.368  0.00  0.00     0.041 C 
ATOM     50  C   LIG d   1       7.329  -5.288  -7.501  0.00  0.00     0.041 C 
ATOM     51  C   LIG d   1      10.155  -5.946  -7.545  0.00  0.00     0.064 C 
ATOM     52  H   LIG d   1       9.861  -6.350  -5.443  0.00  0.00     0.049 H 
ATOM     53  H   LIG d   1       8.958  -7.433  -6.534  0.00  0.00     0.049 H 
ATOM     54  O   LIG d   1       9.344  -5.847  -8.717  0.00  0.00    -0.377 OA
ATOM     55  H   LIG d   1      10.589  -4.972  -7.317  0.00  0.00     0.058 H 
ATOM     56  H   LIG d   1      10.953  -6.669  -7.713  0.00  0.00     0.058 H 
ATOM     57  C   LIG d   1       8.296  -4.878  -8.624  0.00  0.00     0.064 C 
ATOM     58  H   LIG d   1       8.723  -3.900  -8.401  0.00  0.00     0.058 H 
ATOM     59  H   LIG d   1       7.756  -4.834  -9.570  0.00  0.00     0.058 H 
ATOM     60  H   LIG d   1       6.807  -6.203  -7.779  0.00  0.00     0.049 H 
ATOM     61  H   LIG d   1       6.607  -4.490  -7.328  0.00  0.00     0.049 H 
ENDBRANCH  45  46
ENDBRANCH   6  45
TORSDOF 6
ENDMDL
MODEL 5
REMARK VINA RESULT:      -6.9      2.893      3.645
REMARK  6 active torsions:
REMARK  status: ('A' for Active; 'I' for Inactive)
REMARK    1  A    between atoms: C_1  and  C_2 
REMARK    2  A    between atoms: C_2  and  C_3 
REMARK    3  A    between atoms: C_3  and  C_4 
REMARK    4  A    between atoms: C_9  and  O_10 
REMARK    5  A    between atoms: O_10  and  C_11 
REMARK       I    between atoms: C_11  and  N_13 
REMARK    6  A    between atoms: C_21  and  C_24 
ROOT
ATOM      1  C   LIG d   1       6.288   0.262  -3.911  0.00  0.00    -0.004 A 
ATOM      2  C   LIG d   1       7.206   1.196  -3.525  0.00  0.00    -0.041 A 
ATOM      3  C   LIG d   1       8.049   1.772  -4.475  0.00  0.00     0.065 A 
ATOM      4  C   LIG d   1       7.959   1.398  -5.827  0.00  0.00     0.142 A 
ATOM      5  C   LIG d   1       7.019   0.447  -6.202  0.00  0.00     0.024 A 
ATOM      6  C   LIG d   1       6.189  -0.116  -5.248  0.00  0.00     0.140 A 
ATOM      7  O   LIG d   1       8.774   1.955  -6.744  0.00  0.00    -0.462 OA
ATOM      8  C   LIG d   1       9.696   2.873  -6.443  0.00  0.00     0.104 A 
ATOM      9  C   LIG d   1       9.891   3.326  -5.177  0.00  0.00     0.064 A 
ATOM     10  C   LIG d   1       9.057   2.779  -4.093  0.00  0.00     0.200 A 
ATOM     11  O   LIG d   1       9.190   3.144  -2.938  0.00  0.00    -0.286 OA
ATOM     12  H   LIG d   1       7.280   1.487  -2.488  0.00  0.00     0.063 H 
ATOM     13  H   LIG d   1       6.935   0.147  -7.237  0.00  0.00     0.069 H 
ATOM     14  H   LIG d   1      10.310   3.271  -7.237  0.00  0.00     0.104 H 
ENDROOT
BRANCH   9  15
ATOM     15  C   LIG d   1      10.929   4.346  -4.891  0.00  0.00    -0.008 A 
ATOM     16  C   LIG d   1      10.584   5.696  -4.838  0.00  0.00    -0.008 A 
ATOM     17  C   LIG d   1      11.557   6.640  -4.565  0.00  0.00     0.163 A 
ATOM     18  H   LIG d   1       9.562   6.003  -5.002  0.00  0.00     0.066 H 
ATOM     19  C   LIG d   1      12.872   6.246  -4.353  0.00  0.00     0.162 A 
ATOM     20  O   LIG d   1      11.234   7.964  -4.505  0.00  0.00    -0.488 OA
ATOM     21  C   LIG d   1      13.218   4.905  -4.410  0.00  0.00    -0.016 A 
ATOM     22  O   LIG d   1      13.824   7.188  -4.088  0.00  0.00    -0.488 OA
ATOM     23  C   LIG d   1      12.250   3.957  -4.679  0.00  0.00    -0.050 A 
ATOM     24  H   LIG d   1      14.241   4.602  -4.246  0.00  0.00     0.066 H 
ATOM     25  H   LIG d   1      12.518   2.911  -4.723  0.00  0.00     0.062 H 
ATOM     26  C   LIG d   1      13.710   7.855  -2.830  0.00  0.00     0.093 C 
ATOM     27  C   LIG d   1      12.740   9.023  -2.924  0.00  0.00     0.016 C 
ATOM     28  H   LIG d   1      13.350   7.149  -2.081  0.00  0.00     0.070 H 
ATOM     29  H   LIG d   1      14.691   8.226  -2.531  0.00  0.00     0.070 H 
ATOM     30  C   LIG d   1      11.318   8.572  -3.215  0.00  0.00     0.093 C 
ATOM     31  H   LIG d   1      12.752   9.567  -1.980  0.00  0.00     0.033 H 
ATOM     32  H   LIG d   1      13.070   9.691  -3.719  0.00  0.00     0.033 H 
ATOM     33  H   LIG d   1      11.008   7.852  -2.458  0.00  0.00     0.070 H 
ATOM     34  H   LIG d   1      10.654   9.435  -3.182  0.00  0.00     0.070 H 
ENDBRANCH   9  15
BRANCH   1  35
ATOM     35  C   LIG d   1       5.376  -0.363  -2.886  0.00  0.00    -0.024 C 
ATOM     36  H   LIG d   1       4.543  -0.852  -3.391  0.00  0.00     0.031 H 
ATOM     37  H   LIG d   1       5.933  -1.099  -2.306  0.00  0.00     0.031 H 
BRANCH  35  38
ATOM     38  C   LIG d   1       4.839   0.723  -1.952  0.00  0.00    -0.052 C 
ATOM     39  H   LIG d   1       4.574   0.278  -0.992  0.00  0.00     0.027 H 
ATOM     40  H   LIG d   1       5.604   1.484  -1.800  0.00  0.00     0.027 H 
BRANCH  38  41
ATOM     41  C   LIG d   1       3.598   1.364  -2.576  0.00  0.00    -0.065 C 
ATOM     42  H   LIG d   1       2.795   0.630  -2.624  0.00  0.00     0.023 H 
ATOM     43  H   LIG d   1       3.281   2.211  -1.967  0.00  0.00     0.023 H 
ATOM     44  H   LIG d   1       3.835   1.710  -3.582  0.00  0.00     0.023 H 
ENDBRANCH  38  41
ENDBRANCH  35  38
ENDBRANCH   1  35
BRANCH   6  45
ATOM     45  O   LIG d   1       5.270  -1.046  -5.618  0.00  0.00    -0.411 OA
BRANCH  45  46
ATOM     46  C   LIG d   1       4.300  -0.645  -6.461  0.00  0.00     0.408 C 
ATOM     47  O   LIG d   1       3.485   0.180  -6.101  0.00  0.00    -0.226 OA
ATOM     48  N   LIG d   1       4.233  -1.160  -7.705  0.00  0.00    -0.263 N 
ATOM     49  C   LIG d   1       3.181  -0.738  -8.643  0.00  0.00     0.041 C 
ATOM     50  C   LIG d   1       5.212  -2.157  -8.166  0.00  0.00     0.041 C 
ATOM     51  C   LIG d   1       2.513  -1.993  -9.217  0.00  0.00     0.064 C 
ATOM     52  H   LIG d   1       2.441  -0.134  -8.118  0.00  0.00     0.049 H 
ATOM     53  H   LIG d   1       3.623  -0.155  -9.452  0.00  0.00     0.049 H 
ATOM     54  O   LIG d   1       3.518  -2.864  -9.740  0.00  0.00    -0.377 OA
ATOM     55  H   LIG d   1       1.961  -2.504  -8.429  0.00  0.00     0.058 H 
ATOM     56  H   LIG d   1       1.827  -1.707 -10.015  0.00  0.00     0.058 H 
ATOM     57  C   LIG d   1       4.442  -3.346  -8.761  0.00  0.00     0.064 C 
ATOM     58  H   LIG d   1       3.897  -3.863  -7.971  0.00  0.00     0.058 H 
ATOM     59  H   LIG d   1       5.144  -4.035  -9.231  0.00  0.00     0.058 H 
ATOM     60  H   LIG d   1       5.855  -1.714  -8.927  0.00  0.00     0.049 H 
ATOM     61  H   LIG d   1       5.817  -2.494  -7.325  0.00  0.00     0.049 H 
ENDBRANCH  45  46
ENDBRANCH   6  45
TORSDOF 6
ENDMDL
MODEL 6
REMARK VINA RESULT:      -6.9      5.648     11.163
REMARK  6 active torsions:
REMARK  status: ('A' for Active; 'I' for Inactive)
REMARK    1  A    between atoms: C_1  and  C_2 
REMARK    2  A    between atoms: C_2  and  C_3 
REMARK    3  A    between atoms: C_3  and  C_4 
REMARK    4  A    between atoms: C_9  and  O_10 
REMARK    5  A    between atoms: O_10  and  C_11 
REMARK       I    between atoms: C_11  and  N_13 
REMARK    6  A    between atoms: C_21  and  C_24 
ROOT
ATOM      1  C   LIG d   1       4.633  -4.265  -6.260  0.00  0.00    -0.004 A 
ATOM      2  C   LIG d   1       4.007  -4.469  -7.457  0.00  0.00    -0.041 A 
ATOM      3  C   LIG d   1       3.683  -3.379  -8.264  0.00  0.00     0.065 A 
ATOM      4  C   LIG d   1       3.996  -2.071  -7.853  0.00  0.00     0.142 A 
ATOM      5  C   LIG d   1       4.633  -1.881  -6.633  0.00  0.00     0.024 A 
ATOM      6  C   LIG d   1       4.949  -2.973  -5.843  0.00  0.00     0.140 A 
ATOM      7  O   LIG d   1       3.682  -1.018  -8.633  0.00  0.00    -0.462 OA
ATOM      8  C   LIG d   1       3.070  -1.139  -9.814  0.00  0.00     0.104 A 
ATOM      9  C   LIG d   1       2.711  -2.341 -10.332  0.00  0.00     0.064 A 
ATOM     10  C   LIG d   1       3.001  -3.561  -9.559  0.00  0.00     0.200 A 
ATOM     11  O   LIG d   1       2.698  -4.667  -9.971  0.00  0.00    -0.286 OA
ATOM     12  H   LIG d   1       3.764  -5.471  -7.777  0.00  0.00     0.063 H 
ATOM     13  H   LIG d   1       4.882  -0.883  -6.302  0.00  0.00     0.069 H 
ATOM     14  H   LIG d   1       2.853  -0.244 -10.379  0.00  0.00     0.104 H 
ENDROOT
BRANCH   9  15
ATOM     15  C   LIG d   1       2.031  -2.425 -11.648  0.00  0.00    -0.008 A 
ATOM     16  C   LIG d   1       0.671  -2.722 -11.713  0.00  0.00    -0.008 A 
ATOM     17  C   LIG d   1       0.044  -2.793 -12.944  0.00  0.00     0.163 A 
ATOM     18  H   LIG d   1       0.107  -2.889 -10.808  0.00  0.00     0.066 H 
ATOM     19  C   LIG d   1       0.769  -2.578 -14.109  0.00  0.00     0.162 A 
ATOM     20  O   LIG d   1      -1.288  -3.078 -13.023  0.00  0.00    -0.488 OA
ATOM     21  C   LIG d   1       2.123  -2.287 -14.047  0.00  0.00    -0.016 A 
ATOM     22  O   LIG d   1       0.140  -2.654 -15.318  0.00  0.00    -0.488 OA
ATOM     23  C   LIG d   1       2.754  -2.212 -12.820  0.00  0.00    -0.050 A 
ATOM     24  H   LIG d   1       2.684  -2.122 -14.955  0.00  0.00     0.066 H 
ATOM     25  H   LIG d   1       3.809  -1.985 -12.770  0.00  0.00     0.062 H 
ATOM     26  C   LIG d   1      -0.811  -1.625 -15.594  0.00  0.00     0.093 C 
ATOM     27  C   LIG d   1      -2.166  -1.966 -14.994  0.00  0.00     0.016 C 
ATOM     28  H   LIG d   1      -0.457  -0.686 -15.170  0.00  0.00     0.070 H 
ATOM     29  H   LIG d   1      -0.915  -1.513 -16.674  0.00  0.00     0.070 H 
ATOM     30  C   LIG d   1      -2.130  -2.016 -13.475  0.00  0.00     0.093 C 
ATOM     31  H   LIG d   1      -2.890  -1.213 -15.305  0.00  0.00     0.033 H 
ATOM     32  H   LIG d   1      -2.485  -2.937 -15.372  0.00  0.00     0.033 H 
ATOM     33  H   LIG d   1      -1.748  -1.069 -13.094  0.00  0.00     0.070 H 
ATOM     34  H   LIG d   1      -3.139  -2.174 -13.096  0.00  0.00     0.070 H 
ENDBRANCH   9  15
BRANCH   1  35
ATOM     35  C   LIG d   1       4.985  -5.441  -5.386  0.00  0.00    -0.024 C 
ATOM     36  H   LIG d   1       5.980  -5.296  -4.965  0.00  0.00     0.031 H 
ATOM     37  H   LIG d   1       4.257  -5.524  -4.579  0.00  0.00     0.031 H 
BRANCH  35  38
ATOM     38  C   LIG d   1       4.966  -6.722  -6.223  0.00  0.00    -0.052 C 
ATOM     39  H   LIG d   1       4.041  -6.766  -6.798  0.00  0.00     0.027 H 
ATOM     40  H   LIG d   1       5.817  -6.723  -6.904  0.00  0.00     0.027 H 
BRANCH  38  41
ATOM     41  C   LIG d   1       5.050  -7.937  -5.298  0.00  0.00    -0.065 C 
ATOM     42  H   LIG d   1       4.723  -7.656  -4.298  0.00  0.00     0.023 H 
ATOM     43  H   LIG d   1       4.408  -8.730  -5.681  0.00  0.00     0.023 H 
ATOM     44  H   LIG d   1       6.080  -8.292  -5.257  0.00  0.00     0.023 H 
ENDBRANCH  38  41
ENDBRANCH  35  38
ENDBRANCH   1  35
BRANCH   6  45
ATOM     45  O   LIG d   1       5.572  -2.784  -4.651  0.00  0.00    -0.411 OA
BRANCH  45  46
ATOM     46  C   LIG d   1       4.827  -2.294  -3.643  0.00  0.00     0.408 C 
ATOM     47  O   LIG d   1       3.770  -2.819  -3.357  0.00  0.00    -0.226 OA
ATOM     48  N   LIG d   1       5.254  -1.217  -2.952  0.00  0.00    -0.263 N 
ATOM     49  C   LIG d   1       4.456  -0.663  -1.847  0.00  0.00     0.041 C 
ATOM     50  C   LIG d   1       6.532  -0.567  -3.278  0.00  0.00     0.041 C 
ATOM     51  C   LIG d   1       4.304   0.846  -2.070  0.00  0.00     0.064 C 
ATOM     52  H   LIG d   1       3.473  -1.133  -1.831  0.00  0.00     0.049 H 
ATOM     53  H   LIG d   1       4.965  -0.845  -0.900  0.00  0.00     0.049 H 
ATOM     54  O   LIG d   1       5.596   1.424  -2.273  0.00  0.00    -0.377 OA
ATOM     55  H   LIG d   1       3.683   1.023  -2.947  0.00  0.00     0.058 H 
ATOM     56  H   LIG d   1       3.836   1.298  -1.195  0.00  0.00     0.058 H 
ATOM     57  C   LIG d   1       6.277   0.941  -3.434  0.00  0.00     0.064 C 
ATOM     58  H   LIG d   1       5.663   1.119  -4.317  0.00  0.00     0.058 H 
ATOM     59  H   LIG d   1       7.229   1.461  -3.540  0.00  0.00     0.058 H 
ATOM     60  H   LIG d   1       7.247  -0.739  -2.472  0.00  0.00     0.049 H 
ATOM     61  H   LIG d   1       6.924  -0.972  -4.210  0.00  0.00     0.049 H 
ENDBRANCH  45  46
ENDBRANCH   6  45
TORSDOF 6
ENDMDL
MODEL 7
REMARK VINA RESULT:      -6.8      4.871      8.941
REMARK  6 active torsions:
REMARK  status: ('A' for Active; 'I' for Inactive)
REMARK    1  A    between atoms: C_1  and  C_2 
REMARK    2  A    between atoms: C_2  and  C_3 
REMARK    3  A    between atoms: C_3  and  C_4 
REMARK    4  A    between atoms: C_9  and  O_10 
REMARK    5  A    between atoms: O_10  and  C_11 
REMARK       I    between atoms: C_11  and  N_13 
REMARK    6  A    between atoms: C_21  and  C_24 
ROOT
ATOM      1  C   LIG d   1       6.376  -1.064  -3.916  0.00  0.00    -0.004 A 
ATOM      2  C   LIG d   1       7.300  -1.837  -3.273  0.00  0.00    -0.041 A 
ATOM      3  C   LIG d   1       7.713  -3.042  -3.842  0.00  0.00     0.065 A 
ATOM      4  C   LIG d   1       7.184  -3.465  -5.074  0.00  0.00     0.142 A 
ATOM      5  C   LIG d   1       6.246  -2.666  -5.716  0.00  0.00     0.024 A 
ATOM      6  C   LIG d   1       5.846  -1.473  -5.138  0.00  0.00     0.140 A 
ATOM      7  O   LIG d   1       7.583  -4.629  -5.623  0.00  0.00    -0.462 OA
ATOM      8  C   LIG d   1       8.481  -5.437  -5.054  0.00  0.00     0.104 A 
ATOM      9  C   LIG d   1       9.072  -5.152  -3.865  0.00  0.00     0.064 A 
ATOM     10  C   LIG d   1       8.704  -3.905  -3.172  0.00  0.00     0.200 A 
ATOM     11  O   LIG d   1       9.198  -3.598  -2.101  0.00  0.00    -0.286 OA
ATOM     12  H   LIG d   1       7.710  -1.517  -2.326  0.00  0.00     0.063 H 
ATOM     13  H   LIG d   1       5.829  -2.976  -6.663  0.00  0.00     0.069 H 
ATOM     14  H   LIG d   1       8.748  -6.354  -5.559  0.00  0.00     0.104 H 
ENDROOT
BRANCH   9  15
ATOM     15  C   LIG d   1      10.063  -6.081  -3.271  0.00  0.00    -0.008 A 
ATOM     16  C   LIG d   1       9.655  -7.033  -2.337  0.00  0.00    -0.008 A 
ATOM     17  C   LIG d   1      10.585  -7.899  -1.792  0.00  0.00     0.163 A 
ATOM     18  H   LIG d   1       8.618  -7.098  -2.046  0.00  0.00     0.066 H 
ATOM     19  C   LIG d   1      11.920  -7.816  -2.167  0.00  0.00     0.162 A 
ATOM     20  O   LIG d   1      10.200  -8.839  -0.880  0.00  0.00    -0.488 OA
ATOM     21  C   LIG d   1      12.329  -6.867  -3.092  0.00  0.00    -0.016 A 
ATOM     22  O   LIG d   1      12.829  -8.674  -1.619  0.00  0.00    -0.488 OA
ATOM     23  C   LIG d   1      11.404  -6.001  -3.642  0.00  0.00    -0.050 A 
ATOM     24  H   LIG d   1      13.367  -6.805  -3.380  0.00  0.00     0.066 H 
ATOM     25  H   LIG d   1      11.721  -5.262  -4.363  0.00  0.00     0.062 H 
ATOM     26  C   LIG d   1      12.699 -10.046  -1.996  0.00  0.00     0.093 C 
ATOM     27  C   LIG d   1      11.674 -10.752  -1.122  0.00  0.00     0.016 C 
ATOM     28  H   LIG d   1      12.383 -10.104  -3.037  0.00  0.00     0.070 H 
ATOM     29  H   LIG d   1      13.665 -10.541  -1.887  0.00  0.00     0.070 H 
ATOM     30  C   LIG d   1      10.271 -10.198  -1.314  0.00  0.00     0.093 C 
ATOM     31  H   LIG d   1      11.671 -11.814  -1.369  0.00  0.00     0.033 H 
ATOM     32  H   LIG d   1      11.961 -10.634  -0.077  0.00  0.00     0.033 H 
ATOM     33  H   LIG d   1      10.006 -10.252  -2.369  0.00  0.00     0.070 H 
ATOM     34  H   LIG d   1       9.567 -10.796  -0.736  0.00  0.00     0.070 H 
ENDBRANCH   9  15
BRANCH   1  35
ATOM     35  C   LIG d   1       5.928   0.237  -3.303  0.00  0.00    -0.024 C 
ATOM     36  H   LIG d   1       6.785   0.741  -2.855  0.00  0.00     0.031 H 
ATOM     37  H   LIG d   1       5.496   0.873  -4.076  0.00  0.00     0.031 H 
BRANCH  35  38
ATOM     38  C   LIG d   1       4.879  -0.042  -2.225  0.00  0.00    -0.052 C 
ATOM     39  H   LIG d   1       4.373  -0.983  -2.446  0.00  0.00     0.027 H 
ATOM     40  H   LIG d   1       5.366  -0.110  -1.253  0.00  0.00     0.027 H 
BRANCH  38  41
ATOM     41  C   LIG d   1       3.855   1.095  -2.205  0.00  0.00    -0.065 C 
ATOM     42  H   LIG d   1       2.888   0.720  -2.539  0.00  0.00     0.023 H 
ATOM     43  H   LIG d   1       3.763   1.483  -1.190  0.00  0.00     0.023 H 
ATOM     44  H   LIG d   1       4.185   1.893  -2.870  0.00  0.00     0.023 H 
ENDBRANCH  38  41
ENDBRANCH  35  38
ENDBRANCH   1  35
BRANCH   6  45
ATOM     45  O   LIG d   1       4.928  -0.695  -5.768  0.00  0.00    -0.411 OA
BRANCH  45  46
ATOM     46  C   LIG d   1       5.312  -0.103  -6.914  0.00  0.00     0.408 C 
ATOM     47  O   LIG d   1       6.285   0.625  -6.926  0.00  0.00    -0.226 OA
ATOM     48  N   LIG d   1       4.617  -0.316  -8.049  0.00  0.00    -0.263 N 
ATOM     49  C   LIG d   1       5.017   0.321  -9.313  0.00  0.00     0.041 C 
ATOM     50  C   LIG d   1       3.439  -1.198  -8.060  0.00  0.00     0.041 C 
ATOM     51  C   LIG d   1       3.785   0.999  -9.924  0.00  0.00     0.064 C 
ATOM     52  H   LIG d   1       5.789   1.066  -9.121  0.00  0.00     0.049 H 
ATOM     53  H   LIG d   1       5.399  -0.435 -10.001  0.00  0.00     0.049 H 
ATOM     54  O   LIG d   1       2.717   0.053 -10.001  0.00  0.00    -0.377 OA
ATOM     55  H   LIG d   1       3.485   1.839  -9.299  0.00  0.00     0.058 H 
ATOM     56  H   LIG d   1       4.026   1.358 -10.925  0.00  0.00     0.058 H 
ATOM     57  C   LIG d   1       2.281  -0.442  -8.732  0.00  0.00     0.064 C 
ATOM     58  H   LIG d   1       1.974   0.394  -8.102  0.00  0.00     0.058 H 
ATOM     59  H   LIG d   1       1.439  -1.119  -8.874  0.00  0.00     0.058 H 
ATOM     60  H   LIG d   1       3.664  -2.103  -8.623  0.00  0.00     0.049 H 
ATOM     61  H   LIG d   1       3.165  -1.458  -7.039  0.00  0.00     0.049 H 
ENDBRANCH  45  46
ENDBRANCH   6  45
TORSDOF 6
ENDMDL
MODEL 8
REMARK VINA RESULT:      -6.8      4.276     10.798
REMARK  6 active torsions:
REMARK  status: ('A' for Active; 'I' for Inactive)
REMARK    1  A    between atoms: C_1  and  C_2 
REMARK    2  A    between atoms: C_2  and  C_3 
REMARK    3  A    between atoms: C_3  and  C_4 
REMARK    4  A    between atoms: C_9  and  O_10 
REMARK    5  A    between atoms: O_10  and  C_11 
REMARK       I    between atoms: C_11  and  N_13 
REMARK    6  A    between atoms: C_21  and  C_24 
ROOT
ATOM      1  C   LIG d   1      10.521   5.067  -7.660  0.00  0.00    -0.004 A 
ATOM      2  C   LIG d   1       9.606   4.094  -7.375  0.00  0.00    -0.041 A 
ATOM      3  C   LIG d   1       9.547   3.555  -6.090  0.00  0.00     0.065 A 
ATOM      4  C   LIG d   1      10.421   4.008  -5.087  0.00  0.00     0.142 A 
ATOM      5  C   LIG d   1      11.345   4.999  -5.393  0.00  0.00     0.024 A 
ATOM      6  C   LIG d   1      11.392   5.524  -6.673  0.00  0.00     0.140 A 
ATOM      7  O   LIG d   1      10.363   3.486  -3.846  0.00  0.00    -0.462 OA
ATOM      8  C   LIG d   1       9.498   2.532  -3.492  0.00  0.00     0.104 A 
ATOM      9  C   LIG d   1       8.597   2.004  -4.360  0.00  0.00     0.064 A 
ATOM     10  C   LIG d   1       8.577   2.497  -5.747  0.00  0.00     0.200 A 
ATOM     11  O   LIG d   1       7.794   2.058  -6.571  0.00  0.00    -0.286 OA
ATOM     12  H   LIG d   1       8.932   3.742  -8.141  0.00  0.00     0.063 H 
ATOM     13  H   LIG d   1      12.025   5.359  -4.635  0.00  0.00     0.069 H 
ATOM     14  H   LIG d   1       9.515   2.167  -2.476  0.00  0.00     0.104 H 
ENDROOT
BRANCH   9  15
ATOM     15  C   LIG d   1       7.656   0.945  -3.921  0.00  0.00    -0.008 A 
ATOM     16  C   LIG d   1       6.494   1.286  -3.231  0.00  0.00    -0.008 A 
ATOM     17  C   LIG d   1       5.619   0.292  -2.831  0.00  0.00     0.163 A 
ATOM     18  H   LIG d   1       6.274   2.320  -3.016  0.00  0.00     0.066 H 
ATOM     19  C   LIG d   1       5.902  -1.039  -3.108  0.00  0.00     0.162 A 
ATOM     20  O   LIG d   1       4.476   0.611  -2.158  0.00  0.00    -0.488 OA
ATOM     21  C   LIG d   1       7.059  -1.381  -3.790  0.00  0.00    -0.016 A 
ATOM     22  O   LIG d   1       5.033  -2.011  -2.704  0.00  0.00    -0.488 OA
ATOM     23  C   LIG d   1       7.935  -0.393  -4.195  0.00  0.00    -0.050 A 
ATOM     24  H   LIG d   1       7.276  -2.417  -4.003  0.00  0.00     0.066 H 
ATOM     25  H   LIG d   1       8.838  -0.658  -4.727  0.00  0.00     0.062 H 
ATOM     26  C   LIG d   1       3.767  -2.032  -3.366  0.00  0.00     0.093 C 
ATOM     27  C   LIG d   1       2.800  -1.055  -2.716  0.00  0.00     0.016 C 
ATOM     28  H   LIG d   1       3.905  -1.758  -4.412  0.00  0.00     0.070 H 
ATOM     29  H   LIG d   1       3.350  -3.038  -3.312  0.00  0.00     0.070 H 
ATOM     30  C   LIG d   1       3.253   0.389  -2.862  0.00  0.00     0.093 C 
ATOM     31  H   LIG d   1       1.820  -1.166  -3.179  0.00  0.00     0.033 H 
ATOM     32  H   LIG d   1       2.718  -1.293  -1.655  0.00  0.00     0.033 H 
ATOM     33  H   LIG d   1       3.401   0.613  -3.918  0.00  0.00     0.070 H 
ATOM     34  H   LIG d   1       2.484   1.049  -2.461  0.00  0.00     0.070 H 
ENDBRANCH   9  15
BRANCH   1  35
ATOM     35  C   LIG d   1      10.588   5.651  -9.048  0.00  0.00    -0.024 C 
ATOM     36  H   LIG d   1      11.240   6.525  -9.043  0.00  0.00     0.031 H 
ATOM     37  H   LIG d   1      10.985   4.905  -9.737  0.00  0.00     0.031 H 
BRANCH  35  38
ATOM     38  C   LIG d   1       9.184   6.064  -9.495  0.00  0.00    -0.052 C 
ATOM     39  H   LIG d   1       8.465   5.308  -9.179  0.00  0.00     0.027 H 
ATOM     40  H   LIG d   1       8.926   7.022  -9.045  0.00  0.00     0.027 H 
BRANCH  38  41
ATOM     41  C   LIG d   1       9.153   6.192 -11.020  0.00  0.00    -0.065 C 
ATOM     42  H   LIG d   1      10.024   6.753 -11.356  0.00  0.00     0.023 H 
ATOM     43  H   LIG d   1       9.166   5.198 -11.468  0.00  0.00     0.023 H 
ATOM     44  H   LIG d   1       8.245   6.714 -11.322  0.00  0.00     0.023 H 
ENDBRANCH  38  41
ENDBRANCH  35  38
ENDBRANCH   1  35
BRANCH   6  45
ATOM     45  O   LIG d   1      12.296   6.494  -6.970  0.00  0.00    -0.411 OA
BRANCH  45  46
ATOM     46  C   LIG d   1      12.497   7.447  -6.042  0.00  0.00     0.408 C 
ATOM     47  O   LIG d   1      13.417   7.344  -5.255  0.00  0.00    -0.226 OA
ATOM     48  N   LIG d   1      11.677   8.516  -5.984  0.00  0.00    -0.263 N 
ATOM     49  C   LIG d   1      11.877   9.570  -4.977  0.00  0.00     0.041 C 
ATOM     50  C   LIG d   1      10.560   8.664  -6.929  0.00  0.00     0.041 C 
ATOM     51  C   LIG d   1      10.542   9.821  -4.269  0.00  0.00     0.064 C 
ATOM     52  H   LIG d   1      12.624   9.247  -4.251  0.00  0.00     0.049 H 
ATOM     53  H   LIG d   1      12.212  10.486  -5.466  0.00  0.00     0.049 H 
ATOM     54  O   LIG d   1       9.528  10.062  -5.247  0.00  0.00    -0.377 OA
ATOM     55  H   LIG d   1      10.275   8.948  -3.674  0.00  0.00     0.058 H 
ATOM     56  H   LIG d   1      10.633  10.691  -3.617  0.00  0.00     0.058 H 
ATOM     57  C   LIG d   1       9.285   8.958  -6.122  0.00  0.00     0.064 C 
ATOM     58  H   LIG d   1       9.013   8.081  -5.534  0.00  0.00     0.058 H 
ATOM     59  H   LIG d   1       8.473   9.206  -6.805  0.00  0.00     0.058 H 
ATOM     60  H   LIG d   1      10.764   9.490  -7.611  0.00  0.00     0.049 H 
ATOM     61  H   LIG d   1      10.433   7.742  -7.496  0.00  0.00     0.049 H 
ENDBRANCH  45  46
ENDBRANCH   6  45
TORSDOF 6
ENDMDL
MODEL 9
REMARK VINA RESULT:      -6.8      2.562     10.747
REMARK  6 active torsions:
REMARK  status: ('A' for Active; 'I' for Inactive)
REMARK    1  A    between atoms: C_1  and  C_2 
REMARK    2  A    between atoms: C_2  and  C_3 
REMARK    3  A    between atoms: C_3  and  C_4 
REMARK    4  A    between atoms: C_9  and  O_10 
REMARK    5  A    between atoms: O_10  and  C_11 
REMARK       I    between atoms: C_11  and  N_13 
REMARK    6  A    between atoms: C_21  and  C_24 
ROOT
ATOM      1  C   LIG d   1       4.954  -0.707  -4.674  0.00  0.00    -0.004 A 
ATOM      2  C   LIG d   1       4.570  -2.017  -4.710  0.00  0.00    -0.041 A 
ATOM      3  C   LIG d   1       5.427  -2.975  -5.251  0.00  0.00     0.065 A 
ATOM      4  C   LIG d   1       6.684  -2.601  -5.758  0.00  0.00     0.142 A 
ATOM      5  C   LIG d   1       7.059  -1.264  -5.713  0.00  0.00     0.024 A 
ATOM      6  C   LIG d   1       6.197  -0.324  -5.174  0.00  0.00     0.140 A 
ATOM      7  O   LIG d   1       7.511  -3.528  -6.280  0.00  0.00    -0.462 OA
ATOM      8  C   LIG d   1       7.206  -4.825  -6.351  0.00  0.00     0.104 A 
ATOM      9  C   LIG d   1       6.026  -5.325  -5.898  0.00  0.00     0.064 A 
ATOM     10  C   LIG d   1       5.043  -4.398  -5.312  0.00  0.00     0.200 A 
ATOM     11  O   LIG d   1       3.967  -4.788  -4.894  0.00  0.00    -0.286 OA
ATOM     12  H   LIG d   1       3.606  -2.310  -4.322  0.00  0.00     0.063 H 
ATOM     13  H   LIG d   1       8.021  -0.958  -6.099  0.00  0.00     0.069 H 
ATOM     14  H   LIG d   1       7.924  -5.505  -6.784  0.00  0.00     0.104 H 
ENDROOT
BRANCH   9  15
ATOM     15  C   LIG d   1       5.731  -6.775  -5.999  0.00  0.00    -0.008 A 
ATOM     16  C   LIG d   1       6.241  -7.659  -5.049  0.00  0.00    -0.008 A 
ATOM     17  C   LIG d   1       5.956  -9.008  -5.147  0.00  0.00     0.163 A 
ATOM     18  H   LIG d   1       6.849  -7.291  -4.236  0.00  0.00     0.066 H 
ATOM     19  C   LIG d   1       5.172  -9.482  -6.191  0.00  0.00     0.162 A 
ATOM     20  O   LIG d   1       6.445  -9.884  -4.222  0.00  0.00    -0.488 OA
ATOM     21  C   LIG d   1       4.668  -8.605  -7.140  0.00  0.00    -0.016 A 
ATOM     22  O   LIG d   1       4.901 -10.816  -6.280  0.00  0.00    -0.488 OA
ATOM     23  C   LIG d   1       4.947  -7.256  -7.046  0.00  0.00    -0.050 A 
ATOM     24  H   LIG d   1       4.060  -8.977  -7.952  0.00  0.00     0.066 H 
ATOM     25  H   LIG d   1       4.554  -6.571  -7.784  0.00  0.00     0.062 H 
ATOM     26  C   LIG d   1       4.054 -11.351  -5.262  0.00  0.00     0.093 C 
ATOM     27  C   LIG d   1       4.858 -11.710  -4.022  0.00  0.00     0.016 C 
ATOM     28  H   LIG d   1       3.299 -10.610  -4.998  0.00  0.00     0.070 H 
ATOM     29  H   LIG d   1       3.558 -12.246  -5.640  0.00  0.00     0.070 H 
ATOM     30  C   LIG d   1       5.479 -10.490  -3.362  0.00  0.00     0.093 C 
ATOM     31  H   LIG d   1       4.201 -12.203  -3.306  0.00  0.00     0.033 H 
ATOM     32  H   LIG d   1       5.652 -12.401  -4.305  0.00  0.00     0.033 H 
ATOM     33  H   LIG d   1       4.695  -9.766  -3.137  0.00  0.00     0.070 H 
ATOM     34  H   LIG d   1       5.964 -10.792  -2.434  0.00  0.00     0.070 H 
ENDBRANCH   9  15
BRANCH   1  35
ATOM     35  C   LIG d   1       4.029   0.331  -4.091  0.00  0.00    -0.024 C 
ATOM     36  H   LIG d   1       4.512   1.308  -4.127  0.00  0.00     0.031 H 
ATOM     37  H   LIG d   1       3.106   0.360  -4.670  0.00  0.00     0.031 H 
BRANCH  35  38
ATOM     38  C   LIG d   1       3.711  -0.028  -2.639  0.00  0.00    -0.052 C 
ATOM     39  H   LIG d   1       2.630  -0.076  -2.505  0.00  0.00     0.027 H 
ATOM     40  H   LIG d   1       4.149  -0.997  -2.399  0.00  0.00     0.027 H 
BRANCH  38  41
ATOM     41  C   LIG d   1       4.293   1.040  -1.710  0.00  0.00    -0.065 C 
ATOM     42  H   LIG d   1       5.375   0.923  -1.655  0.00  0.00     0.023 H 
ATOM     43  H   LIG d   1       4.054   2.029  -2.100  0.00  0.00     0.023 H 
ATOM     44  H   LIG d   1       3.864   0.928  -0.715  0.00  0.00     0.023 H 
ENDBRANCH  38  41
ENDBRANCH  35  38
ENDBRANCH   1  35
BRANCH   6  45
ATOM     45  O   LIG d   1       6.567   0.982  -5.131  0.00  0.00    -0.411 OA
BRANCH  45  46
ATOM     46  C   LIG d   1       7.533   1.316  -4.255  0.00  0.00     0.408 C 
ATOM     47  O   LIG d   1       7.342   1.188  -3.062  0.00  0.00    -0.226 OA
ATOM     48  N   LIG d   1       8.713   1.793  -4.701  0.00  0.00    -0.263 N 
ATOM     49  C   LIG d   1       9.782   2.165  -3.763  0.00  0.00     0.041 C 
ATOM     50  C   LIG d   1       8.968   1.951  -6.141  0.00  0.00     0.041 C 
ATOM     51  C   LIG d   1      10.269   3.574  -4.119  0.00  0.00     0.064 C 
ATOM     52  H   LIG d   1       9.397   2.155  -2.743  0.00  0.00     0.049 H 
ATOM     53  H   LIG d   1      10.609   1.458  -3.849  0.00  0.00     0.049 H 
ATOM     54  O   LIG d   1      10.599   3.621  -5.509  0.00  0.00    -0.377 OA
ATOM     55  H   LIG d   1       9.481   4.296  -3.906  0.00  0.00     0.058 H 
ATOM     56  H   LIG d   1      11.152   3.815  -3.526  0.00  0.00     0.058 H 
ATOM     57  C   LIG d   1       9.493   3.375  -6.381  0.00  0.00     0.064 C 
ATOM     58  H   LIG d   1       8.702   4.097  -6.178  0.00  0.00     0.058 H 
ATOM     59  H   LIG d   1       9.818   3.473  -7.417  0.00  0.00     0.058 H 
ATOM     60  H   LIG d   1       9.714   1.223  -6.463  0.00  0.00     0.049 H 
ATOM     61  H   LIG d   1       8.044   1.801  -6.698  0.00  0.00     0.049 H 
ENDBRANCH  45  46
ENDBRANCH   6  45
TORSDOF 6
ENDMDL
