MODEL 1
REMARK VINA RESULT:      -9.8      0.000      0.000
REMARK  3 active torsions:
REMARK  status: ('A' for Active; 'I' for Inactive)
REMARK    1  A    between atoms: C_1  and  C_2 
REMARK    2  A    between atoms: C_18  and  O_23 
REMARK    3  A    between atoms: C_24  and  C_30 
ROOT
ATOM      1  C   LIG d   1       9.852  -8.387  -2.004  0.00  0.00     0.101 C 
ATOM      2  H   LIG d   1       9.615  -7.777  -1.133  0.00  0.00     0.073 H 
ATOM      3  C   LIG d   1       8.915  -9.598  -2.065  0.00  0.00    -0.015 C 
ATOM      4  C   LIG d   1       8.907 -10.345  -0.734  0.00  0.00    -0.043 C 
ATOM      5  C   LIG d   1       8.178 -11.678  -0.928  0.00  0.00     0.006 C 
ATOM      6  C   LIG d   1       6.739 -11.423  -1.294  0.00  0.00     0.133 C 
ATOM      7  O   LIG d   1       5.975 -11.016  -0.451  0.00  0.00    -0.297 OA
ATOM      8  C   LIG d   1       6.237 -11.668  -2.693  0.00  0.00     0.006 C 
ATOM      9  C   LIG d   1       4.835 -11.071  -2.852  0.00  0.00    -0.043 C 
ATOM     10  C   LIG d   1       4.481 -10.953  -4.337  0.00  0.00    -0.034 C 
ATOM     11  C   LIG d   1       4.843  -9.573  -4.831  0.00  0.00    -0.083 C 
ATOM     12  C   LIG d   1       6.057  -9.086  -4.629  0.00  0.00    -0.058 C 
ATOM     13  C   LIG d   1       6.442  -7.734  -5.086  0.00  0.00    -0.004 A 
ATOM     14  C   LIG d   1       5.592  -6.963  -5.859  0.00  0.00    -0.011 A 
ATOM     15  C   LIG d   1       5.968  -5.683  -6.259  0.00  0.00     0.140 A 
ATOM     16  C   LIG d   1       7.207  -5.178  -5.884  0.00  0.00     0.045 A 
ATOM     17  C   LIG d   1       8.087  -5.944  -5.129  0.00  0.00     0.139 A 
ATOM     18  C   LIG d   1       7.717  -7.234  -4.729  0.00  0.00     0.108 A 
ATOM     19  C   LIG d   1       8.614  -8.100  -3.962  0.00  0.00     0.344 C 
ATOM     20  O   LIG d   1       8.433  -9.302  -4.004  0.00  0.00    -0.245 OA
ATOM     21  O   LIG d   1       9.627  -7.629  -3.214  0.00  0.00    -0.458 OA
ATOM     22  C   LIG d   1       7.594  -3.787  -6.307  0.00  0.00     0.031 C 
ATOM     23  H   LIG d   1       8.678  -3.683  -6.279  0.00  0.00     0.041 H 
ATOM     24  C   LIG d   1       7.091  -3.563  -7.734  0.00  0.00     0.057 C 
ATOM     25  C   LIG d   1       5.677  -4.049  -7.883  0.00  0.00     0.313 C 
ATOM     26  O   LIG d   1       5.004  -3.633  -8.796  0.00  0.00    -0.250 OA
ATOM     27  O   LIG d   1       5.142  -4.932  -7.028  0.00  0.00    -0.425 OA
ATOM     28  H   LIG d   1       7.904  -9.259  -2.292  0.00  0.00     0.030 H 
ATOM     29  H   LIG d   1       9.252 -10.273  -2.852  0.00  0.00     0.030 H 
ATOM     30  H   LIG d   1       9.932 -10.531  -0.412  0.00  0.00     0.027 H 
ATOM     31  H   LIG d   1       8.388  -9.749   0.017  0.00  0.00     0.027 H 
ATOM     32  H   LIG d   1       8.661 -12.241  -1.726  0.00  0.00     0.034 H 
ATOM     33  H   LIG d   1       8.221 -12.252  -0.002  0.00  0.00     0.034 H 
ATOM     34  H   LIG d   1       6.913 -11.198  -3.408  0.00  0.00     0.034 H 
ATOM     35  H   LIG d   1       6.198 -12.740  -2.882  0.00  0.00     0.034 H 
ATOM     36  H   LIG d   1       4.110 -11.717  -2.357  0.00  0.00     0.027 H 
ATOM     37  H   LIG d   1       4.809 -10.083  -2.393  0.00  0.00     0.027 H 
ATOM     38  H   LIG d   1       5.036 -11.699  -4.903  0.00  0.00     0.031 H 
ATOM     39  H   LIG d   1       3.411 -11.116  -4.470  0.00  0.00     0.031 H 
ATOM     40  H   LIG d   1       4.096  -8.997  -5.367  0.00  0.00     0.057 H 
ATOM     41  H   LIG d   1       6.811  -9.699  -4.141  0.00  0.00     0.062 H 
ATOM     42  H   LIG d   1       4.630  -7.356  -6.153  0.00  0.00     0.066 H 
ATOM     43  H   LIG d   1       7.131  -2.498  -7.965  0.00  0.00     0.039 H 
ATOM     44  H   LIG d   1       7.732  -4.104  -8.429  0.00  0.00     0.039 H 
ENDROOT
BRANCH  22  45
ATOM     45  C   LIG d   1       6.962  -2.780  -5.380  0.00  0.00     0.026 A 
ATOM     46  C   LIG d   1       7.497  -1.475  -5.311  0.00  0.00     0.256 A 
ATOM     47  N   LIG d   1       6.961  -0.539  -4.499  0.00  0.00    -0.307 N 
ATOM     48  O   LIG d   1       8.459  -1.187  -6.002  0.00  0.00    -0.267 OA
ATOM     49  C   LIG d   1       5.889  -0.873  -3.726  0.00  0.00     0.055 A 
ATOM     50  C   LIG d   1       7.302   0.867  -4.237  0.00  0.00     0.031 A 
ATOM     51  C   LIG d   1       5.310  -2.145  -3.737  0.00  0.00    -0.001 A 
ATOM     52  C   LIG d   1       5.411   0.142  -2.926  0.00  0.00    -0.021 A 
ATOM     53  C   LIG d   1       5.895  -3.151  -4.624  0.00  0.00    -0.044 A 
ATOM     54  C   LIG d   1       4.213  -2.390  -2.905  0.00  0.00    -0.053 A 
ATOM     55  H   LIG d   1       5.492  -4.152  -4.679  0.00  0.00     0.063 H 
ATOM     56  C   LIG d   1       3.743  -1.377  -2.111  0.00  0.00    -0.061 A 
ATOM     57  H   LIG d   1       3.742  -3.361  -2.889  0.00  0.00     0.062 H 
ATOM     58  C   LIG d   1       4.330  -0.115  -2.113  0.00  0.00    -0.057 A 
ATOM     59  H   LIG d   1       2.896  -1.563  -1.467  0.00  0.00     0.062 H 
ATOM     60  H   LIG d   1       3.937   0.664  -1.476  0.00  0.00     0.062 H 
ATOM     61  C   LIG d   1       6.279   1.349  -3.187  0.00  0.00    -0.008 A 
ATOM     62  H   LIG d   1       5.681   2.170  -3.586  0.00  0.00     0.033 H 
ATOM     63  H   LIG d   1       6.788   1.657  -2.273  0.00  0.00     0.033 H 
ATOM     64  H   LIG d   1       8.315   0.942  -3.840  0.00  0.00     0.050 H 
ATOM     65  H   LIG d   1       7.210   1.455  -5.150  0.00  0.00     0.050 H 
ENDBRANCH  22  45
BRANCH  17  66
ATOM     66  O   LIG d   1       9.299  -5.446  -4.782  0.00  0.00    -0.505 OA
ATOM     67  H   LIG d   1       9.280  -4.871  -4.005  0.00  0.00     0.292 HD
ENDBRANCH  17  66
BRANCH   1  68
ATOM     68  C   LIG d   1      11.307  -8.851  -1.940  0.00  0.00    -0.028 C 
ATOM     69  H   LIG d   1      11.848  -8.255  -1.205  0.00  0.00     0.026 H 
ATOM     70  H   LIG d   1      11.341  -9.902  -1.650  0.00  0.00     0.026 H 
ATOM     71  H   LIG d   1      11.771  -8.730  -2.918  0.00  0.00     0.026 H 
ENDBRANCH   1  68
TORSDOF 3
ENDMDL
MODEL 2
REMARK VINA RESULT:      -9.6      1.759      2.056
REMARK  3 active torsions:
REMARK  status: ('A' for Active; 'I' for Inactive)
REMARK    1  A    between atoms: C_1  and  C_2 
REMARK    2  A    between atoms: C_18  and  O_23 
REMARK    3  A    between atoms: C_24  and  C_30 
ROOT
ATOM      1  C   LIG d   1       9.638  -7.271  -3.119  0.00  0.00     0.101 C 
ATOM      2  H   LIG d   1       9.420  -6.595  -2.293  0.00  0.00     0.073 H 
ATOM      3  C   LIG d   1       9.006  -8.642  -2.855  0.00  0.00    -0.015 C 
ATOM      4  C   LIG d   1       9.392  -9.160  -1.473  0.00  0.00    -0.043 C 
ATOM      5  C   LIG d   1       8.964 -10.627  -1.366  0.00  0.00     0.006 C 
ATOM      6  C   LIG d   1       7.464 -10.728  -1.465  0.00  0.00     0.133 C 
ATOM      7  O   LIG d   1       6.781 -10.359  -0.540  0.00  0.00    -0.297 OA
ATOM      8  C   LIG d   1       6.801 -11.281  -2.700  0.00  0.00     0.006 C 
ATOM      9  C   LIG d   1       5.294 -11.012  -2.644  0.00  0.00    -0.043 C 
ATOM     10  C   LIG d   1       4.677 -11.197  -4.033  0.00  0.00    -0.034 C 
ATOM     11  C   LIG d   1       4.627  -9.865  -4.743  0.00  0.00    -0.083 C 
ATOM     12  C   LIG d   1       5.714  -9.118  -4.842  0.00  0.00    -0.058 C 
ATOM     13  C   LIG d   1       5.699  -7.803  -5.517  0.00  0.00    -0.004 A 
ATOM     14  C   LIG d   1       4.578  -7.348  -6.188  0.00  0.00    -0.011 A 
ATOM     15  C   LIG d   1       4.580  -6.096  -6.797  0.00  0.00     0.140 A 
ATOM     16  C   LIG d   1       5.717  -5.298  -6.735  0.00  0.00     0.045 A 
ATOM     17  C   LIG d   1       6.863  -5.746  -6.088  0.00  0.00     0.139 A 
ATOM     18  C   LIG d   1       6.869  -7.007  -5.478  0.00  0.00     0.108 A 
ATOM     19  C   LIG d   1       8.055  -7.545  -4.812  0.00  0.00     0.344 C 
ATOM     20  O   LIG d   1       8.148  -8.750  -4.680  0.00  0.00    -0.245 OA
ATOM     21  O   LIG d   1       9.047  -6.769  -4.338  0.00  0.00    -0.458 OA
ATOM     22  C   LIG d   1       5.700  -3.940  -7.381  0.00  0.00     0.031 C 
ATOM     23  H   LIG d   1       6.721  -3.616  -7.581  0.00  0.00     0.041 H 
ATOM     24  C   LIG d   1       4.926  -4.044  -8.696  0.00  0.00     0.057 C 
ATOM     25  C   LIG d   1       3.655  -4.823  -8.506  0.00  0.00     0.313 C 
ATOM     26  O   LIG d   1       2.761  -4.697  -9.308  0.00  0.00    -0.250 OA
ATOM     27  O   LIG d   1       3.487  -5.655  -7.467  0.00  0.00    -0.425 OA
ATOM     28  H   LIG d   1       7.921  -8.553  -2.914  0.00  0.00     0.030 H 
ATOM     29  H   LIG d   1       9.349  -9.347  -3.612  0.00  0.00     0.030 H 
ATOM     30  H   LIG d   1      10.472  -9.084  -1.342  0.00  0.00     0.027 H 
ATOM     31  H   LIG d   1       8.886  -8.574  -0.707  0.00  0.00     0.027 H 
ATOM     32  H   LIG d   1       9.420 -11.197  -2.175  0.00  0.00     0.034 H 
ATOM     33  H   LIG d   1       9.291 -11.032  -0.408  0.00  0.00     0.034 H 
ATOM     34  H   LIG d   1       7.222 -10.800  -3.584  0.00  0.00     0.034 H 
ATOM     35  H   LIG d   1       6.975 -12.355  -2.755  0.00  0.00     0.034 H 
ATOM     36  H   LIG d   1       4.829 -11.707  -1.945  0.00  0.00     0.027 H 
ATOM     37  H   LIG d   1       5.122  -9.991  -2.305  0.00  0.00     0.027 H 
ATOM     38  H   LIG d   1       5.283 -11.894  -4.610  0.00  0.00     0.031 H 
ATOM     39  H   LIG d   1       3.666 -11.592  -3.932  0.00  0.00     0.031 H 
ATOM     40  H   LIG d   1       3.688  -9.542  -5.182  0.00  0.00     0.057 H 
ATOM     41  H   LIG d   1       6.659  -9.484  -4.447  0.00  0.00     0.062 H 
ATOM     42  H   LIG d   1       3.695  -7.968  -6.239  0.00  0.00     0.066 H 
ATOM     43  H   LIG d   1       4.683  -3.042  -9.049  0.00  0.00     0.039 H 
ATOM     44  H   LIG d   1       5.547  -4.545  -9.439  0.00  0.00     0.039 H 
ENDROOT
BRANCH  22  45
ATOM     45  C   LIG d   1       5.023  -2.952  -6.468  0.00  0.00     0.026 A 
ATOM     46  C   LIG d   1       4.438  -1.790  -7.019  0.00  0.00     0.256 A 
ATOM     47  N   LIG d   1       3.816  -0.880  -6.240  0.00  0.00    -0.307 N 
ATOM     48  O   LIG d   1       4.492  -1.609  -8.223  0.00  0.00    -0.267 OA
ATOM     49  C   LIG d   1       3.765  -1.089  -4.893  0.00  0.00     0.055 A 
ATOM     50  C   LIG d   1       3.132   0.387  -6.539  0.00  0.00     0.031 A 
ATOM     51  C   LIG d   1       4.326  -2.211  -4.276  0.00  0.00    -0.001 A 
ATOM     52  C   LIG d   1       3.116  -0.107  -4.177  0.00  0.00    -0.021 A 
ATOM     53  C   LIG d   1       4.993  -3.194  -5.131  0.00  0.00    -0.044 A 
ATOM     54  C   LIG d   1       4.223  -2.334  -2.888  0.00  0.00    -0.053 A 
ATOM     55  H   LIG d   1       5.445  -4.083  -4.714  0.00  0.00     0.063 H 
ATOM     56  C   LIG d   1       3.578  -1.354  -2.180  0.00  0.00    -0.061 A 
ATOM     57  H   LIG d   1       4.645  -3.188  -2.380  0.00  0.00     0.062 H 
ATOM     58  C   LIG d   1       3.024  -0.243  -2.810  0.00  0.00    -0.057 A 
ATOM     59  H   LIG d   1       3.497  -1.446  -1.107  0.00  0.00     0.062 H 
ATOM     60  H   LIG d   1       2.520   0.513  -2.225  0.00  0.00     0.062 H 
ATOM     61  C   LIG d   1       2.652   0.926  -5.174  0.00  0.00    -0.008 A 
ATOM     62  H   LIG d   1       1.564   1.010  -5.158  0.00  0.00     0.033 H 
ATOM     63  H   LIG d   1       3.112   1.892  -4.964  0.00  0.00     0.033 H 
ATOM     64  H   LIG d   1       3.825   1.091  -7.000  0.00  0.00     0.050 H 
ATOM     65  H   LIG d   1       2.280   0.211  -7.194  0.00  0.00     0.050 H 
ENDBRANCH  22  45
BRANCH  17  66
ATOM     66  O   LIG d   1       7.970  -4.966  -6.047  0.00  0.00    -0.505 OA
ATOM     67  H   LIG d   1       8.032  -4.331  -6.775  0.00  0.00     0.292 HD
ENDBRANCH  17  66
BRANCH   1  68
ATOM     68  C   LIG d   1      11.151  -7.416  -3.292  0.00  0.00    -0.028 C 
ATOM     69  H   LIG d   1      11.496  -8.299  -2.753  0.00  0.00     0.026 H 
ATOM     70  H   LIG d   1      11.388  -7.522  -4.352  0.00  0.00     0.026 H 
ATOM     71  H   LIG d   1      11.648  -6.531  -2.896  0.00  0.00     0.026 H 
ENDBRANCH   1  68
TORSDOF 3
ENDMDL
MODEL 3
REMARK VINA RESULT:      -8.2      2.542      8.755
REMARK  3 active torsions:
REMARK  status: ('A' for Active; 'I' for Inactive)
REMARK    1  A    between atoms: C_1  and  C_2 
REMARK    2  A    between atoms: C_18  and  O_23 
REMARK    3  A    between atoms: C_24  and  C_30 
ROOT
ATOM      1  C   LIG d   1       4.242  -1.659  -3.112  0.00  0.00     0.101 C 
ATOM      2  H   LIG d   1       4.698  -2.000  -2.183  0.00  0.00     0.073 H 
ATOM      3  C   LIG d   1       5.180  -0.680  -3.827  0.00  0.00    -0.015 C 
ATOM      4  C   LIG d   1       5.631   0.428  -2.880  0.00  0.00    -0.043 C 
ATOM      5  C   LIG d   1       6.337   1.512  -3.701  0.00  0.00     0.006 C 
ATOM      6  C   LIG d   1       7.582   0.943  -4.331  0.00  0.00     0.133 C 
ATOM      7  O   LIG d   1       8.542   0.704  -3.638  0.00  0.00    -0.297 OA
ATOM      8  C   LIG d   1       7.649   0.668  -5.810  0.00  0.00     0.006 C 
ATOM      9  C   LIG d   1       8.903  -0.152  -6.129  0.00  0.00    -0.043 C 
ATOM     10  C   LIG d   1       8.784  -0.773  -7.523  0.00  0.00    -0.034 C 
ATOM     11  C   LIG d   1       8.215  -2.167  -7.407  0.00  0.00    -0.083 C 
ATOM     12  C   LIG d   1       7.095  -2.379  -6.735  0.00  0.00    -0.058 C 
ATOM     13  C   LIG d   1       6.518  -3.732  -6.588  0.00  0.00    -0.004 A 
ATOM     14  C   LIG d   1       7.051  -4.822  -7.252  0.00  0.00    -0.011 A 
ATOM     15  C   LIG d   1       6.503  -6.090  -7.081  0.00  0.00     0.140 A 
ATOM     16  C   LIG d   1       5.411  -6.264  -6.239  0.00  0.00     0.045 A 
ATOM     17  C   LIG d   1       4.843  -5.179  -5.581  0.00  0.00     0.139 A 
ATOM     18  C   LIG d   1       5.386  -3.900  -5.754  0.00  0.00     0.108 A 
ATOM     19  C   LIG d   1       4.811  -2.715  -5.114  0.00  0.00     0.344 C 
ATOM     20  O   LIG d   1       5.035  -1.626  -5.605  0.00  0.00    -0.245 OA
ATOM     21  O   LIG d   1       4.049  -2.776  -4.008  0.00  0.00    -0.458 OA
ATOM     22  C   LIG d   1       4.840  -7.642  -6.048  0.00  0.00     0.031 C 
ATOM     23  H   LIG d   1       3.811  -7.568  -5.697  0.00  0.00     0.041 H 
ATOM     24  C   LIG d   1       4.874  -8.366  -7.394  0.00  0.00     0.057 C 
ATOM     25  C   LIG d   1       6.201  -8.168  -8.072  0.00  0.00     0.313 C 
ATOM     26  O   LIG d   1       6.542  -8.941  -8.936  0.00  0.00    -0.250 OA
ATOM     27  O   LIG d   1       7.016  -7.156  -7.743  0.00  0.00    -0.425 OA
ATOM     28  H   LIG d   1       6.055  -1.221  -4.189  0.00  0.00     0.030 H 
ATOM     29  H   LIG d   1       4.657  -0.237  -4.675  0.00  0.00     0.030 H 
ATOM     30  H   LIG d   1       4.764   0.856  -2.378  0.00  0.00     0.027 H 
ATOM     31  H   LIG d   1       6.321   0.021  -2.141  0.00  0.00     0.027 H 
ATOM     32  H   LIG d   1       5.667   1.869  -4.481  0.00  0.00     0.034 H 
ATOM     33  H   LIG d   1       6.608   2.342  -3.048  0.00  0.00     0.034 H 
ATOM     34  H   LIG d   1       6.764   0.109  -6.116  0.00  0.00     0.034 H 
ATOM     35  H   LIG d   1       7.687   1.612  -6.354  0.00  0.00     0.034 H 
ATOM     36  H   LIG d   1       9.778   0.497  -6.094  0.00  0.00     0.027 H 
ATOM     37  H   LIG d   1       9.014  -0.945  -5.388  0.00  0.00     0.027 H 
ATOM     38  H   LIG d   1       8.124  -0.161  -8.138  0.00  0.00     0.031 H 
ATOM     39  H   LIG d   1       9.770  -0.821  -7.985  0.00  0.00     0.031 H 
ATOM     40  H   LIG d   1       8.733  -2.985  -7.896  0.00  0.00     0.057 H 
ATOM     41  H   LIG d   1       6.559  -1.539  -6.299  0.00  0.00     0.062 H 
ATOM     42  H   LIG d   1       7.898  -4.687  -7.908  0.00  0.00     0.066 H 
ATOM     43  H   LIG d   1       4.709  -9.432  -7.232  0.00  0.00     0.039 H 
ATOM     44  H   LIG d   1       4.082  -7.974  -8.032  0.00  0.00     0.039 H 
ENDROOT
BRANCH  22  45
ATOM     45  C   LIG d   1       5.667  -8.399  -5.041  0.00  0.00     0.026 A 
ATOM     46  C   LIG d   1       5.063  -9.426  -4.283  0.00  0.00     0.256 A 
ATOM     47  N   LIG d   1       5.766 -10.135  -3.374  0.00  0.00    -0.307 N 
ATOM     48  O   LIG d   1       3.884  -9.682  -4.458  0.00  0.00    -0.267 OA
ATOM     49  C   LIG d   1       7.084  -9.837  -3.182  0.00  0.00     0.055 A 
ATOM     50  C   LIG d   1       5.403 -11.236  -2.471  0.00  0.00     0.031 A 
ATOM     51  C   LIG d   1       7.747  -8.831  -3.890  0.00  0.00    -0.001 A 
ATOM     52  C   LIG d   1       7.720 -10.606  -2.233  0.00  0.00    -0.021 A 
ATOM     53  C   LIG d   1       6.976  -8.073  -4.877  0.00  0.00    -0.044 A 
ATOM     54  C   LIG d   1       9.099  -8.601  -3.620  0.00  0.00    -0.053 A 
ATOM     55  H   LIG d   1       7.433  -7.283  -5.457  0.00  0.00     0.063 H 
ATOM     56  C   LIG d   1       9.727  -9.367  -2.674  0.00  0.00    -0.061 A 
ATOM     57  H   LIG d   1       9.641  -7.831  -4.148  0.00  0.00     0.062 H 
ATOM     58  C   LIG d   1       9.052 -10.367  -1.978  0.00  0.00    -0.057 A 
ATOM     59  H   LIG d   1      10.771  -9.192  -2.463  0.00  0.00     0.062 H 
ATOM     60  H   LIG d   1       9.574 -10.956  -1.238  0.00  0.00     0.062 H 
ATOM     61  C   LIG d   1       6.694 -11.573  -1.694  0.00  0.00    -0.008 A 
ATOM     62  H   LIG d   1       7.000 -12.602  -1.890  0.00  0.00     0.033 H 
ATOM     63  H   LIG d   1       6.547 -11.416  -0.625  0.00  0.00     0.033 H 
ATOM     64  H   LIG d   1       4.620 -10.917  -1.782  0.00  0.00     0.050 H 
ATOM     65  H   LIG d   1       5.073 -12.102  -3.044  0.00  0.00     0.050 H 
ENDBRANCH  22  45
BRANCH  17  66
ATOM     66  O   LIG d   1       3.768  -5.358  -4.774  0.00  0.00    -0.505 OA
ATOM     67  H   LIG d   1       3.608  -4.625  -4.164  0.00  0.00     0.292 HD
ENDBRANCH  17  66
BRANCH   1  68
ATOM     68  C   LIG d   1       2.902  -0.983  -2.820  0.00  0.00    -0.028 C 
ATOM     69  H   LIG d   1       2.764  -0.898  -1.742  0.00  0.00     0.026 H 
ATOM     70  H   LIG d   1       2.891   0.012  -3.268  0.00  0.00     0.026 H 
ATOM     71  H   LIG d   1       2.094  -1.580  -3.244  0.00  0.00     0.026 H 
ENDBRANCH   1  68
TORSDOF 3
ENDMDL
MODEL 4
REMARK VINA RESULT:      -7.9      5.500      9.524
REMARK  3 active torsions:
REMARK  status: ('A' for Active; 'I' for Inactive)
REMARK    1  A    between atoms: C_1  and  C_2 
REMARK    2  A    between atoms: C_18  and  O_23 
REMARK    3  A    between atoms: C_24  and  C_30 
ROOT
ATOM      1  C   LIG d   1      11.713  -0.560  -7.112  0.00  0.00     0.101 C 
ATOM      2  H   LIG d   1      11.381  -0.365  -8.132  0.00  0.00     0.073 H 
ATOM      3  C   LIG d   1      12.064   0.758  -6.414  0.00  0.00    -0.015 C 
ATOM      4  C   LIG d   1      13.026   1.583  -7.264  0.00  0.00    -0.043 C 
ATOM      5  C   LIG d   1      13.548   2.747  -6.416  0.00  0.00     0.006 C 
ATOM      6  C   LIG d   1      12.407   3.657  -6.042  0.00  0.00     0.133 C 
ATOM      7  O   LIG d   1      11.912   4.365  -6.885  0.00  0.00    -0.297 OA
ATOM      8  C   LIG d   1      11.874   3.698  -4.634  0.00  0.00     0.006 C 
ATOM      9  C   LIG d   1      10.559   4.484  -4.600  0.00  0.00    -0.043 C 
ATOM     10  C   LIG d   1       9.813   4.201  -3.294  0.00  0.00    -0.034 C 
ATOM     11  C   LIG d   1       8.832   3.073  -3.509  0.00  0.00    -0.083 C 
ATOM     12  C   LIG d   1       9.233   1.930  -4.042  0.00  0.00    -0.058 C 
ATOM     13  C   LIG d   1       8.299   0.810  -4.281  0.00  0.00    -0.004 A 
ATOM     14  C   LIG d   1       6.988   0.855  -3.842  0.00  0.00    -0.011 A 
ATOM     15  C   LIG d   1       6.121  -0.203  -4.099  0.00  0.00     0.140 A 
ATOM     16  C   LIG d   1       6.574  -1.316  -4.797  0.00  0.00     0.045 A 
ATOM     17  C   LIG d   1       7.894  -1.394  -5.225  0.00  0.00     0.139 A 
ATOM     18  C   LIG d   1       8.773  -0.336  -4.965  0.00  0.00     0.108 A 
ATOM     19  C   LIG d   1      10.182  -0.376  -5.362  0.00  0.00     0.344 C 
ATOM     20  O   LIG d   1      10.970   0.336  -4.770  0.00  0.00    -0.245 OA
ATOM     21  O   LIG d   1      10.644  -1.162  -6.350  0.00  0.00    -0.458 OA
ATOM     22  C   LIG d   1       5.622  -2.444  -5.083  0.00  0.00     0.031 C 
ATOM     23  H   LIG d   1       6.183  -3.358  -5.276  0.00  0.00     0.041 H 
ATOM     24  C   LIG d   1       4.727  -2.639  -3.859  0.00  0.00     0.057 C 
ATOM     25  C   LIG d   1       4.225  -1.316  -3.351  0.00  0.00     0.313 C 
ATOM     26  O   LIG d   1       3.242  -1.290  -2.649  0.00  0.00    -0.250 OA
ATOM     27  O   LIG d   1       4.839  -0.165  -3.657  0.00  0.00    -0.425 OA
ATOM     28  H   LIG d   1      11.150   1.330  -6.249  0.00  0.00     0.030 H 
ATOM     29  H   LIG d   1      12.529   0.542  -5.452  0.00  0.00     0.030 H 
ATOM     30  H   LIG d   1      13.861   0.958  -7.582  0.00  0.00     0.027 H 
ATOM     31  H   LIG d   1      12.503   1.972  -8.137  0.00  0.00     0.027 H 
ATOM     32  H   LIG d   1      14.011   2.356  -5.510  0.00  0.00     0.034 H 
ATOM     33  H   LIG d   1      14.288   3.309  -6.987  0.00  0.00     0.034 H 
ATOM     34  H   LIG d   1      11.696   2.680  -4.283  0.00  0.00     0.034 H 
ATOM     35  H   LIG d   1      12.602   4.182  -3.984  0.00  0.00     0.034 H 
ATOM     36  H   LIG d   1      10.775   5.550  -4.671  0.00  0.00     0.027 H 
ATOM     37  H   LIG d   1       9.938   4.185  -5.444  0.00  0.00     0.027 H 
ATOM     38  H   LIG d   1      10.526   3.919  -2.521  0.00  0.00     0.031 H 
ATOM     39  H   LIG d   1       9.273   5.095  -2.982  0.00  0.00     0.031 H 
ATOM     40  H   LIG d   1       7.800   3.212  -3.205  0.00  0.00     0.057 H 
ATOM     41  H   LIG d   1      10.283   1.787  -4.288  0.00  0.00     0.062 H 
ATOM     42  H   LIG d   1       6.635   1.719  -3.298  0.00  0.00     0.066 H 
ATOM     43  H   LIG d   1       3.877  -3.265  -4.132  0.00  0.00     0.039 H 
ATOM     44  H   LIG d   1       5.297  -3.133  -3.073  0.00  0.00     0.039 H 
ENDROOT
BRANCH  22  45
ATOM     45  C   LIG d   1       4.778  -2.103  -6.284  0.00  0.00     0.026 A 
ATOM     46  C   LIG d   1       4.376  -3.135  -7.161  0.00  0.00     0.256 A 
ATOM     47  N   LIG d   1       3.614  -2.877  -8.245  0.00  0.00    -0.307 N 
ATOM     48  O   LIG d   1       4.719  -4.281  -6.931  0.00  0.00    -0.267 OA
ATOM     49  C   LIG d   1       3.239  -1.590  -8.497  0.00  0.00     0.055 A 
ATOM     50  C   LIG d   1       3.059  -3.737  -9.301  0.00  0.00     0.031 A 
ATOM     51  C   LIG d   1       3.604  -0.518  -7.678  0.00  0.00    -0.001 A 
ATOM     52  C   LIG d   1       2.468  -1.420  -9.626  0.00  0.00    -0.021 A 
ATOM     53  C   LIG d   1       4.425  -0.809  -6.502  0.00  0.00    -0.044 A 
ATOM     54  C   LIG d   1       3.171   0.766  -8.022  0.00  0.00    -0.053 A 
ATOM     55  H   LIG d   1       4.738  -0.023  -5.829  0.00  0.00     0.063 H 
ATOM     56  C   LIG d   1       2.406   0.930  -9.147  0.00  0.00    -0.061 A 
ATOM     57  H   LIG d   1       3.435   1.616  -7.411  0.00  0.00     0.062 H 
ATOM     58  C   LIG d   1       2.050  -0.149  -9.952  0.00  0.00    -0.057 A 
ATOM     59  H   LIG d   1       2.070   1.920  -9.416  0.00  0.00     0.062 H 
ATOM     60  H   LIG d   1       1.445   0.011 -10.832  0.00  0.00     0.062 H 
ATOM     61  C   LIG d   1       2.285  -2.786 -10.240  0.00  0.00    -0.008 A 
ATOM     62  H   LIG d   1       1.228  -3.054 -10.267  0.00  0.00     0.033 H 
ATOM     63  H   LIG d   1       2.711  -2.814 -11.243  0.00  0.00     0.033 H 
ATOM     64  H   LIG d   1       3.862  -4.234  -9.845  0.00  0.00     0.050 H 
ATOM     65  H   LIG d   1       2.381  -4.474  -8.870  0.00  0.00     0.050 H 
ENDBRANCH  22  45
BRANCH  17  66
ATOM     66  O   LIG d   1       8.330  -2.492  -5.891  0.00  0.00    -0.505 OA
ATOM     67  H   LIG d   1       7.737  -3.253  -5.825  0.00  0.00     0.292 HD
ENDBRANCH  17  66
BRANCH   1  68
ATOM     68  C   LIG d   1      12.931  -1.486  -7.127  0.00  0.00    -0.028 C 
ATOM     69  H   LIG d   1      13.789  -0.953  -7.538  0.00  0.00     0.026 H 
ATOM     70  H   LIG d   1      13.156  -1.807  -6.110  0.00  0.00     0.026 H 
ATOM     71  H   LIG d   1      12.717  -2.358  -7.744  0.00  0.00     0.026 H 
ENDBRANCH   1  68
TORSDOF 3
ENDMDL
MODEL 5
REMARK VINA RESULT:      -7.9      5.993     11.631
REMARK  3 active torsions:
REMARK  status: ('A' for Active; 'I' for Inactive)
REMARK    1  A    between atoms: C_1  and  C_2 
REMARK    2  A    between atoms: C_18  and  O_23 
REMARK    3  A    between atoms: C_24  and  C_30 
ROOT
ATOM      1  C   LIG d   1       8.370   5.564  -9.426  0.00  0.00     0.101 C 
ATOM      2  H   LIG d   1       7.378   5.842  -9.068  0.00  0.00     0.073 H 
ATOM      3  C   LIG d   1       9.444   6.291  -8.610  0.00  0.00    -0.015 C 
ATOM      4  C   LIG d   1       9.168   7.791  -8.565  0.00  0.00    -0.043 C 
ATOM      5  C   LIG d   1      10.395   8.494  -7.977  0.00  0.00     0.006 C 
ATOM      6  C   LIG d   1      10.605   8.047  -6.554  0.00  0.00     0.133 C 
ATOM      7  O   LIG d   1       9.851   8.431  -5.693  0.00  0.00    -0.297 OA
ATOM      8  C   LIG d   1      11.741   7.127  -6.187  0.00  0.00     0.006 C 
ATOM      9  C   LIG d   1      11.554   6.620  -4.753  0.00  0.00    -0.043 C 
ATOM     10  C   LIG d   1      12.450   5.403  -4.508  0.00  0.00    -0.034 C 
ATOM     11  C   LIG d   1      11.669   4.140  -4.781  0.00  0.00    -0.083 C 
ATOM     12  C   LIG d   1      11.024   3.986  -5.927  0.00  0.00    -0.058 C 
ATOM     13  C   LIG d   1      10.238   2.770  -6.223  0.00  0.00    -0.004 A 
ATOM     14  C   LIG d   1      10.242   1.681  -5.370  0.00  0.00    -0.011 A 
ATOM     15  C   LIG d   1       9.476   0.555  -5.660  0.00  0.00     0.140 A 
ATOM     16  C   LIG d   1       8.703   0.523  -6.815  0.00  0.00     0.045 A 
ATOM     17  C   LIG d   1       8.703   1.595  -7.698  0.00  0.00     0.139 A 
ATOM     18  C   LIG d   1       9.477   2.728  -7.416  0.00  0.00     0.108 A 
ATOM     19  C   LIG d   1       9.543   3.874  -8.324  0.00  0.00     0.344 C 
ATOM     20  O   LIG d   1      10.507   4.611  -8.257  0.00  0.00    -0.245 OA
ATOM     21  O   LIG d   1       8.587   4.149  -9.229  0.00  0.00    -0.458 OA
ATOM     22  C   LIG d   1       7.865  -0.692  -7.106  0.00  0.00     0.031 C 
ATOM     23  H   LIG d   1       7.639  -0.735  -8.171  0.00  0.00     0.041 H 
ATOM     24  C   LIG d   1       8.661  -1.932  -6.699  0.00  0.00     0.057 C 
ATOM     25  C   LIG d   1       9.296  -1.739  -5.350  0.00  0.00     0.313 C 
ATOM     26  O   LIG d   1       9.639  -2.709  -4.716  0.00  0.00    -0.250 OA
ATOM     27  O   LIG d   1       9.490  -0.518  -4.832  0.00  0.00    -0.425 OA
ATOM     28  H   LIG d   1       9.451   5.897  -7.594  0.00  0.00     0.030 H 
ATOM     29  H   LIG d   1      10.419   6.119  -9.067  0.00  0.00     0.030 H 
ATOM     30  H   LIG d   1       8.983   8.160  -9.574  0.00  0.00     0.027 H 
ATOM     31  H   LIG d   1       8.299   7.985  -7.937  0.00  0.00     0.027 H 
ATOM     32  H   LIG d   1      11.274   8.243  -8.569  0.00  0.00     0.034 H 
ATOM     33  H   LIG d   1      10.240   9.573  -7.998  0.00  0.00     0.034 H 
ATOM     34  H   LIG d   1      11.757   6.279  -6.872  0.00  0.00     0.034 H 
ATOM     35  H   LIG d   1      12.684   7.668  -6.259  0.00  0.00     0.034 H 
ATOM     36  H   LIG d   1      11.819   7.412  -4.053  0.00  0.00     0.027 H 
ATOM     37  H   LIG d   1      10.512   6.339  -4.602  0.00  0.00     0.027 H 
ATOM     38  H   LIG d   1      13.313   5.447  -5.170  0.00  0.00     0.031 H 
ATOM     39  H   LIG d   1      12.787   5.403  -3.471  0.00  0.00     0.031 H 
ATOM     40  H   LIG d   1      11.659   3.358  -4.029  0.00  0.00     0.057 H 
ATOM     41  H   LIG d   1      11.091   4.756  -6.692  0.00  0.00     0.062 H 
ATOM     42  H   LIG d   1      10.844   1.705  -4.474  0.00  0.00     0.066 H 
ATOM     43  H   LIG d   1       7.991  -2.792  -6.661  0.00  0.00     0.039 H 
ATOM     44  H   LIG d   1       9.439  -2.119  -7.439  0.00  0.00     0.039 H 
ENDROOT
BRANCH  22  45
ATOM     45  C   LIG d   1       6.584  -0.626  -6.316  0.00  0.00     0.026 A 
ATOM     46  C   LIG d   1       5.429  -0.080  -6.918  0.00  0.00     0.256 A 
ATOM     47  N   LIG d   1       4.257  -0.006  -6.251  0.00  0.00    -0.307 N 
ATOM     48  O   LIG d   1       5.489   0.327  -8.065  0.00  0.00    -0.267 OA
ATOM     49  C   LIG d   1       4.201  -0.460  -4.966  0.00  0.00     0.055 A 
ATOM     50  C   LIG d   1       2.927   0.497  -6.624  0.00  0.00     0.031 A 
ATOM     51  C   LIG d   1       5.304  -1.007  -4.303  0.00  0.00    -0.001 A 
ATOM     52  C   LIG d   1       2.969  -0.341  -4.361  0.00  0.00    -0.021 A 
ATOM     53  C   LIG d   1       6.567  -1.088  -5.038  0.00  0.00    -0.044 A 
ATOM     54  C   LIG d   1       5.145  -1.443  -2.985  0.00  0.00    -0.053 A 
ATOM     55  H   LIG d   1       7.455  -1.501  -4.581  0.00  0.00     0.063 H 
ATOM     56  C   LIG d   1       3.918  -1.321  -2.388  0.00  0.00    -0.061 A 
ATOM     57  H   LIG d   1       5.976  -1.870  -2.444  0.00  0.00     0.062 H 
ATOM     58  C   LIG d   1       2.829  -0.775  -3.062  0.00  0.00    -0.057 A 
ATOM     59  H   LIG d   1       3.792  -1.657  -1.369  0.00  0.00     0.062 H 
ATOM     60  H   LIG d   1       1.873  -0.692  -2.565  0.00  0.00     0.062 H 
ATOM     61  C   LIG d   1       2.043   0.284  -5.376  0.00  0.00    -0.008 A 
ATOM     62  H   LIG d   1       1.217  -0.391  -5.605  0.00  0.00     0.033 H 
ATOM     63  H   LIG d   1       1.665   1.239  -5.011  0.00  0.00     0.033 H 
ATOM     64  H   LIG d   1       2.981   1.557  -6.873  0.00  0.00     0.050 H 
ATOM     65  H   LIG d   1       2.532  -0.070  -7.466  0.00  0.00     0.050 H 
ENDBRANCH  22  45
BRANCH  17  66
ATOM     66  O   LIG d   1       7.958   1.546  -8.830  0.00  0.00    -0.505 OA
ATOM     67  H   LIG d   1       7.045   1.842  -8.712  0.00  0.00     0.292 HD
ENDBRANCH  17  66
BRANCH   1  68
ATOM     68  C   LIG d   1       8.509   5.915 -10.908  0.00  0.00    -0.028 C 
ATOM     69  H   LIG d   1       8.492   6.998 -11.029  0.00  0.00     0.026 H 
ATOM     70  H   LIG d   1       9.453   5.522 -11.288  0.00  0.00     0.026 H 
ATOM     71  H   LIG d   1       7.682   5.474 -11.465  0.00  0.00     0.026 H 
ENDBRANCH   1  68
TORSDOF 3
ENDMDL
MODEL 6
REMARK VINA RESULT:      -7.8      5.719      7.724
REMARK  3 active torsions:
REMARK  status: ('A' for Active; 'I' for Inactive)
REMARK    1  A    between atoms: C_1  and  C_2 
REMARK    2  A    between atoms: C_18  and  O_23 
REMARK    3  A    between atoms: C_24  and  C_30 
ROOT
ATOM      1  C   LIG d   1       5.141  -6.778 -10.932  0.00  0.00     0.101 C 
ATOM      2  H   LIG d   1       5.295  -7.187  -9.933  0.00  0.00     0.073 H 
ATOM      3  C   LIG d   1       3.752  -7.168 -11.448  0.00  0.00    -0.015 C 
ATOM      4  C   LIG d   1       3.528  -8.672 -11.321  0.00  0.00    -0.043 C 
ATOM      5  C   LIG d   1       2.254  -9.040 -12.087  0.00  0.00     0.006 C 
ATOM      6  C   LIG d   1       1.064  -8.367 -11.452  0.00  0.00     0.133 C 
ATOM      7  O   LIG d   1       0.656  -8.763 -10.387  0.00  0.00    -0.297 OA
ATOM      8  C   LIG d   1       0.377  -7.207 -12.124  0.00  0.00     0.006 C 
ATOM      9  C   LIG d   1      -0.603  -6.549 -11.147  0.00  0.00    -0.043 C 
ATOM     10  C   LIG d   1      -1.001  -5.162 -11.659  0.00  0.00    -0.034 C 
ATOM     11  C   LIG d   1      -0.094  -4.121 -11.047  0.00  0.00    -0.083 C 
ATOM     12  C   LIG d   1       1.220  -4.254 -11.117  0.00  0.00    -0.058 C 
ATOM     13  C   LIG d   1       2.138  -3.262 -10.517  0.00  0.00    -0.004 A 
ATOM     14  C   LIG d   1       1.669  -2.084  -9.966  0.00  0.00    -0.011 A 
ATOM     15  C   LIG d   1       2.551  -1.175  -9.386  0.00  0.00     0.140 A 
ATOM     16  C   LIG d   1       3.913  -1.451  -9.365  0.00  0.00     0.045 A 
ATOM     17  C   LIG d   1       4.409  -2.617  -9.936  0.00  0.00     0.139 A 
ATOM     18  C   LIG d   1       3.528  -3.532 -10.525  0.00  0.00     0.108 A 
ATOM     19  C   LIG d   1       3.995  -4.760 -11.171  0.00  0.00     0.344 C 
ATOM     20  O   LIG d   1       3.280  -5.284 -12.003  0.00  0.00    -0.245 OA
ATOM     21  O   LIG d   1       5.177  -5.335 -10.886  0.00  0.00    -0.458 OA
ATOM     22  C   LIG d   1       4.852  -0.470  -8.720  0.00  0.00     0.031 C 
ATOM     23  H   LIG d   1       5.861  -0.620  -9.105  0.00  0.00     0.041 H 
ATOM     24  C   LIG d   1       4.377   0.943  -9.058  0.00  0.00     0.057 C 
ATOM     25  C   LIG d   1       2.890   1.064  -8.873  0.00  0.00     0.313 C 
ATOM     26  O   LIG d   1       2.401   2.160  -8.734  0.00  0.00    -0.250 OA
ATOM     27  O   LIG d   1       2.093  -0.013  -8.858  0.00  0.00    -0.425 OA
ATOM     28  H   LIG d   1       2.993  -6.641 -10.869  0.00  0.00     0.030 H 
ATOM     29  H   LIG d   1       3.665  -6.879 -12.496  0.00  0.00     0.030 H 
ATOM     30  H   LIG d   1       4.378  -9.206 -11.745  0.00  0.00     0.027 H 
ATOM     31  H   LIG d   1       3.413  -8.937 -10.270  0.00  0.00     0.027 H 
ATOM     32  H   LIG d   1       2.346  -8.712 -13.122  0.00  0.00     0.034 H 
ATOM     33  H   LIG d   1       2.114 -10.121 -12.061  0.00  0.00     0.034 H 
ATOM     34  H   LIG d   1       1.122  -6.475 -12.437  0.00  0.00     0.034 H 
ATOM     35  H   LIG d   1      -0.168  -7.564 -12.997  0.00  0.00     0.034 H 
ATOM     36  H   LIG d   1      -1.493  -7.171 -11.055  0.00  0.00     0.027 H 
ATOM     37  H   LIG d   1      -0.129  -6.452 -10.171  0.00  0.00     0.027 H 
ATOM     38  H   LIG d   1      -0.907  -5.134 -12.743  0.00  0.00     0.031 H 
ATOM     39  H   LIG d   1      -2.033  -4.953 -11.378  0.00  0.00     0.031 H 
ATOM     40  H   LIG d   1      -0.541  -3.258 -10.565  0.00  0.00     0.057 H 
ATOM     41  H   LIG d   1       1.651  -5.096 -11.654  0.00  0.00     0.062 H 
ATOM     42  H   LIG d   1       0.610  -1.868  -9.984  0.00  0.00     0.066 H 
ATOM     43  H   LIG d   1       4.880   1.657  -8.404  0.00  0.00     0.039 H 
ATOM     44  H   LIG d   1       4.630   1.168 -10.094  0.00  0.00     0.039 H 
ENDROOT
BRANCH  22  45
ATOM     45  C   LIG d   1       4.845  -0.666  -7.226  0.00  0.00     0.026 A 
ATOM     46  C   LIG d   1       5.936  -1.316  -6.609  0.00  0.00     0.256 A 
ATOM     47  N   LIG d   1       5.975  -1.509  -5.273  0.00  0.00    -0.307 N 
ATOM     48  O   LIG d   1       6.865  -1.706  -7.296  0.00  0.00    -0.267 OA
ATOM     49  C   LIG d   1       4.929  -1.074  -4.514  0.00  0.00     0.055 A 
ATOM     50  C   LIG d   1       6.965  -2.135  -4.384  0.00  0.00     0.031 A 
ATOM     51  C   LIG d   1       3.813  -0.429  -5.054  0.00  0.00    -0.001 A 
ATOM     52  C   LIG d   1       5.051  -1.317  -3.163  0.00  0.00    -0.021 A 
ATOM     53  C   LIG d   1       3.784  -0.220  -6.503  0.00  0.00    -0.044 A 
ATOM     54  C   LIG d   1       2.790  -0.022  -4.192  0.00  0.00    -0.053 A 
ATOM     55  H   LIG d   1       2.949   0.273  -6.981  0.00  0.00     0.063 H 
ATOM     56  C   LIG d   1       2.916  -0.268  -2.851  0.00  0.00    -0.061 A 
ATOM     57  H   LIG d   1       1.915   0.478  -4.577  0.00  0.00     0.062 H 
ATOM     58  C   LIG d   1       4.035  -0.910  -2.327  0.00  0.00    -0.057 A 
ATOM     59  H   LIG d   1       2.128   0.045  -2.182  0.00  0.00     0.062 H 
ATOM     60  H   LIG d   1       4.106  -1.090  -1.264  0.00  0.00     0.062 H 
ATOM     61  C   LIG d   1       6.371  -2.020  -2.964  0.00  0.00    -0.008 A 
ATOM     62  H   LIG d   1       7.026  -1.426  -2.324  0.00  0.00     0.033 H 
ATOM     63  H   LIG d   1       6.216  -3.010  -2.535  0.00  0.00     0.033 H 
ATOM     64  H   LIG d   1       7.103  -3.183  -4.652  0.00  0.00     0.050 H 
ATOM     65  H   LIG d   1       7.913  -1.602  -4.440  0.00  0.00     0.050 H 
ENDBRANCH  22  45
BRANCH  17  66
ATOM     66  O   LIG d   1       5.741  -2.868  -9.923  0.00  0.00    -0.505 OA
ATOM     67  H   LIG d   1       6.180  -2.709 -10.770  0.00  0.00     0.292 HD
ENDBRANCH  17  66
BRANCH   1  68
ATOM     68  C   LIG d   1       6.219  -7.300 -11.882  0.00  0.00    -0.028 C 
ATOM     69  H   LIG d   1       6.063  -8.363 -12.063  0.00  0.00     0.026 H 
ATOM     70  H   LIG d   1       6.164  -6.759 -12.827  0.00  0.00     0.026 H 
ATOM     71  H   LIG d   1       7.202  -7.149 -11.435  0.00  0.00     0.026 H 
ENDBRANCH   1  68
TORSDOF 3
ENDMDL
MODEL 7
REMARK VINA RESULT:      -7.8      5.370      9.364
REMARK  3 active torsions:
REMARK  status: ('A' for Active; 'I' for Inactive)
REMARK    1  A    between atoms: C_1  and  C_2 
REMARK    2  A    between atoms: C_18  and  O_23 
REMARK    3  A    between atoms: C_24  and  C_30 
ROOT
ATOM      1  C   LIG d   1       4.620  -0.394  -5.216  0.00  0.00     0.101 C 
ATOM      2  H   LIG d   1       4.304   0.247  -6.038  0.00  0.00     0.073 H 
ATOM      3  C   LIG d   1       5.224  -1.691  -5.765  0.00  0.00    -0.015 C 
ATOM      4  C   LIG d   1       4.283  -2.344  -6.773  0.00  0.00    -0.043 C 
ATOM      5  C   LIG d   1       4.803  -3.750  -7.085  0.00  0.00     0.006 C 
ATOM      6  C   LIG d   1       6.154  -3.659  -7.746  0.00  0.00     0.133 C 
ATOM      7  O   LIG d   1       6.232  -3.271  -8.887  0.00  0.00    -0.297 OA
ATOM      8  C   LIG d   1       7.409  -4.043  -7.007  0.00  0.00     0.006 C 
ATOM      9  C   LIG d   1       8.638  -3.594  -7.805  0.00  0.00    -0.043 C 
ATOM     10  C   LIG d   1       9.879  -3.609  -6.909  0.00  0.00    -0.034 C 
ATOM     11  C   LIG d   1      10.086  -2.237  -6.313  0.00  0.00    -0.083 C 
ATOM     12  C   LIG d   1       9.097  -1.625  -5.682  0.00  0.00    -0.058 C 
ATOM     13  C   LIG d   1       9.259  -0.276  -5.100  0.00  0.00    -0.004 A 
ATOM     14  C   LIG d   1      10.489   0.357  -5.074  0.00  0.00    -0.011 A 
ATOM     15  C   LIG d   1      10.612   1.637  -4.540  0.00  0.00     0.140 A 
ATOM     16  C   LIG d   1       9.494   2.282  -4.025  0.00  0.00     0.045 A 
ATOM     17  C   LIG d   1       8.254   1.655  -4.017  0.00  0.00     0.139 A 
ATOM     18  C   LIG d   1       8.124   0.365  -4.548  0.00  0.00     0.108 A 
ATOM     19  C   LIG d   1       6.852  -0.358  -4.537  0.00  0.00     0.344 C 
ATOM     20  O   LIG d   1       6.876  -1.572  -4.610  0.00  0.00    -0.245 OA
ATOM     21  O   LIG d   1       5.659   0.256  -4.452  0.00  0.00    -0.458 OA
ATOM     22  C   LIG d   1       9.638   3.672  -3.468  0.00  0.00     0.031 C 
ATOM     23  H   LIG d   1       8.815   3.880  -2.785  0.00  0.00     0.041 H 
ATOM     24  C   LIG d   1      10.965   3.751  -2.714  0.00  0.00     0.057 C 
ATOM     25  C   LIG d   1      12.072   3.124  -3.515  0.00  0.00     0.313 C 
ATOM     26  O   LIG d   1      13.218   3.412  -3.264  0.00  0.00    -0.250 OA
ATOM     27  O   LIG d   1      11.819   2.253  -4.502  0.00  0.00    -0.425 OA
ATOM     28  H   LIG d   1       6.172  -1.466  -6.254  0.00  0.00     0.030 H 
ATOM     29  H   LIG d   1       5.402  -2.381  -4.941  0.00  0.00     0.030 H 
ATOM     30  H   LIG d   1       3.281  -2.410  -6.349  0.00  0.00     0.027 H 
ATOM     31  H   LIG d   1       4.257  -1.751  -7.688  0.00  0.00     0.027 H 
ATOM     32  H   LIG d   1       4.891  -4.317  -6.159  0.00  0.00     0.034 H 
ATOM     33  H   LIG d   1       4.106  -4.255  -7.754  0.00  0.00     0.034 H 
ATOM     34  H   LIG d   1       7.417  -3.560  -6.029  0.00  0.00     0.034 H 
ATOM     35  H   LIG d   1       7.438  -5.124  -6.877  0.00  0.00     0.034 H 
ATOM     36  H   LIG d   1       8.789  -4.272  -8.646  0.00  0.00     0.027 H 
ATOM     37  H   LIG d   1       8.475  -2.584  -8.181  0.00  0.00     0.027 H 
ATOM     38  H   LIG d   1       9.741  -4.336  -6.109  0.00  0.00     0.031 H 
ATOM     39  H   LIG d   1      10.752  -3.883  -7.502  0.00  0.00     0.031 H 
ATOM     40  H   LIG d   1      11.063  -1.773  -6.399  0.00  0.00     0.057 H 
ATOM     41  H   LIG d   1       8.142  -2.130  -5.557  0.00  0.00     0.062 H 
ATOM     42  H   LIG d   1      11.358  -0.145  -5.473  0.00  0.00     0.066 H 
ATOM     43  H   LIG d   1      11.208   4.798  -2.524  0.00  0.00     0.039 H 
ATOM     44  H   LIG d   1      10.870   3.228  -1.762  0.00  0.00     0.039 H 
ENDROOT
BRANCH  22  45
ATOM     45  C   LIG d   1       9.630   4.673  -4.594  0.00  0.00     0.026 A 
ATOM     46  C   LIG d   1       9.520   6.049  -4.293  0.00  0.00     0.256 A 
ATOM     47  N   LIG d   1       9.515   6.983  -5.268  0.00  0.00    -0.307 N 
ATOM     48  O   LIG d   1       9.434   6.401  -3.129  0.00  0.00    -0.267 OA
ATOM     49  C   LIG d   1       9.607   6.579  -6.568  0.00  0.00     0.055 A 
ATOM     50  C   LIG d   1       9.419   8.450  -5.244  0.00  0.00     0.031 A 
ATOM     51  C   LIG d   1       9.712   5.236  -6.941  0.00  0.00    -0.001 A 
ATOM     52  C   LIG d   1       9.589   7.597  -7.495  0.00  0.00    -0.021 A 
ATOM     53  C   LIG d   1       9.723   4.233  -5.876  0.00  0.00    -0.044 A 
ATOM     54  C   LIG d   1       9.799   4.923  -8.301  0.00  0.00    -0.053 A 
ATOM     55  H   LIG d   1       9.803   3.179  -6.100  0.00  0.00     0.063 H 
ATOM     56  C   LIG d   1       9.779   5.940  -9.219  0.00  0.00    -0.061 A 
ATOM     57  H   LIG d   1       9.882   3.896  -8.624  0.00  0.00     0.062 H 
ATOM     58  C   LIG d   1       9.675   7.273  -8.831  0.00  0.00    -0.057 A 
ATOM     59  H   LIG d   1       9.847   5.702 -10.270  0.00  0.00     0.062 H 
ATOM     60  H   LIG d   1       9.662   8.053  -9.578  0.00  0.00     0.062 H 
ATOM     61  C   LIG d   1       9.468   8.889  -6.724  0.00  0.00    -0.008 A 
ATOM     62  H   LIG d   1      10.335   9.524  -6.905  0.00  0.00     0.033 H 
ATOM     63  H   LIG d   1       8.549   9.411  -6.995  0.00  0.00     0.033 H 
ATOM     64  H   LIG d   1       8.479   8.759  -4.788  0.00  0.00     0.050 H 
ATOM     65  H   LIG d   1      10.262   8.874  -4.698  0.00  0.00     0.050 H 
ENDBRANCH  22  45
BRANCH  17  66
ATOM     66  O   LIG d   1       7.174   2.288  -3.498  0.00  0.00    -0.505 OA
ATOM     67  H   LIG d   1       7.285   3.245  -3.407  0.00  0.00     0.292 HD
ENDBRANCH  17  66
BRANCH   1  68
ATOM     68  C   LIG d   1       3.427  -0.713  -4.313  0.00  0.00    -0.028 C 
ATOM     69  H   LIG d   1       3.721  -0.605  -3.269  0.00  0.00     0.026 H 
ATOM     70  H   LIG d   1       2.610  -0.025  -4.533  0.00  0.00     0.026 H 
ATOM     71  H   LIG d   1       3.098  -1.736  -4.494  0.00  0.00     0.026 H 
ENDBRANCH   1  68
TORSDOF 3
ENDMDL
MODEL 8
REMARK VINA RESULT:      -7.7      7.632     10.711
REMARK  3 active torsions:
REMARK  status: ('A' for Active; 'I' for Inactive)
REMARK    1  A    between atoms: C_1  and  C_2 
REMARK    2  A    between atoms: C_18  and  O_23 
REMARK    3  A    between atoms: C_24  and  C_30 
ROOT
ATOM      1  C   LIG d   1       5.260   1.040  -2.996  0.00  0.00     0.101 C 
ATOM      2  H   LIG d   1       4.853   2.012  -2.721  0.00  0.00     0.073 H 
ATOM      3  C   LIG d   1       4.687   0.594  -4.346  0.00  0.00    -0.015 C 
ATOM      4  C   LIG d   1       3.164   0.683  -4.345  0.00  0.00    -0.043 C 
ATOM      5  C   LIG d   1       2.636  -0.017  -5.600  0.00  0.00     0.006 C 
ATOM      6  C   LIG d   1       3.114   0.712  -6.830  0.00  0.00     0.133 C 
ATOM      7  O   LIG d   1       2.635   1.785  -7.107  0.00  0.00    -0.297 OA
ATOM      8  C   LIG d   1       4.179   0.123  -7.717  0.00  0.00     0.006 C 
ATOM      9  C   LIG d   1       4.664   1.180  -8.715  0.00  0.00    -0.043 C 
ATOM     10  C   LIG d   1       5.991   0.742  -9.339  0.00  0.00    -0.034 C 
ATOM     11  C   LIG d   1       7.136   1.333  -8.552  0.00  0.00    -0.083 C 
ATOM     12  C   LIG d   1       7.197   1.179  -7.239  0.00  0.00    -0.058 C 
ATOM     13  C   LIG d   1       8.294   1.757  -6.435  0.00  0.00    -0.004 A 
ATOM     14  C   LIG d   1       9.378   2.376  -7.031  0.00  0.00    -0.011 A 
ATOM     15  C   LIG d   1      10.389   2.932  -6.252  0.00  0.00     0.140 A 
ATOM     16  C   LIG d   1      10.313   2.861  -4.866  0.00  0.00     0.045 A 
ATOM     17  C   LIG d   1       9.245   2.221  -4.246  0.00  0.00     0.139 A 
ATOM     18  C   LIG d   1       8.228   1.655  -5.025  0.00  0.00     0.108 A 
ATOM     19  C   LIG d   1       7.098   0.940  -4.431  0.00  0.00     0.344 C 
ATOM     20  O   LIG d   1       6.497   0.136  -5.116  0.00  0.00    -0.245 OA
ATOM     21  O   LIG d   1       6.692   1.132  -3.163  0.00  0.00    -0.458 OA
ATOM     22  C   LIG d   1      11.402   3.482  -4.035  0.00  0.00     0.031 C 
ATOM     23  H   LIG d   1      11.409   3.032  -3.043  0.00  0.00     0.041 H 
ATOM     24  C   LIG d   1      12.740   3.222  -4.728  0.00  0.00     0.057 C 
ATOM     25  C   LIG d   1      12.641   3.501  -6.202  0.00  0.00     0.313 C 
ATOM     26  O   LIG d   1      13.650   3.707  -6.832  0.00  0.00    -0.250 OA
ATOM     27  O   LIG d   1      11.459   3.527  -6.835  0.00  0.00    -0.425 OA
ATOM     28  H   LIG d   1       5.084   1.237  -5.132  0.00  0.00     0.030 H 
ATOM     29  H   LIG d   1       4.987  -0.436  -4.540  0.00  0.00     0.030 H 
ATOM     30  H   LIG d   1       2.769   0.190  -3.457  0.00  0.00     0.027 H 
ATOM     31  H   LIG d   1       2.858   1.729  -4.352  0.00  0.00     0.027 H 
ATOM     32  H   LIG d   1       2.999  -1.043  -5.623  0.00  0.00     0.034 H 
ATOM     33  H   LIG d   1       1.545  -0.020  -5.582  0.00  0.00     0.034 H 
ATOM     34  H   LIG d   1       5.019  -0.208  -7.106  0.00  0.00     0.034 H 
ATOM     35  H   LIG d   1       3.770  -0.727  -8.261  0.00  0.00     0.034 H 
ATOM     36  H   LIG d   1       3.917   1.304  -9.500  0.00  0.00     0.027 H 
ATOM     37  H   LIG d   1       4.803   2.129  -8.198  0.00  0.00     0.027 H 
ATOM     38  H   LIG d   1       6.061  -0.345  -9.320  0.00  0.00     0.031 H 
ATOM     39  H   LIG d   1       6.041   1.092 -10.370  0.00  0.00     0.031 H 
ATOM     40  H   LIG d   1       7.914   1.871  -9.085  0.00  0.00     0.057 H 
ATOM     41  H   LIG d   1       6.439   0.588  -6.729  0.00  0.00     0.062 H 
ATOM     42  H   LIG d   1       9.440   2.429  -8.108  0.00  0.00     0.066 H 
ATOM     43  H   LIG d   1      13.502   3.868  -4.291  0.00  0.00     0.039 H 
ATOM     44  H   LIG d   1      13.026   2.181  -4.578  0.00  0.00     0.039 H 
ENDROOT
BRANCH  22  45
ATOM     45  C   LIG d   1      11.168   4.966  -3.918  0.00  0.00     0.026 A 
ATOM     46  C   LIG d   1      10.562   5.479  -2.750  0.00  0.00     0.256 A 
ATOM     47  N   LIG d   1      10.338   6.802  -2.599  0.00  0.00    -0.307 N 
ATOM     48  O   LIG d   1      10.239   4.714  -1.859  0.00  0.00    -0.267 OA
ATOM     49  C   LIG d   1      10.698   7.651  -3.605  0.00  0.00     0.055 A 
ATOM     50  C   LIG d   1       9.743   7.596  -1.514  0.00  0.00     0.031 A 
ATOM     51  C   LIG d   1      11.296   7.215  -4.790  0.00  0.00    -0.001 A 
ATOM     52  C   LIG d   1      10.429   8.981  -3.367  0.00  0.00    -0.021 A 
ATOM     53  C   LIG d   1      11.540   5.779  -4.941  0.00  0.00    -0.044 A 
ATOM     54  C   LIG d   1      11.627   8.163  -5.763  0.00  0.00    -0.053 A 
ATOM     55  H   LIG d   1      12.000   5.380  -5.834  0.00  0.00     0.063 H 
ATOM     56  C   LIG d   1      11.355   9.484  -5.522  0.00  0.00    -0.061 A 
ATOM     57  H   LIG d   1      12.091   7.860  -6.690  0.00  0.00     0.062 H 
ATOM     58  C   LIG d   1      10.760   9.902  -4.335  0.00  0.00    -0.057 A 
ATOM     59  H   LIG d   1      11.610  10.219  -6.271  0.00  0.00     0.062 H 
ATOM     60  H   LIG d   1      10.558  10.951  -4.173  0.00  0.00     0.062 H 
ATOM     61  C   LIG d   1       9.792   9.060  -2.001  0.00  0.00    -0.008 A 
ATOM     62  H   LIG d   1      10.403   9.665  -1.330  0.00  0.00     0.033 H 
ATOM     63  H   LIG d   1       8.784   9.470  -2.073  0.00  0.00     0.033 H 
ATOM     64  H   LIG d   1       8.712   7.288  -1.343  0.00  0.00     0.050 H 
ATOM     65  H   LIG d   1      10.327   7.483  -0.601  0.00  0.00     0.050 H 
ENDBRANCH  22  45
BRANCH  17  66
ATOM     66  O   LIG d   1       9.189   2.145  -2.894  0.00  0.00    -0.505 OA
ATOM     67  H   LIG d   1       9.455   2.958  -2.443  0.00  0.00     0.292 HD
ENDBRANCH  17  66
BRANCH   1  68
ATOM     68  C   LIG d   1       4.924   0.008  -1.918  0.00  0.00    -0.028 C 
ATOM     69  H   LIG d   1       5.725  -0.022  -1.179  0.00  0.00     0.026 H 
ATOM     70  H   LIG d   1       3.989   0.284  -1.428  0.00  0.00     0.026 H 
ATOM     71  H   LIG d   1       4.817  -0.975  -2.377  0.00  0.00     0.026 H 
ENDBRANCH   1  68
TORSDOF 3
ENDMDL
MODEL 9
REMARK VINA RESULT:      -7.6      5.623     12.547
REMARK  3 active torsions:
REMARK  status: ('A' for Active; 'I' for Inactive)
REMARK    1  A    between atoms: C_1  and  C_2 
REMARK    2  A    between atoms: C_18  and  O_23 
REMARK    3  A    between atoms: C_24  and  C_30 
ROOT
ATOM      1  C   LIG d   1       8.793   6.007  -9.062  0.00  0.00     0.101 C 
ATOM      2  H   LIG d   1       7.757   5.981  -8.723  0.00  0.00     0.073 H 
ATOM      3  C   LIG d   1       9.566   7.087  -8.297  0.00  0.00    -0.015 C 
ATOM      4  C   LIG d   1       8.831   8.423  -8.352  0.00  0.00    -0.043 C 
ATOM      5  C   LIG d   1       9.762   9.512  -7.812  0.00  0.00     0.006 C 
ATOM      6  C   LIG d   1      10.073   9.245  -6.362  0.00  0.00     0.133 C 
ATOM      7  O   LIG d   1       9.218   9.426  -5.528  0.00  0.00    -0.297 OA
ATOM      8  C   LIG d   1      11.432   8.757  -5.935  0.00  0.00     0.006 C 
ATOM      9  C   LIG d   1      11.385   8.308  -4.471  0.00  0.00    -0.043 C 
ATOM     10  C   LIG d   1      12.613   7.454  -4.145  0.00  0.00    -0.034 C 
ATOM     11  C   LIG d   1      12.275   5.994  -4.334  0.00  0.00    -0.083 C 
ATOM     12  C   LIG d   1      11.736   5.573  -5.466  0.00  0.00    -0.058 C 
ATOM     13  C   LIG d   1      11.378   4.155  -5.680  0.00  0.00    -0.004 A 
ATOM     14  C   LIG d   1      11.708   3.179  -4.757  0.00  0.00    -0.011 A 
ATOM     15  C   LIG d   1      11.341   1.853  -4.971  0.00  0.00     0.140 A 
ATOM     16  C   LIG d   1      10.643   1.505  -6.121  0.00  0.00     0.045 A 
ATOM     17  C   LIG d   1      10.323   2.465  -7.074  0.00  0.00     0.139 A 
ATOM     18  C   LIG d   1      10.695   3.799  -6.868  0.00  0.00     0.108 A 
ATOM     19  C   LIG d   1      10.416   4.847  -7.851  0.00  0.00     0.344 C 
ATOM     20  O   LIG d   1      11.097   5.854  -7.832  0.00  0.00    -0.245 OA
ATOM     21  O   LIG d   1       9.441   4.749  -8.772  0.00  0.00    -0.458 OA
ATOM     22  C   LIG d   1      10.236   0.072  -6.331  0.00  0.00     0.031 C 
ATOM     23  H   LIG d   1      10.057  -0.107  -7.390  0.00  0.00     0.041 H 
ATOM     24  C   LIG d   1      11.374  -0.825  -5.842  0.00  0.00     0.057 C 
ATOM     25  C   LIG d   1      11.887  -0.357  -4.509  0.00  0.00     0.313 C 
ATOM     26  O   LIG d   1      12.505  -1.126  -3.812  0.00  0.00    -0.250 OA
ATOM     27  O   LIG d   1      11.676   0.893  -4.073  0.00  0.00    -0.425 OA
ATOM     28  H   LIG d   1       9.676   6.780  -7.257  0.00  0.00     0.030 H 
ATOM     29  H   LIG d   1      10.555   7.202  -8.741  0.00  0.00     0.030 H 
ATOM     30  H   LIG d   1       8.561   8.650  -9.383  0.00  0.00     0.027 H 
ATOM     31  H   LIG d   1       7.932   8.371  -7.738  0.00  0.00     0.027 H 
ATOM     32  H   LIG d   1      10.688   9.515  -8.386  0.00  0.00     0.034 H 
ATOM     33  H   LIG d   1       9.276  10.484  -7.905  0.00  0.00     0.034 H 
ATOM     34  H   LIG d   1      11.729   7.915  -6.562  0.00  0.00     0.034 H 
ATOM     35  H   LIG d   1      12.158   9.562  -6.043  0.00  0.00     0.034 H 
ATOM     36  H   LIG d   1      11.372   9.186  -3.825  0.00  0.00     0.027 H 
ATOM     37  H   LIG d   1      10.482   7.723  -4.302  0.00  0.00     0.027 H 
ATOM     38  H   LIG d   1      13.432   7.726  -4.809  0.00  0.00     0.031 H 
ATOM     39  H   LIG d   1      12.911   7.626  -3.110  0.00  0.00     0.031 H 
ATOM     40  H   LIG d   1      12.497   5.298  -3.531  0.00  0.00     0.057 H 
ATOM     41  H   LIG d   1      11.573   6.275  -6.281  0.00  0.00     0.062 H 
ATOM     42  H   LIG d   1      12.253   3.448  -3.864  0.00  0.00     0.066 H 
ATOM     43  H   LIG d   1      11.008  -1.848  -5.746  0.00  0.00     0.039 H 
ATOM     44  H   LIG d   1      12.186  -0.803  -6.568  0.00  0.00     0.039 H 
ENDROOT
BRANCH  22  45
ATOM     45  C   LIG d   1       8.983  -0.220  -5.547  0.00  0.00     0.026 A 
ATOM     46  C   LIG d   1       8.433  -1.521  -5.584  0.00  0.00     0.256 A 
ATOM     47  N   LIG d   1       7.315  -1.830  -4.893  0.00  0.00    -0.307 N 
ATOM     48  O   LIG d   1       8.982  -2.382  -6.249  0.00  0.00    -0.267 OA
ATOM     49  C   LIG d   1       6.705  -0.857  -4.156  0.00  0.00     0.055 A 
ATOM     50  C   LIG d   1       6.544  -3.073  -4.749  0.00  0.00     0.031 A 
ATOM     51  C   LIG d   1       7.188   0.452  -4.077  0.00  0.00    -0.001 A 
ATOM     52  C   LIG d   1       5.569  -1.261  -3.489  0.00  0.00    -0.021 A 
ATOM     53  C   LIG d   1       8.404   0.775  -4.825  0.00  0.00    -0.044 A 
ATOM     54  C   LIG d   1       6.490   1.377  -3.295  0.00  0.00    -0.053 A 
ATOM     55  H   LIG d   1       8.827   1.769  -4.803  0.00  0.00     0.063 H 
ATOM     56  C   LIG d   1       5.361   0.972  -2.635  0.00  0.00    -0.061 A 
ATOM     57  H   LIG d   1       6.836   2.397  -3.212  0.00  0.00     0.062 H 
ATOM     58  C   LIG d   1       4.893  -0.337  -2.724  0.00  0.00    -0.057 A 
ATOM     59  H   LIG d   1       4.819   1.684  -2.031  0.00  0.00     0.062 H 
ATOM     60  H   LIG d   1       3.999  -0.628  -2.191  0.00  0.00     0.062 H 
ATOM     61  C   LIG d   1       5.368  -2.721  -3.812  0.00  0.00    -0.008 A 
ATOM     62  H   LIG d   1       5.412  -3.322  -2.903  0.00  0.00     0.033 H 
ATOM     63  H   LIG d   1       4.417  -2.871  -4.323  0.00  0.00     0.033 H 
ATOM     64  H   LIG d   1       6.169  -3.400  -5.719  0.00  0.00     0.050 H 
ATOM     65  H   LIG d   1       7.162  -3.851  -4.301  0.00  0.00     0.050 H 
ENDBRANCH  22  45
BRANCH  17  66
ATOM     66  O   LIG d   1       9.656   2.111  -8.199  0.00  0.00    -0.505 OA
ATOM     67  H   LIG d   1       9.774   1.185  -8.452  0.00  0.00     0.292 HD
ENDBRANCH  17  66
BRANCH   1  68
ATOM     68  C   LIG d   1       8.846   6.290 -10.564  0.00  0.00    -0.028 C 
ATOM     69  H   LIG d   1       9.798   5.945 -10.966  0.00  0.00     0.026 H 
ATOM     70  H   LIG d   1       8.030   5.765 -11.062  0.00  0.00     0.026 H 
ATOM     71  H   LIG d   1       8.745   7.362 -10.736  0.00  0.00     0.026 H 
ENDBRANCH   1  68
TORSDOF 3
ENDMDL
MODEL 10
REMARK VINA RESULT:      -7.5      6.268     10.292
REMARK  3 active torsions:
REMARK  status: ('A' for Active; 'I' for Inactive)
REMARK    1  A    between atoms: C_1  and  C_2 
REMARK    2  A    between atoms: C_18  and  O_23 
REMARK    3  A    between atoms: C_24  and  C_30 
ROOT
ATOM      1  C   LIG d   1       2.367   0.092  -7.993  0.00  0.00     0.101 C 
ATOM      2  H   LIG d   1       1.323   0.083  -7.679  0.00  0.00     0.073 H 
ATOM      3  C   LIG d   1       3.263  -0.372  -6.840  0.00  0.00    -0.015 C 
ATOM      4  C   LIG d   1       2.962   0.415  -5.568  0.00  0.00    -0.043 C 
ATOM      5  C   LIG d   1       4.051   0.106  -4.536  0.00  0.00     0.006 C 
ATOM      6  C   LIG d   1       4.004  -1.354  -4.166  0.00  0.00     0.133 C 
ATOM      7  O   LIG d   1       3.100  -1.764  -3.479  0.00  0.00    -0.297 OA
ATOM      8  C   LIG d   1       5.068  -2.310  -4.640  0.00  0.00     0.006 C 
ATOM      9  C   LIG d   1       4.630  -3.751  -4.360  0.00  0.00    -0.043 C 
ATOM     10  C   LIG d   1       5.484  -4.726  -5.175  0.00  0.00    -0.034 C 
ATOM     11  C   LIG d   1       4.784  -5.041  -6.476  0.00  0.00    -0.083 C 
ATOM     12  C   LIG d   1       4.362  -4.064  -7.262  0.00  0.00    -0.058 C 
ATOM     13  C   LIG d   1       3.660  -4.334  -8.535  0.00  0.00    -0.004 A 
ATOM     14  C   LIG d   1       3.525  -5.619  -9.027  0.00  0.00    -0.011 A 
ATOM     15  C   LIG d   1       2.841  -5.851 -10.217  0.00  0.00     0.140 A 
ATOM     16  C   LIG d   1       2.293  -4.784 -10.919  0.00  0.00     0.045 A 
ATOM     17  C   LIG d   1       2.438  -3.482 -10.456  0.00  0.00     0.139 A 
ATOM     18  C   LIG d   1       3.130  -3.241  -9.263  0.00  0.00     0.108 A 
ATOM     19  C   LIG d   1       3.344  -1.890  -8.744  0.00  0.00     0.344 C 
ATOM     20  O   LIG d   1       4.269  -1.704  -7.977  0.00  0.00    -0.245 OA
ATOM     21  O   LIG d   1       2.565  -0.845  -9.075  0.00  0.00    -0.458 OA
ATOM     22  C   LIG d   1       1.540  -5.050 -12.193  0.00  0.00     0.031 C 
ATOM     23  H   LIG d   1       1.512  -4.145 -12.799  0.00  0.00     0.041 H 
ATOM     24  C   LIG d   1       2.266  -6.158 -12.957  0.00  0.00     0.057 C 
ATOM     25  C   LIG d   1       2.642  -7.284 -12.034  0.00  0.00     0.313 C 
ATOM     26  O   LIG d   1       2.878  -8.373 -12.499  0.00  0.00    -0.250 OA
ATOM     27  O   LIG d   1       2.720  -7.110 -10.707  0.00  0.00    -0.425 OA
ATOM     28  H   LIG d   1       3.090  -1.433  -6.656  0.00  0.00     0.030 H 
ATOM     29  H   LIG d   1       4.308  -0.223  -7.115  0.00  0.00     0.030 H 
ATOM     30  H   LIG d   1       2.959   1.482  -5.790  0.00  0.00     0.027 H 
ATOM     31  H   LIG d   1       1.990   0.117  -5.175  0.00  0.00     0.027 H 
ATOM     32  H   LIG d   1       5.027   0.343  -4.958  0.00  0.00     0.034 H 
ATOM     33  H   LIG d   1       3.886   0.711  -3.643  0.00  0.00     0.034 H 
ATOM     34  H   LIG d   1       5.220  -2.181  -5.712  0.00  0.00     0.034 H 
ATOM     35  H   LIG d   1       6.000  -2.106  -4.115  0.00  0.00     0.034 H 
ATOM     36  H   LIG d   1       4.751  -3.964  -3.298  0.00  0.00     0.027 H 
ATOM     37  H   LIG d   1       3.582  -3.871  -4.634  0.00  0.00     0.027 H 
ATOM     38  H   LIG d   1       6.453  -4.274  -5.384  0.00  0.00     0.031 H 
ATOM     39  H   LIG d   1       5.626  -5.646  -4.609  0.00  0.00     0.031 H 
ATOM     40  H   LIG d   1       4.649  -6.079  -6.759  0.00  0.00     0.057 H 
ATOM     41  H   LIG d   1       4.556  -3.028  -6.990  0.00  0.00     0.062 H 
ATOM     42  H   LIG d   1       3.953  -6.449  -8.483  0.00  0.00     0.066 H 
ATOM     43  H   LIG d   1       1.613  -6.540 -13.742  0.00  0.00     0.039 H 
ATOM     44  H   LIG d   1       3.169  -5.749 -13.411  0.00  0.00     0.039 H 
ENDROOT
BRANCH  22  45
ATOM     45  C   LIG d   1       0.135  -5.490 -11.871  0.00  0.00     0.026 A 
ATOM     46  C   LIG d   1      -0.917  -4.550 -11.946  0.00  0.00     0.256 A 
ATOM     47  N   LIG d   1      -2.191  -4.900 -11.671  0.00  0.00    -0.307 N 
ATOM     48  O   LIG d   1      -0.669  -3.401 -12.269  0.00  0.00    -0.267 OA
ATOM     49  C   LIG d   1      -2.458  -6.187 -11.305  0.00  0.00     0.055 A 
ATOM     50  C   LIG d   1      -3.455  -4.147 -11.674  0.00  0.00     0.031 A 
ATOM     51  C   LIG d   1      -1.469  -7.169 -11.205  0.00  0.00    -0.001 A 
ATOM     52  C   LIG d   1      -3.783  -6.452 -11.040  0.00  0.00    -0.021 A 
ATOM     53  C   LIG d   1      -0.091  -6.780 -11.510  0.00  0.00    -0.044 A 
ATOM     54  C   LIG d   1      -1.842  -8.460 -10.820  0.00  0.00    -0.053 A 
ATOM     55  H   LIG d   1       0.718  -7.494 -11.451  0.00  0.00     0.063 H 
ATOM     56  C   LIG d   1      -3.161  -8.718 -10.555  0.00  0.00    -0.061 A 
ATOM     57  H   LIG d   1      -1.103  -9.242 -10.732  0.00  0.00     0.062 H 
ATOM     58  C   LIG d   1      -4.135  -7.729 -10.661  0.00  0.00    -0.057 A 
ATOM     59  H   LIG d   1      -3.453  -9.714 -10.258  0.00  0.00     0.062 H 
ATOM     60  H   LIG d   1      -5.168  -7.963 -10.447  0.00  0.00     0.062 H 
ATOM     61  C   LIG d   1      -4.539  -5.164 -11.255  0.00  0.00    -0.008 A 
ATOM     62  H   LIG d   1      -5.277  -5.282 -12.049  0.00  0.00     0.033 H 
ATOM     63  H   LIG d   1      -5.021  -4.845 -10.330  0.00  0.00     0.033 H 
ATOM     64  H   LIG d   1      -3.407  -3.328 -10.956  0.00  0.00     0.050 H 
ATOM     65  H   LIG d   1      -3.664  -3.764 -12.672  0.00  0.00     0.050 H 
ENDBRANCH  22  45
BRANCH  17  66
ATOM     66  O   LIG d   1       1.912  -2.448 -11.158  0.00  0.00    -0.505 OA
ATOM     67  H   LIG d   1       1.039  -2.167 -10.850  0.00  0.00     0.292 HD
ENDBRANCH  17  66
BRANCH   1  68
ATOM     68  C   LIG d   1       2.769   1.499  -8.437  0.00  0.00    -0.028 C 
ATOM     69  H   LIG d   1       3.620   1.838  -7.846  0.00  0.00     0.026 H 
ATOM     70  H   LIG d   1       3.043   1.483  -9.492  0.00  0.00     0.026 H 
ATOM     71  H   LIG d   1       1.930   2.179  -8.289  0.00  0.00     0.026 H 
ENDBRANCH   1  68
TORSDOF 3
ENDMDL
