MODEL 1
REMARK VINA RESULT:      -6.8      0.000      0.000
REMARK  12 active torsions:
REMARK  status: ('A' for Active; 'I' for Inactive)
REMARK    1  A    between atoms: C_1  and  C_2 
REMARK    2  A    between atoms: C_5  and  O_35 
REMARK    3  A    between atoms: C_7  and  C_32 
REMARK    4  A    between atoms: C_7  and  C_33 
REMARK    5  A    between atoms: C_14  and  N_16 
REMARK       I    between atoms: N_16  and  C_17 
REMARK    6  A    between atoms: C_17  and  O_19 
REMARK    7  A    between atoms: O_19  and  C_20 
REMARK    8  A    between atoms: C_20  and  C_21 
REMARK    9  A    between atoms: C_23  and  C_25 
REMARK   10  A    between atoms: C_25  and  C_26 
REMARK       I    between atoms: C_26  and  N_28 
REMARK   11  A    between atoms: N_28  and  C_29 
REMARK   12  A    between atoms: C_33  and  O_34 
ROOT
ATOM      1  C   LIG d   1       3.432  -0.295  -8.676  0.00  0.00    -0.019 C 
ATOM      2  C   LIG d   1       1.959  -0.670  -8.877  0.00  0.00    -0.044 C 
ATOM      3  C   LIG d   1       1.602  -0.646 -10.361  0.00  0.00    -0.026 C 
ATOM      4  C   LIG d   1       2.475  -1.668 -11.096  0.00  0.00     0.063 C 
ATOM      5  H   LIG d   1       2.317  -2.658 -10.668  0.00  0.00     0.060 H 
ATOM      6  C   LIG d   1       3.940  -1.266 -10.936  0.00  0.00     0.021 C 
ATOM      7  C   LIG d   1       4.332  -1.257  -9.455  0.00  0.00    -0.021 C 
ATOM      8  H   LIG d   1       4.256  -2.259  -9.034  0.00  0.00     0.032 H 
ATOM      9  C   LIG d   1       5.787  -0.757  -9.372  0.00  0.00    -0.016 C 
ATOM     10  C   LIG d   1       6.099  -0.399  -7.961  0.00  0.00     0.015 A 
ATOM     11  C   LIG d   1       5.222  -0.222  -6.938  0.00  0.00     0.058 A 
ATOM     12  N   LIG d   1       5.757   0.097  -5.761  0.00  0.00    -0.229 NA
ATOM     13  C   LIG d   1       7.061   0.234  -5.596  0.00  0.00     0.167 A 
ATOM     14  S   LIG d   1       7.667  -0.103  -7.190  0.00  0.00    -0.057 SA
ATOM     15  C   LIG d   1       3.729  -0.389  -7.173  0.00  0.00     0.016 C 
ATOM     16  H   LIG d   1       3.410  -1.363  -6.801  0.00  0.00     0.037 H 
ATOM     17  H   LIG d   1       1.786  -1.671  -8.480  0.00  0.00     0.027 H 
ATOM     18  H   LIG d   1       1.330   0.041  -8.342  0.00  0.00     0.027 H 
ATOM     19  H   LIG d   1       0.552  -0.905 -10.488  0.00  0.00     0.029 H 
ATOM     20  H   LIG d   1       1.786   0.350 -10.765  0.00  0.00     0.029 H 
ATOM     21  H   LIG d   1       6.463  -1.546  -9.705  0.00  0.00     0.032 H 
ATOM     22  H   LIG d   1       5.910   0.120 -10.006  0.00  0.00     0.032 H 
ENDROOT
BRANCH  15  23
ATOM     23  C   LIG d   1       2.969   0.713  -6.433  0.00  0.00     0.033 C 
ATOM     24  H   LIG d   1       3.450   1.674  -6.620  0.00  0.00     0.036 H 
ATOM     25  H   LIG d   1       1.939   0.746  -6.787  0.00  0.00     0.036 H 
BRANCH  23  26
ATOM     26  C   LIG d   1       2.982   0.425  -4.954  0.00  0.00     0.214 C 
ATOM     27  O   LIG d   1       2.968   1.339  -4.157  0.00  0.00    -0.276 OA
ATOM     28  N   LIG d   1       3.011  -0.850  -4.515  0.00  0.00    -0.312 N 
ATOM     29  H   LIG d   1       3.023  -1.582  -5.153  0.00  0.00     0.149 HD
BRANCH  28  30
ATOM     30  C   LIG d   1       3.024  -1.130  -3.078  0.00  0.00     0.023 A 
ATOM     31  C   LIG d   1       3.862  -2.316  -2.596  0.00  0.00    -0.033 A 
ATOM     32  C   LIG d   1       4.332  -0.886  -2.323  0.00  0.00    -0.033 A 
ATOM     33  H   LIG d   1       3.481  -2.891  -1.752  0.00  0.00     0.028 H 
ATOM     34  H   LIG d   1       4.403  -2.888  -3.350  0.00  0.00     0.028 H 
ATOM     35  H   LIG d   1       5.183  -0.518  -2.896  0.00  0.00     0.028 H 
ATOM     36  H   LIG d   1       4.261  -0.521  -1.298  0.00  0.00     0.028 H 
ATOM     37  H   LIG d   1       2.093  -0.925  -2.551  0.00  0.00     0.050 H 
ENDBRANCH  28  30
ENDBRANCH  23  26
ENDBRANCH  15  23
BRANCH   1  38
ATOM     38  C   LIG d   1       3.666   1.136  -9.164  0.00  0.00    -0.059 C 
ATOM     39  H   LIG d   1       4.612   1.186  -9.704  0.00  0.00     0.024 H 
ATOM     40  H   LIG d   1       2.854   1.432  -9.827  0.00  0.00     0.024 H 
ATOM     41  H   LIG d   1       3.701   1.811  -8.309  0.00  0.00     0.024 H 
ENDBRANCH   1  38
BRANCH   6  42
ATOM     42  C   LIG d   1       4.824  -2.263 -11.687  0.00  0.00    -0.055 C 
ATOM     43  H   LIG d   1       4.558  -3.278 -11.391  0.00  0.00     0.024 H 
ATOM     44  H   LIG d   1       4.673  -2.147 -12.759  0.00  0.00     0.024 H 
ATOM     45  H   LIG d   1       5.870  -2.076 -11.445  0.00  0.00     0.024 H 
ENDBRANCH   6  42
BRANCH   6  46
ATOM     46  C   LIG d   1       4.149   0.132 -11.524  0.00  0.00     0.052 C 
ATOM     47  H   LIG d   1       3.225   0.704 -11.437  0.00  0.00     0.056 H 
ATOM     48  H   LIG d   1       4.942   0.641 -10.977  0.00  0.00     0.056 H 
BRANCH  46  49
ATOM     49  O   LIG d   1       4.513   0.020 -12.900  0.00  0.00    -0.394 OA
ATOM     50  H   LIG d   1       5.467   0.042 -13.058  0.00  0.00     0.209 HD
ENDBRANCH  46  49
ENDBRANCH   6  46
BRANCH  13  51
ATOM     51  N   LIG d   1       7.766   0.561  -4.445  0.00  0.00    -0.230 N 
ATOM     52  C   LIG d   1       8.183   1.827  -4.246  0.00  0.00     0.406 C 
ATOM     53  O   LIG d   1       7.942   2.683  -5.074  0.00  0.00    -0.226 OA
ATOM     54  H   LIG d   1       7.959  -0.122  -3.783  0.00  0.00     0.160 HD
BRANCH  52  55
ATOM     55  O   LIG d   1       8.866   2.144  -3.130  0.00  0.00    -0.446 OA
BRANCH  55  56
ATOM     56  C   LIG d   1      10.236   2.594  -3.301  0.00  0.00     0.112 C 
ATOM     57  H   LIG d   1      10.918   1.853  -2.883  0.00  0.00     0.074 H 
ATOM     58  H   LIG d   1      10.447   2.724  -4.362  0.00  0.00     0.074 H 
BRANCH  56  59
ATOM     59  C   LIG d   1      10.425   3.908  -2.588  0.00  0.00    -0.054 C 
ATOM     60  C   LIG d   1       9.891   5.001  -3.077  0.00  0.00    -0.100 C 
ATOM     61  H   LIG d   1      10.025   5.943  -2.566  0.00  0.00     0.053 H 
ATOM     62  H   LIG d   1       9.315   4.959  -3.989  0.00  0.00     0.053 H 
ATOM     63  H   LIG d   1      11.001   3.950  -1.675  0.00  0.00     0.060 H 
ENDBRANCH  56  59
ENDBRANCH  55  56
ENDBRANCH  52  55
ENDBRANCH  13  51
BRANCH   4  64
ATOM     64  O   LIG d   1       2.132  -1.683 -12.482  0.00  0.00    -0.391 OA
ATOM     65  H   LIG d   1       1.352  -2.218 -12.688  0.00  0.00     0.210 HD
ENDBRANCH   4  64
TORSDOF 12
ENDMDL
MODEL 2
REMARK VINA RESULT:      -6.4      3.955      7.509
REMARK  12 active torsions:
REMARK  status: ('A' for Active; 'I' for Inactive)
REMARK    1  A    between atoms: C_1  and  C_2 
REMARK    2  A    between atoms: C_5  and  O_35 
REMARK    3  A    between atoms: C_7  and  C_32 
REMARK    4  A    between atoms: C_7  and  C_33 
REMARK    5  A    between atoms: C_14  and  N_16 
REMARK       I    between atoms: N_16  and  C_17 
REMARK    6  A    between atoms: C_17  and  O_19 
REMARK    7  A    between atoms: O_19  and  C_20 
REMARK    8  A    between atoms: C_20  and  C_21 
REMARK    9  A    between atoms: C_23  and  C_25 
REMARK   10  A    between atoms: C_25  and  C_26 
REMARK       I    between atoms: C_26  and  N_28 
REMARK   11  A    between atoms: N_28  and  C_29 
REMARK   12  A    between atoms: C_33  and  O_34 
ROOT
ATOM      1  C   LIG d   1       8.727  -2.924  -4.614  0.00  0.00    -0.019 C 
ATOM      2  C   LIG d   1       8.532  -3.752  -3.339  0.00  0.00    -0.044 C 
ATOM      3  C   LIG d   1       9.655  -4.776  -3.193  0.00  0.00    -0.026 C 
ATOM      4  C   LIG d   1      10.991  -4.032  -3.096  0.00  0.00     0.063 C 
ATOM      5  H   LIG d   1      10.968  -3.348  -2.248  0.00  0.00     0.060 H 
ATOM      6  C   LIG d   1      11.208  -3.245  -4.387  0.00  0.00     0.021 C 
ATOM      7  C   LIG d   1      10.086  -2.220  -4.582  0.00  0.00    -0.021 C 
ATOM      8  H   LIG d   1      10.102  -1.480  -3.783  0.00  0.00     0.032 H 
ATOM      9  C   LIG d   1      10.326  -1.535  -5.941  0.00  0.00    -0.016 C 
ATOM     10  C   LIG d   1       9.097  -0.795  -6.337  0.00  0.00     0.015 A 
ATOM     11  C   LIG d   1       7.852  -0.912  -5.804  0.00  0.00     0.058 A 
ATOM     12  N   LIG d   1       6.915  -0.132  -6.338  0.00  0.00    -0.229 NA
ATOM     13  C   LIG d   1       7.177   0.705  -7.327  0.00  0.00     0.167 A 
ATOM     14  S   LIG d   1       8.874   0.440  -7.589  0.00  0.00    -0.057 SA
ATOM     15  C   LIG d   1       7.595  -1.889  -4.668  0.00  0.00     0.016 C 
ATOM     16  H   LIG d   1       7.556  -1.345  -3.723  0.00  0.00     0.037 H 
ATOM     17  H   LIG d   1       8.534  -3.088  -2.475  0.00  0.00     0.027 H 
ATOM     18  H   LIG d   1       7.575  -4.271  -3.390  0.00  0.00     0.027 H 
ATOM     19  H   LIG d   1       9.498  -5.363  -2.288  0.00  0.00     0.029 H 
ATOM     20  H   LIG d   1       9.665  -5.435  -4.061  0.00  0.00     0.029 H 
ATOM     21  H   LIG d   1      11.159  -0.837  -5.855  0.00  0.00     0.032 H 
ATOM     22  H   LIG d   1      10.557  -2.287  -6.695  0.00  0.00     0.032 H 
ENDROOT
BRANCH  15  23
ATOM     23  C   LIG d   1       6.263  -2.603  -4.900  0.00  0.00     0.033 C 
ATOM     24  H   LIG d   1       5.877  -2.341  -5.886  0.00  0.00     0.036 H 
ATOM     25  H   LIG d   1       6.412  -3.681  -4.843  0.00  0.00     0.036 H 
BRANCH  23  26
ATOM     26  C   LIG d   1       5.275  -2.177  -3.845  0.00  0.00     0.214 C 
ATOM     27  O   LIG d   1       4.351  -2.905  -3.549  0.00  0.00    -0.276 OA
ATOM     28  N   LIG d   1       5.417  -0.986  -3.229  0.00  0.00    -0.312 N 
ATOM     29  H   LIG d   1       6.157  -0.403  -3.466  0.00  0.00     0.149 HD
BRANCH  28  30
ATOM     30  C   LIG d   1       4.457  -0.571  -2.204  0.00  0.00     0.023 A 
ATOM     31  C   LIG d   1       4.569   0.858  -1.667  0.00  0.00    -0.033 A 
ATOM     32  C   LIG d   1       3.414   0.478  -2.597  0.00  0.00    -0.033 A 
ATOM     33  H   LIG d   1       4.336   1.019  -0.615  0.00  0.00     0.028 H 
ATOM     34  H   LIG d   1       5.358   1.488  -2.077  0.00  0.00     0.028 H 
ATOM     35  H   LIG d   1       3.443   0.860  -3.617  0.00  0.00     0.028 H 
ATOM     36  H   LIG d   1       2.421   0.390  -2.155  0.00  0.00     0.028 H 
ATOM     37  H   LIG d   1       4.150  -1.349  -1.505  0.00  0.00     0.050 H 
ENDBRANCH  28  30
ENDBRANCH  23  26
ENDBRANCH  15  23
BRANCH   1  38
ATOM     38  C   LIG d   1       8.653  -3.841  -5.837  0.00  0.00    -0.059 C 
ATOM     39  H   LIG d   1       8.321  -4.832  -5.528  0.00  0.00     0.024 H 
ATOM     40  H   LIG d   1       7.946  -3.430  -6.558  0.00  0.00     0.024 H 
ATOM     41  H   LIG d   1       9.639  -3.914  -6.296  0.00  0.00     0.024 H 
ENDBRANCH   1  38
BRANCH   6  42
ATOM     42  C   LIG d   1      12.551  -2.517  -4.317  0.00  0.00    -0.055 C 
ATOM     43  H   LIG d   1      12.587  -1.907  -3.415  0.00  0.00     0.024 H 
ATOM     44  H   LIG d   1      13.360  -3.247  -4.293  0.00  0.00     0.024 H 
ATOM     45  H   LIG d   1      12.665  -1.878  -5.192  0.00  0.00     0.024 H 
ENDBRANCH   6  42
BRANCH   6  46
ATOM     46  C   LIG d   1      11.222  -4.212  -5.574  0.00  0.00     0.052 C 
ATOM     47  H   LIG d   1      10.572  -5.060  -5.359  0.00  0.00     0.056 H 
ATOM     48  H   LIG d   1      10.865  -3.698  -6.465  0.00  0.00     0.056 H 
BRANCH  46  49
ATOM     49  O   LIG d   1      12.555  -4.677  -5.793  0.00  0.00    -0.394 OA
ATOM     50  H   LIG d   1      13.116  -4.053  -6.273  0.00  0.00     0.209 HD
ENDBRANCH  46  49
ENDBRANCH   6  46
BRANCH  13  51
ATOM     51  N   LIG d   1       6.317   1.576  -7.985  0.00  0.00    -0.230 N 
ATOM     52  C   LIG d   1       5.872   1.277  -9.222  0.00  0.00     0.406 C 
ATOM     53  O   LIG d   1       6.223   0.246  -9.761  0.00  0.00    -0.226 OA
ATOM     54  H   LIG d   1       6.037   2.399  -7.555  0.00  0.00     0.160 HD
BRANCH  52  55
ATOM     55  O   LIG d   1       5.039   2.121  -9.860  0.00  0.00    -0.446 OA
BRANCH  55  56
ATOM     56  C   LIG d   1       3.798   1.563 -10.368  0.00  0.00     0.112 C 
ATOM     57  H   LIG d   1       3.358   2.252 -11.089  0.00  0.00     0.074 H 
ATOM     58  H   LIG d   1       4.001   0.609 -10.854  0.00  0.00     0.074 H 
BRANCH  56  59
ATOM     59  C   LIG d   1       2.839   1.350  -9.226  0.00  0.00    -0.054 C 
ATOM     60  C   LIG d   1       2.325   0.163  -9.014  0.00  0.00    -0.100 C 
ATOM     61  H   LIG d   1       1.639   0.010  -8.195  0.00  0.00     0.053 H 
ATOM     62  H   LIG d   1       2.591  -0.662  -9.658  0.00  0.00     0.053 H 
ATOM     63  H   LIG d   1       2.574   2.176  -8.582  0.00  0.00     0.060 H 
ENDBRANCH  56  59
ENDBRANCH  55  56
ENDBRANCH  52  55
ENDBRANCH  13  51
BRANCH   4  64
ATOM     64  O   LIG d   1      12.052  -4.974  -2.926  0.00  0.00    -0.391 OA
ATOM     65  H   LIG d   1      12.138  -5.309  -2.022  0.00  0.00     0.210 HD
ENDBRANCH   4  64
TORSDOF 12
ENDMDL
MODEL 3
REMARK VINA RESULT:      -6.2      5.314      8.861
REMARK  12 active torsions:
REMARK  status: ('A' for Active; 'I' for Inactive)
REMARK    1  A    between atoms: C_1  and  C_2 
REMARK    2  A    between atoms: C_5  and  O_35 
REMARK    3  A    between atoms: C_7  and  C_32 
REMARK    4  A    between atoms: C_7  and  C_33 
REMARK    5  A    between atoms: C_14  and  N_16 
REMARK       I    between atoms: N_16  and  C_17 
REMARK    6  A    between atoms: C_17  and  O_19 
REMARK    7  A    between atoms: O_19  and  C_20 
REMARK    8  A    between atoms: C_20  and  C_21 
REMARK    9  A    between atoms: C_23  and  C_25 
REMARK   10  A    between atoms: C_25  and  C_26 
REMARK       I    between atoms: C_26  and  N_28 
REMARK   11  A    between atoms: N_28  and  C_29 
REMARK   12  A    between atoms: C_33  and  O_34 
ROOT
ATOM      1  C   LIG d   1      10.763   5.172  -5.754  0.00  0.00    -0.019 C 
ATOM      2  C   LIG d   1      11.289   6.575  -5.432  0.00  0.00    -0.044 C 
ATOM      3  C   LIG d   1      12.110   7.117  -6.600  0.00  0.00    -0.026 C 
ATOM      4  C   LIG d   1      11.212   7.200  -7.838  0.00  0.00     0.063 C 
ATOM      5  H   LIG d   1      10.357   7.842  -7.627  0.00  0.00     0.060 H 
ATOM      6  C   LIG d   1      10.728   5.794  -8.187  0.00  0.00     0.021 C 
ATOM      7  C   LIG d   1       9.917   5.206  -7.029  0.00  0.00    -0.021 C 
ATOM      8  H   LIG d   1       9.014   5.792  -6.859  0.00  0.00     0.032 H 
ATOM      9  C   LIG d   1       9.544   3.763  -7.420  0.00  0.00    -0.016 C 
ATOM     10  C   LIG d   1       9.068   3.039  -6.210  0.00  0.00     0.015 A 
ATOM     11  C   LIG d   1       9.202   3.416  -4.912  0.00  0.00     0.058 A 
ATOM     12  N   LIG d   1       8.684   2.587  -4.008  0.00  0.00    -0.229 NA
ATOM     13  C   LIG d   1       8.076   1.465  -4.351  0.00  0.00     0.167 A 
ATOM     14  S   LIG d   1       8.194   1.501  -6.084  0.00  0.00    -0.057 SA
ATOM     15  C   LIG d   1       9.911   4.716  -4.563  0.00  0.00     0.016 C 
ATOM     16  H   LIG d   1       9.170   5.482  -4.333  0.00  0.00     0.037 H 
ATOM     17  H   LIG d   1      10.445   7.240  -5.245  0.00  0.00     0.027 H 
ATOM     18  H   LIG d   1      11.913   6.530  -4.541  0.00  0.00     0.027 H 
ATOM     19  H   LIG d   1      12.484   8.110  -6.353  0.00  0.00     0.029 H 
ATOM     20  H   LIG d   1      12.948   6.448  -6.798  0.00  0.00     0.029 H 
ATOM     21  H   LIG d   1       8.752   3.781  -8.169  0.00  0.00     0.032 H 
ATOM     22  H   LIG d   1      10.419   3.257  -7.827  0.00  0.00     0.032 H 
ENDROOT
BRANCH  15  23
ATOM     23  C   LIG d   1      10.811   4.496  -3.346  0.00  0.00     0.033 C 
ATOM     24  H   LIG d   1      10.754   3.452  -3.036  0.00  0.00     0.036 H 
ATOM     25  H   LIG d   1      11.840   4.742  -3.605  0.00  0.00     0.036 H 
BRANCH  23  26
ATOM     26  C   LIG d   1      10.352   5.381  -2.216  0.00  0.00     0.214 C 
ATOM     27  O   LIG d   1       9.476   6.199  -2.403  0.00  0.00    -0.276 OA
ATOM     28  N   LIG d   1      10.915   5.263  -0.997  0.00  0.00    -0.312 N 
ATOM     29  H   LIG d   1      11.616   4.609  -0.847  0.00  0.00     0.149 HD
BRANCH  28  30
ATOM     30  C   LIG d   1      10.469   6.123   0.102  0.00  0.00     0.023 A 
ATOM     31  C   LIG d   1      11.081   5.879   1.484  0.00  0.00    -0.033 A 
ATOM     32  C   LIG d   1      11.482   7.116   0.677  0.00  0.00    -0.033 A 
ATOM     33  H   LIG d   1      10.439   6.030   2.351  0.00  0.00     0.028 H 
ATOM     34  H   LIG d   1      11.814   5.078   1.574  0.00  0.00     0.028 H 
ATOM     35  H   LIG d   1      12.480   7.129   0.238  0.00  0.00     0.028 H 
ATOM     36  H   LIG d   1      11.104   8.081   1.015  0.00  0.00     0.028 H 
ATOM     37  H   LIG d   1       9.426   6.435   0.062  0.00  0.00     0.050 H 
ENDBRANCH  28  30
ENDBRANCH  23  26
ENDBRANCH  15  23
BRANCH   1  38
ATOM     38  C   LIG d   1      11.943   4.216  -5.947  0.00  0.00    -0.059 C 
ATOM     39  H   LIG d   1      12.071   3.611  -5.049  0.00  0.00     0.024 H 
ATOM     40  H   LIG d   1      11.747   3.565  -6.798  0.00  0.00     0.024 H 
ATOM     41  H   LIG d   1      12.850   4.791  -6.130  0.00  0.00     0.024 H 
ENDBRANCH   1  38
BRANCH   6  42
ATOM     42  C   LIG d   1       9.851   5.856  -9.439  0.00  0.00    -0.055 C 
ATOM     43  H   LIG d   1       9.630   6.897  -9.675  0.00  0.00     0.024 H 
ATOM     44  H   LIG d   1      10.379   5.399 -10.276  0.00  0.00     0.024 H 
ATOM     45  H   LIG d   1       8.921   5.319  -9.259  0.00  0.00     0.024 H 
ENDBRANCH   6  42
BRANCH   6  46
ATOM     46  C   LIG d   1      11.937   4.897  -8.466  0.00  0.00     0.052 C 
ATOM     47  H   LIG d   1      12.789   5.243  -7.880  0.00  0.00     0.056 H 
ATOM     48  H   LIG d   1      11.699   3.871  -8.188  0.00  0.00     0.056 H 
BRANCH  46  49
ATOM     49  O   LIG d   1      12.261   4.952  -9.856  0.00  0.00    -0.394 OA
ATOM     50  H   LIG d   1      12.158   4.109 -10.318  0.00  0.00     0.209 HD
ENDBRANCH  46  49
ENDBRANCH   6  46
BRANCH  13  51
ATOM     51  N   LIG d   1       7.491   0.505  -3.535  0.00  0.00    -0.230 N 
ATOM     52  C   LIG d   1       6.213   0.651  -3.131  0.00  0.00     0.406 C 
ATOM     53  O   LIG d   1       5.573   1.622  -3.482  0.00  0.00    -0.226 OA
ATOM     54  H   LIG d   1       8.003  -0.270  -3.253  0.00  0.00     0.160 HD
BRANCH  52  55
ATOM     55  O   LIG d   1       5.646  -0.279  -2.340  0.00  0.00    -0.446 OA
BRANCH  55  56
ATOM     56  C   LIG d   1       4.264  -0.061  -1.952  0.00  0.00     0.112 C 
ATOM     57  H   LIG d   1       4.183  -0.082  -0.865  0.00  0.00     0.074 H 
ATOM     58  H   LIG d   1       3.931   0.908  -2.323  0.00  0.00     0.074 H 
BRANCH  56  59
ATOM     59  C   LIG d   1       3.400  -1.147  -2.541  0.00  0.00    -0.054 C 
ATOM     60  C   LIG d   1       3.855  -2.374  -2.621  0.00  0.00    -0.100 C 
ATOM     61  H   LIG d   1       3.236  -3.152  -3.042  0.00  0.00     0.053 H 
ATOM     62  H   LIG d   1       4.847  -2.606  -2.264  0.00  0.00     0.053 H 
ATOM     63  H   LIG d   1       2.408  -0.914  -2.897  0.00  0.00     0.060 H 
ENDBRANCH  56  59
ENDBRANCH  55  56
ENDBRANCH  52  55
ENDBRANCH  13  51
BRANCH   4  64
ATOM     64  O   LIG d   1      11.956   7.736  -8.934  0.00  0.00    -0.391 OA
ATOM     65  H   LIG d   1      12.885   7.915  -8.728  0.00  0.00     0.210 HD
ENDBRANCH   4  64
TORSDOF 12
ENDMDL
MODEL 4
REMARK VINA RESULT:      -6.2      4.370      6.618
REMARK  12 active torsions:
REMARK  status: ('A' for Active; 'I' for Inactive)
REMARK    1  A    between atoms: C_1  and  C_2 
REMARK    2  A    between atoms: C_5  and  O_35 
REMARK    3  A    between atoms: C_7  and  C_32 
REMARK    4  A    between atoms: C_7  and  C_33 
REMARK    5  A    between atoms: C_14  and  N_16 
REMARK       I    between atoms: N_16  and  C_17 
REMARK    6  A    between atoms: C_17  and  O_19 
REMARK    7  A    between atoms: O_19  and  C_20 
REMARK    8  A    between atoms: C_20  and  C_21 
REMARK    9  A    between atoms: C_23  and  C_25 
REMARK   10  A    between atoms: C_25  and  C_26 
REMARK       I    between atoms: C_26  and  N_28 
REMARK   11  A    between atoms: N_28  and  C_29 
REMARK   12  A    between atoms: C_33  and  O_34 
ROOT
ATOM      1  C   LIG d   1       5.008  -0.988  -7.886  0.00  0.00    -0.019 C 
ATOM      2  C   LIG d   1       5.230   0.498  -7.583  0.00  0.00    -0.044 C 
ATOM      3  C   LIG d   1       5.193   1.316  -8.873  0.00  0.00    -0.026 C 
ATOM      4  C   LIG d   1       3.816   1.147  -9.524  0.00  0.00     0.063 C 
ATOM      5  H   LIG d   1       3.041   1.470  -8.829  0.00  0.00     0.060 H 
ATOM      6  C   LIG d   1       3.616  -0.327  -9.870  0.00  0.00     0.021 C 
ATOM      7  C   LIG d   1       3.669  -1.185  -8.602  0.00  0.00    -0.021 C 
ATOM      8  H   LIG d   1       2.849  -0.928  -7.932  0.00  0.00     0.032 H 
ATOM      9  C   LIG d   1       3.550  -2.657  -9.042  0.00  0.00    -0.016 C 
ATOM     10  C   LIG d   1       3.942  -3.537  -7.908  0.00  0.00     0.015 A 
ATOM     11  C   LIG d   1       4.593  -3.181  -6.770  0.00  0.00     0.058 A 
ATOM     12  N   LIG d   1       4.829  -4.163  -5.902  0.00  0.00    -0.229 NA
ATOM     13  C   LIG d   1       4.453  -5.410  -6.133  0.00  0.00     0.167 A 
ATOM     14  S   LIG d   1       3.688  -5.278  -7.687  0.00  0.00    -0.057 SA
ATOM     15  C   LIG d   1       5.008  -1.735  -6.546  0.00  0.00     0.016 C 
ATOM     16  H   LIG d   1       4.304  -1.257  -5.864  0.00  0.00     0.037 H 
ATOM     17  H   LIG d   1       4.447   0.849  -6.911  0.00  0.00     0.027 H 
ATOM     18  H   LIG d   1       6.199   0.627  -7.102  0.00  0.00     0.027 H 
ATOM     19  H   LIG d   1       5.361   2.367  -8.643  0.00  0.00     0.029 H 
ATOM     20  H   LIG d   1       5.966   0.960  -9.553  0.00  0.00     0.029 H 
ATOM     21  H   LIG d   1       2.520  -2.870  -9.329  0.00  0.00     0.032 H 
ATOM     22  H   LIG d   1       4.209  -2.840  -9.890  0.00  0.00     0.032 H 
ENDROOT
BRANCH  15  23
ATOM     23  C   LIG d   1       6.412  -1.695  -5.940  0.00  0.00     0.033 C 
ATOM     24  H   LIG d   1       6.881  -2.673  -6.045  0.00  0.00     0.036 H 
ATOM     25  H   LIG d   1       7.011  -0.947  -6.459  0.00  0.00     0.036 H 
BRANCH  23  26
ATOM     26  C   LIG d   1       6.317  -1.338  -4.479  0.00  0.00     0.214 C 
ATOM     27  O   LIG d   1       6.949  -1.968  -3.658  0.00  0.00    -0.276 OA
ATOM     28  N   LIG d   1       5.531  -0.317  -4.084  0.00  0.00    -0.312 N 
ATOM     29  H   LIG d   1       5.025   0.188  -4.741  0.00  0.00     0.149 HD
BRANCH  28  30
ATOM     30  C   LIG d   1       5.439   0.030  -2.664  0.00  0.00     0.023 A 
ATOM     31  C   LIG d   1       4.248   0.883  -2.220  0.00  0.00    -0.033 A 
ATOM     32  C   LIG d   1       4.305  -0.602  -1.855  0.00  0.00    -0.033 A 
ATOM     33  H   LIG d   1       4.416   1.605  -1.422  0.00  0.00     0.028 H 
ATOM     34  H   LIG d   1       3.533   1.185  -2.986  0.00  0.00     0.028 H 
ATOM     35  H   LIG d   1       3.627  -1.276  -2.378  0.00  0.00     0.028 H 
ATOM     36  H   LIG d   1       4.510  -0.856  -0.814  0.00  0.00     0.028 H 
ATOM     37  H   LIG d   1       6.389   0.192  -2.157  0.00  0.00     0.050 H 
ENDBRANCH  28  30
ENDBRANCH  23  26
ENDBRANCH  15  23
BRANCH   1  38
ATOM     38  C   LIG d   1       6.144  -1.505  -8.771  0.00  0.00    -0.059 C 
ATOM     39  H   LIG d   1       6.737  -0.664  -9.130  0.00  0.00     0.024 H 
ATOM     40  H   LIG d   1       6.779  -2.176  -8.193  0.00  0.00     0.024 H 
ATOM     41  H   LIG d   1       5.725  -2.043  -9.622  0.00  0.00     0.024 H 
ENDBRANCH   1  38
BRANCH   6  42
ATOM     42  C   LIG d   1       2.256  -0.508 -10.546  0.00  0.00    -0.055 C 
ATOM     43  H   LIG d   1       1.480  -0.060  -9.926  0.00  0.00     0.024 H 
ATOM     44  H   LIG d   1       2.267  -0.022 -11.521  0.00  0.00     0.024 H 
ATOM     45  H   LIG d   1       2.051  -1.571 -10.673  0.00  0.00     0.024 H 
ENDBRANCH   6  42
BRANCH   6  46
ATOM     46  C   LIG d   1       4.718  -0.776 -10.832  0.00  0.00     0.052 C 
ATOM     47  H   LIG d   1       5.671  -0.351 -10.517  0.00  0.00     0.056 H 
ATOM     48  H   LIG d   1       4.787  -1.863 -10.824  0.00  0.00     0.056 H 
BRANCH  46  49
ATOM     49  O   LIG d   1       4.410  -0.328 -12.153  0.00  0.00    -0.394 OA
ATOM     50  H   LIG d   1       3.604   0.202 -12.210  0.00  0.00     0.209 HD
ENDBRANCH  46  49
ENDBRANCH   6  46
BRANCH  13  51
ATOM     51  N   LIG d   1       4.624  -6.534  -5.335  0.00  0.00    -0.230 N 
ATOM     52  C   LIG d   1       5.609  -7.413  -5.611  0.00  0.00     0.406 C 
ATOM     53  O   LIG d   1       6.348  -7.220  -6.556  0.00  0.00    -0.226 OA
ATOM     54  H   LIG d   1       4.034  -6.689  -4.581  0.00  0.00     0.160 HD
BRANCH  52  55
ATOM     55  O   LIG d   1       5.775  -8.503  -4.839  0.00  0.00    -0.446 OA
BRANCH  55  56
ATOM     56  C   LIG d   1       4.762  -9.539  -4.936  0.00  0.00     0.112 C 
ATOM     57  H   LIG d   1       3.935  -9.183  -5.551  0.00  0.00     0.074 H 
ATOM     58  H   LIG d   1       5.195 -10.430  -5.389  0.00  0.00     0.074 H 
BRANCH  56  59
ATOM     59  C   LIG d   1       4.254  -9.875  -3.557  0.00  0.00    -0.054 C 
ATOM     60  C   LIG d   1       3.240 -10.693  -3.414  0.00  0.00    -0.100 C 
ATOM     61  H   LIG d   1       2.877 -10.934  -2.427  0.00  0.00     0.053 H 
ATOM     62  H   LIG d   1       2.770 -11.128  -4.284  0.00  0.00     0.053 H 
ATOM     63  H   LIG d   1       4.725  -9.441  -2.688  0.00  0.00     0.060 H 
ENDBRANCH  56  59
ENDBRANCH  55  56
ENDBRANCH  52  55
ENDBRANCH  13  51
BRANCH   4  64
ATOM     64  O   LIG d   1       3.752   1.931 -10.716  0.00  0.00    -0.391 OA
ATOM     65  H   LIG d   1       4.134   1.498 -11.493  0.00  0.00     0.210 HD
ENDBRANCH   4  64
TORSDOF 12
ENDMDL
MODEL 5
REMARK VINA RESULT:      -6.1      2.558      8.189
REMARK  12 active torsions:
REMARK  status: ('A' for Active; 'I' for Inactive)
REMARK    1  A    between atoms: C_1  and  C_2 
REMARK    2  A    between atoms: C_5  and  O_35 
REMARK    3  A    between atoms: C_7  and  C_32 
REMARK    4  A    between atoms: C_7  and  C_33 
REMARK    5  A    between atoms: C_14  and  N_16 
REMARK       I    between atoms: N_16  and  C_17 
REMARK    6  A    between atoms: C_17  and  O_19 
REMARK    7  A    between atoms: O_19  and  C_20 
REMARK    8  A    between atoms: C_20  and  C_21 
REMARK    9  A    between atoms: C_23  and  C_25 
REMARK   10  A    between atoms: C_25  and  C_26 
REMARK       I    between atoms: C_26  and  N_28 
REMARK   11  A    between atoms: N_28  and  C_29 
REMARK   12  A    between atoms: C_33  and  O_34 
ROOT
ATOM      1  C   LIG d   1       9.654   2.542  -4.633  0.00  0.00    -0.019 C 
ATOM      2  C   LIG d   1       9.666   2.768  -3.117  0.00  0.00    -0.044 C 
ATOM      3  C   LIG d   1      11.042   3.248  -2.661  0.00  0.00    -0.026 C 
ATOM      4  C   LIG d   1      11.359   4.574  -3.359  0.00  0.00     0.063 C 
ATOM      5  H   LIG d   1      10.587   5.306  -3.120  0.00  0.00     0.060 H 
ATOM      6  C   LIG d   1      11.395   4.337  -4.868  0.00  0.00     0.021 C 
ATOM      7  C   LIG d   1      10.035   3.833  -5.361  0.00  0.00    -0.021 C 
ATOM      8  H   LIG d   1       9.267   4.589  -5.203  0.00  0.00     0.032 H 
ATOM      9  C   LIG d   1      10.180   3.534  -6.866  0.00  0.00    -0.016 C 
ATOM     10  C   LIG d   1       9.014   2.723  -7.314  0.00  0.00     0.015 A 
ATOM     11  C   LIG d   1       8.113   2.068  -6.537  0.00  0.00     0.058 A 
ATOM     12  N   LIG d   1       7.155   1.409  -7.186  0.00  0.00    -0.229 NA
ATOM     13  C   LIG d   1       7.083   1.393  -8.506  0.00  0.00     0.167 A 
ATOM     14  S   LIG d   1       8.447   2.371  -8.957  0.00  0.00    -0.057 SA
ATOM     15  C   LIG d   1       8.234   2.112  -5.022  0.00  0.00     0.016 C 
ATOM     16  H   LIG d   1       7.516   2.828  -4.622  0.00  0.00     0.037 H 
ATOM     17  H   LIG d   1       8.919   3.519  -2.860  0.00  0.00     0.027 H 
ATOM     18  H   LIG d   1       9.423   1.834  -2.611  0.00  0.00     0.027 H 
ATOM     19  H   LIG d   1      11.038   3.395  -1.582  0.00  0.00     0.029 H 
ATOM     20  H   LIG d   1      11.794   2.505  -2.927  0.00  0.00     0.029 H 
ATOM     21  H   LIG d   1      10.207   4.470  -7.423  0.00  0.00     0.032 H 
ATOM     22  H   LIG d   1      11.100   2.977  -7.042  0.00  0.00     0.032 H 
ENDROOT
BRANCH  15  23
ATOM     23  C   LIG d   1       7.945   0.725  -4.446  0.00  0.00     0.033 C 
ATOM     24  H   LIG d   1       7.828   0.010  -5.261  0.00  0.00     0.036 H 
ATOM     25  H   LIG d   1       8.772   0.416  -3.808  0.00  0.00     0.036 H 
BRANCH  23  26
ATOM     26  C   LIG d   1       6.675   0.773  -3.636  0.00  0.00     0.214 C 
ATOM     27  O   LIG d   1       6.211   1.841  -3.298  0.00  0.00    -0.276 OA
ATOM     28  N   LIG d   1       6.055  -0.372  -3.285  0.00  0.00    -0.312 N 
ATOM     29  H   LIG d   1       6.427  -1.227  -3.556  0.00  0.00     0.149 HD
BRANCH  28  30
ATOM     30  C   LIG d   1       4.821  -0.325  -2.497  0.00  0.00     0.023 A 
ATOM     31  C   LIG d   1       3.571  -0.966  -3.104  0.00  0.00    -0.033 A 
ATOM     32  C   LIG d   1       4.291  -1.647  -1.938  0.00  0.00    -0.033 A 
ATOM     33  H   LIG d   1       2.612  -0.492  -2.896  0.00  0.00     0.028 H 
ATOM     34  H   LIG d   1       3.667  -1.421  -4.089  0.00  0.00     0.028 H 
ATOM     35  H   LIG d   1       4.859  -2.551  -2.156  0.00  0.00     0.028 H 
ATOM     36  H   LIG d   1       3.804  -1.621  -0.963  0.00  0.00     0.028 H 
ATOM     37  H   LIG d   1       4.684   0.569  -1.891  0.00  0.00     0.050 H 
ENDBRANCH  28  30
ENDBRANCH  23  26
ENDBRANCH  15  23
BRANCH   1  38
ATOM     38  C   LIG d   1      10.650   1.437  -4.993  0.00  0.00    -0.059 C 
ATOM     39  H   LIG d   1      10.748   0.748  -4.153  0.00  0.00     0.024 H 
ATOM     40  H   LIG d   1      10.291   0.894  -5.867  0.00  0.00     0.024 H 
ATOM     41  H   LIG d   1      11.620   1.880  -5.214  0.00  0.00     0.024 H 
ENDBRANCH   1  38
BRANCH   6  42
ATOM     42  C   LIG d   1      11.736   5.648  -5.578  0.00  0.00    -0.055 C 
ATOM     43  H   LIG d   1      12.587   6.117  -5.084  0.00  0.00     0.024 H 
ATOM     44  H   LIG d   1      11.989   5.443  -6.618  0.00  0.00     0.024 H 
ATOM     45  H   LIG d   1      10.878   6.318  -5.539  0.00  0.00     0.024 H 
ENDBRANCH   6  42
BRANCH   6  46
ATOM     46  C   LIG d   1      12.469   3.297  -5.191  0.00  0.00     0.052 C 
ATOM     47  H   LIG d   1      12.531   2.573  -4.378  0.00  0.00     0.056 H 
ATOM     48  H   LIG d   1      12.209   2.781  -6.115  0.00  0.00     0.056 H 
BRANCH  46  49
ATOM     49  O   LIG d   1      13.731   3.947  -5.347  0.00  0.00    -0.394 OA
ATOM     50  H   LIG d   1      13.758   4.845  -4.991  0.00  0.00     0.209 HD
ENDBRANCH  46  49
ENDBRANCH   6  46
BRANCH  13  51
ATOM     51  N   LIG d   1       6.155   0.759  -9.323  0.00  0.00    -0.230 N 
ATOM     52  C   LIG d   1       5.069   1.429  -9.756  0.00  0.00     0.406 C 
ATOM     53  O   LIG d   1       4.903   2.589  -9.434  0.00  0.00    -0.226 OA
ATOM     54  H   LIG d   1       6.287  -0.168  -9.579  0.00  0.00     0.160 HD
BRANCH  52  55
ATOM     55  O   LIG d   1       4.169   0.815 -10.547  0.00  0.00    -0.446 OA
BRANCH  55  56
ATOM     56  C   LIG d   1       3.454  -0.314  -9.978  0.00  0.00     0.112 C 
ATOM     57  H   LIG d   1       2.964  -0.873 -10.775  0.00  0.00     0.074 H 
ATOM     58  H   LIG d   1       4.157  -0.964  -9.458  0.00  0.00     0.074 H 
BRANCH  56  59
ATOM     59  C   LIG d   1       2.418   0.187  -9.005  0.00  0.00    -0.054 C 
ATOM     60  C   LIG d   1       2.534  -0.085  -7.728  0.00  0.00    -0.100 C 
ATOM     61  H   LIG d   1       1.792   0.274  -7.031  0.00  0.00     0.053 H 
ATOM     62  H   LIG d   1       3.371  -0.668  -7.374  0.00  0.00     0.053 H 
ATOM     63  H   LIG d   1       1.582   0.770  -9.360  0.00  0.00     0.060 H 
ENDBRANCH  56  59
ENDBRANCH  55  56
ENDBRANCH  52  55
ENDBRANCH  13  51
BRANCH   4  64
ATOM     64  O   LIG d   1      12.630   5.055  -2.920  0.00  0.00    -0.391 OA
ATOM     65  H   LIG d   1      13.004   4.557  -2.179  0.00  0.00     0.210 HD
ENDBRANCH   4  64
TORSDOF 12
ENDMDL
MODEL 6
REMARK VINA RESULT:      -5.9      3.374      4.071
REMARK  12 active torsions:
REMARK  status: ('A' for Active; 'I' for Inactive)
REMARK    1  A    between atoms: C_1  and  C_2 
REMARK    2  A    between atoms: C_5  and  O_35 
REMARK    3  A    between atoms: C_7  and  C_32 
REMARK    4  A    between atoms: C_7  and  C_33 
REMARK    5  A    between atoms: C_14  and  N_16 
REMARK       I    between atoms: N_16  and  C_17 
REMARK    6  A    between atoms: C_17  and  O_19 
REMARK    7  A    between atoms: O_19  and  C_20 
REMARK    8  A    between atoms: C_20  and  C_21 
REMARK    9  A    between atoms: C_23  and  C_25 
REMARK   10  A    between atoms: C_25  and  C_26 
REMARK       I    between atoms: C_26  and  N_28 
REMARK   11  A    between atoms: N_28  and  C_29 
REMARK   12  A    between atoms: C_33  and  O_34 
ROOT
ATOM      1  C   LIG d   1       3.498  -1.291  -8.933  0.00  0.00    -0.019 C 
ATOM      2  C   LIG d   1       2.156  -0.566  -8.778  0.00  0.00    -0.044 C 
ATOM      3  C   LIG d   1       1.564  -0.244 -10.148  0.00  0.00    -0.026 C 
ATOM      4  C   LIG d   1       1.329  -1.555 -10.905  0.00  0.00     0.063 C 
ATOM      5  H   LIG d   1       0.663  -2.197 -10.327  0.00  0.00     0.060 H 
ATOM      6  C   LIG d   1       2.673  -2.254 -11.101  0.00  0.00     0.021 C 
ATOM      7  C   LIG d   1       3.312  -2.574  -9.746  0.00  0.00    -0.021 C 
ATOM      8  H   LIG d   1       2.695  -3.279  -9.191  0.00  0.00     0.032 H 
ATOM      9  C   LIG d   1       4.695  -3.191 -10.029  0.00  0.00    -0.016 C 
ATOM     10  C   LIG d   1       5.492  -3.197  -8.772  0.00  0.00     0.015 A 
ATOM     11  C   LIG d   1       5.232  -2.518  -7.623  0.00  0.00     0.058 A 
ATOM     12  N   LIG d   1       6.105  -2.694  -6.633  0.00  0.00    -0.229 NA
ATOM     13  C   LIG d   1       7.161  -3.479  -6.758  0.00  0.00     0.167 A 
ATOM     14  S   LIG d   1       6.986  -4.069  -8.383  0.00  0.00    -0.057 SA
ATOM     15  C   LIG d   1       4.006  -1.624  -7.524  0.00  0.00     0.016 C 
ATOM     16  H   LIG d   1       3.223  -2.143  -6.970  0.00  0.00     0.037 H 
ATOM     17  H   LIG d   1       1.465  -1.203  -8.226  0.00  0.00     0.027 H 
ATOM     18  H   LIG d   1       2.309   0.360  -8.224  0.00  0.00     0.027 H 
ATOM     19  H   LIG d   1       0.616   0.279 -10.022  0.00  0.00     0.029 H 
ATOM     20  H   LIG d   1       2.257   0.383 -10.708  0.00  0.00     0.029 H 
ATOM     21  H   LIG d   1       4.572  -4.214 -10.387  0.00  0.00     0.032 H 
ATOM     22  H   LIG d   1       5.212  -2.600 -10.785  0.00  0.00     0.032 H 
ENDROOT
BRANCH  15  23
ATOM     23  C   LIG d   1       4.375  -0.331  -6.796  0.00  0.00     0.033 C 
ATOM     24  H   LIG d   1       5.456  -0.285  -6.663  0.00  0.00     0.036 H 
ATOM     25  H   LIG d   1       4.045   0.525  -7.384  0.00  0.00     0.036 H 
BRANCH  23  26
ATOM     26  C   LIG d   1       3.702  -0.305  -5.448  0.00  0.00     0.214 C 
ATOM     27  O   LIG d   1       2.658   0.295  -5.302  0.00  0.00    -0.276 OA
ATOM     28  N   LIG d   1       4.260  -0.948  -4.403  0.00  0.00    -0.312 N 
ATOM     29  H   LIG d   1       5.096  -1.427  -4.519  0.00  0.00     0.149 HD
BRANCH  28  30
ATOM     30  C   LIG d   1       3.606  -0.922  -3.092  0.00  0.00     0.023 A 
ATOM     31  C   LIG d   1       4.223  -1.769  -1.977  0.00  0.00    -0.033 A 
ATOM     32  C   LIG d   1       4.355  -0.245  -1.943  0.00  0.00    -0.033 A 
ATOM     33  H   LIG d   1       3.543  -2.232  -1.262  0.00  0.00     0.028 H 
ATOM     34  H   LIG d   1       5.116  -2.345  -2.220  0.00  0.00     0.028 H 
ATOM     35  H   LIG d   1       5.335   0.181  -2.161  0.00  0.00     0.028 H 
ATOM     36  H   LIG d   1       3.762   0.295  -1.204  0.00  0.00     0.028 H 
ATOM     37  H   LIG d   1       2.521  -0.828  -3.110  0.00  0.00     0.050 H 
ENDBRANCH  28  30
ENDBRANCH  23  26
ENDBRANCH  15  23
BRANCH   1  38
ATOM     38  C   LIG d   1       4.496  -0.374  -9.643  0.00  0.00    -0.059 C 
ATOM     39  H   LIG d   1       4.370   0.648  -9.284  0.00  0.00     0.024 H 
ATOM     40  H   LIG d   1       5.511  -0.710  -9.433  0.00  0.00     0.024 H 
ATOM     41  H   LIG d   1       4.318  -0.406 -10.718  0.00  0.00     0.024 H 
ENDBRANCH   1  38
BRANCH   6  42
ATOM     42  C   LIG d   1       2.460  -3.554 -11.879  0.00  0.00    -0.055 C 
ATOM     43  H   LIG d   1       1.433  -3.894 -11.741  0.00  0.00     0.024 H 
ATOM     44  H   LIG d   1       2.644  -3.377 -12.939  0.00  0.00     0.024 H 
ATOM     45  H   LIG d   1       3.148  -4.315 -11.513  0.00  0.00     0.024 H 
ENDBRANCH   6  42
BRANCH   6  46
ATOM     46  C   LIG d   1       3.607  -1.340 -11.898  0.00  0.00     0.052 C 
ATOM     47  H   LIG d   1       3.447  -0.305 -11.597  0.00  0.00     0.056 H 
ATOM     48  H   LIG d   1       4.642  -1.618 -11.702  0.00  0.00     0.056 H 
BRANCH  46  49
ATOM     49  O   LIG d   1       3.333  -1.478 -13.293  0.00  0.00    -0.394 OA
ATOM     50  H   LIG d   1       2.391  -1.475 -13.511  0.00  0.00     0.209 HD
ENDBRANCH  46  49
ENDBRANCH   6  46
BRANCH  13  51
ATOM     51  N   LIG d   1       8.153  -3.762  -5.828  0.00  0.00    -0.230 N 
ATOM     52  C   LIG d   1       8.072  -4.876  -5.073  0.00  0.00     0.406 C 
ATOM     53  O   LIG d   1       7.131  -5.634  -5.208  0.00  0.00    -0.226 OA
ATOM     54  H   LIG d   1       8.904  -3.157  -5.720  0.00  0.00     0.160 HD
BRANCH  52  55
ATOM     55  O   LIG d   1       9.033  -5.150  -4.172  0.00  0.00    -0.446 OA
BRANCH  55  56
ATOM     56  C   LIG d   1       9.472  -4.057  -3.323  0.00  0.00     0.112 C 
ATOM     57  H   LIG d   1      10.426  -3.674  -3.688  0.00  0.00     0.074 H 
ATOM     58  H   LIG d   1       8.729  -3.260  -3.343  0.00  0.00     0.074 H 
BRANCH  56  59
ATOM     59  C   LIG d   1       9.638  -4.553  -1.910  0.00  0.00    -0.054 C 
ATOM     60  C   LIG d   1       9.782  -5.836  -1.679  0.00  0.00    -0.100 C 
ATOM     61  H   LIG d   1       9.901  -6.192  -0.667  0.00  0.00     0.053 H 
ATOM     62  H   LIG d   1       9.782  -6.535  -2.502  0.00  0.00     0.053 H 
ATOM     63  H   LIG d   1       9.638  -3.853  -1.088  0.00  0.00     0.060 H 
ENDBRANCH  56  59
ENDBRANCH  55  56
ENDBRANCH  52  55
ENDBRANCH  13  51
BRANCH   4  64
ATOM     64  O   LIG d   1       0.744  -1.276 -12.177  0.00  0.00    -0.391 OA
ATOM     65  H   LIG d   1       0.782  -0.342 -12.431  0.00  0.00     0.210 HD
ENDBRANCH   4  64
TORSDOF 12
ENDMDL
MODEL 7
REMARK VINA RESULT:      -5.8      5.753      8.889
REMARK  12 active torsions:
REMARK  status: ('A' for Active; 'I' for Inactive)
REMARK    1  A    between atoms: C_1  and  C_2 
REMARK    2  A    between atoms: C_5  and  O_35 
REMARK    3  A    between atoms: C_7  and  C_32 
REMARK    4  A    between atoms: C_7  and  C_33 
REMARK    5  A    between atoms: C_14  and  N_16 
REMARK       I    between atoms: N_16  and  C_17 
REMARK    6  A    between atoms: C_17  and  O_19 
REMARK    7  A    between atoms: O_19  and  C_20 
REMARK    8  A    between atoms: C_20  and  C_21 
REMARK    9  A    between atoms: C_23  and  C_25 
REMARK   10  A    between atoms: C_25  and  C_26 
REMARK       I    between atoms: C_26  and  N_28 
REMARK   11  A    between atoms: N_28  and  C_29 
REMARK   12  A    between atoms: C_33  and  O_34 
ROOT
ATOM      1  C   LIG d   1       6.301  -1.644  -4.228  0.00  0.00    -0.019 C 
ATOM      2  C   LIG d   1       7.021  -0.617  -3.346  0.00  0.00    -0.044 C 
ATOM      3  C   LIG d   1       6.219   0.681  -3.278  0.00  0.00    -0.026 C 
ATOM      4  C   LIG d   1       4.847   0.381  -2.665  0.00  0.00     0.063 C 
ATOM      5  H   LIG d   1       4.977  -0.055  -1.674  0.00  0.00     0.060 H 
ATOM      6  C   LIG d   1       4.111  -0.605  -3.570  0.00  0.00     0.021 C 
ATOM      7  C   LIG d   1       4.897  -1.915  -3.682  0.00  0.00    -0.021 C 
ATOM      8  H   LIG d   1       4.965  -2.404  -2.711  0.00  0.00     0.032 H 
ATOM      9  C   LIG d   1       4.140  -2.816  -4.676  0.00  0.00    -0.016 C 
ATOM     10  C   LIG d   1       5.026  -3.940  -5.086  0.00  0.00     0.015 A 
ATOM     11  C   LIG d   1       6.369  -4.045  -4.904  0.00  0.00     0.058 A 
ATOM     12  N   LIG d   1       6.933  -5.159  -5.365  0.00  0.00    -0.229 NA
ATOM     13  C   LIG d   1       6.232  -6.106  -5.965  0.00  0.00     0.167 A 
ATOM     14  S   LIG d   1       4.622  -5.454  -5.915  0.00  0.00    -0.057 SA
ATOM     15  C   LIG d   1       7.136  -2.931  -4.210  0.00  0.00     0.016 C 
ATOM     16  H   LIG d   1       7.336  -3.218  -3.177  0.00  0.00     0.037 H 
ATOM     17  H   LIG d   1       7.136  -1.024  -2.342  0.00  0.00     0.027 H 
ATOM     18  H   LIG d   1       8.006  -0.411  -3.764  0.00  0.00     0.027 H 
ATOM     19  H   LIG d   1       6.747   1.403  -2.656  0.00  0.00     0.029 H 
ATOM     20  H   LIG d   1       6.091   1.085  -4.282  0.00  0.00     0.029 H 
ATOM     21  H   LIG d   1       3.245  -3.215  -4.199  0.00  0.00     0.032 H 
ATOM     22  H   LIG d   1       3.857  -2.236  -5.554  0.00  0.00     0.032 H 
ENDROOT
BRANCH  15  23
ATOM     23  C   LIG d   1       8.459  -2.692  -4.938  0.00  0.00     0.033 C 
ATOM     24  H   LIG d   1       8.397  -3.099  -5.948  0.00  0.00     0.036 H 
ATOM     25  H   LIG d   1       8.658  -1.622  -4.989  0.00  0.00     0.036 H 
BRANCH  23  26
ATOM     26  C   LIG d   1       9.575  -3.375  -4.189  0.00  0.00     0.214 C 
ATOM     27  O   LIG d   1      10.730  -3.115  -4.453  0.00  0.00    -0.276 OA
ATOM     28  N   LIG d   1       9.289  -4.275  -3.227  0.00  0.00    -0.312 N 
ATOM     29  H   LIG d   1       8.364  -4.483  -3.017  0.00  0.00     0.149 HD
BRANCH  28  30
ATOM     30  C   LIG d   1      10.373  -4.939  -2.500  0.00  0.00     0.023 A 
ATOM     31  C   LIG d   1      10.001  -6.120  -1.600  0.00  0.00    -0.033 A 
ATOM     32  C   LIG d   1      10.736  -6.365  -2.921  0.00  0.00    -0.033 A 
ATOM     33  H   LIG d   1      10.568  -6.247  -0.678  0.00  0.00     0.028 H 
ATOM     34  H   LIG d   1       8.950  -6.402  -1.550  0.00  0.00     0.028 H 
ATOM     35  H   LIG d   1      10.167  -6.809  -3.738  0.00  0.00     0.028 H 
ATOM     36  H   LIG d   1      11.785  -6.654  -2.866  0.00  0.00     0.028 H 
ATOM     37  H   LIG d   1      11.183  -4.290  -2.169  0.00  0.00     0.050 H 
ENDBRANCH  28  30
ENDBRANCH  23  26
ENDBRANCH  15  23
BRANCH   1  38
ATOM     38  C   LIG d   1       6.201  -1.109  -5.659  0.00  0.00    -0.059 C 
ATOM     39  H   LIG d   1       5.381  -1.607  -6.176  0.00  0.00     0.024 H 
ATOM     40  H   LIG d   1       6.016  -0.035  -5.633  0.00  0.00     0.024 H 
ATOM     41  H   LIG d   1       7.134  -1.305  -6.186  0.00  0.00     0.024 H 
ENDBRANCH   1  38
BRANCH   6  42
ATOM     42  C   LIG d   1       2.728  -0.894  -2.985  0.00  0.00    -0.055 C 
ATOM     43  H   LIG d   1       1.967  -0.702  -3.741  0.00  0.00     0.024 H 
ATOM     44  H   LIG d   1       2.675  -1.937  -2.674  0.00  0.00     0.024 H 
ATOM     45  H   LIG d   1       2.555  -0.250  -2.123  0.00  0.00     0.024 H 
ENDBRANCH   6  42
BRANCH   6  46
ATOM     46  C   LIG d   1       3.949   0.010  -4.962  0.00  0.00     0.052 C 
ATOM     47  H   LIG d   1       4.853   0.559  -5.224  0.00  0.00     0.056 H 
ATOM     48  H   LIG d   1       3.782  -0.782  -5.691  0.00  0.00     0.056 H 
BRANCH  46  49
ATOM     49  O   LIG d   1       2.833   0.901  -4.962  0.00  0.00    -0.394 OA
ATOM     50  H   LIG d   1       2.016   0.510  -5.300  0.00  0.00     0.209 HD
ENDBRANCH  46  49
ENDBRANCH   6  46
BRANCH  13  51
ATOM     51  N   LIG d   1       6.670  -7.313  -6.496  0.00  0.00    -0.230 N 
ATOM     52  C   LIG d   1       6.624  -8.435  -5.750  0.00  0.00     0.406 C 
ATOM     53  O   LIG d   1       6.197  -8.390  -4.613  0.00  0.00    -0.226 OA
ATOM     54  H   LIG d   1       7.011  -7.348  -7.404  0.00  0.00     0.160 HD
BRANCH  52  55
ATOM     55  O   LIG d   1       7.048  -9.604  -6.265  0.00  0.00    -0.446 OA
BRANCH  55  56
ATOM     56  C   LIG d   1       6.937 -10.777  -5.415  0.00  0.00     0.112 C 
ATOM     57  H   LIG d   1       7.852 -11.366  -5.488  0.00  0.00     0.074 H 
ATOM     58  H   LIG d   1       6.787 -10.465  -4.383  0.00  0.00     0.074 H 
BRANCH  56  59
ATOM     59  C   LIG d   1       5.765 -11.611  -5.864  0.00  0.00    -0.054 C 
ATOM     60  C   LIG d   1       4.752 -11.805  -5.055  0.00  0.00    -0.100 C 
ATOM     61  H   LIG d   1       3.912 -12.403  -5.376  0.00  0.00     0.053 H 
ATOM     62  H   LIG d   1       4.757 -11.366  -4.068  0.00  0.00     0.053 H 
ATOM     63  H   LIG d   1       5.760 -12.049  -6.851  0.00  0.00     0.060 H 
ENDBRANCH  56  59
ENDBRANCH  55  56
ENDBRANCH  52  55
ENDBRANCH  13  51
BRANCH   4  64
ATOM     64  O   LIG d   1       4.094   1.591  -2.562  0.00  0.00    -0.391 OA
ATOM     65  H   LIG d   1       4.624   2.364  -2.321  0.00  0.00     0.210 HD
ENDBRANCH   4  64
TORSDOF 12
ENDMDL
MODEL 8
REMARK VINA RESULT:      -5.7      5.182      8.646
REMARK  12 active torsions:
REMARK  status: ('A' for Active; 'I' for Inactive)
REMARK    1  A    between atoms: C_1  and  C_2 
REMARK    2  A    between atoms: C_5  and  O_35 
REMARK    3  A    between atoms: C_7  and  C_32 
REMARK    4  A    between atoms: C_7  and  C_33 
REMARK    5  A    between atoms: C_14  and  N_16 
REMARK       I    between atoms: N_16  and  C_17 
REMARK    6  A    between atoms: C_17  and  O_19 
REMARK    7  A    between atoms: O_19  and  C_20 
REMARK    8  A    between atoms: C_20  and  C_21 
REMARK    9  A    between atoms: C_23  and  C_25 
REMARK   10  A    between atoms: C_25  and  C_26 
REMARK       I    between atoms: C_26  and  N_28 
REMARK   11  A    between atoms: N_28  and  C_29 
REMARK   12  A    between atoms: C_33  and  O_34 
ROOT
ATOM      1  C   LIG d   1      10.511   5.691  -6.675  0.00  0.00    -0.019 C 
ATOM      2  C   LIG d   1      10.788   7.163  -6.351  0.00  0.00    -0.044 C 
ATOM      3  C   LIG d   1      11.358   7.879  -7.573  0.00  0.00    -0.026 C 
ATOM      4  C   LIG d   1      10.331   7.810  -8.708  0.00  0.00     0.063 C 
ATOM      5  H   LIG d   1       9.396   8.267  -8.383  0.00  0.00     0.060 H 
ATOM      6  C   LIG d   1      10.091   6.344  -9.064  0.00  0.00     0.021 C 
ATOM      7  C   LIG d   1       9.540   5.585  -7.853  0.00  0.00    -0.021 C 
ATOM      8  H   LIG d   1       8.565   5.979  -7.567  0.00  0.00     0.032 H 
ATOM      9  C   LIG d   1       9.412   4.105  -8.264  0.00  0.00    -0.016 C 
ATOM     10  C   LIG d   1       9.218   3.276  -7.043  0.00  0.00     0.015 A 
ATOM     11  C   LIG d   1       9.419   3.646  -5.751  0.00  0.00     0.058 A 
ATOM     12  N   LIG d   1       9.172   2.713  -4.833  0.00  0.00    -0.229 NA
ATOM     13  C   LIG d   1       8.758   1.500  -5.158  0.00  0.00     0.167 A 
ATOM     14  S   LIG d   1       8.677   1.595  -6.891  0.00  0.00    -0.057 SA
ATOM     15  C   LIG d   1       9.897   5.051  -5.422  0.00  0.00     0.016 C 
ATOM     16  H   LIG d   1       9.052   5.653  -5.085  0.00  0.00     0.037 H 
ATOM     17  H   LIG d   1       9.858   7.646  -6.050  0.00  0.00     0.027 H 
ATOM     18  H   LIG d   1      11.503   7.223  -5.531  0.00  0.00     0.027 H 
ATOM     19  H   LIG d   1      11.558   8.921  -7.325  0.00  0.00     0.029 H 
ATOM     20  H   LIG d   1      12.281   7.392  -7.885  0.00  0.00     0.029 H 
ATOM     21  H   LIG d   1       8.554   3.983  -8.926  0.00  0.00     0.032 H 
ATOM     22  H   LIG d   1      10.318   3.789  -8.779  0.00  0.00     0.032 H 
ENDROOT
BRANCH  15  23
ATOM     23  C   LIG d   1      10.950   4.987  -4.315  0.00  0.00     0.033 C 
ATOM     24  H   LIG d   1      11.317   3.964  -4.222  0.00  0.00     0.036 H 
ATOM     25  H   LIG d   1      11.780   5.649  -4.562  0.00  0.00     0.036 H 
BRANCH  23  26
ATOM     26  C   LIG d   1      10.333   5.420  -3.010  0.00  0.00     0.214 C 
ATOM     27  O   LIG d   1      10.000   4.590  -2.191  0.00  0.00    -0.276 OA
ATOM     28  N   LIG d   1      10.152   6.731  -2.753  0.00  0.00    -0.312 N 
ATOM     29  H   LIG d   1      10.418   7.395  -3.409  0.00  0.00     0.149 HD
BRANCH  28  30
ATOM     30  C   LIG d   1       9.552   7.152  -1.485  0.00  0.00     0.023 A 
ATOM     31  C   LIG d   1      10.476   7.782  -0.440  0.00  0.00    -0.033 A 
ATOM     32  C   LIG d   1       9.477   8.654  -1.204  0.00  0.00    -0.033 A 
ATOM     33  H   LIG d   1      10.266   7.575   0.608  0.00  0.00     0.028 H 
ATOM     34  H   LIG d   1      11.531   7.883  -0.698  0.00  0.00     0.028 H 
ATOM     35  H   LIG d   1       9.874   9.329  -1.962  0.00  0.00     0.028 H 
ATOM     36  H   LIG d   1       8.608   9.021  -0.656  0.00  0.00     0.028 H 
ATOM     37  H   LIG d   1       8.734   6.530  -1.122  0.00  0.00     0.050 H 
ENDBRANCH  28  30
ENDBRANCH  23  26
ENDBRANCH  15  23
BRANCH   1  38
ATOM     38  C   LIG d   1      11.824   4.988  -7.028  0.00  0.00    -0.059 C 
ATOM     39  H   LIG d   1      11.613   4.102  -7.627  0.00  0.00     0.024 H 
ATOM     40  H   LIG d   1      12.459   5.668  -7.597  0.00  0.00     0.024 H 
ATOM     41  H   LIG d   1      12.336   4.694  -6.112  0.00  0.00     0.024 H 
ENDBRANCH   1  38
BRANCH   6  42
ATOM     42  C   LIG d   1       9.087   6.260 -10.215  0.00  0.00    -0.055 C 
ATOM     43  H   LIG d   1       8.207   5.707  -9.887  0.00  0.00     0.024 H 
ATOM     44  H   LIG d   1       8.794   7.265 -10.516  0.00  0.00     0.024 H 
ATOM     45  H   LIG d   1       9.545   5.747 -11.060  0.00  0.00     0.024 H 
ENDBRANCH   6  42
BRANCH   6  46
ATOM     46  C   LIG d   1      11.412   5.708  -9.503  0.00  0.00     0.052 C 
ATOM     47  H   LIG d   1      12.242   6.223  -9.019  0.00  0.00     0.056 H 
ATOM     48  H   LIG d   1      11.422   4.657  -9.215  0.00  0.00     0.056 H 
BRANCH  46  49
ATOM     49  O   LIG d   1      11.546   5.815 -10.921  0.00  0.00    -0.394 OA
ATOM     50  H   LIG d   1      11.485   4.970 -11.387  0.00  0.00     0.209 HD
ENDBRANCH  46  49
ENDBRANCH   6  46
BRANCH  13  51
ATOM     51  N   LIG d   1       8.461   0.427  -4.327  0.00  0.00    -0.230 N 
ATOM     52  C   LIG d   1       7.205   0.257  -3.868  0.00  0.00     0.406 C 
ATOM     53  O   LIG d   1       6.332   1.041  -4.183  0.00  0.00    -0.226 OA
ATOM     54  H   LIG d   1       9.159  -0.198  -4.074  0.00  0.00     0.160 HD
BRANCH  52  55
ATOM     55  O   LIG d   1       6.918  -0.783  -3.062  0.00  0.00    -0.446 OA
BRANCH  55  56
ATOM     56  C   LIG d   1       5.776  -1.603  -3.427  0.00  0.00     0.112 C 
ATOM     57  H   LIG d   1       5.318  -1.207  -4.333  0.00  0.00     0.074 H 
ATOM     58  H   LIG d   1       6.106  -2.626  -3.603  0.00  0.00     0.074 H 
BRANCH  56  59
ATOM     59  C   LIG d   1       4.769  -1.586  -2.307  0.00  0.00    -0.054 C 
ATOM     60  C   LIG d   1       4.220  -0.455  -1.936  0.00  0.00    -0.100 C 
ATOM     61  H   LIG d   1       3.497  -0.443  -1.134  0.00  0.00     0.053 H 
ATOM     62  H   LIG d   1       4.489   0.464  -2.435  0.00  0.00     0.053 H 
ATOM     63  H   LIG d   1       4.499  -2.506  -1.809  0.00  0.00     0.060 H 
ENDBRANCH  56  59
ENDBRANCH  55  56
ENDBRANCH  52  55
ENDBRANCH  13  51
BRANCH   4  64
ATOM     64  O   LIG d   1      10.833   8.504  -9.851  0.00  0.00    -0.391 OA
ATOM     65  H   LIG d   1      10.719   9.465  -9.809  0.00  0.00     0.210 HD
ENDBRANCH   4  64
TORSDOF 12
ENDMDL
MODEL 9
REMARK VINA RESULT:      -5.7      6.175     11.727
REMARK  12 active torsions:
REMARK  status: ('A' for Active; 'I' for Inactive)
REMARK    1  A    between atoms: C_1  and  C_2 
REMARK    2  A    between atoms: C_5  and  O_35 
REMARK    3  A    between atoms: C_7  and  C_32 
REMARK    4  A    between atoms: C_7  and  C_33 
REMARK    5  A    between atoms: C_14  and  N_16 
REMARK       I    between atoms: N_16  and  C_17 
REMARK    6  A    between atoms: C_17  and  O_19 
REMARK    7  A    between atoms: O_19  and  C_20 
REMARK    8  A    between atoms: C_20  and  C_21 
REMARK    9  A    between atoms: C_23  and  C_25 
REMARK   10  A    between atoms: C_25  and  C_26 
REMARK       I    between atoms: C_26  and  N_28 
REMARK   11  A    between atoms: N_28  and  C_29 
REMARK   12  A    between atoms: C_33  and  O_34 
ROOT
ATOM      1  C   LIG d   1      10.925   6.817  -1.892  0.00  0.00    -0.019 C 
ATOM      2  C   LIG d   1      10.893   5.718  -0.824  0.00  0.00    -0.044 C 
ATOM      3  C   LIG d   1      11.681   6.152   0.410  0.00  0.00    -0.026 C 
ATOM      4  C   LIG d   1      11.036   7.417   0.986  0.00  0.00     0.063 C 
ATOM      5  H   LIG d   1       9.994   7.216   1.234  0.00  0.00     0.060 H 
ATOM      6  C   LIG d   1      11.112   8.526  -0.061  0.00  0.00     0.021 C 
ATOM      7  C   LIG d   1      10.351   8.118  -1.326  0.00  0.00    -0.021 C 
ATOM      8  H   LIG d   1       9.290   7.993  -1.110  0.00  0.00     0.032 H 
ATOM      9  C   LIG d   1      10.549   9.244  -2.360  0.00  0.00    -0.016 C 
ATOM     10  C   LIG d   1      10.135   8.751  -3.701  0.00  0.00     0.015 A 
ATOM     11  C   LIG d   1       9.908   7.465  -4.078  0.00  0.00     0.058 A 
ATOM     12  N   LIG d   1       9.544   7.285  -5.346  0.00  0.00    -0.229 NA
ATOM     13  C   LIG d   1       9.409   8.294  -6.188  0.00  0.00     0.167 A 
ATOM     14  S   LIG d   1       9.809   9.659  -5.189  0.00  0.00    -0.057 SA
ATOM     15  C   LIG d   1      10.076   6.334  -3.076  0.00  0.00     0.016 C 
ATOM     16  H   LIG d   1       9.096   6.021  -2.715  0.00  0.00     0.037 H 
ATOM     17  H   LIG d   1       9.859   5.521  -0.542  0.00  0.00     0.027 H 
ATOM     18  H   LIG d   1      11.332   4.808  -1.232  0.00  0.00     0.027 H 
ATOM     19  H   LIG d   1      11.657   5.358   1.155  0.00  0.00     0.029 H 
ATOM     20  H   LIG d   1      12.713   6.362   0.129  0.00  0.00     0.029 H 
ATOM     21  H   LIG d   1       9.939  10.104  -2.084  0.00  0.00     0.032 H 
ATOM     22  H   LIG d   1      11.599   9.535  -2.387  0.00  0.00     0.032 H 
ENDROOT
BRANCH  15  23
ATOM     23  C   LIG d   1      10.771   5.151  -3.752  0.00  0.00     0.033 C 
ATOM     24  H   LIG d   1      11.132   5.456  -4.735  0.00  0.00     0.036 H 
ATOM     25  H   LIG d   1      11.613   4.826  -3.141  0.00  0.00     0.036 H 
BRANCH  23  26
ATOM     26  C   LIG d   1       9.793   4.015  -3.905  0.00  0.00     0.214 C 
ATOM     27  O   LIG d   1       9.334   3.472  -2.923  0.00  0.00    -0.276 OA
ATOM     28  N   LIG d   1       9.429   3.601  -5.135  0.00  0.00    -0.312 N 
ATOM     29  H   LIG d   1       9.797   4.035  -5.922  0.00  0.00     0.149 HD
BRANCH  28  30
ATOM     30  C   LIG d   1       8.479   2.496  -5.285  0.00  0.00     0.023 A 
ATOM     31  C   LIG d   1       8.308   1.895  -6.682  0.00  0.00    -0.033 A 
ATOM     32  C   LIG d   1       9.050   1.111  -5.596  0.00  0.00    -0.033 A 
ATOM     33  H   LIG d   1       7.313   1.548  -6.962  0.00  0.00     0.028 H 
ATOM     34  H   LIG d   1       8.903   2.321  -7.489  0.00  0.00     0.028 H 
ATOM     35  H   LIG d   1      10.132   1.022  -5.690  0.00  0.00     0.028 H 
ATOM     36  H   LIG d   1       8.542   0.249  -5.163  0.00  0.00     0.028 H 
ATOM     37  H   LIG d   1       7.597   2.546  -4.647  0.00  0.00     0.050 H 
ENDBRANCH  28  30
ENDBRANCH  23  26
ENDBRANCH  15  23
BRANCH   1  38
ATOM     38  C   LIG d   1      12.368   7.048  -2.346  0.00  0.00    -0.059 C 
ATOM     39  H   LIG d   1      12.919   6.109  -2.297  0.00  0.00     0.024 H 
ATOM     40  H   LIG d   1      12.372   7.419  -3.371  0.00  0.00     0.024 H 
ATOM     41  H   LIG d   1      12.841   7.781  -1.693  0.00  0.00     0.024 H 
ENDBRANCH   1  38
BRANCH   6  42
ATOM     42  C   LIG d   1      10.496   9.805   0.510  0.00  0.00    -0.055 C 
ATOM     43  H   LIG d   1      10.829  10.661  -0.077  0.00  0.00     0.024 H 
ATOM     44  H   LIG d   1       9.410   9.736   0.467  0.00  0.00     0.024 H 
ATOM     45  H   LIG d   1      10.811   9.930   1.545  0.00  0.00     0.024 H 
ENDBRANCH   6  42
BRANCH   6  46
ATOM     46  C   LIG d   1      12.578   8.790  -0.414  0.00  0.00     0.052 C 
ATOM     47  H   LIG d   1      13.138   7.856  -0.361  0.00  0.00     0.056 H 
ATOM     48  H   LIG d   1      12.641   9.192  -1.425  0.00  0.00     0.056 H 
BRANCH  46  49
ATOM     49  O   LIG d   1      13.129   9.730   0.509  0.00  0.00    -0.394 OA
ATOM     50  H   LIG d   1      13.729  10.372   0.106  0.00  0.00     0.209 HD
ENDBRANCH  46  49
ENDBRANCH   6  46
BRANCH  13  51
ATOM     51  N   LIG d   1       9.041   8.271  -7.527  0.00  0.00    -0.230 N 
ATOM     52  C   LIG d   1       9.966   8.032  -8.478  0.00  0.00     0.406 C 
ATOM     53  O   LIG d   1      11.124   7.836  -8.163  0.00  0.00    -0.226 OA
ATOM     54  H   LIG d   1       8.117   8.428  -7.780  0.00  0.00     0.160 HD
BRANCH  52  55
ATOM     55  O   LIG d   1       9.609   8.009  -9.775  0.00  0.00    -0.446 OA
BRANCH  55  56
ATOM     56  C   LIG d   1       9.635   6.720 -10.444  0.00  0.00     0.112 C 
ATOM     57  H   LIG d   1       9.514   6.864 -11.517  0.00  0.00     0.074 H 
ATOM     58  H   LIG d   1      10.588   6.228 -10.248  0.00  0.00     0.074 H 
BRANCH  56  59
ATOM     59  C   LIG d   1       8.511   5.862  -9.922  0.00  0.00    -0.054 C 
ATOM     60  C   LIG d   1       8.778   4.730  -9.318  0.00  0.00    -0.100 C 
ATOM     61  H   LIG d   1       7.973   4.115  -8.944  0.00  0.00     0.053 H 
ATOM     62  H   LIG d   1       9.803   4.413  -9.193  0.00  0.00     0.053 H 
ATOM     63  H   LIG d   1       7.487   6.179 -10.047  0.00  0.00     0.060 H 
ENDBRANCH  56  59
ENDBRANCH  55  56
ENDBRANCH  52  55
ENDBRANCH  13  51
BRANCH   4  64
ATOM     64  O   LIG d   1      11.741   7.820   2.162  0.00  0.00    -0.391 OA
ATOM     65  H   LIG d   1      12.656   7.506   2.199  0.00  0.00     0.210 HD
ENDBRANCH   4  64
TORSDOF 12
ENDMDL
