MODEL 1
REMARK VINA RESULT:      -7.4      0.000      0.000
REMARK  6 active torsions:
REMARK  status: ('A' for Active; 'I' for Inactive)
REMARK    1  A    between atoms: C_4  and  O_7 
REMARK    2  A    between atoms: O_7  and  C_8 
REMARK    3  A    between atoms: C_8  and  C_9 
REMARK    4  A    between atoms: N_11  and  C_14 
REMARK    5  A    between atoms: C_14  and  C_15 
REMARK    6  A    between atoms: C_23  and  C_25 
REMARK       I    between atoms: C_25  and  N_27 
ROOT
ATOM      1  C   LIG d   1       9.139   4.027  -4.780  0.00  0.00    -0.001 C 
ATOM      2  H   LIG d   1       8.050   4.048  -4.779  0.00  0.00     0.087 H 
ATOM      3  C   LIG d   1       9.647   3.824  -3.349  0.00  0.00    -0.004 C 
ATOM      4  C   LIG d   1      10.518   5.025  -2.957  0.00  0.00    -0.015 C 
ATOM      5  H   LIG d   1      10.885   4.905  -1.937  0.00  0.00     0.031 H 
ATOM      6  C   LIG d   1      11.685   5.125  -3.946  0.00  0.00    -0.009 C 
ATOM      7  C   LIG d   1      11.122   5.292  -5.361  0.00  0.00    -0.031 C 
ATOM      8  C   LIG d   1       9.164   6.433  -4.506  0.00  0.00    -0.020 C 
ATOM      9  C   LIG d   1       9.671   6.299  -3.068  0.00  0.00     0.079 C 
ATOM     10  H   LIG d   1       8.824   6.235  -2.385  0.00  0.00     0.045 H 
ATOM     11  H   LIG d   1       8.799   3.750  -2.668  0.00  0.00     0.032 H 
ATOM     12  H   LIG d   1      10.239   2.911  -3.298  0.00  0.00     0.032 H 
ATOM     13  H   LIG d   1      12.285   4.217  -3.897  0.00  0.00     0.032 H 
ATOM     14  H   LIG d   1      12.304   5.987  -3.696  0.00  0.00     0.032 H 
ATOM     15  H   LIG d   1      11.456   4.464  -5.985  0.00  0.00     0.081 H 
ATOM     16  H   LIG d   1      11.475   6.232  -5.784  0.00  0.00     0.081 H 
ATOM     17  H   LIG d   1       9.530   7.365  -4.936  0.00  0.00     0.082 H 
ATOM     18  H   LIG d   1       8.074   6.434  -4.508  0.00  0.00     0.082 H 
ATOM     19  N   LIG d   1       9.644   5.303  -5.329  0.00  0.00     0.239 N 
ATOM     20  H   LIG d   1       9.291   5.416  -6.287  0.00  0.00     0.204 HD
ENDROOT
BRANCH   1  21
ATOM     21  C   LIG d   1       9.628   2.877  -5.663  0.00  0.00     0.086 C 
ATOM     22  H   LIG d   1       9.723   3.224  -6.691  0.00  0.00     0.057 H 
ATOM     23  H   LIG d   1      10.598   2.532  -5.304  0.00  0.00     0.057 H 
BRANCH  21  24
ATOM     24  N   LIG d   1       8.667   1.774  -5.605  0.00  0.00    -0.246 N 
ATOM     25  C   LIG d   1       8.753   0.687  -4.803  0.00  0.00     0.052 A 
ATOM     26  C   LIG d   1       7.663  -0.068  -5.073  0.00  0.00     0.120 A 
ATOM     27  H   LIG d   1       9.533   0.469  -4.090  0.00  0.00     0.085 H 
ATOM     28  N   LIG d   1       6.976   0.580  -6.020  0.00  0.00    -0.131 NA
ATOM     29  N   LIG d   1       7.598   1.668  -6.314  0.00  0.00    -0.065 NA
BRANCH  26  30
ATOM     30  C   LIG d   1       7.298  -1.383  -4.435  0.00  0.00     0.135 C 
ATOM     31  H   LIG d   1       6.490  -1.849  -4.999  0.00  0.00     0.076 H 
ATOM     32  H   LIG d   1       8.168  -2.042  -4.436  0.00  0.00     0.076 H 
BRANCH  30  33
ATOM     33  O   LIG d   1       6.872  -1.159  -3.090  0.00  0.00    -0.486 OA
BRANCH  33  34
ATOM     34  C   LIG d   1       5.585  -0.764  -2.907  0.00  0.00     0.121 A 
ATOM     35  C   LIG d   1       4.546  -1.657  -3.124  0.00  0.00    -0.020 A 
ATOM     36  C   LIG d   1       3.238  -1.253  -2.936  0.00  0.00    -0.058 A 
ATOM     37  H   LIG d   1       4.759  -2.668  -3.438  0.00  0.00     0.065 H 
ATOM     38  C   LIG d   1       2.965   0.041  -2.533  0.00  0.00    -0.061 A 
ATOM     39  H   LIG d   1       2.429  -1.947  -3.104  0.00  0.00     0.062 H 
ATOM     40  C   LIG d   1       3.998   0.934  -2.317  0.00  0.00    -0.058 A 
ATOM     41  H   LIG d   1       1.942   0.356  -2.388  0.00  0.00     0.062 H 
ATOM     42  C   LIG d   1       5.308   0.533  -2.497  0.00  0.00    -0.020 A 
ATOM     43  H   LIG d   1       3.783   1.945  -2.003  0.00  0.00     0.062 H 
ATOM     44  H   LIG d   1       6.115   1.229  -2.324  0.00  0.00     0.065 H 
ENDBRANCH  33  34
ENDBRANCH  30  33
ENDBRANCH  26  30
ENDBRANCH  21  24
ENDBRANCH   1  21
BRANCH   9  45
ATOM     45  C   LIG d   1      10.515   7.497  -2.714  0.00  0.00     0.224 C 
ATOM     46  O   LIG d   1      10.899   8.249  -3.586  0.00  0.00    -0.275 OA
ATOM     47  N   LIG d   1      10.843   7.734  -1.429  0.00  0.00    -0.297 N 
ATOM     48  C   LIG d   1      11.666   8.897  -1.058  0.00  0.00     0.038 C 
ATOM     49  C   LIG d   1      10.385   6.841  -0.353  0.00  0.00     0.038 C 
ATOM     50  C   LIG d   1      12.818   8.412  -0.171  0.00  0.00     0.064 C 
ATOM     51  H   LIG d   1      12.066   9.364  -1.957  0.00  0.00     0.049 H 
ATOM     52  H   LIG d   1      11.058   9.617  -0.511  0.00  0.00     0.049 H 
ATOM     53  O   LIG d   1      12.287   7.640   0.909  0.00  0.00    -0.377 OA
ATOM     54  H   LIG d   1      13.496   7.796  -0.760  0.00  0.00     0.058 H 
ATOM     55  H   LIG d   1      13.358   9.272   0.227  0.00  0.00     0.058 H 
ATOM     56  C   LIG d   1      11.604   6.453   0.500  0.00  0.00     0.064 C 
ATOM     57  H   LIG d   1      12.279   5.829  -0.087  0.00  0.00     0.058 H 
ATOM     58  H   LIG d   1      11.271   5.903   1.380  0.00  0.00     0.058 H 
ATOM     59  H   LIG d   1       9.651   7.358   0.265  0.00  0.00     0.049 H 
ATOM     60  H   LIG d   1       9.938   5.946  -0.785  0.00  0.00     0.049 H 
ENDBRANCH   9  45
TORSDOF 6
ENDMDL
MODEL 2
REMARK VINA RESULT:      -7.3      2.105      3.281
REMARK  6 active torsions:
REMARK  status: ('A' for Active; 'I' for Inactive)
REMARK    1  A    between atoms: C_4  and  O_7 
REMARK    2  A    between atoms: O_7  and  C_8 
REMARK    3  A    between atoms: C_8  and  C_9 
REMARK    4  A    between atoms: N_11  and  C_14 
REMARK    5  A    between atoms: C_14  and  C_15 
REMARK    6  A    between atoms: C_23  and  C_25 
REMARK       I    between atoms: C_25  and  N_27 
ROOT
ATOM      1  C   LIG d   1      10.772   5.728  -1.936  0.00  0.00    -0.001 C 
ATOM      2  H   LIG d   1      10.255   5.022  -1.288  0.00  0.00     0.087 H 
ATOM      3  C   LIG d   1      11.912   6.395  -1.159  0.00  0.00    -0.004 C 
ATOM      4  C   LIG d   1      11.669   7.910  -1.125  0.00  0.00    -0.015 C 
ATOM      5  H   LIG d   1      12.465   8.405  -0.570  0.00  0.00     0.031 H 
ATOM      6  C   LIG d   1      11.609   8.427  -2.568  0.00  0.00    -0.009 C 
ATOM      7  C   LIG d   1      10.479   7.705  -3.307  0.00  0.00    -0.031 C 
ATOM      8  C   LIG d   1       9.220   7.457  -1.252  0.00  0.00    -0.020 C 
ATOM      9  C   LIG d   1      10.314   8.173  -0.455  0.00  0.00     0.079 C 
ATOM     10  H   LIG d   1      10.333   7.792   0.566  0.00  0.00     0.045 H 
ATOM     11  H   LIG d   1      11.935   6.006  -0.141  0.00  0.00     0.032 H 
ATOM     12  H   LIG d   1      12.860   6.188  -1.653  0.00  0.00     0.032 H 
ATOM     13  H   LIG d   1      12.557   8.228  -3.067  0.00  0.00     0.032 H 
ATOM     14  H   LIG d   1      11.415   9.500  -2.564  0.00  0.00     0.032 H 
ATOM     15  H   LIG d   1      10.889   7.164  -4.159  0.00  0.00     0.081 H 
ATOM     16  H   LIG d   1       9.749   8.435  -3.656  0.00  0.00     0.081 H 
ATOM     17  H   LIG d   1       8.498   8.188  -1.616  0.00  0.00     0.082 H 
ATOM     18  H   LIG d   1       8.716   6.736  -0.609  0.00  0.00     0.082 H 
ATOM     19  N   LIG d   1       9.806   6.744  -2.406  0.00  0.00     0.239 N 
ATOM     20  H   LIG d   1       9.054   6.274  -2.924  0.00  0.00     0.204 HD
ENDROOT
BRANCH   1  21
ATOM     21  C   LIG d   1      11.344   4.989  -3.147  0.00  0.00     0.086 C 
ATOM     22  H   LIG d   1      11.701   5.712  -3.880  0.00  0.00     0.057 H 
ATOM     23  H   LIG d   1      12.173   4.357  -2.827  0.00  0.00     0.057 H 
BRANCH  21  24
ATOM     24  N   LIG d   1      10.301   4.156  -3.749  0.00  0.00    -0.246 N 
ATOM     25  C   LIG d   1       9.775   3.031  -3.212  0.00  0.00     0.052 A 
ATOM     26  C   LIG d   1       8.850   2.589  -4.094  0.00  0.00     0.120 A 
ATOM     27  H   LIG d   1      10.039   2.579  -2.268  0.00  0.00     0.085 H 
ATOM     28  N   LIG d   1       8.859   3.448  -5.118  0.00  0.00    -0.131 NA
ATOM     29  N   LIG d   1       9.730   4.366  -4.883  0.00  0.00    -0.065 NA
BRANCH  26  30
ATOM     30  C   LIG d   1       7.982   1.365  -3.952  0.00  0.00     0.135 C 
ATOM     31  H   LIG d   1       7.792   0.937  -4.937  0.00  0.00     0.076 H 
ATOM     32  H   LIG d   1       8.490   0.629  -3.328  0.00  0.00     0.076 H 
BRANCH  30  33
ATOM     33  O   LIG d   1       6.741   1.728  -3.345  0.00  0.00    -0.486 OA
BRANCH  33  34
ATOM     34  C   LIG d   1       5.910   0.715  -2.982  0.00  0.00     0.121 A 
ATOM     35  C   LIG d   1       6.265  -0.601  -3.237  0.00  0.00    -0.020 A 
ATOM     36  C   LIG d   1       5.418  -1.628  -2.867  0.00  0.00    -0.058 A 
ATOM     37  H   LIG d   1       7.203  -0.822  -3.725  0.00  0.00     0.065 H 
ATOM     38  C   LIG d   1       4.217  -1.345  -2.244  0.00  0.00    -0.061 A 
ATOM     39  H   LIG d   1       5.694  -2.653  -3.065  0.00  0.00     0.062 H 
ATOM     40  C   LIG d   1       3.860  -0.034  -1.989  0.00  0.00    -0.058 A 
ATOM     41  H   LIG d   1       3.556  -2.148  -1.956  0.00  0.00     0.062 H 
ATOM     42  C   LIG d   1       4.706   0.997  -2.351  0.00  0.00    -0.020 A 
ATOM     43  H   LIG d   1       2.921   0.187  -1.503  0.00  0.00     0.062 H 
ATOM     44  H   LIG d   1       4.429   2.021  -2.148  0.00  0.00     0.065 H 
ENDBRANCH  33  34
ENDBRANCH  30  33
ENDBRANCH  26  30
ENDBRANCH  21  24
ENDBRANCH   1  21
BRANCH   9  45
ATOM     45  C   LIG d   1      10.041   9.655  -0.435  0.00  0.00     0.224 C 
ATOM     46  O   LIG d   1       9.289  10.145  -1.253  0.00  0.00    -0.275 OA
ATOM     47  N   LIG d   1      10.630  10.437   0.490  0.00  0.00    -0.297 N 
ATOM     48  C   LIG d   1      10.379  11.887   0.530  0.00  0.00     0.038 C 
ATOM     49  C   LIG d   1      11.539   9.865   1.496  0.00  0.00     0.038 C 
ATOM     50  C   LIG d   1      11.729  12.611   0.575  0.00  0.00     0.064 C 
ATOM     51  H   LIG d   1       9.830  12.188  -0.362  0.00  0.00     0.049 H 
ATOM     52  H   LIG d   1       9.798  12.134   1.419  0.00  0.00     0.049 H 
ATOM     53  O   LIG d   1      12.515  12.074   1.641  0.00  0.00    -0.377 OA
ATOM     54  H   LIG d   1      12.250  12.467  -0.371  0.00  0.00     0.058 H 
ATOM     55  H   LIG d   1      11.565  13.675   0.743  0.00  0.00     0.058 H 
ATOM     56  C   LIG d   1      12.838  10.689   1.491  0.00  0.00     0.064 C 
ATOM     57  H   LIG d   1      13.364  10.539   0.548  0.00  0.00     0.058 H 
ATOM     58  H   LIG d   1      13.473  10.371   2.318  0.00  0.00     0.058 H 
ATOM     59  H   LIG d   1      11.075   9.914   2.481  0.00  0.00     0.049 H 
ATOM     60  H   LIG d   1      11.760   8.828   1.244  0.00  0.00     0.049 H 
ENDBRANCH   9  45
TORSDOF 6
ENDMDL
MODEL 3
REMARK VINA RESULT:      -7.1      3.174      4.126
REMARK  6 active torsions:
REMARK  status: ('A' for Active; 'I' for Inactive)
REMARK    1  A    between atoms: C_4  and  O_7 
REMARK    2  A    between atoms: O_7  and  C_8 
REMARK    3  A    between atoms: C_8  and  C_9 
REMARK    4  A    between atoms: N_11  and  C_14 
REMARK    5  A    between atoms: C_14  and  C_15 
REMARK    6  A    between atoms: C_23  and  C_25 
REMARK       I    between atoms: C_25  and  N_27 
ROOT
ATOM      1  C   LIG d   1       9.908   6.470  -5.320  0.00  0.00    -0.001 C 
ATOM      2  H   LIG d   1       8.911   6.071  -5.500  0.00  0.00     0.087 H 
ATOM      3  C   LIG d   1       9.884   7.357  -4.070  0.00  0.00    -0.004 C 
ATOM      4  C   LIG d   1      10.310   8.778  -4.463  0.00  0.00    -0.015 C 
ATOM      5  H   LIG d   1      10.293   9.429  -3.589  0.00  0.00     0.031 H 
ATOM      6  C   LIG d   1      11.719   8.715  -5.067  0.00  0.00    -0.009 C 
ATOM      7  C   LIG d   1      11.693   7.791  -6.288  0.00  0.00    -0.031 C 
ATOM      8  C   LIG d   1       9.381   8.361  -6.739  0.00  0.00    -0.020 C 
ATOM      9  C   LIG d   1       9.342   9.301  -5.531  0.00  0.00     0.079 C 
ATOM     10  H   LIG d   1       8.332   9.332  -5.124  0.00  0.00     0.045 H 
ATOM     11  H   LIG d   1       8.875   7.379  -3.658  0.00  0.00     0.032 H 
ATOM     12  H   LIG d   1      10.575   6.960  -3.328  0.00  0.00     0.032 H 
ATOM     13  H   LIG d   1      12.417   8.324  -4.328  0.00  0.00     0.032 H 
ATOM     14  H   LIG d   1      12.030   9.715  -5.372  0.00  0.00     0.032 H 
ATOM     15  H   LIG d   1      12.380   6.961  -6.130  0.00  0.00     0.081 H 
ATOM     16  H   LIG d   1      11.994   8.351  -7.174  0.00  0.00     0.081 H 
ATOM     17  H   LIG d   1       9.699   8.916  -7.622  0.00  0.00     0.082 H 
ATOM     18  H   LIG d   1       8.389   7.945  -6.907  0.00  0.00     0.082 H 
ATOM     19  N   LIG d   1      10.331   7.254  -6.499  0.00  0.00     0.239 N 
ATOM     20  H   LIG d   1      10.340   6.639  -7.322  0.00  0.00     0.204 HD
ENDROOT
BRANCH   1  21
ATOM     21  C   LIG d   1      10.891   5.318  -5.108  0.00  0.00     0.086 C 
ATOM     22  H   LIG d   1      11.278   4.989  -6.073  0.00  0.00     0.057 H 
ATOM     23  H   LIG d   1      11.717   5.656  -4.482  0.00  0.00     0.057 H 
BRANCH  21  24
ATOM     24  N   LIG d   1      10.205   4.204  -4.451  0.00  0.00    -0.246 N 
ATOM     25  C   LIG d   1       9.241   3.430  -5.002  0.00  0.00     0.052 A 
ATOM     26  C   LIG d   1       8.891   2.531  -4.053  0.00  0.00     0.120 A 
ATOM     27  H   LIG d   1       8.836   3.510  -5.999  0.00  0.00     0.085 H 
ATOM     28  N   LIG d   1       9.641   2.801  -2.979  0.00  0.00    -0.131 NA
ATOM     29  N   LIG d   1      10.408   3.798  -3.246  0.00  0.00    -0.065 NA
BRANCH  26  30
ATOM     30  C   LIG d   1       7.856   1.443  -4.179  0.00  0.00     0.135 C 
ATOM     31  H   LIG d   1       7.576   1.327  -5.226  0.00  0.00     0.076 H 
ATOM     32  H   LIG d   1       8.269   0.504  -3.808  0.00  0.00     0.076 H 
BRANCH  30  33
ATOM     33  O   LIG d   1       6.702   1.792  -3.413  0.00  0.00    -0.486 OA
BRANCH  33  34
ATOM     34  C   LIG d   1       5.906   0.773  -2.995  0.00  0.00     0.121 A 
ATOM     35  C   LIG d   1       6.268  -0.542  -3.251  0.00  0.00    -0.020 A 
ATOM     36  C   LIG d   1       5.456  -1.576  -2.824  0.00  0.00    -0.058 A 
ATOM     37  H   LIG d   1       7.183  -0.757  -3.783  0.00  0.00     0.065 H 
ATOM     38  C   LIG d   1       4.285  -1.301  -2.143  0.00  0.00    -0.061 A 
ATOM     39  H   LIG d   1       5.737  -2.599  -3.022  0.00  0.00     0.062 H 
ATOM     40  C   LIG d   1       3.921   0.008  -1.888  0.00  0.00    -0.058 A 
ATOM     41  H   LIG d   1       3.652  -2.110  -1.811  0.00  0.00     0.062 H 
ATOM     42  C   LIG d   1       4.732   1.046  -2.307  0.00  0.00    -0.020 A 
ATOM     43  H   LIG d   1       3.005   0.222  -1.357  0.00  0.00     0.062 H 
ATOM     44  H   LIG d   1       4.450   2.068  -2.103  0.00  0.00     0.065 H 
ENDBRANCH  33  34
ENDBRANCH  30  33
ENDBRANCH  26  30
ENDBRANCH  21  24
ENDBRANCH   1  21
BRANCH   9  45
ATOM     45  C   LIG d   1       9.758  10.687  -5.953  0.00  0.00     0.224 C 
ATOM     46  O   LIG d   1      10.357  10.850  -6.996  0.00  0.00    -0.275 OA
ATOM     47  N   LIG d   1       9.465  11.746  -5.173  0.00  0.00    -0.297 N 
ATOM     48  C   LIG d   1       9.861  13.108  -5.563  0.00  0.00     0.038 C 
ATOM     49  C   LIG d   1       8.735  11.574  -3.907  0.00  0.00     0.038 C 
ATOM     50  C   LIG d   1      10.583  13.761  -4.379  0.00  0.00     0.064 C 
ATOM     51  H   LIG d   1      10.530  13.064  -6.422  0.00  0.00     0.049 H 
ATOM     52  H   LIG d   1       8.974  13.689  -5.819  0.00  0.00     0.049 H 
ATOM     53  O   LIG d   1       9.768  13.647  -3.210  0.00  0.00    -0.377 OA
ATOM     54  H   LIG d   1      11.534  13.256  -4.210  0.00  0.00     0.058 H 
ATOM     55  H   LIG d   1      10.762  14.814  -4.597  0.00  0.00     0.058 H 
ATOM     56  C   LIG d   1       9.516  12.301  -2.800  0.00  0.00     0.064 C 
ATOM     57  H   LIG d   1      10.464  11.791  -2.625  0.00  0.00     0.058 H 
ATOM     58  H   LIG d   1       8.929  12.303  -1.882  0.00  0.00     0.058 H 
ATOM     59  H   LIG d   1       7.738  12.004  -3.997  0.00  0.00     0.049 H 
ATOM     60  H   LIG d   1       8.659  10.513  -3.668  0.00  0.00     0.049 H 
ENDBRANCH   9  45
TORSDOF 6
ENDMDL
MODEL 4
REMARK VINA RESULT:      -6.8      2.147      3.263
REMARK  6 active torsions:
REMARK  status: ('A' for Active; 'I' for Inactive)
REMARK    1  A    between atoms: C_4  and  O_7 
REMARK    2  A    between atoms: O_7  and  C_8 
REMARK    3  A    between atoms: C_8  and  C_9 
REMARK    4  A    between atoms: N_11  and  C_14 
REMARK    5  A    between atoms: C_14  and  C_15 
REMARK    6  A    between atoms: C_23  and  C_25 
REMARK       I    between atoms: C_25  and  N_27 
ROOT
ATOM      1  C   LIG d   1      10.559   5.190  -3.431  0.00  0.00    -0.001 C 
ATOM      2  H   LIG d   1      10.997   4.938  -4.396  0.00  0.00     0.087 H 
ATOM      3  C   LIG d   1       9.437   6.215  -3.632  0.00  0.00    -0.004 C 
ATOM      4  C   LIG d   1       9.785   7.489  -2.851  0.00  0.00    -0.015 C 
ATOM      5  H   LIG d   1       9.003   8.236  -2.986  0.00  0.00     0.031 H 
ATOM      6  C   LIG d   1       9.940   7.127  -1.369  0.00  0.00    -0.009 C 
ATOM      7  C   LIG d   1      11.047   6.077  -1.230  0.00  0.00    -0.031 C 
ATOM      8  C   LIG d   1      12.199   6.954  -3.173  0.00  0.00    -0.020 C 
ATOM      9  C   LIG d   1      11.125   8.028  -3.367  0.00  0.00     0.079 C 
ATOM     10  H   LIG d   1      11.038   8.271  -4.425  0.00  0.00     0.045 H 
ATOM     11  H   LIG d   1       9.344   6.450  -4.692  0.00  0.00     0.032 H 
ATOM     12  H   LIG d   1       8.498   5.805  -3.263  0.00  0.00     0.032 H 
ATOM     13  H   LIG d   1       9.003   6.720  -0.992  0.00  0.00     0.032 H 
ATOM     14  H   LIG d   1      10.209   8.018  -0.801  0.00  0.00     0.032 H 
ATOM     15  H   LIG d   1      10.635   5.172  -0.784  0.00  0.00     0.081 H 
ATOM     16  H   LIG d   1      11.841   6.468  -0.594  0.00  0.00     0.081 H 
ATOM     17  H   LIG d   1      12.985   7.337  -2.523  0.00  0.00     0.082 H 
ATOM     18  H   LIG d   1      12.623   6.686  -4.140  0.00  0.00     0.082 H 
ATOM     19  N   LIG d   1      11.612   5.745  -2.555  0.00  0.00     0.239 N 
ATOM     20  H   LIG d   1      12.351   5.041  -2.435  0.00  0.00     0.204 HD
ENDROOT
BRANCH   1  21
ATOM     21  C   LIG d   1       9.986   3.929  -2.782  0.00  0.00     0.086 C 
ATOM     22  H   LIG d   1      10.759   3.443  -2.187  0.00  0.00     0.057 H 
ATOM     23  H   LIG d   1       9.148   4.199  -2.140  0.00  0.00     0.057 H 
BRANCH  21  24
ATOM     24  N   LIG d   1       9.525   3.010  -3.826  0.00  0.00    -0.246 N 
ATOM     25  C   LIG d   1       8.586   2.046  -3.675  0.00  0.00     0.052 A 
ATOM     26  C   LIG d   1       8.470   1.442  -4.880  0.00  0.00     0.120 A 
ATOM     27  H   LIG d   1       8.038   1.810  -2.776  0.00  0.00     0.085 H 
ATOM     28  N   LIG d   1       9.337   2.051  -5.696  0.00  0.00    -0.131 NA
ATOM     29  N   LIG d   1       9.947   2.975  -5.041  0.00  0.00    -0.065 NA
BRANCH  26  30
ATOM     30  C   LIG d   1       7.548   0.303  -5.233  0.00  0.00     0.135 C 
ATOM     31  H   LIG d   1       7.657   0.060  -6.290  0.00  0.00     0.076 H 
ATOM     32  H   LIG d   1       7.803  -0.570  -4.631  0.00  0.00     0.076 H 
BRANCH  30  33
ATOM     33  O   LIG d   1       6.197   0.685  -4.969  0.00  0.00    -0.486 OA
BRANCH  33  34
ATOM     34  C   LIG d   1       5.574   0.074  -3.928  0.00  0.00     0.121 A 
ATOM     35  C   LIG d   1       5.366  -1.298  -3.949  0.00  0.00    -0.020 A 
ATOM     36  C   LIG d   1       4.732  -1.916  -2.888  0.00  0.00    -0.058 A 
ATOM     37  H   LIG d   1       5.701  -1.881  -4.794  0.00  0.00     0.065 H 
ATOM     38  C   LIG d   1       4.304  -1.169  -1.807  0.00  0.00    -0.061 A 
ATOM     39  H   LIG d   1       4.571  -2.983  -2.904  0.00  0.00     0.062 H 
ATOM     40  C   LIG d   1       4.508   0.198  -1.783  0.00  0.00    -0.058 A 
ATOM     41  H   LIG d   1       3.809  -1.653  -0.979  0.00  0.00     0.062 H 
ATOM     42  C   LIG d   1       5.147   0.821  -2.838  0.00  0.00    -0.020 A 
ATOM     43  H   LIG d   1       4.173   0.781  -0.938  0.00  0.00     0.062 H 
ATOM     44  H   LIG d   1       5.311   1.888  -2.818  0.00  0.00     0.065 H 
ENDBRANCH  33  34
ENDBRANCH  30  33
ENDBRANCH  26  30
ENDBRANCH  21  24
ENDBRANCH   1  21
BRANCH   9  45
ATOM     45  C   LIG d   1      11.501   9.267  -2.594  0.00  0.00     0.224 C 
ATOM     46  O   LIG d   1      12.260   9.186  -1.650  0.00  0.00    -0.275 OA
ATOM     47  N   LIG d   1      10.996  10.463  -2.952  0.00  0.00    -0.297 N 
ATOM     48  C   LIG d   1      11.349  11.687  -2.213  0.00  0.00     0.038 C 
ATOM     49  C   LIG d   1      10.080  10.587  -4.097  0.00  0.00     0.038 C 
ATOM     50  C   LIG d   1      10.054  12.422  -1.848  0.00  0.00     0.064 C 
ATOM     51  H   LIG d   1      11.890  11.423  -1.305  0.00  0.00     0.049 H 
ATOM     52  H   LIG d   1      11.972  12.326  -2.839  0.00  0.00     0.049 H 
ATOM     53  O   LIG d   1       9.265  12.597  -3.027  0.00  0.00    -0.377 OA
ATOM     54  H   LIG d   1       9.495  11.834  -1.121  0.00  0.00     0.058 H 
ATOM     55  H   LIG d   1      10.296  13.396  -1.424  0.00  0.00     0.058 H 
ATOM     56  C   LIG d   1       8.843  11.375  -3.637  0.00  0.00     0.064 C 
ATOM     57  H   LIG d   1       8.279  10.784  -2.915  0.00  0.00     0.058 H 
ATOM     58  H   LIG d   1       8.213  11.596  -4.499  0.00  0.00     0.058 H 
ATOM     59  H   LIG d   1      10.577  11.119  -4.908  0.00  0.00     0.049 H 
ATOM     60  H   LIG d   1       9.780   9.595  -4.436  0.00  0.00     0.049 H 
ENDBRANCH   9  45
TORSDOF 6
ENDMDL
MODEL 5
REMARK VINA RESULT:      -6.8      1.892      2.836
REMARK  6 active torsions:
REMARK  status: ('A' for Active; 'I' for Inactive)
REMARK    1  A    between atoms: C_4  and  O_7 
REMARK    2  A    between atoms: O_7  and  C_8 
REMARK    3  A    between atoms: C_8  and  C_9 
REMARK    4  A    between atoms: N_11  and  C_14 
REMARK    5  A    between atoms: C_14  and  C_15 
REMARK    6  A    between atoms: C_23  and  C_25 
REMARK       I    between atoms: C_25  and  N_27 
ROOT
ATOM      1  C   LIG d   1      11.343   5.096  -3.494  0.00  0.00    -0.001 C 
ATOM      2  H   LIG d   1      11.860   4.321  -2.930  0.00  0.00     0.087 H 
ATOM      3  C   LIG d   1      12.203   6.364  -3.526  0.00  0.00    -0.004 C 
ATOM      4  C   LIG d   1      11.422   7.510  -2.870  0.00  0.00    -0.015 C 
ATOM      5  H   LIG d   1      12.019   8.422  -2.875  0.00  0.00     0.031 H 
ATOM      6  C   LIG d   1      10.113   7.713  -3.643  0.00  0.00    -0.009 C 
ATOM      7  C   LIG d   1       9.310   6.410  -3.608  0.00  0.00    -0.031 C 
ATOM      8  C   LIG d   1      10.254   5.821  -1.456  0.00  0.00    -0.020 C 
ATOM      9  C   LIG d   1      11.083   7.108  -1.430  0.00  0.00     0.079 C 
ATOM     10  H   LIG d   1      12.004   6.939  -0.872  0.00  0.00     0.045 H 
ATOM     11  H   LIG d   1      13.128   6.191  -2.977  0.00  0.00     0.032 H 
ATOM     12  H   LIG d   1      12.433   6.622  -4.560  0.00  0.00     0.032 H 
ATOM     13  H   LIG d   1      10.335   7.978  -4.676  0.00  0.00     0.032 H 
ATOM     14  H   LIG d   1       9.533   8.511  -3.177  0.00  0.00     0.032 H 
ATOM     15  H   LIG d   1       9.149   6.055  -4.626  0.00  0.00     0.081 H 
ATOM     16  H   LIG d   1       8.348   6.588  -3.128  0.00  0.00     0.081 H 
ATOM     17  H   LIG d   1       9.285   6.002  -0.991  0.00  0.00     0.082 H 
ATOM     18  H   LIG d   1      10.780   5.039  -0.909  0.00  0.00     0.082 H 
ATOM     19  N   LIG d   1      10.042   5.373  -2.849  0.00  0.00     0.239 N 
ATOM     20  H   LIG d   1       9.485   4.511  -2.840  0.00  0.00     0.204 HD
ENDROOT
BRANCH   1  21
ATOM     21  C   LIG d   1      11.096   4.612  -4.924  0.00  0.00     0.086 C 
ATOM     22  H   LIG d   1      10.388   5.278  -5.416  0.00  0.00     0.057 H 
ATOM     23  H   LIG d   1      12.036   4.610  -5.475  0.00  0.00     0.057 H 
BRANCH  21  24
ATOM     24  N   LIG d   1      10.547   3.254  -4.891  0.00  0.00    -0.246 N 
ATOM     25  C   LIG d   1       9.233   2.929  -4.899  0.00  0.00     0.052 A 
ATOM     26  C   LIG d   1       9.179   1.577  -4.861  0.00  0.00     0.120 A 
ATOM     27  H   LIG d   1       8.397   3.610  -4.932  0.00  0.00     0.085 H 
ATOM     28  N   LIG d   1      10.445   1.147  -4.824  0.00  0.00    -0.131 NA
ATOM     29  N   LIG d   1      11.232   2.165  -4.842  0.00  0.00    -0.065 NA
BRANCH  26  30
ATOM     30  C   LIG d   1       7.937   0.725  -4.857  0.00  0.00     0.135 C 
ATOM     31  H   LIG d   1       7.619   0.539  -5.883  0.00  0.00     0.076 H 
ATOM     32  H   LIG d   1       8.150  -0.226  -4.365  0.00  0.00     0.076 H 
BRANCH  30  33
ATOM     33  O   LIG d   1       6.896   1.402  -4.151  0.00  0.00    -0.486 OA
BRANCH  33  34
ATOM     34  C   LIG d   1       6.057   0.639  -3.403  0.00  0.00     0.121 A 
ATOM     35  C   LIG d   1       6.145  -0.745  -3.453  0.00  0.00    -0.020 A 
ATOM     36  C   LIG d   1       5.291  -1.518  -2.691  0.00  0.00    -0.058 A 
ATOM     37  H   LIG d   1       6.882  -1.216  -4.086  0.00  0.00     0.065 H 
ATOM     38  C   LIG d   1       4.348  -0.915  -1.880  0.00  0.00    -0.061 A 
ATOM     39  H   LIG d   1       5.359  -2.595  -2.728  0.00  0.00     0.062 H 
ATOM     40  C   LIG d   1       4.256   0.464  -1.829  0.00  0.00    -0.058 A 
ATOM     41  H   LIG d   1       3.680  -1.520  -1.286  0.00  0.00     0.062 H 
ATOM     42  C   LIG d   1       5.112   1.243  -2.584  0.00  0.00    -0.020 A 
ATOM     43  H   LIG d   1       3.519   0.934  -1.196  0.00  0.00     0.062 H 
ATOM     44  H   LIG d   1       5.045   2.319  -2.541  0.00  0.00     0.065 H 
ENDBRANCH  33  34
ENDBRANCH  30  33
ENDBRANCH  26  30
ENDBRANCH  21  24
ENDBRANCH   1  21
BRANCH   9  45
ATOM     45  C   LIG d   1      10.290   8.209  -0.772  0.00  0.00     0.224 C 
ATOM     46  O   LIG d   1       9.087   8.103  -0.655  0.00  0.00    -0.275 OA
ATOM     47  N   LIG d   1      10.917   9.310  -0.315  0.00  0.00    -0.297 N 
ATOM     48  C   LIG d   1      10.164  10.399   0.329  0.00  0.00     0.038 C 
ATOM     49  C   LIG d   1      12.376   9.458  -0.441  0.00  0.00     0.038 C 
ATOM     50  C   LIG d   1      10.562  11.722  -0.334  0.00  0.00     0.064 C 
ATOM     51  H   LIG d   1       9.096  10.231   0.203  0.00  0.00     0.049 H 
ATOM     52  H   LIG d   1      10.407  10.432   1.392  0.00  0.00     0.049 H 
ATOM     53  O   LIG d   1      11.987  11.843  -0.325  0.00  0.00    -0.377 OA
ATOM     54  H   LIG d   1      10.202  11.735  -1.362  0.00  0.00     0.058 H 
ATOM     55  H   LIG d   1      10.123  12.553   0.218  0.00  0.00     0.058 H 
ATOM     56  C   LIG d   1      12.665  10.830  -1.072  0.00  0.00     0.064 C 
ATOM     57  H   LIG d   1      12.313  10.841  -2.104  0.00  0.00     0.058 H 
ATOM     58  H   LIG d   1      13.738  11.020  -1.051  0.00  0.00     0.058 H 
ATOM     59  H   LIG d   1      12.837   9.401   0.545  0.00  0.00     0.049 H 
ATOM     60  H   LIG d   1      12.771   8.669  -1.079  0.00  0.00     0.049 H 
ENDBRANCH   9  45
TORSDOF 6
ENDMDL
MODEL 6
REMARK VINA RESULT:      -6.7      2.726      3.677
REMARK  6 active torsions:
REMARK  status: ('A' for Active; 'I' for Inactive)
REMARK    1  A    between atoms: C_4  and  O_7 
REMARK    2  A    between atoms: O_7  and  C_8 
REMARK    3  A    between atoms: C_8  and  C_9 
REMARK    4  A    between atoms: N_11  and  C_14 
REMARK    5  A    between atoms: C_14  and  C_15 
REMARK    6  A    between atoms: C_23  and  C_25 
REMARK       I    between atoms: C_25  and  N_27 
ROOT
ATOM      1  C   LIG d   1       9.569   5.620  -3.757  0.00  0.00    -0.001 C 
ATOM      2  H   LIG d   1       8.536   5.330  -3.947  0.00  0.00     0.087 H 
ATOM      3  C   LIG d   1       9.594   6.923  -2.952  0.00  0.00    -0.004 C 
ATOM      4  C   LIG d   1      10.337   7.992  -3.763  0.00  0.00    -0.015 C 
ATOM      5  H   LIG d   1      10.361   8.932  -3.211  0.00  0.00     0.031 H 
ATOM      6  C   LIG d   1      11.759   7.491  -4.045  0.00  0.00    -0.009 C 
ATOM      7  C   LIG d   1      11.675   6.173  -4.819  0.00  0.00    -0.031 C 
ATOM      8  C   LIG d   1       9.586   6.845  -5.846  0.00  0.00    -0.020 C 
ATOM      9  C   LIG d   1       9.611   8.183  -5.101  0.00  0.00     0.079 C 
ATOM     10  H   LIG d   1       8.591   8.519  -4.917  0.00  0.00     0.045 H 
ATOM     11  H   LIG d   1       8.573   7.253  -2.760  0.00  0.00     0.032 H 
ATOM     12  H   LIG d   1      10.110   6.757  -2.006  0.00  0.00     0.032 H 
ATOM     13  H   LIG d   1      12.283   7.328  -3.103  0.00  0.00     0.032 H 
ATOM     14  H   LIG d   1      12.296   8.230  -4.640  0.00  0.00     0.032 H 
ATOM     15  H   LIG d   1      12.160   5.383  -4.247  0.00  0.00     0.081 H 
ATOM     16  H   LIG d   1      12.173   6.284  -5.782  0.00  0.00     0.081 H 
ATOM     17  H   LIG d   1      10.099   6.951  -6.801  0.00  0.00     0.082 H 
ATOM     18  H   LIG d   1       8.552   6.546  -6.018  0.00  0.00     0.082 H 
ATOM     19  N   LIG d   1      10.262   5.799  -5.050  0.00  0.00     0.239 N 
ATOM     20  H   LIG d   1      10.233   4.914  -5.570  0.00  0.00     0.204 HD
ENDROOT
BRANCH   1  21
ATOM     21  C   LIG d   1      10.272   4.516  -2.964  0.00  0.00     0.086 C 
ATOM     22  H   LIG d   1      11.341   4.723  -2.925  0.00  0.00     0.057 H 
ATOM     23  H   LIG d   1       9.870   4.485  -1.951  0.00  0.00     0.057 H 
BRANCH  21  24
ATOM     24  N   LIG d   1      10.047   3.226  -3.619  0.00  0.00    -0.246 N 
ATOM     25  C   LIG d   1       8.878   2.545  -3.650  0.00  0.00     0.052 A 
ATOM     26  C   LIG d   1       9.118   1.415  -4.355  0.00  0.00     0.120 A 
ATOM     27  H   LIG d   1       7.942   2.844  -3.204  0.00  0.00     0.085 H 
ATOM     28  N   LIG d   1      10.407   1.455  -4.710  0.00  0.00    -0.131 NA
ATOM     29  N   LIG d   1      10.930   2.540  -4.258  0.00  0.00    -0.065 NA
BRANCH  26  30
ATOM     30  C   LIG d   1       8.129   0.324  -4.674  0.00  0.00     0.135 C 
ATOM     31  H   LIG d   1       8.308  -0.046  -5.684  0.00  0.00     0.076 H 
ATOM     32  H   LIG d   1       8.246  -0.493  -3.961  0.00  0.00     0.076 H 
BRANCH  30  33
ATOM     33  O   LIG d   1       6.801   0.845  -4.588  0.00  0.00    -0.486 OA
BRANCH  33  34
ATOM     34  C   LIG d   1       5.982   0.296  -3.653  0.00  0.00     0.121 A 
ATOM     35  C   LIG d   1       5.809  -1.079  -3.601  0.00  0.00    -0.020 A 
ATOM     36  C   LIG d   1       4.975  -1.634  -2.649  0.00  0.00    -0.058 A 
ATOM     37  H   LIG d   1       6.326  -1.715  -4.304  0.00  0.00     0.065 H 
ATOM     38  C   LIG d   1       4.313  -0.820  -1.749  0.00  0.00    -0.061 A 
ATOM     39  H   LIG d   1       4.840  -2.705  -2.608  0.00  0.00     0.062 H 
ATOM     40  C   LIG d   1       4.482   0.551  -1.800  0.00  0.00    -0.058 A 
ATOM     41  H   LIG d   1       3.661  -1.255  -1.007  0.00  0.00     0.062 H 
ATOM     42  C   LIG d   1       5.319   1.111  -2.745  0.00  0.00    -0.020 A 
ATOM     43  H   LIG d   1       3.963   1.186  -1.097  0.00  0.00     0.062 H 
ATOM     44  H   LIG d   1       5.456   2.182  -2.781  0.00  0.00     0.065 H 
ENDBRANCH  33  34
ENDBRANCH  30  33
ENDBRANCH  26  30
ENDBRANCH  21  24
ENDBRANCH   1  21
BRANCH   9  45
ATOM     45  C   LIG d   1      10.340   9.211  -5.928  0.00  0.00     0.224 C 
ATOM     46  O   LIG d   1      11.096   8.856  -6.808  0.00  0.00    -0.275 OA
ATOM     47  N   LIG d   1      10.152  10.524  -5.691  0.00  0.00    -0.297 N 
ATOM     48  C   LIG d   1      10.852  11.546  -6.485  0.00  0.00     0.038 C 
ATOM     49  C   LIG d   1       9.234  10.978  -4.633  0.00  0.00     0.038 C 
ATOM     50  C   LIG d   1      11.516  12.536  -5.522  0.00  0.00     0.064 C 
ATOM     51  H   LIG d   1      11.611  11.071  -7.105  0.00  0.00     0.049 H 
ATOM     52  H   LIG d   1      10.137  12.072  -7.118  0.00  0.00     0.049 H 
ATOM     53  O   LIG d   1      10.541  13.013  -4.591  0.00  0.00    -0.377 OA
ATOM     54  H   LIG d   1      12.319  12.035  -4.983  0.00  0.00     0.058 H 
ATOM     55  H   LIG d   1      11.922  13.376  -6.086  0.00  0.00     0.058 H 
ATOM     56  C   LIG d   1       9.981  11.997  -3.757  0.00  0.00     0.064 C 
ATOM     57  H   LIG d   1      10.780  11.494  -3.210  0.00  0.00     0.058 H 
ATOM     58  H   LIG d   1       9.285  12.447  -3.050  0.00  0.00     0.058 H 
ATOM     59  H   LIG d   1       8.361  11.449  -5.083  0.00  0.00     0.049 H 
ATOM     60  H   LIG d   1       8.924  10.128  -4.027  0.00  0.00     0.049 H 
ENDBRANCH   9  45
TORSDOF 6
ENDMDL
MODEL 7
REMARK VINA RESULT:      -6.7      7.592     13.448
REMARK  6 active torsions:
REMARK  status: ('A' for Active; 'I' for Inactive)
REMARK    1  A    between atoms: C_4  and  O_7 
REMARK    2  A    between atoms: O_7  and  C_8 
REMARK    3  A    between atoms: C_8  and  C_9 
REMARK    4  A    between atoms: N_11  and  C_14 
REMARK    5  A    between atoms: C_14  and  C_15 
REMARK    6  A    between atoms: C_23  and  C_25 
REMARK       I    between atoms: C_25  and  N_27 
ROOT
ATOM      1  C   LIG d   1       6.025  -8.089  -6.571  0.00  0.00    -0.001 C 
ATOM      2  H   LIG d   1       6.873  -7.855  -7.215  0.00  0.00     0.087 H 
ATOM      3  C   LIG d   1       6.395  -7.798  -5.113  0.00  0.00    -0.004 C 
ATOM      4  C   LIG d   1       6.280  -9.096  -4.304  0.00  0.00    -0.015 C 
ATOM      5  H   LIG d   1       6.546  -8.913  -3.263  0.00  0.00     0.031 H 
ATOM      6  C   LIG d   1       4.840  -9.614  -4.414  0.00  0.00    -0.009 C 
ATOM      7  C   LIG d   1       4.513  -9.855  -5.890  0.00  0.00    -0.031 C 
ATOM      8  C   LIG d   1       6.830 -10.365  -6.378  0.00  0.00    -0.020 C 
ATOM      9  C   LIG d   1       7.223 -10.139  -4.915  0.00  0.00     0.079 C 
ATOM     10  H   LIG d   1       8.250  -9.776  -4.864  0.00  0.00     0.045 H 
ATOM     11  H   LIG d   1       7.418  -7.426  -5.064  0.00  0.00     0.032 H 
ATOM     12  H   LIG d   1       5.713  -7.051  -4.707  0.00  0.00     0.032 H 
ATOM     13  H   LIG d   1       4.153  -8.874  -4.004  0.00  0.00     0.032 H 
ATOM     14  H   LIG d   1       4.745 -10.549  -3.862  0.00  0.00     0.032 H 
ATOM     15  H   LIG d   1       3.668  -9.232  -6.182  0.00  0.00     0.081 H 
ATOM     16  H   LIG d   1       4.260 -10.905  -6.039  0.00  0.00     0.081 H 
ATOM     17  H   LIG d   1       6.560 -11.411  -6.525  0.00  0.00     0.082 H 
ATOM     18  H   LIG d   1       7.671 -10.112  -7.023  0.00  0.00     0.082 H 
ATOM     19  N   LIG d   1       5.676  -9.516  -6.739  0.00  0.00     0.239 N 
ATOM     20  H   LIG d   1       5.432  -9.686  -7.721  0.00  0.00     0.204 HD
ENDROOT
BRANCH   1  21
ATOM     21  C   LIG d   1       4.824  -7.232  -6.974  0.00  0.00     0.086 C 
ATOM     22  H   LIG d   1       4.874  -7.014  -8.041  0.00  0.00     0.057 H 
ATOM     23  H   LIG d   1       3.903  -7.773  -6.756  0.00  0.00     0.057 H 
BRANCH  21  24
ATOM     24  N   LIG d   1       4.843  -5.978  -6.218  0.00  0.00    -0.246 N 
ATOM     25  C   LIG d   1       5.626  -4.905  -6.481  0.00  0.00     0.052 A 
ATOM     26  C   LIG d   1       5.321  -3.978  -5.544  0.00  0.00     0.120 A 
ATOM     27  H   LIG d   1       6.347  -4.809  -7.278  0.00  0.00     0.085 H 
ATOM     28  N   LIG d   1       4.385  -4.522  -4.760  0.00  0.00    -0.131 NA
ATOM     29  N   LIG d   1       4.124  -5.709  -5.185  0.00  0.00    -0.065 NA
BRANCH  26  30
ATOM     30  C   LIG d   1       5.921  -2.602  -5.409  0.00  0.00     0.135 C 
ATOM     31  H   LIG d   1       6.770  -2.507  -6.086  0.00  0.00     0.076 H 
ATOM     32  H   LIG d   1       5.170  -1.851  -5.660  0.00  0.00     0.076 H 
BRANCH  30  33
ATOM     33  O   LIG d   1       6.361  -2.404  -4.064  0.00  0.00    -0.486 OA
BRANCH  33  34
ATOM     34  C   LIG d   1       5.806  -1.371  -3.378  0.00  0.00     0.121 A 
ATOM     35  C   LIG d   1       6.255  -0.076  -3.586  0.00  0.00    -0.020 A 
ATOM     36  C   LIG d   1       5.688   0.972  -2.886  0.00  0.00    -0.058 A 
ATOM     37  H   LIG d   1       7.048   0.113  -4.294  0.00  0.00     0.065 H 
ATOM     38  C   LIG d   1       4.673   0.730  -1.979  0.00  0.00    -0.061 A 
ATOM     39  H   LIG d   1       6.037   1.981  -3.048  0.00  0.00     0.062 H 
ATOM     40  C   LIG d   1       4.223  -0.561  -1.769  0.00  0.00    -0.058 A 
ATOM     41  H   LIG d   1       4.231   1.549  -1.432  0.00  0.00     0.062 H 
ATOM     42  C   LIG d   1       4.783  -1.612  -2.470  0.00  0.00    -0.020 A 
ATOM     43  H   LIG d   1       3.431  -0.749  -1.059  0.00  0.00     0.062 H 
ATOM     44  H   LIG d   1       4.428  -2.619  -2.310  0.00  0.00     0.065 H 
ENDBRANCH  33  34
ENDBRANCH  30  33
ENDBRANCH  26  30
ENDBRANCH  21  24
ENDBRANCH   1  21
BRANCH   9  45
ATOM     45  C   LIG d   1       7.106 -11.434  -4.152  0.00  0.00     0.224 C 
ATOM     46  O   LIG d   1       6.439 -12.343  -4.599  0.00  0.00    -0.275 OA
ATOM     47  N   LIG d   1       7.744 -11.581  -2.975  0.00  0.00    -0.297 N 
ATOM     48  C   LIG d   1       7.645 -12.836  -2.211  0.00  0.00     0.038 C 
ATOM     49  C   LIG d   1       8.565 -10.495  -2.416  0.00  0.00     0.038 C 
ATOM     50  C   LIG d   1       7.259 -12.495  -0.767  0.00  0.00     0.064 C 
ATOM     51  H   LIG d   1       6.883 -13.476  -2.654  0.00  0.00     0.049 H 
ATOM     52  H   LIG d   1       8.607 -13.349  -2.223  0.00  0.00     0.049 H 
ATOM     53  O   LIG d   1       8.163 -11.511  -0.258  0.00  0.00    -0.377 OA
ATOM     54  H   LIG d   1       6.243 -12.101  -0.747  0.00  0.00     0.058 H 
ATOM     55  H   LIG d   1       7.315 -13.394  -0.153  0.00  0.00     0.058 H 
ATOM     56  C   LIG d   1       8.129 -10.266  -0.959  0.00  0.00     0.064 C 
ATOM     57  H   LIG d   1       7.116  -9.864  -0.938  0.00  0.00     0.058 H 
ATOM     58  H   LIG d   1       8.811  -9.561  -0.483  0.00  0.00     0.058 H 
ATOM     59  H   LIG d   1       9.617 -10.777  -2.447  0.00  0.00     0.049 H 
ATOM     60  H   LIG d   1       8.410  -9.584  -2.994  0.00  0.00     0.049 H 
ENDBRANCH   9  45
TORSDOF 6
ENDMDL
MODEL 8
REMARK VINA RESULT:      -6.4      6.929     12.468
REMARK  6 active torsions:
REMARK  status: ('A' for Active; 'I' for Inactive)
REMARK    1  A    between atoms: C_4  and  O_7 
REMARK    2  A    between atoms: O_7  and  C_8 
REMARK    3  A    between atoms: C_8  and  C_9 
REMARK    4  A    between atoms: N_11  and  C_14 
REMARK    5  A    between atoms: C_14  and  C_15 
REMARK    6  A    between atoms: C_23  and  C_25 
REMARK       I    between atoms: C_25  and  N_27 
ROOT
ATOM      1  C   LIG d   1       3.213  -1.275  -8.812  0.00  0.00    -0.001 C 
ATOM      2  H   LIG d   1       3.065  -1.807  -7.873  0.00  0.00     0.087 H 
ATOM      3  C   LIG d   1       1.934  -0.515  -9.177  0.00  0.00    -0.004 C 
ATOM      4  C   LIG d   1       1.422  -1.026 -10.529  0.00  0.00    -0.015 C 
ATOM      5  H   LIG d   1       0.506  -0.504 -10.806  0.00  0.00     0.031 H 
ATOM      6  C   LIG d   1       2.514  -0.802 -11.582  0.00  0.00    -0.009 C 
ATOM      7  C   LIG d   1       3.778  -1.554 -11.152  0.00  0.00    -0.031 C 
ATOM      8  C   LIG d   1       2.456  -3.236 -10.015  0.00  0.00    -0.020 C 
ATOM      9  C   LIG d   1       1.156  -2.533 -10.413  0.00  0.00     0.079 C 
ATOM     10  H   LIG d   1       0.395  -2.711  -9.653  0.00  0.00     0.045 H 
ATOM     11  H   LIG d   1       1.177  -0.686  -8.411  0.00  0.00     0.032 H 
ATOM     12  H   LIG d   1       2.151   0.551  -9.247  0.00  0.00     0.032 H 
ATOM     13  H   LIG d   1       2.733   0.262 -11.662  0.00  0.00     0.032 H 
ATOM     14  H   LIG d   1       2.176  -1.180 -12.547  0.00  0.00     0.032 H 
ATOM     15  H   LIG d   1       4.597  -0.846 -11.029  0.00  0.00     0.081 H 
ATOM     16  H   LIG d   1       4.041  -2.288 -11.914  0.00  0.00     0.081 H 
ATOM     17  H   LIG d   1       2.730  -3.958 -10.784  0.00  0.00     0.082 H 
ATOM     18  H   LIG d   1       2.314  -3.751  -9.065  0.00  0.00     0.082 H 
ATOM     19  N   LIG d   1       3.550  -2.253  -9.869  0.00  0.00     0.239 N 
ATOM     20  H   LIG d   1       4.409  -2.748  -9.603  0.00  0.00     0.204 HD
ENDROOT
BRANCH   1  21
ATOM     21  C   LIG d   1       4.370  -0.285  -8.664  0.00  0.00     0.086 C 
ATOM     22  H   LIG d   1       4.853  -0.143  -9.630  0.00  0.00     0.057 H 
ATOM     23  H   LIG d   1       3.987   0.670  -8.305  0.00  0.00     0.057 H 
BRANCH  21  24
ATOM     24  N   LIG d   1       5.343  -0.812  -7.704  0.00  0.00    -0.246 N 
ATOM     25  C   LIG d   1       6.061  -0.081  -6.819  0.00  0.00     0.052 A 
ATOM     26  C   LIG d   1       6.827  -0.962  -6.136  0.00  0.00     0.120 A 
ATOM     27  H   LIG d   1       6.026   0.989  -6.684  0.00  0.00     0.085 H 
ATOM     28  N   LIG d   1       6.552  -2.172  -6.634  0.00  0.00    -0.131 NA
ATOM     29  N   LIG d   1       5.669  -2.049  -7.563  0.00  0.00    -0.065 NA
BRANCH  26  30
ATOM     30  C   LIG d   1       7.803  -0.642  -5.033  0.00  0.00     0.135 C 
ATOM     31  H   LIG d   1       8.789  -1.021  -5.299  0.00  0.00     0.076 H 
ATOM     32  H   LIG d   1       7.854   0.438  -4.895  0.00  0.00     0.076 H 
BRANCH  30  33
ATOM     33  O   LIG d   1       7.368  -1.257  -3.819  0.00  0.00    -0.486 OA
BRANCH  33  34
ATOM     34  C   LIG d   1       6.283  -0.715  -3.205  0.00  0.00     0.121 A 
ATOM     35  C   LIG d   1       6.161   0.663  -3.099  0.00  0.00    -0.020 A 
ATOM     36  C   LIG d   1       5.057   1.210  -2.474  0.00  0.00    -0.058 A 
ATOM     37  H   LIG d   1       6.928   1.306  -3.504  0.00  0.00     0.065 H 
ATOM     38  C   LIG d   1       4.075   0.387  -1.955  0.00  0.00    -0.061 A 
ATOM     39  H   LIG d   1       4.960   2.283  -2.391  0.00  0.00     0.062 H 
ATOM     40  C   LIG d   1       4.195  -0.987  -2.059  0.00  0.00    -0.058 A 
ATOM     41  H   LIG d   1       3.213   0.816  -1.467  0.00  0.00     0.062 H 
ATOM     42  C   LIG d   1       5.294  -1.540  -2.688  0.00  0.00    -0.020 A 
ATOM     43  H   LIG d   1       3.428  -1.629  -1.652  0.00  0.00     0.062 H 
ATOM     44  H   LIG d   1       5.385  -2.612  -2.773  0.00  0.00     0.065 H 
ENDBRANCH  33  34
ENDBRANCH  30  33
ENDBRANCH  26  30
ENDBRANCH  21  24
ENDBRANCH   1  21
BRANCH   9  45
ATOM     45  C   LIG d   1       0.677  -3.064 -11.740  0.00  0.00     0.224 C 
ATOM     46  O   LIG d   1       1.039  -2.537 -12.772  0.00  0.00    -0.275 OA
ATOM     47  N   LIG d   1      -0.152  -4.125 -11.782  0.00  0.00    -0.297 N 
ATOM     48  C   LIG d   1      -0.633  -4.662 -13.065  0.00  0.00     0.038 C 
ATOM     49  C   LIG d   1      -0.599  -4.785 -10.545  0.00  0.00     0.038 C 
ATOM     50  C   LIG d   1      -2.158  -4.795 -12.993  0.00  0.00     0.064 C 
ATOM     51  H   LIG d   1      -0.361  -3.982 -13.872  0.00  0.00     0.049 H 
ATOM     52  H   LIG d   1      -0.186  -5.640 -13.244  0.00  0.00     0.049 H 
ATOM     53  O   LIG d   1      -2.511  -5.537 -11.823  0.00  0.00    -0.377 OA
ATOM     54  H   LIG d   1      -2.608  -3.804 -12.945  0.00  0.00     0.058 H 
ATOM     55  H   LIG d   1      -2.520  -5.318 -13.878  0.00  0.00     0.058 H 
ATOM     56  C   LIG d   1      -2.131  -4.910 -10.595  0.00  0.00     0.064 C 
ATOM     57  H   LIG d   1      -2.582  -3.918 -10.539  0.00  0.00     0.058 H 
ATOM     58  H   LIG d   1      -2.474  -5.514  -9.756  0.00  0.00     0.058 H 
ATOM     59  H   LIG d   1      -0.151  -5.776 -10.475  0.00  0.00     0.049 H 
ATOM     60  H   LIG d   1      -0.307  -4.187  -9.683  0.00  0.00     0.049 H 
ENDBRANCH   9  45
TORSDOF 6
ENDMDL
MODEL 9
REMARK VINA RESULT:      -6.4      2.831      4.133
REMARK  6 active torsions:
REMARK  status: ('A' for Active; 'I' for Inactive)
REMARK    1  A    between atoms: C_4  and  O_7 
REMARK    2  A    between atoms: O_7  and  C_8 
REMARK    3  A    between atoms: C_8  and  C_9 
REMARK    4  A    between atoms: N_11  and  C_14 
REMARK    5  A    between atoms: C_14  and  C_15 
REMARK    6  A    between atoms: C_23  and  C_25 
REMARK       I    between atoms: C_25  and  N_27 
ROOT
ATOM      1  C   LIG d   1      11.109   5.781  -5.418  0.00  0.00    -0.001 C 
ATOM      2  H   LIG d   1      12.056   5.395  -5.041  0.00  0.00     0.087 H 
ATOM      3  C   LIG d   1      11.380   6.900  -6.429  0.00  0.00    -0.004 C 
ATOM      4  C   LIG d   1      10.731   8.194  -5.922  0.00  0.00    -0.015 C 
ATOM      5  H   LIG d   1      10.918   9.007  -6.624  0.00  0.00     0.031 H 
ATOM      6  C   LIG d   1       9.226   7.953  -5.757  0.00  0.00    -0.009 C 
ATOM      7  C   LIG d   1       9.013   6.806  -4.764  0.00  0.00    -0.031 C 
ATOM      8  C   LIG d   1      11.057   7.370  -3.591  0.00  0.00    -0.020 C 
ATOM      9  C   LIG d   1      11.326   8.534  -4.550  0.00  0.00     0.079 C 
ATOM     10  H   LIG d   1      12.401   8.687  -4.646  0.00  0.00     0.045 H 
ATOM     11  H   LIG d   1      12.455   7.046  -6.532  0.00  0.00     0.032 H 
ATOM     12  H   LIG d   1      10.952   6.630  -7.394  0.00  0.00     0.032 H 
ATOM     13  H   LIG d   1       8.789   7.688  -6.719  0.00  0.00     0.032 H 
ATOM     14  H   LIG d   1       8.750   8.858  -5.375  0.00  0.00     0.032 H 
ATOM     15  H   LIG d   1       8.475   5.996  -5.255  0.00  0.00     0.081 H 
ATOM     16  H   LIG d   1       8.436   7.165  -3.913  0.00  0.00     0.081 H 
ATOM     17  H   LIG d   1      10.464   7.724  -2.747  0.00  0.00     0.082 H 
ATOM     18  H   LIG d   1      12.004   6.971  -3.230  0.00  0.00     0.082 H 
ATOM     19  N   LIG d   1      10.315   6.295  -4.282  0.00  0.00     0.239 N 
ATOM     20  H   LIG d   1      10.146   5.529  -3.620  0.00  0.00     0.204 HD
ENDROOT
BRANCH   1  21
ATOM     21  C   LIG d   1      10.331   4.654  -6.099  0.00  0.00     0.086 C 
ATOM     22  H   LIG d   1       9.418   5.056  -6.538  0.00  0.00     0.057 H 
ATOM     23  H   LIG d   1      10.946   4.211  -6.883  0.00  0.00     0.057 H 
BRANCH  21  24
ATOM     24  N   LIG d   1       9.989   3.629  -5.110  0.00  0.00    -0.246 N 
ATOM     25  C   LIG d   1       8.869   2.869  -5.111  0.00  0.00     0.052 A 
ATOM     26  C   LIG d   1       8.961   2.062  -4.029  0.00  0.00     0.120 A 
ATOM     27  H   LIG d   1       8.067   2.897  -5.833  0.00  0.00     0.085 H 
ATOM     28  N   LIG d   1      10.111   2.370  -3.421  0.00  0.00    -0.131 NA
ATOM     29  N   LIG d   1      10.697   3.303  -4.086  0.00  0.00    -0.065 NA
BRANCH  26  30
ATOM     30  C   LIG d   1       7.960   1.024  -3.591  0.00  0.00     0.135 C 
ATOM     31  H   LIG d   1       7.891   0.242  -4.347  0.00  0.00     0.076 H 
ATOM     32  H   LIG d   1       8.280   0.587  -2.644  0.00  0.00     0.076 H 
BRANCH  30  33
ATOM     33  O   LIG d   1       6.680   1.637  -3.423  0.00  0.00    -0.486 OA
BRANCH  33  34
ATOM     34  C   LIG d   1       5.646   0.825  -3.081  0.00  0.00     0.121 A 
ATOM     35  C   LIG d   1       4.403   1.367  -2.789  0.00  0.00    -0.020 A 
ATOM     36  C   LIG d   1       3.353   0.538  -2.441  0.00  0.00    -0.058 A 
ATOM     37  H   LIG d   1       4.256   2.436  -2.833  0.00  0.00     0.065 H 
ATOM     38  C   LIG d   1       3.541  -0.830  -2.385  0.00  0.00    -0.061 A 
ATOM     39  H   LIG d   1       2.385   0.959  -2.214  0.00  0.00     0.062 H 
ATOM     40  C   LIG d   1       4.779  -1.373  -2.675  0.00  0.00    -0.058 A 
ATOM     41  H   LIG d   1       2.720  -1.477  -2.113  0.00  0.00     0.062 H 
ATOM     42  C   LIG d   1       5.831  -0.550  -3.028  0.00  0.00    -0.020 A 
ATOM     43  H   LIG d   1       4.925  -2.443  -2.629  0.00  0.00     0.062 H 
ATOM     44  H   LIG d   1       6.796  -0.975  -3.260  0.00  0.00     0.065 H 
ENDBRANCH  33  34
ENDBRANCH  30  33
ENDBRANCH  26  30
ENDBRANCH  21  24
ENDBRANCH   1  21
BRANCH   9  45
ATOM     45  C   LIG d   1      10.683   9.789  -4.018  0.00  0.00     0.224 C 
ATOM     46  O   LIG d   1       9.895   9.724  -3.097  0.00  0.00    -0.275 OA
ATOM     47  N   LIG d   1      10.983  10.983  -4.564  0.00  0.00    -0.297 N 
ATOM     48  C   LIG d   1      10.368  12.223  -4.063  0.00  0.00     0.038 C 
ATOM     49  C   LIG d   1      11.940  11.088  -5.677  0.00  0.00     0.038 C 
ATOM     50  C   LIG d   1       9.794  12.996  -5.255  0.00  0.00     0.064 C 
ATOM     51  H   LIG d   1       9.568  11.979  -3.364  0.00  0.00     0.049 H 
ATOM     52  H   LIG d   1      11.121  12.829  -3.559  0.00  0.00     0.049 H 
ATOM     53  O   LIG d   1      10.810  13.149  -6.249  0.00  0.00    -0.377 OA
ATOM     54  H   LIG d   1       8.954  12.445  -5.676  0.00  0.00     0.058 H 
ATOM     55  H   LIG d   1       9.458  13.979  -4.924  0.00  0.00     0.058 H 
ATOM     56  C   LIG d   1      11.286  11.916  -6.795  0.00  0.00     0.064 C 
ATOM     57  H   LIG d   1      10.450  11.361  -7.222  0.00  0.00     0.058 H 
ATOM     58  H   LIG d   1      12.022  12.122  -7.573  0.00  0.00     0.058 H 
ATOM     59  H   LIG d   1      12.848  11.583  -5.335  0.00  0.00     0.049 H 
ATOM     60  H   LIG d   1      12.181  10.092  -6.049  0.00  0.00     0.049 H 
ENDBRANCH   9  45
TORSDOF 6
ENDMDL
