MODEL 1
REMARK VINA RESULT:      -7.0      0.000      0.000
REMARK  5 active torsions:
REMARK  status: ('A' for Active; 'I' for Inactive)
REMARK    1  A    between atoms: C_1  and  N_2 
REMARK    2  A    between atoms: C_4  and  N_20 
REMARK    3  A    between atoms: C_7  and  C_9 
REMARK    4  A    between atoms: C_11  and  C_14 
REMARK       I    between atoms: N_20  and  C_21 
REMARK    5  A    between atoms: C_21  and  C_23 
ROOT
ATOM      1  N   LIG d   1      11.507   3.074  -4.596  0.00  0.00    -0.293 N 
ATOM      2  C   LIG d   1      10.796   1.876  -4.098  0.00  0.00     0.018 C 
ATOM      3  C   LIG d   1       9.309   2.126  -4.450  0.00  0.00     0.038 C 
ATOM      4  H   LIG d   1       8.992   1.773  -5.444  0.00  0.00     0.051 H 
ATOM      5  C   LIG d   1       9.180   3.652  -4.209  0.00  0.00    -0.009 C 
ATOM      6  C   LIG d   1      10.551   4.194  -4.664  0.00  0.00     0.091 C 
ATOM      7  H   LIG d   1      10.530   4.586  -5.692  0.00  0.00     0.056 H 
ATOM      8  H   LIG d   1      11.190   0.980  -4.601  0.00  0.00     0.044 H 
ATOM      9  H   LIG d   1      10.949   1.784  -3.013  0.00  0.00     0.044 H 
ATOM     10  H   LIG d   1       8.347   4.050  -4.808  0.00  0.00     0.030 H 
ATOM     11  H   LIG d   1       8.985   3.840  -3.141  0.00  0.00     0.030 H 
ENDROOT
BRANCH   3  12
ATOM     12  N   LIG d   1       8.425   1.376  -3.555  0.00  0.00    -0.311 N 
ATOM     13  C   LIG d   1       7.258   0.882  -4.017  0.00  0.00     0.216 C 
ATOM     14  O   LIG d   1       6.942   1.059  -5.174  0.00  0.00    -0.276 OA
ATOM     15  H   LIG d   1       8.712   1.215  -2.505  0.00  0.00     0.149 HD
BRANCH  13  16
ATOM     16  C   LIG d   1       6.349   0.111  -3.095  0.00  0.00     0.036 C 
ATOM     17  C   LIG d   1       5.772  -1.095  -3.840  0.00  0.00    -0.042 C 
ATOM     18  C   LIG d   1       4.848  -1.877  -2.904  0.00  0.00    -0.052 C 
ATOM     19  H   LIG d   1       5.200  -0.748  -4.713  0.00  0.00     0.027 H 
ATOM     20  H   LIG d   1       6.593  -1.747  -4.174  0.00  0.00     0.027 H 
ATOM     21  C   LIG d   1       3.706  -0.971  -2.439  0.00  0.00    -0.053 C 
ATOM     22  H   LIG d   1       5.420  -2.224  -2.031  0.00  0.00     0.026 H 
ATOM     23  H   LIG d   1       4.433  -2.745  -3.439  0.00  0.00     0.026 H 
ATOM     24  C   LIG d   1       4.283   0.234  -1.696  0.00  0.00    -0.052 C 
ATOM     25  H   LIG d   1       3.042  -1.534  -1.767  0.00  0.00     0.026 H 
ATOM     26  H   LIG d   1       3.135  -0.625  -3.312  0.00  0.00     0.026 H 
ATOM     27  C   LIG d   1       5.207   1.017  -2.631  0.00  0.00    -0.042 C 
ATOM     28  H   LIG d   1       4.855  -0.113  -0.822  0.00  0.00     0.026 H 
ATOM     29  H   LIG d   1       3.463   0.886  -1.361  0.00  0.00     0.026 H 
ATOM     30  H   LIG d   1       5.622   1.884  -2.095  0.00  0.00     0.027 H 
ATOM     31  H   LIG d   1       4.636   1.365  -3.505  0.00  0.00     0.027 H 
ATOM     32  H   LIG d   1       6.933  -0.229  -2.228  0.00  0.00     0.039 H 
ENDBRANCH  13  16
ENDBRANCH   3  12
BRANCH   1  33
ATOM     33  C   LIG d   1      12.647   3.407  -3.731  0.00  0.00    -0.012 C 
ATOM     34  H   LIG d   1      12.614   2.784  -2.824  0.00  0.00     0.039 H 
ATOM     35  H   LIG d   1      12.595   4.469  -3.448  0.00  0.00     0.039 H 
ATOM     36  H   LIG d   1      13.586   3.217  -4.272  0.00  0.00     0.039 H 
ENDBRANCH   1  33
BRANCH   6  37
ATOM     37  C   LIG d   1      10.995   5.304  -3.746  0.00  0.00     0.245 A 
ATOM     38  O   LIG d   1      11.724   6.371  -4.087  0.00  0.00    -0.336 OA
ATOM     39  N   LIG d   1      11.910   7.074  -3.116  0.00  0.00    -0.056 NA
ATOM     40  C   LIG d   1      11.333   6.550  -2.065  0.00  0.00     0.204 A 
ATOM     41  N   LIG d   1      10.735   5.407  -2.467  0.00  0.00    -0.190 NA
BRANCH  40  42
ATOM     42  C   LIG d   1      11.333   7.109  -0.690  0.00  0.00     0.041 A 
ATOM     43  C   LIG d   1      11.310   6.265   0.417  0.00  0.00     0.038 A 
ATOM     44  N   LIG d   1      11.314   6.759   1.638  0.00  0.00    -0.263 NA
ATOM     45  H   LIG d   1      11.294   5.194   0.272  0.00  0.00     0.084 H 
ATOM     46  C   LIG d   1      11.328   8.058   1.863  0.00  0.00     0.028 A 
ATOM     47  C   LIG d   1      11.345   8.962   0.816  0.00  0.00    -0.043 A 
ATOM     48  H   LIG d   1      11.326   8.423   2.879  0.00  0.00     0.083 H 
ATOM     49  C   LIG d   1      11.347   8.492  -0.486  0.00  0.00    -0.048 A 
ATOM     50  H   LIG d   1      11.356  10.024   1.012  0.00  0.00     0.063 H 
ATOM     51  H   LIG d   1      11.360   9.175  -1.322  0.00  0.00     0.063 H 
ENDBRANCH  40  42
ENDBRANCH   6  37
TORSDOF 5
ENDMDL
MODEL 2
REMARK VINA RESULT:      -7.0      1.662      1.728
REMARK  5 active torsions:
REMARK  status: ('A' for Active; 'I' for Inactive)
REMARK    1  A    between atoms: C_1  and  N_2 
REMARK    2  A    between atoms: C_4  and  N_20 
REMARK    3  A    between atoms: C_7  and  C_9 
REMARK    4  A    between atoms: C_11  and  C_14 
REMARK       I    between atoms: N_20  and  C_21 
REMARK    5  A    between atoms: C_21  and  C_23 
ROOT
ATOM      1  N   LIG d   1      11.461   2.805  -4.970  0.00  0.00    -0.293 N 
ATOM      2  C   LIG d   1      10.831   1.710  -4.201  0.00  0.00     0.018 C 
ATOM      3  C   LIG d   1       9.397   1.598  -4.776  0.00  0.00     0.038 C 
ATOM      4  H   LIG d   1       9.283   0.921  -5.637  0.00  0.00     0.051 H 
ATOM      5  C   LIG d   1       9.049   3.086  -5.045  0.00  0.00    -0.009 C 
ATOM      6  C   LIG d   1      10.399   3.683  -5.494  0.00  0.00     0.091 C 
ATOM      7  H   LIG d   1      10.491   3.745  -6.589  0.00  0.00     0.056 H 
ATOM      8  H   LIG d   1      11.403   0.781  -4.349  0.00  0.00     0.044 H 
ATOM      9  H   LIG d   1      10.822   1.969  -3.133  0.00  0.00     0.044 H 
ATOM     10  H   LIG d   1       8.278   3.147  -5.828  0.00  0.00     0.030 H 
ATOM     11  H   LIG d   1       8.669   3.547  -4.120  0.00  0.00     0.030 H 
ENDROOT
BRANCH   3  12
ATOM     12  N   LIG d   1       8.481   1.014  -3.794  0.00  0.00    -0.311 N 
ATOM     13  C   LIG d   1       7.278   0.548  -4.187  0.00  0.00     0.216 C 
ATOM     14  O   LIG d   1       6.956   0.611  -5.353  0.00  0.00    -0.276 OA
ATOM     15  H   LIG d   1       8.774   0.956  -2.734  0.00  0.00     0.149 HD
BRANCH  13  16
ATOM     16  C   LIG d   1       6.337  -0.053  -3.175  0.00  0.00     0.036 C 
ATOM     17  C   LIG d   1       5.619  -1.253  -3.796  0.00  0.00    -0.042 C 
ATOM     18  C   LIG d   1       4.662  -1.862  -2.769  0.00  0.00    -0.052 C 
ATOM     19  H   LIG d   1       5.049  -0.924  -4.678  0.00  0.00     0.027 H 
ATOM     20  H   LIG d   1       6.360  -2.008  -4.099  0.00  0.00     0.027 H 
ATOM     21  C   LIG d   1       3.631  -0.814  -2.347  0.00  0.00    -0.053 C 
ATOM     22  H   LIG d   1       5.232  -2.191  -1.887  0.00  0.00     0.026 H 
ATOM     23  H   LIG d   1       4.146  -2.726  -3.215  0.00  0.00     0.026 H 
ATOM     24  C   LIG d   1       4.349   0.386  -1.728  0.00  0.00    -0.052 C 
ATOM     25  H   LIG d   1       2.943  -1.252  -1.609  0.00  0.00     0.026 H 
ATOM     26  H   LIG d   1       3.061  -0.486  -3.229  0.00  0.00     0.026 H 
ATOM     27  C   LIG d   1       5.305   0.996  -2.754  0.00  0.00    -0.042 C 
ATOM     28  H   LIG d   1       4.918   0.057  -0.846  0.00  0.00     0.026 H 
ATOM     29  H   LIG d   1       3.607   1.140  -1.424  0.00  0.00     0.026 H 
ATOM     30  H   LIG d   1       5.821   1.858  -2.307  0.00  0.00     0.027 H 
ATOM     31  H   LIG d   1       4.736   1.325  -3.636  0.00  0.00     0.027 H 
ATOM     32  H   LIG d   1       6.919  -0.377  -2.301  0.00  0.00     0.039 H 
ENDBRANCH  13  16
ENDBRANCH   3  12
BRANCH   1  33
ATOM     33  C   LIG d   1      12.404   3.560  -4.134  0.00  0.00    -0.012 C 
ATOM     34  H   LIG d   1      13.058   2.859  -3.594  0.00  0.00     0.039 H 
ATOM     35  H   LIG d   1      11.845   4.171  -3.411  0.00  0.00     0.039 H 
ATOM     36  H   LIG d   1      13.016   4.215  -4.772  0.00  0.00     0.039 H 
ENDBRANCH   1  33
BRANCH   6  37
ATOM     37  C   LIG d   1      10.558   5.072  -4.931  0.00  0.00     0.245 A 
ATOM     38  O   LIG d   1      11.365   6.030  -5.398  0.00  0.00    -0.336 OA
ATOM     39  N   LIG d   1      11.258   7.030  -4.719  0.00  0.00    -0.056 NA
ATOM     40  C   LIG d   1      10.390   6.832  -3.761  0.00  0.00     0.204 A 
ATOM     41  N   LIG d   1       9.929   5.568  -3.895  0.00  0.00    -0.190 NA
BRANCH  40  42
ATOM     42  C   LIG d   1       9.984   7.813  -2.724  0.00  0.00     0.041 A 
ATOM     43  C   LIG d   1       9.275   7.400  -1.598  0.00  0.00     0.038 A 
ATOM     44  N   LIG d   1       8.917   8.269  -0.675  0.00  0.00    -0.263 NA
ATOM     45  H   LIG d   1       9.020   6.357  -1.480  0.00  0.00     0.084 H 
ATOM     46  C   LIG d   1       9.201   9.553  -0.780  0.00  0.00     0.028 A 
ATOM     47  C   LIG d   1       9.897  10.042  -1.871  0.00  0.00    -0.043 A 
ATOM     48  H   LIG d   1       8.885  10.233  -0.003  0.00  0.00     0.083 H 
ATOM     49  C   LIG d   1      10.299   9.167  -2.865  0.00  0.00    -0.048 A 
ATOM     50  H   LIG d   1      10.124  11.095  -1.946  0.00  0.00     0.063 H 
ATOM     51  H   LIG d   1      10.844   9.522  -3.728  0.00  0.00     0.063 H 
ENDBRANCH  40  42
ENDBRANCH   6  37
TORSDOF 5
ENDMDL
MODEL 3
REMARK VINA RESULT:      -6.8      1.770      8.398
REMARK  5 active torsions:
REMARK  status: ('A' for Active; 'I' for Inactive)
REMARK    1  A    between atoms: C_1  and  N_2 
REMARK    2  A    between atoms: C_4  and  N_20 
REMARK    3  A    between atoms: C_7  and  C_9 
REMARK    4  A    between atoms: C_11  and  C_14 
REMARK       I    between atoms: N_20  and  C_21 
REMARK    5  A    between atoms: C_21  and  C_23 
ROOT
ATOM      1  N   LIG d   1      10.398   3.394  -5.124  0.00  0.00    -0.293 N 
ATOM      2  C   LIG d   1      10.308   4.792  -4.650  0.00  0.00     0.018 C 
ATOM      3  C   LIG d   1      10.796   4.742  -3.181  0.00  0.00     0.038 C 
ATOM      4  H   LIG d   1      11.880   4.873  -3.038  0.00  0.00     0.051 H 
ATOM      5  C   LIG d   1      10.216   3.386  -2.702  0.00  0.00    -0.009 C 
ATOM      6  C   LIG d   1      10.330   2.496  -3.957  0.00  0.00     0.091 C 
ATOM      7  H   LIG d   1      11.225   1.857  -3.942  0.00  0.00     0.056 H 
ATOM      8  H   LIG d   1      10.950   5.433  -5.272  0.00  0.00     0.044 H 
ATOM      9  H   LIG d   1       9.266   5.137  -4.722  0.00  0.00     0.044 H 
ATOM     10  H   LIG d   1      10.814   3.008  -1.859  0.00  0.00     0.030 H 
ATOM     11  H   LIG d   1       9.173   3.527  -2.377  0.00  0.00     0.030 H 
ENDROOT
BRANCH   3  12
ATOM     12  N   LIG d   1      10.241   5.854  -2.406  0.00  0.00    -0.311 N 
ATOM     13  C   LIG d   1      10.904   6.322  -1.328  0.00  0.00     0.216 C 
ATOM     14  O   LIG d   1      11.959   5.822  -1.002  0.00  0.00    -0.276 OA
ATOM     15  H   LIG d   1       9.284   6.309  -2.702  0.00  0.00     0.149 HD
BRANCH  13  16
ATOM     16  C   LIG d   1      10.332   7.466  -0.531  0.00  0.00     0.036 C 
ATOM     17  C   LIG d   1       9.299   8.212  -1.378  0.00  0.00    -0.042 C 
ATOM     18  C   LIG d   1       8.719   9.374  -0.569  0.00  0.00    -0.052 C 
ATOM     19  H   LIG d   1       9.782   8.602  -2.286  0.00  0.00     0.027 H 
ATOM     20  H   LIG d   1       8.489   7.522  -1.661  0.00  0.00     0.027 H 
ATOM     21  C   LIG d   1       9.844  10.333  -0.176  0.00  0.00    -0.053 C 
ATOM     22  H   LIG d   1       8.236   8.984   0.339  0.00  0.00     0.026 H 
ATOM     23  H   LIG d   1       7.976   9.910  -1.178  0.00  0.00     0.026 H 
ATOM     24  C   LIG d   1      10.877   9.587   0.670  0.00  0.00    -0.052 C 
ATOM     25  H   LIG d   1       9.428  11.169   0.406  0.00  0.00     0.026 H 
ATOM     26  H   LIG d   1      10.327  10.724  -1.084  0.00  0.00     0.026 H 
ATOM     27  C   LIG d   1      11.457   8.425  -0.139  0.00  0.00    -0.042 C 
ATOM     28  H   LIG d   1      10.394   9.197   1.578  0.00  0.00     0.026 H 
ATOM     29  H   LIG d   1      11.686  10.277   0.954  0.00  0.00     0.026 H 
ATOM     30  H   LIG d   1      12.199   7.889   0.471  0.00  0.00     0.027 H 
ATOM     31  H   LIG d   1      11.940   8.815  -1.046  0.00  0.00     0.027 H 
ATOM     32  H   LIG d   1       9.853   7.061   0.372  0.00  0.00     0.039 H 
ENDBRANCH  13  16
ENDBRANCH   3  12
BRANCH   1  33
ATOM     33  C   LIG d   1       9.326   3.092  -6.083  0.00  0.00    -0.012 C 
ATOM     34  H   LIG d   1       8.632   3.945  -6.137  0.00  0.00     0.039 H 
ATOM     35  H   LIG d   1       8.781   2.196  -5.753  0.00  0.00     0.039 H 
ATOM     36  H   LIG d   1       9.763   2.912  -7.076  0.00  0.00     0.039 H 
ENDBRANCH   1  33
BRANCH   6  37
ATOM     37  C   LIG d   1       9.119   1.604  -4.066  0.00  0.00     0.245 A 
ATOM     38  O   LIG d   1       9.044   0.446  -4.728  0.00  0.00    -0.336 OA
ATOM     39  N   LIG d   1       7.930  -0.022  -4.620  0.00  0.00    -0.056 NA
ATOM     40  C   LIG d   1       7.181   0.764  -3.891  0.00  0.00     0.204 A 
ATOM     41  N   LIG d   1       7.945   1.817  -3.525  0.00  0.00    -0.190 NA
BRANCH  40  42
ATOM     42  C   LIG d   1       5.759   0.541  -3.531  0.00  0.00     0.041 A 
ATOM     43  C   LIG d   1       4.944  -0.262  -4.326  0.00  0.00     0.038 A 
ATOM     44  N   LIG d   1       3.683  -0.464  -4.005  0.00  0.00    -0.263 NA
ATOM     45  H   LIG d   1       5.353  -0.725  -5.212  0.00  0.00     0.084 H 
ATOM     46  C   LIG d   1       3.140   0.085  -2.936  0.00  0.00     0.028 A 
ATOM     47  C   LIG d   1       3.881   0.899  -2.099  0.00  0.00    -0.043 A 
ATOM     48  H   LIG d   1       2.100  -0.103  -2.711  0.00  0.00     0.083 H 
ATOM     49  C   LIG d   1       5.212   1.138  -2.391  0.00  0.00    -0.048 A 
ATOM     50  H   LIG d   1       3.426   1.343  -1.226  0.00  0.00     0.063 H 
ATOM     51  H   LIG d   1       5.815   1.770  -1.754  0.00  0.00     0.063 H 
ENDBRANCH  40  42
ENDBRANCH   6  37
TORSDOF 5
ENDMDL
MODEL 4
REMARK VINA RESULT:      -6.7      7.901     13.764
REMARK  5 active torsions:
REMARK  status: ('A' for Active; 'I' for Inactive)
REMARK    1  A    between atoms: C_1  and  N_2 
REMARK    2  A    between atoms: C_4  and  N_20 
REMARK    3  A    between atoms: C_7  and  C_9 
REMARK    4  A    between atoms: C_11  and  C_14 
REMARK       I    between atoms: N_20  and  C_21 
REMARK    5  A    between atoms: C_21  and  C_23 
ROOT
ATOM      1  N   LIG d   1       2.547  -0.686 -10.301  0.00  0.00    -0.293 N 
ATOM      2  C   LIG d   1       2.372  -0.158  -8.931  0.00  0.00     0.018 C 
ATOM      3  C   LIG d   1       3.553  -0.753  -8.125  0.00  0.00     0.038 C 
ATOM      4  H   LIG d   1       4.477  -0.154  -8.127  0.00  0.00     0.051 H 
ATOM      5  C   LIG d   1       3.673  -2.171  -8.742  0.00  0.00    -0.009 C 
ATOM      6  C   LIG d   1       3.330  -1.933 -10.228  0.00  0.00     0.091 C 
ATOM      7  H   LIG d   1       4.226  -1.833 -10.857  0.00  0.00     0.056 H 
ATOM      8  H   LIG d   1       2.407   0.942  -8.954  0.00  0.00     0.044 H 
ATOM      9  H   LIG d   1       1.401  -0.485  -8.533  0.00  0.00     0.044 H 
ATOM     10  H   LIG d   1       4.697  -2.548  -8.599  0.00  0.00     0.030 H 
ATOM     11  H   LIG d   1       2.960  -2.848  -8.246  0.00  0.00     0.030 H 
ENDROOT
BRANCH   3  12
ATOM     12  N   LIG d   1       3.230  -0.827  -6.698  0.00  0.00    -0.311 N 
ATOM     13  C   LIG d   1       4.116  -0.384  -5.782  0.00  0.00     0.216 C 
ATOM     14  O   LIG d   1       5.178   0.077  -6.140  0.00  0.00    -0.276 OA
ATOM     15  H   LIG d   1       2.265  -1.244  -6.373  0.00  0.00     0.149 HD
BRANCH  13  16
ATOM     16  C   LIG d   1       3.782  -0.460  -4.314  0.00  0.00     0.036 C 
ATOM     17  C   LIG d   1       4.629   0.557  -3.546  0.00  0.00    -0.042 C 
ATOM     18  C   LIG d   1       4.291   0.478  -2.056  0.00  0.00    -0.052 C 
ATOM     19  H   LIG d   1       5.695   0.332  -3.692  0.00  0.00     0.027 H 
ATOM     20  H   LIG d   1       4.413   1.570  -3.917  0.00  0.00     0.027 H 
ATOM     21  C   LIG d   1       4.591  -0.930  -1.538  0.00  0.00    -0.053 C 
ATOM     22  H   LIG d   1       3.224   0.703  -1.909  0.00  0.00     0.026 H 
ATOM     23  H   LIG d   1       4.899   1.209  -1.502  0.00  0.00     0.026 H 
ATOM     24  C   LIG d   1       3.746  -1.946  -2.307  0.00  0.00    -0.052 C 
ATOM     25  H   LIG d   1       4.349  -0.987  -0.466  0.00  0.00     0.026 H 
ATOM     26  H   LIG d   1       5.658  -1.154  -1.684  0.00  0.00     0.026 H 
ATOM     27  C   LIG d   1       4.083  -1.868  -3.797  0.00  0.00    -0.042 C 
ATOM     28  H   LIG d   1       2.679  -1.722  -2.160  0.00  0.00     0.026 H 
ATOM     29  H   LIG d   1       3.961  -2.959  -1.935  0.00  0.00     0.026 H 
ATOM     30  H   LIG d   1       3.475  -2.599  -4.349  0.00  0.00     0.027 H 
ATOM     31  H   LIG d   1       5.150  -2.093  -3.944  0.00  0.00     0.027 H 
ATOM     32  H   LIG d   1       2.715  -0.234  -4.183  0.00  0.00     0.039 H 
ENDBRANCH  13  16
ENDBRANCH   3  12
BRANCH   1  33
ATOM     33  C   LIG d   1       1.247  -0.918 -10.946  0.00  0.00    -0.012 C 
ATOM     34  H   LIG d   1       0.439  -0.647 -10.250  0.00  0.00     0.039 H 
ATOM     35  H   LIG d   1       1.157  -1.980 -11.218  0.00  0.00     0.039 H 
ATOM     36  H   LIG d   1       1.173  -0.299 -11.853  0.00  0.00     0.039 H 
ENDBRANCH   1  33
BRANCH   6  37
ATOM     37  C   LIG d   1       2.512  -3.084 -10.755  0.00  0.00     0.245 A 
ATOM     38  O   LIG d   1       2.440  -3.489 -12.027  0.00  0.00    -0.336 OA
ATOM     39  N   LIG d   1       1.694  -4.441 -12.118  0.00  0.00    -0.056 NA
ATOM     40  C   LIG d   1       1.212  -4.748 -10.942  0.00  0.00     0.204 A 
ATOM     41  N   LIG d   1       1.741  -3.877 -10.054  0.00  0.00    -0.190 NA
BRANCH  40  42
ATOM     42  C   LIG d   1       0.265  -5.850 -10.638  0.00  0.00     0.041 A 
ATOM     43  C   LIG d   1       0.667  -7.179 -10.747  0.00  0.00     0.038 A 
ATOM     44  N   LIG d   1      -0.171  -8.158 -10.473  0.00  0.00    -0.263 NA
ATOM     45  H   LIG d   1       1.677  -7.409 -11.054  0.00  0.00     0.084 H 
ATOM     46  C   LIG d   1      -1.414  -7.926 -10.099  0.00  0.00     0.028 A 
ATOM     47  C   LIG d   1      -1.891  -6.634  -9.973  0.00  0.00    -0.043 A 
ATOM     48  H   LIG d   1      -2.070  -8.757  -9.889  0.00  0.00     0.083 H 
ATOM     49  C   LIG d   1      -1.047  -5.571 -10.245  0.00  0.00    -0.048 A 
ATOM     50  H   LIG d   1      -2.911  -6.455  -9.666  0.00  0.00     0.063 H 
ATOM     51  H   LIG d   1      -1.393  -4.552 -10.154  0.00  0.00     0.063 H 
ENDBRANCH  40  42
ENDBRANCH   6  37
TORSDOF 5
ENDMDL
MODEL 5
REMARK VINA RESULT:      -6.6      7.317     12.760
REMARK  5 active torsions:
REMARK  status: ('A' for Active; 'I' for Inactive)
REMARK    1  A    between atoms: C_1  and  N_2 
REMARK    2  A    between atoms: C_4  and  N_20 
REMARK    3  A    between atoms: C_7  and  C_9 
REMARK    4  A    between atoms: C_11  and  C_14 
REMARK       I    between atoms: N_20  and  C_21 
REMARK    5  A    between atoms: C_21  and  C_23 
ROOT
ATOM      1  N   LIG d   1       7.124  -4.928  -7.415  0.00  0.00    -0.293 N 
ATOM      2  C   LIG d   1       6.334  -3.755  -6.982  0.00  0.00     0.018 C 
ATOM      3  C   LIG d   1       6.893  -3.398  -5.583  0.00  0.00     0.038 C 
ATOM      4  H   LIG d   1       7.742  -2.699  -5.576  0.00  0.00     0.051 H 
ATOM      5  C   LIG d   1       7.177  -4.803  -4.990  0.00  0.00    -0.009 C 
ATOM      6  C   LIG d   1       7.648  -5.610  -6.218  0.00  0.00     0.091 C 
ATOM      7  H   LIG d   1       8.744  -5.670  -6.290  0.00  0.00     0.056 H 
ATOM      8  H   LIG d   1       6.475  -2.932  -7.700  0.00  0.00     0.044 H 
ATOM      9  H   LIG d   1       5.269  -4.025  -6.940  0.00  0.00     0.044 H 
ATOM     10  H   LIG d   1       7.953  -4.724  -4.213  0.00  0.00     0.030 H 
ATOM     11  H   LIG d   1       6.254  -5.208  -4.547  0.00  0.00     0.030 H 
ENDROOT
BRANCH   3  12
ATOM     12  N   LIG d   1       5.893  -2.685  -4.785  0.00  0.00    -0.311 N 
ATOM     13  C   LIG d   1       6.268  -2.011  -3.678  0.00  0.00     0.216 C 
ATOM     14  O   LIG d   1       7.434  -1.996  -3.345  0.00  0.00    -0.276 OA
ATOM     15  H   LIG d   1       4.835  -2.698  -5.087  0.00  0.00     0.149 HD
BRANCH  13  16
ATOM     16  C   LIG d   1       5.239  -1.278  -2.857  0.00  0.00     0.036 C 
ATOM     17  C   LIG d   1       3.891  -1.312  -3.581  0.00  0.00    -0.042 C 
ATOM     18  C   LIG d   1       2.847  -0.566  -2.748  0.00  0.00    -0.052 C 
ATOM     19  H   LIG d   1       3.990  -0.828  -4.564  0.00  0.00     0.027 H 
ATOM     20  H   LIG d   1       3.574  -2.357  -3.717  0.00  0.00     0.027 H 
ATOM     21  C   LIG d   1       3.287   0.887  -2.559  0.00  0.00    -0.053 C 
ATOM     22  H   LIG d   1       2.748  -1.050  -1.765  0.00  0.00     0.026 H 
ATOM     23  H   LIG d   1       1.877  -0.591  -3.268  0.00  0.00     0.026 H 
ATOM     24  C   LIG d   1       4.634   0.921  -1.837  0.00  0.00    -0.052 C 
ATOM     25  H   LIG d   1       2.536   1.423  -1.961  0.00  0.00     0.026 H 
ATOM     26  H   LIG d   1       3.385   1.370  -3.543  0.00  0.00     0.026 H 
ATOM     27  C   LIG d   1       5.680   0.175  -2.670  0.00  0.00    -0.042 C 
ATOM     28  H   LIG d   1       4.535   0.437  -0.854  0.00  0.00     0.026 H 
ATOM     29  H   LIG d   1       4.951   1.966  -1.701  0.00  0.00     0.026 H 
ATOM     30  H   LIG d   1       6.648   0.200  -2.149  0.00  0.00     0.027 H 
ATOM     31  H   LIG d   1       5.779   0.659  -3.653  0.00  0.00     0.027 H 
ATOM     32  H   LIG d   1       5.151  -1.771  -1.879  0.00  0.00     0.039 H 
ENDBRANCH  13  16
ENDBRANCH   3  12
BRANCH   1  33
ATOM     33  C   LIG d   1       6.307  -5.841  -8.227  0.00  0.00    -0.012 C 
ATOM     34  H   LIG d   1       5.256  -5.517  -8.199  0.00  0.00     0.039 H 
ATOM     35  H   LIG d   1       6.388  -6.861  -7.823  0.00  0.00     0.039 H 
ATOM     36  H   LIG d   1       6.667  -5.829  -9.267  0.00  0.00     0.039 H 
ENDBRANCH   1  33
BRANCH   6  37
ATOM     37  C   LIG d   1       7.105  -7.014  -6.149  0.00  0.00     0.245 A 
ATOM     38  O   LIG d   1       7.585  -8.083  -6.791  0.00  0.00    -0.336 OA
ATOM     39  N   LIG d   1       6.921  -9.062  -6.522  0.00  0.00    -0.056 NA
ATOM     40  C   LIG d   1       5.961  -8.740  -5.695  0.00  0.00     0.204 A 
ATOM     41  N   LIG d   1       6.076  -7.417  -5.445  0.00  0.00    -0.190 NA
BRANCH  40  42
ATOM     42  C   LIG d   1       4.938  -9.657  -5.132  0.00  0.00     0.041 A 
ATOM     43  C   LIG d   1       4.445 -10.717  -5.889  0.00  0.00     0.038 A 
ATOM     44  N   LIG d   1       3.541 -11.534  -5.389  0.00  0.00    -0.263 NA
ATOM     45  H   LIG d   1       4.812 -10.873  -6.893  0.00  0.00     0.084 H 
ATOM     46  C   LIG d   1       3.061 -11.380  -4.171  0.00  0.00     0.028 A 
ATOM     47  C   LIG d   1       3.495 -10.347  -3.359  0.00  0.00    -0.043 A 
ATOM     48  H   LIG d   1       2.316 -12.069  -3.801  0.00  0.00     0.083 H 
ATOM     49  C   LIG d   1       4.449  -9.466  -3.837  0.00  0.00    -0.048 A 
ATOM     50  H   LIG d   1       3.095 -10.231  -2.363  0.00  0.00     0.063 H 
ATOM     51  H   LIG d   1       4.806  -8.651  -3.225  0.00  0.00     0.063 H 
ENDBRANCH  40  42
ENDBRANCH   6  37
TORSDOF 5
ENDMDL
MODEL 6
REMARK VINA RESULT:      -6.6      1.781      2.258
REMARK  5 active torsions:
REMARK  status: ('A' for Active; 'I' for Inactive)
REMARK    1  A    between atoms: C_1  and  N_2 
REMARK    2  A    between atoms: C_4  and  N_20 
REMARK    3  A    between atoms: C_7  and  C_9 
REMARK    4  A    between atoms: C_11  and  C_14 
REMARK       I    between atoms: N_20  and  C_21 
REMARK    5  A    between atoms: C_21  and  C_23 
ROOT
ATOM      1  N   LIG d   1      11.183   3.822  -3.753  0.00  0.00    -0.293 N 
ATOM      2  C   LIG d   1      10.734   2.439  -3.481  0.00  0.00     0.018 C 
ATOM      3  C   LIG d   1       9.308   2.363  -4.079  0.00  0.00     0.038 C 
ATOM      4  H   LIG d   1       9.253   2.062  -5.136  0.00  0.00     0.051 H 
ATOM      5  C   LIG d   1       8.754   3.775  -3.754  0.00  0.00    -0.009 C 
ATOM      6  C   LIG d   1       9.994   4.679  -3.912  0.00  0.00     0.091 C 
ATOM      7  H   LIG d   1      10.035   5.172  -4.895  0.00  0.00     0.056 H 
ATOM      8  H   LIG d   1      11.419   1.729  -3.967  0.00  0.00     0.044 H 
ATOM      9  H   LIG d   1      10.732   2.261  -2.396  0.00  0.00     0.044 H 
ATOM     10  H   LIG d   1       7.953   4.027  -4.465  0.00  0.00     0.030 H 
ATOM     11  H   LIG d   1       8.352   3.784  -2.729  0.00  0.00     0.030 H 
ENDROOT
BRANCH   3  12
ATOM     12  N   LIG d   1       8.516   1.323  -3.416  0.00  0.00    -0.311 N 
ATOM     13  C   LIG d   1       7.371   0.886  -3.978  0.00  0.00     0.216 C 
ATOM     14  O   LIG d   1       6.997   1.353  -5.033  0.00  0.00    -0.276 OA
ATOM     15  H   LIG d   1       8.855   0.899  -2.459  0.00  0.00     0.149 HD
BRANCH  13  16
ATOM     16  C   LIG d   1       6.557  -0.183  -3.296  0.00  0.00     0.036 C 
ATOM     17  C   LIG d   1       6.013  -1.157  -4.343  0.00  0.00    -0.042 C 
ATOM     18  C   LIG d   1       5.187  -2.241  -3.650  0.00  0.00    -0.052 C 
ATOM     19  H   LIG d   1       5.378  -0.611  -5.057  0.00  0.00     0.027 H 
ATOM     20  H   LIG d   1       6.853  -1.623  -4.882  0.00  0.00     0.027 H 
ATOM     21  C   LIG d   1       4.020  -1.594  -2.902  0.00  0.00    -0.053 C 
ATOM     22  H   LIG d   1       5.822  -2.787  -2.937  0.00  0.00     0.026 H 
ATOM     23  H   LIG d   1       4.796  -2.942  -4.403  0.00  0.00     0.026 H 
ATOM     24  C   LIG d   1       4.564  -0.620  -1.856  0.00  0.00    -0.052 C 
ATOM     25  H   LIG d   1       3.425  -2.374  -2.404  0.00  0.00     0.026 H 
ATOM     26  H   LIG d   1       3.384  -1.049  -3.615  0.00  0.00     0.026 H 
ATOM     27  C   LIG d   1       5.390   0.465  -2.548  0.00  0.00    -0.042 C 
ATOM     28  H   LIG d   1       5.199  -1.166  -1.142  0.00  0.00     0.026 H 
ATOM     29  H   LIG d   1       3.725  -0.154  -1.317  0.00  0.00     0.026 H 
ATOM     30  H   LIG d   1       5.781   1.164  -1.795  0.00  0.00     0.027 H 
ATOM     31  H   LIG d   1       4.755   1.011  -3.261  0.00  0.00     0.027 H 
ATOM     32  H   LIG d   1       7.204  -0.719  -2.587  0.00  0.00     0.039 H 
ENDBRANCH  13  16
ENDBRANCH   3  12
BRANCH   1  33
ATOM     33  C   LIG d   1      12.048   4.317  -2.673  0.00  0.00    -0.012 C 
ATOM     34  H   LIG d   1      13.060   4.494  -3.066  0.00  0.00     0.039 H 
ATOM     35  H   LIG d   1      12.092   3.570  -1.867  0.00  0.00     0.039 H 
ATOM     36  H   LIG d   1      11.638   5.259  -2.278  0.00  0.00     0.039 H 
ENDBRANCH   1  33
BRANCH   6  37
ATOM     37  C   LIG d   1       9.987   5.749  -2.851  0.00  0.00     0.245 A 
ATOM     38  O   LIG d   1       9.813   5.565  -1.539  0.00  0.00    -0.336 OA
ATOM     39  N   LIG d   1       9.862   6.629  -0.959  0.00  0.00    -0.056 NA
ATOM     40  C   LIG d   1      10.069   7.597  -1.815  0.00  0.00     0.204 A 
ATOM     41  N   LIG d   1      10.156   7.034  -3.041  0.00  0.00    -0.190 NA
BRANCH  40  42
ATOM     42  C   LIG d   1      10.190   9.042  -1.498  0.00  0.00     0.041 A 
ATOM     43  C   LIG d   1      10.227   9.990  -2.518  0.00  0.00     0.038 A 
ATOM     44  N   LIG d   1      10.330  11.273  -2.238  0.00  0.00    -0.263 NA
ATOM     45  H   LIG d   1      10.166   9.669  -3.548  0.00  0.00     0.084 H 
ATOM     46  C   LIG d   1      10.412  11.710  -0.997  0.00  0.00     0.028 A 
ATOM     47  C   LIG d   1      10.389  10.831   0.071  0.00  0.00    -0.043 A 
ATOM     48  H   LIG d   1      10.501  12.770  -0.811  0.00  0.00     0.083 H 
ATOM     49  C   LIG d   1      10.276   9.473  -0.171  0.00  0.00    -0.048 A 
ATOM     50  H   LIG d   1      10.456  11.201   1.084  0.00  0.00     0.063 H 
ATOM     51  H   LIG d   1      10.255   8.765   0.644  0.00  0.00     0.063 H 
ENDBRANCH  40  42
ENDBRANCH   6  37
TORSDOF 5
ENDMDL
MODEL 7
REMARK VINA RESULT:      -6.5      3.104      4.339
REMARK  5 active torsions:
REMARK  status: ('A' for Active; 'I' for Inactive)
REMARK    1  A    between atoms: C_1  and  N_2 
REMARK    2  A    between atoms: C_4  and  N_20 
REMARK    3  A    between atoms: C_7  and  C_9 
REMARK    4  A    between atoms: C_11  and  C_14 
REMARK       I    between atoms: N_20  and  C_21 
REMARK    5  A    between atoms: C_21  and  C_23 
ROOT
ATOM      1  N   LIG d   1      10.956   3.139  -4.367  0.00  0.00    -0.293 N 
ATOM      2  C   LIG d   1      10.198   2.266  -3.446  0.00  0.00     0.018 C 
ATOM      3  C   LIG d   1       9.101   1.621  -4.328  0.00  0.00     0.038 C 
ATOM      4  H   LIG d   1       9.383   0.679  -4.823  0.00  0.00     0.051 H 
ATOM      5  C   LIG d   1       8.731   2.791  -5.276  0.00  0.00    -0.009 C 
ATOM      6  C   LIG d   1      10.084   3.498  -5.500  0.00  0.00     0.091 C 
ATOM      7  H   LIG d   1      10.570   3.193  -6.439  0.00  0.00     0.056 H 
ATOM      8  H   LIG d   1      10.873   1.510  -3.017  0.00  0.00     0.044 H 
ATOM      9  H   LIG d   1       9.767   2.872  -2.636  0.00  0.00     0.044 H 
ATOM     10  H   LIG d   1       8.305   2.389  -6.208  0.00  0.00     0.030 H 
ATOM     11  H   LIG d   1       7.990   3.442  -4.785  0.00  0.00     0.030 H 
ENDROOT
BRANCH   3  12
ATOM     12  N   LIG d   1       7.948   1.216  -3.519  0.00  0.00    -0.311 N 
ATOM     13  C   LIG d   1       7.319   0.051  -3.776  0.00  0.00     0.216 C 
ATOM     14  O   LIG d   1       7.709  -0.662  -4.676  0.00  0.00    -0.276 OA
ATOM     15  H   LIG d   1       7.594   1.863  -2.702  0.00  0.00     0.149 HD
BRANCH  13  16
ATOM     16  C   LIG d   1       6.134  -0.364  -2.944  0.00  0.00     0.036 C 
ATOM     17  C   LIG d   1       5.441  -1.559  -3.604  0.00  0.00    -0.042 C 
ATOM     18  C   LIG d   1       4.237  -1.980  -2.759  0.00  0.00    -0.052 C 
ATOM     19  H   LIG d   1       5.102  -1.276  -4.611  0.00  0.00     0.027 H 
ATOM     20  H   LIG d   1       6.149  -2.399  -3.677  0.00  0.00     0.027 H 
ATOM     21  C   LIG d   1       3.253  -0.813  -2.656  0.00  0.00    -0.053 C 
ATOM     22  H   LIG d   1       4.576  -2.262  -1.752  0.00  0.00     0.026 H 
ATOM     23  H   LIG d   1       3.739  -2.839  -3.232  0.00  0.00     0.026 H 
ATOM     24  C   LIG d   1       3.945   0.381  -1.998  0.00  0.00    -0.052 C 
ATOM     25  H   LIG d   1       2.387  -1.115  -2.049  0.00  0.00     0.026 H 
ATOM     26  H   LIG d   1       2.913  -0.531  -3.664  0.00  0.00     0.026 H 
ATOM     27  C   LIG d   1       5.150   0.803  -2.843  0.00  0.00    -0.042 C 
ATOM     28  H   LIG d   1       4.284   0.099  -0.991  0.00  0.00     0.026 H 
ATOM     29  H   LIG d   1       3.238   1.221  -1.924  0.00  0.00     0.026 H 
ATOM     30  H   LIG d   1       5.647   1.661  -2.368  0.00  0.00     0.027 H 
ATOM     31  H   LIG d   1       4.810   1.086  -3.850  0.00  0.00     0.027 H 
ATOM     32  H   LIG d   1       6.487  -0.643  -1.942  0.00  0.00     0.039 H 
ENDBRANCH  13  16
ENDBRANCH   3  12
BRANCH   1  33
ATOM     33  C   LIG d   1      11.440   4.341  -3.674  0.00  0.00    -0.012 C 
ATOM     34  H   LIG d   1      10.890   5.222  -4.039  0.00  0.00     0.039 H 
ATOM     35  H   LIG d   1      12.514   4.472  -3.873  0.00  0.00     0.039 H 
ATOM     36  H   LIG d   1      11.279   4.230  -2.591  0.00  0.00     0.039 H 
ENDBRANCH   1  33
BRANCH   6  37
ATOM     37  C   LIG d   1       9.883   4.991  -5.539  0.00  0.00     0.245 A 
ATOM     38  O   LIG d   1       9.060   5.702  -4.761  0.00  0.00    -0.336 OA
ATOM     39  N   LIG d   1       9.133   6.879  -5.046  0.00  0.00    -0.056 NA
ATOM     40  C   LIG d   1       9.991   7.054  -6.017  0.00  0.00     0.204 A 
ATOM     41  N   LIG d   1      10.485   5.837  -6.338  0.00  0.00    -0.190 NA
BRANCH  40  42
ATOM     42  C   LIG d   1      10.359   8.347  -6.646  0.00  0.00     0.041 A 
ATOM     43  C   LIG d   1       9.511   8.951  -7.571  0.00  0.00     0.038 A 
ATOM     44  N   LIG d   1       9.834  10.100  -8.127  0.00  0.00    -0.263 NA
ATOM     45  H   LIG d   1       8.578   8.473  -7.832  0.00  0.00     0.084 H 
ATOM     46  C   LIG d   1      10.964  10.718  -7.843  0.00  0.00     0.028 A 
ATOM     47  C   LIG d   1      11.862  10.180  -6.939  0.00  0.00    -0.043 A 
ATOM     48  H   LIG d   1      11.193  11.657  -8.325  0.00  0.00     0.083 H 
ATOM     49  C   LIG d   1      11.565   8.976  -6.324  0.00  0.00    -0.048 A 
ATOM     50  H   LIG d   1      12.784  10.694  -6.713  0.00  0.00     0.063 H 
ATOM     51  H   LIG d   1      12.248   8.533  -5.614  0.00  0.00     0.063 H 
ENDBRANCH  40  42
ENDBRANCH   6  37
TORSDOF 5
ENDMDL
MODEL 8
REMARK VINA RESULT:      -6.4      6.835     11.605
REMARK  5 active torsions:
REMARK  status: ('A' for Active; 'I' for Inactive)
REMARK    1  A    between atoms: C_1  and  N_2 
REMARK    2  A    between atoms: C_4  and  N_20 
REMARK    3  A    between atoms: C_7  and  C_9 
REMARK    4  A    between atoms: C_11  and  C_14 
REMARK       I    between atoms: N_20  and  C_21 
REMARK    5  A    between atoms: C_21  and  C_23 
ROOT
ATOM      1  N   LIG d   1      10.307  -5.125  -4.548  0.00  0.00    -0.293 N 
ATOM      2  C   LIG d   1       9.182  -4.192  -4.772  0.00  0.00     0.018 C 
ATOM      3  C   LIG d   1       9.190  -3.261  -3.535  0.00  0.00     0.038 C 
ATOM      4  H   LIG d   1       9.818  -2.361  -3.623  0.00  0.00     0.051 H 
ATOM      5  C   LIG d   1       9.585  -4.244  -2.403  0.00  0.00    -0.009 C 
ATOM      6  C   LIG d   1      10.577  -5.197  -3.101  0.00  0.00     0.091 C 
ATOM      7  H   LIG d   1      11.627  -4.924  -2.916  0.00  0.00     0.056 H 
ATOM      8  H   LIG d   1       9.349  -3.633  -5.705  0.00  0.00     0.044 H 
ATOM      9  H   LIG d   1       8.244  -4.760  -4.849  0.00  0.00     0.044 H 
ATOM     10  H   LIG d   1      10.046  -3.685  -1.575  0.00  0.00     0.030 H 
ATOM     11  H   LIG d   1       8.685  -4.764  -2.038  0.00  0.00     0.030 H 
ENDROOT
BRANCH   3  12
ATOM     12  N   LIG d   1       7.861  -2.693  -3.297  0.00  0.00    -0.311 N 
ATOM     13  C   LIG d   1       7.505  -1.535  -3.892  0.00  0.00     0.216 C 
ATOM     14  O   LIG d   1       8.286  -0.966  -4.623  0.00  0.00    -0.276 OA
ATOM     15  H   LIG d   1       7.151  -3.210  -2.633  0.00  0.00     0.149 HD
BRANCH  13  16
ATOM     16  C   LIG d   1       6.138  -0.952  -3.646  0.00  0.00     0.036 C 
ATOM     17  C   LIG d   1       6.280   0.484  -3.137  0.00  0.00    -0.042 C 
ATOM     18  C   LIG d   1       4.891   1.076  -2.887  0.00  0.00    -0.052 C 
ATOM     19  H   LIG d   1       6.853   0.485  -2.198  0.00  0.00     0.027 H 
ATOM     20  H   LIG d   1       6.806   1.090  -3.889  0.00  0.00     0.027 H 
ATOM     21  C   LIG d   1       4.158   0.234  -1.841  0.00  0.00    -0.053 C 
ATOM     22  H   LIG d   1       4.318   1.074  -3.826  0.00  0.00     0.026 H 
ATOM     23  H   LIG d   1       4.993   2.108  -2.521  0.00  0.00     0.026 H 
ATOM     24  C   LIG d   1       4.017  -1.202  -2.350  0.00  0.00    -0.052 C 
ATOM     25  H   LIG d   1       3.160   0.659  -1.661  0.00  0.00     0.026 H 
ATOM     26  H   LIG d   1       4.731   0.236  -0.902  0.00  0.00     0.026 H 
ATOM     27  C   LIG d   1       5.406  -1.794  -2.600  0.00  0.00    -0.042 C 
ATOM     28  H   LIG d   1       3.444  -1.203  -3.288  0.00  0.00     0.026 H 
ATOM     29  H   LIG d   1       3.490  -1.807  -1.598  0.00  0.00     0.026 H 
ATOM     30  H   LIG d   1       5.303  -2.826  -2.966  0.00  0.00     0.027 H 
ATOM     31  H   LIG d   1       5.979  -1.793  -1.661  0.00  0.00     0.027 H 
ATOM     32  H   LIG d   1       5.577  -0.960  -4.592  0.00  0.00     0.039 H 
ENDBRANCH  13  16
ENDBRANCH   3  12
BRANCH   1  33
ATOM     33  C   LIG d   1      10.005  -6.455  -5.094  0.00  0.00    -0.012 C 
ATOM     34  H   LIG d   1      10.788  -6.743  -5.813  0.00  0.00     0.039 H 
ATOM     35  H   LIG d   1       9.031  -6.430  -5.604  0.00  0.00     0.039 H 
ATOM     36  H   LIG d   1       9.972  -7.189  -4.275  0.00  0.00     0.039 H 
ENDBRANCH   1  33
BRANCH   6  37
ATOM     37  C   LIG d   1      10.367  -6.607  -2.610  0.00  0.00     0.245 A 
ATOM     38  O   LIG d   1      11.319  -7.513  -2.365  0.00  0.00    -0.336 OA
ATOM     39  N   LIG d   1      10.818  -8.549  -1.982  0.00  0.00    -0.056 NA
ATOM     40  C   LIG d   1       9.516  -8.429  -1.938  0.00  0.00     0.204 A 
ATOM     41  N   LIG d   1       9.217  -7.173  -2.338  0.00  0.00    -0.190 NA
BRANCH  40  42
ATOM     42  C   LIG d   1       8.548  -9.474  -1.522  0.00  0.00     0.041 A 
ATOM     43  C   LIG d   1       8.957 -10.540  -0.722  0.00  0.00     0.038 A 
ATOM     44  N   LIG d   1       8.098 -11.466  -0.349  0.00  0.00    -0.263 NA
ATOM     45  H   LIG d   1       9.987 -10.603  -0.403  0.00  0.00     0.084 H 
ATOM     46  C   LIG d   1       6.833 -11.432  -0.719  0.00  0.00     0.028 A 
ATOM     47  C   LIG d   1       6.352 -10.411  -1.518  0.00  0.00    -0.043 A 
ATOM     48  H   LIG d   1       6.163 -12.214  -0.395  0.00  0.00     0.083 H 
ATOM     49  C   LIG d   1       7.214  -9.410  -1.932  0.00  0.00    -0.048 A 
ATOM     50  H   LIG d   1       5.313 -10.393  -1.814  0.00  0.00     0.063 H 
ATOM     51  H   LIG d   1       6.864  -8.601  -2.555  0.00  0.00     0.063 H 
ENDBRANCH  40  42
ENDBRANCH   6  37
TORSDOF 5
ENDMDL
MODEL 9
REMARK VINA RESULT:      -6.3      7.956     11.575
REMARK  5 active torsions:
REMARK  status: ('A' for Active; 'I' for Inactive)
REMARK    1  A    between atoms: C_1  and  N_2 
REMARK    2  A    between atoms: C_4  and  N_20 
REMARK    3  A    between atoms: C_7  and  C_9 
REMARK    4  A    between atoms: C_11  and  C_14 
REMARK       I    between atoms: N_20  and  C_21 
REMARK    5  A    between atoms: C_21  and  C_23 
ROOT
ATOM      1  N   LIG d   1       2.474  -0.124  -9.834  0.00  0.00    -0.293 N 
ATOM      2  C   LIG d   1       2.092  -0.492  -8.454  0.00  0.00     0.018 C 
ATOM      3  C   LIG d   1       2.873   0.495  -7.552  0.00  0.00     0.038 C 
ATOM      4  H   LIG d   1       2.359   1.444  -7.331  0.00  0.00     0.051 H 
ATOM      5  C   LIG d   1       4.217   0.624  -8.316  0.00  0.00    -0.009 C 
ATOM      6  C   LIG d   1       3.784   0.552  -9.796  0.00  0.00     0.091 C 
ATOM      7  H   LIG d   1       3.689   1.546 -10.257  0.00  0.00     0.056 H 
ATOM      8  H   LIG d   1       1.004  -0.382  -8.333  0.00  0.00     0.044 H 
ATOM      9  H   LIG d   1       2.378  -1.536  -8.260  0.00  0.00     0.044 H 
ATOM     10  H   LIG d   1       4.694   1.583  -8.061  0.00  0.00     0.030 H 
ATOM     11  H   LIG d   1       4.883  -0.204  -8.030  0.00  0.00     0.030 H 
ENDROOT
BRANCH   3  12
ATOM     12  N   LIG d   1       3.081  -0.067  -6.216  0.00  0.00    -0.311 N 
ATOM     13  C   LIG d   1       2.813   0.676  -5.122  0.00  0.00     0.216 C 
ATOM     14  O   LIG d   1       2.400   1.808  -5.246  0.00  0.00    -0.276 OA
ATOM     15  H   LIG d   1       3.457  -1.095  -6.103  0.00  0.00     0.149 HD
BRANCH  13  16
ATOM     16  C   LIG d   1       3.028   0.096  -3.748  0.00  0.00     0.036 C 
ATOM     17  C   LIG d   1       4.116   0.892  -3.023  0.00  0.00    -0.042 C 
ATOM     18  C   LIG d   1       4.334   0.303  -1.628  0.00  0.00    -0.052 C 
ATOM     19  H   LIG d   1       5.053   0.837  -3.595  0.00  0.00     0.027 H 
ATOM     20  H   LIG d   1       3.803   1.943  -2.932  0.00  0.00     0.027 H 
ATOM     21  C   LIG d   1       4.769  -1.159  -1.753  0.00  0.00    -0.053 C 
ATOM     22  H   LIG d   1       3.396   0.358  -1.056  0.00  0.00     0.026 H 
ATOM     23  H   LIG d   1       5.116   0.875  -1.106  0.00  0.00     0.026 H 
ATOM     24  C   LIG d   1       3.682  -1.953  -2.478  0.00  0.00    -0.052 C 
ATOM     25  H   LIG d   1       4.926  -1.582  -0.750  0.00  0.00     0.026 H 
ATOM     26  H   LIG d   1       5.707  -1.213  -2.324  0.00  0.00     0.026 H 
ATOM     27  C   LIG d   1       3.464  -1.365  -3.874  0.00  0.00    -0.042 C 
ATOM     28  H   LIG d   1       2.744  -1.898  -1.906  0.00  0.00     0.026 H 
ATOM     29  H   LIG d   1       3.995  -3.004  -2.568  0.00  0.00     0.026 H 
ATOM     30  H   LIG d   1       2.682  -1.937  -4.394  0.00  0.00     0.027 H 
ATOM     31  H   LIG d   1       4.401  -1.420  -4.446  0.00  0.00     0.027 H 
ATOM     32  H   LIG d   1       2.084   0.158  -3.188  0.00  0.00     0.039 H 
ENDBRANCH  13  16
ENDBRANCH   3  12
BRANCH   1  33
ATOM     33  C   LIG d   1       2.519  -1.309 -10.702  0.00  0.00    -0.012 C 
ATOM     34  H   LIG d   1       1.695  -1.988 -10.438  0.00  0.00     0.039 H 
ATOM     35  H   LIG d   1       3.480  -1.827 -10.565  0.00  0.00     0.039 H 
ATOM     36  H   LIG d   1       2.416  -0.998 -11.752  0.00  0.00     0.039 H 
ENDBRANCH   1  33
BRANCH   6  37
ATOM     37  C   LIG d   1       4.793  -0.239 -10.588  0.00  0.00     0.245 A 
ATOM     38  O   LIG d   1       5.558  -1.234 -10.129  0.00  0.00    -0.336 OA
ATOM     39  N   LIG d   1       6.263  -1.661 -11.019  0.00  0.00    -0.056 NA
ATOM     40  C   LIG d   1       6.035  -1.003 -12.126  0.00  0.00     0.204 A 
ATOM     41  N   LIG d   1       5.081  -0.085 -11.856  0.00  0.00    -0.190 NA
BRANCH  40  42
ATOM     42  C   LIG d   1       6.697  -1.226 -13.436  0.00  0.00     0.041 A 
ATOM     43  C   LIG d   1       6.081  -0.823 -14.619  0.00  0.00     0.038 A 
ATOM     44  N   LIG d   1       6.669  -1.017 -15.781  0.00  0.00    -0.263 NA
ATOM     45  H   LIG d   1       5.114  -0.343 -14.580  0.00  0.00     0.084 H 
ATOM     46  C   LIG d   1       7.846  -1.603 -15.877  0.00  0.00     0.028 A 
ATOM     47  C   LIG d   1       8.519  -2.038 -14.749  0.00  0.00    -0.043 A 
ATOM     48  H   LIG d   1       8.292  -1.747 -16.850  0.00  0.00     0.083 H 
ATOM     49  C   LIG d   1       7.945  -1.852 -13.503  0.00  0.00    -0.048 A 
ATOM     50  H   LIG d   1       9.484  -2.516 -14.839  0.00  0.00     0.063 H 
ATOM     51  H   LIG d   1       8.449  -2.181 -12.606  0.00  0.00     0.063 H 
ENDBRANCH  40  42
ENDBRANCH   6  37
TORSDOF 5
ENDMDL
