MODEL 1
REMARK VINA RESULT:      -7.0      0.000      0.000
REMARK  3 active torsions:
REMARK  status: ('A' for Active; 'I' for Inactive)
REMARK    1  A    between atoms: C_1  and  C_2 
REMARK    2  A    between atoms: C_2  and  C_4 
REMARK    3  A    between atoms: C_2  and  N_10 
ROOT
ATOM      1  N   LIG d   1       3.534  -0.833 -10.208  0.00  0.00    -0.284 N 
ATOM      2  C   LIG d   1       4.785  -1.572 -10.223  0.00  0.00     0.092 A 
ATOM      3  C   LIG d   1       5.079  -2.203  -8.901  0.00  0.00     0.234 A 
ATOM      4  O   LIG d   1       6.089  -2.868  -8.803  0.00  0.00    -0.274 OA
ATOM      5  N   LIG d   1       4.305  -2.085  -7.820  0.00  0.00    -0.283 N 
ATOM      6  C   LIG d   1       4.668  -2.828  -6.595  0.00  0.00     0.056 C 
ATOM      7  C   LIG d   1       4.530  -1.874  -5.430  0.00  0.00     0.038 A 
ATOM      8  C   LIG d   1       3.929  -0.668  -5.521  0.00  0.00    -0.015 A 
ATOM      9  C   LIG d   1       3.995  -0.062  -4.206  0.00  0.00     0.003 A 
ATOM     10  C   LIG d   1       3.543   1.162  -3.704  0.00  0.00    -0.052 A 
ATOM     11  C   LIG d   1       3.785   1.415  -2.376  0.00  0.00    -0.061 A 
ATOM     12  C   LIG d   1       4.444   0.508  -1.562  0.00  0.00    -0.060 A 
ATOM     13  C   LIG d   1       4.900  -0.711  -2.033  0.00  0.00    -0.038 A 
ATOM     14  C   LIG d   1       4.669  -0.995  -3.377  0.00  0.00     0.047 A 
ATOM     15  N   LIG d   1       4.982  -2.074  -4.153  0.00  0.00    -0.356 N 
ATOM     16  H   LIG d   1       5.451  -2.866  -3.844  0.00  0.00     0.166 HD
ATOM     17  C   LIG d   1       3.322  -0.105  -6.780  0.00  0.00     0.002 C 
ATOM     18  C   LIG d   1       3.107  -1.248  -7.782  0.00  0.00     0.107 A 
ATOM     19  H   LIG d   1       2.268  -1.851  -7.436  0.00  0.00     0.060 H 
ATOM     20  C   LIG d   1       2.773  -0.684  -9.126  0.00  0.00     0.237 A 
ATOM     21  O   LIG d   1       1.746  -0.049  -9.236  0.00  0.00    -0.274 OA
ATOM     22  H   LIG d   1       5.596  -0.891 -10.479  0.00  0.00     0.056 H 
ATOM     23  H   LIG d   1       4.727  -2.353 -10.982  0.00  0.00     0.056 H 
ATOM     24  H   LIG d   1       5.697  -3.180  -6.665  0.00  0.00     0.053 H 
ATOM     25  H   LIG d   1       3.994  -3.675  -6.461  0.00  0.00     0.053 H 
ATOM     26  H   LIG d   1       3.028   1.876  -4.331  0.00  0.00     0.062 H 
ATOM     27  H   LIG d   1       3.452   2.351  -1.953  0.00  0.00     0.062 H 
ATOM     28  H   LIG d   1       4.606   0.760  -0.525  0.00  0.00     0.062 H 
ATOM     29  H   LIG d   1       5.413  -1.409  -1.389  0.00  0.00     0.064 H 
ATOM     30  H   LIG d   1       3.994   0.636  -7.210  0.00  0.00     0.034 H 
ATOM     31  H   LIG d   1       2.363   0.360  -6.547  0.00  0.00     0.034 H 
ENDROOT
BRANCH   1  32
ATOM     32  C   LIG d   1       3.082  -0.217 -11.459  0.00  0.00     0.049 C 
ATOM     33  H   LIG d   1       2.419   0.618 -11.233  0.00  0.00     0.055 H 
BRANCH  32  34
ATOM     34  C   LIG d   1       4.293   0.290 -12.244  0.00  0.00    -0.042 C 
ATOM     35  H   LIG d   1       5.208  -0.055 -11.764  0.00  0.00     0.025 H 
ATOM     36  H   LIG d   1       4.251  -0.096 -13.263  0.00  0.00     0.025 H 
ATOM     37  H   LIG d   1       4.282   1.379 -12.267  0.00  0.00     0.025 H 
ENDBRANCH  32  34
BRANCH  32  38
ATOM     38  C   LIG d   1       2.340  -1.237 -12.283  0.00  0.00    -0.027 A 
ATOM     39  C   LIG d   1       0.996  -1.465 -12.056  0.00  0.00    -0.057 A 
ATOM     40  C   LIG d   1       0.316  -2.400 -12.813  0.00  0.00    -0.061 A 
ATOM     41  H   LIG d   1       0.477  -0.911 -11.288  0.00  0.00     0.062 H 
ATOM     42  C   LIG d   1       0.980  -3.109 -13.796  0.00  0.00    -0.062 A 
ATOM     43  H   LIG d   1      -0.735  -2.578 -12.635  0.00  0.00     0.062 H 
ATOM     44  C   LIG d   1       2.325  -2.883 -14.023  0.00  0.00    -0.061 A 
ATOM     45  H   LIG d   1       0.449  -3.841 -14.387  0.00  0.00     0.062 H 
ATOM     46  C   LIG d   1       3.004  -1.943 -13.271  0.00  0.00    -0.057 A 
ATOM     47  H   LIG d   1       2.844  -3.437 -14.791  0.00  0.00     0.062 H 
ATOM     48  H   LIG d   1       4.053  -1.762 -13.450  0.00  0.00     0.062 H 
ENDBRANCH  32  38
ENDBRANCH   1  32
TORSDOF 3
ENDMDL
MODEL 2
REMARK VINA RESULT:      -6.7      1.613      8.365
REMARK  3 active torsions:
REMARK  status: ('A' for Active; 'I' for Inactive)
REMARK    1  A    between atoms: C_1  and  C_2 
REMARK    2  A    between atoms: C_2  and  C_4 
REMARK    3  A    between atoms: C_2  and  N_10 
ROOT
ATOM      1  N   LIG d   1       4.922  -1.437  -6.573  0.00  0.00    -0.284 N 
ATOM      2  C   LIG d   1       4.390  -0.090  -6.684  0.00  0.00     0.092 A 
ATOM      3  C   LIG d   1       3.327   0.010  -7.730  0.00  0.00     0.234 A 
ATOM      4  O   LIG d   1       2.793   1.086  -7.893  0.00  0.00    -0.274 OA
ATOM      5  N   LIG d   1       2.925  -1.007  -8.495  0.00  0.00    -0.283 N 
ATOM      6  C   LIG d   1       1.806  -0.795  -9.437  0.00  0.00     0.056 C 
ATOM      7  C   LIG d   1       2.205  -1.411 -10.760  0.00  0.00     0.038 A 
ATOM      8  C   LIG d   1       3.275  -2.219 -10.913  0.00  0.00    -0.015 A 
ATOM      9  C   LIG d   1       3.320  -2.602 -12.310  0.00  0.00     0.003 A 
ATOM     10  C   LIG d   1       4.190  -3.415 -13.042  0.00  0.00    -0.052 A 
ATOM     11  C   LIG d   1       3.926  -3.558 -14.382  0.00  0.00    -0.061 A 
ATOM     12  C   LIG d   1       2.851  -2.932 -14.991  0.00  0.00    -0.060 A 
ATOM     13  C   LIG d   1       1.974  -2.124 -14.290  0.00  0.00    -0.038 A 
ATOM     14  C   LIG d   1       2.217  -1.960 -12.928  0.00  0.00     0.047 A 
ATOM     15  N   LIG d   1       1.570  -1.245 -11.961  0.00  0.00    -0.356 N 
ATOM     16  H   LIG d   1       0.777  -0.703 -12.104  0.00  0.00     0.166 HD
ATOM     17  C   LIG d   1       4.217  -2.615  -9.805  0.00  0.00     0.002 C 
ATOM     18  C   LIG d   1       3.543  -2.331  -8.455  0.00  0.00     0.107 A 
ATOM     19  H   LIG d   1       2.764  -3.078  -8.300  0.00  0.00     0.060 H 
ATOM     20  C   LIG d   1       4.549  -2.448  -7.356  0.00  0.00     0.237 A 
ATOM     21  O   LIG d   1       5.060  -3.532  -7.166  0.00  0.00    -0.274 OA
ATOM     22  H   LIG d   1       5.202   0.592  -6.938  0.00  0.00     0.056 H 
ATOM     23  H   LIG d   1       3.969   0.206  -5.723  0.00  0.00     0.056 H 
ATOM     24  H   LIG d   1       1.625   0.272  -9.565  0.00  0.00     0.053 H 
ATOM     25  H   LIG d   1       0.907  -1.281  -9.059  0.00  0.00     0.053 H 
ATOM     26  H   LIG d   1       5.032  -3.907 -12.576  0.00  0.00     0.062 H 
ATOM     27  H   LIG d   1       4.579  -4.177 -14.980  0.00  0.00     0.062 H 
ATOM     28  H   LIG d   1       2.692  -3.081 -16.049  0.00  0.00     0.062 H 
ATOM     29  H   LIG d   1       1.139  -1.641 -14.776  0.00  0.00     0.064 H 
ATOM     30  H   LIG d   1       5.136  -2.036  -9.883  0.00  0.00     0.034 H 
ATOM     31  H   LIG d   1       4.445  -3.679  -9.882  0.00  0.00     0.034 H 
ENDROOT
BRANCH   1  32
ATOM     32  C   LIG d   1       5.926  -1.700  -5.539  0.00  0.00     0.049 C 
ATOM     33  H   LIG d   1       6.212  -2.751  -5.568  0.00  0.00     0.055 H 
BRANCH  32  34
ATOM     34  C   LIG d   1       7.158  -0.828  -5.791  0.00  0.00    -0.042 C 
ATOM     35  H   LIG d   1       7.108  -0.412  -6.796  0.00  0.00     0.025 H 
ATOM     36  H   LIG d   1       7.182  -0.016  -5.063  0.00  0.00     0.025 H 
ATOM     37  H   LIG d   1       8.058  -1.434  -5.690  0.00  0.00     0.025 H 
ENDBRANCH  32  34
BRANCH  32  38
ATOM     38  C   LIG d   1       5.349  -1.375  -4.185  0.00  0.00    -0.027 A 
ATOM     39  C   LIG d   1       4.479  -2.258  -3.574  0.00  0.00    -0.057 A 
ATOM     40  C   LIG d   1       3.951  -1.960  -2.331  0.00  0.00    -0.061 A 
ATOM     41  H   LIG d   1       4.213  -3.181  -4.066  0.00  0.00     0.062 H 
ATOM     42  C   LIG d   1       4.293  -0.778  -1.701  0.00  0.00    -0.062 A 
ATOM     43  H   LIG d   1       3.271  -2.650  -1.854  0.00  0.00     0.062 H 
ATOM     44  C   LIG d   1       5.162   0.106  -2.312  0.00  0.00    -0.061 A 
ATOM     45  H   LIG d   1       3.879  -0.545  -0.730  0.00  0.00     0.062 H 
ATOM     46  C   LIG d   1       5.695  -0.195  -3.551  0.00  0.00    -0.057 A 
ATOM     47  H   LIG d   1       5.429   1.029  -1.819  0.00  0.00     0.062 H 
ATOM     48  H   LIG d   1       6.378   0.492  -4.027  0.00  0.00     0.062 H 
ENDBRANCH  32  38
ENDBRANCH   1  32
TORSDOF 3
ENDMDL
MODEL 3
REMARK VINA RESULT:      -6.7      4.268      8.368
REMARK  3 active torsions:
REMARK  status: ('A' for Active; 'I' for Inactive)
REMARK    1  A    between atoms: C_1  and  C_2 
REMARK    2  A    between atoms: C_2  and  C_4 
REMARK    3  A    between atoms: C_2  and  N_10 
ROOT
ATOM      1  N   LIG d   1       8.283  -3.326  -4.867  0.00  0.00    -0.284 N 
ATOM      2  C   LIG d   1       7.840  -2.669  -3.649  0.00  0.00     0.092 A 
ATOM      3  C   LIG d   1       6.489  -2.049  -3.807  0.00  0.00     0.234 A 
ATOM      4  O   LIG d   1       6.006  -1.492  -2.844  0.00  0.00    -0.274 OA
ATOM      5  N   LIG d   1       5.779  -2.066  -4.936  0.00  0.00    -0.283 N 
ATOM      6  C   LIG d   1       4.419  -1.486  -4.937  0.00  0.00     0.056 C 
ATOM      7  C   LIG d   1       4.292  -0.633  -6.179  0.00  0.00     0.038 A 
ATOM      8  C   LIG d   1       5.185  -0.652  -7.191  0.00  0.00    -0.015 A 
ATOM      9  C   LIG d   1       4.716   0.291  -8.187  0.00  0.00     0.003 A 
ATOM     10  C   LIG d   1       5.221   0.687  -9.429  0.00  0.00    -0.052 A 
ATOM     11  C   LIG d   1       4.500   1.628 -10.121  0.00  0.00    -0.061 A 
ATOM     12  C   LIG d   1       3.325   2.168  -9.623  0.00  0.00    -0.060 A 
ATOM     13  C   LIG d   1       2.803   1.794  -8.397  0.00  0.00    -0.038 A 
ATOM     14  C   LIG d   1       3.513   0.840  -7.672  0.00  0.00     0.047 A 
ATOM     15  N   LIG d   1       3.292   0.262  -6.455  0.00  0.00    -0.356 N 
ATOM     16  H   LIG d   1       2.538   0.453  -5.875  0.00  0.00     0.166 HD
ATOM     17  C   LIG d   1       6.423  -1.510  -7.226  0.00  0.00     0.002 C 
ATOM     18  C   LIG d   1       6.280  -2.631  -6.188  0.00  0.00     0.107 A 
ATOM     19  H   LIG d   1       5.555  -3.353  -6.564  0.00  0.00     0.060 H 
ATOM     20  C   LIG d   1       7.595  -3.320  -6.006  0.00  0.00     0.237 A 
ATOM     21  O   LIG d   1       8.064  -3.908  -6.958  0.00  0.00    -0.274 OA
ATOM     22  H   LIG d   1       8.557  -1.893  -3.383  0.00  0.00     0.056 H 
ATOM     23  H   LIG d   1       7.800  -3.403  -2.844  0.00  0.00     0.056 H 
ATOM     24  H   LIG d   1       4.279  -0.871  -4.049  0.00  0.00     0.053 H 
ATOM     25  H   LIG d   1       3.676  -2.283  -4.958  0.00  0.00     0.053 H 
ATOM     26  H   LIG d   1       6.137   0.272  -9.826  0.00  0.00     0.062 H 
ATOM     27  H   LIG d   1       4.860   1.959 -11.084  0.00  0.00     0.062 H 
ATOM     28  H   LIG d   1       2.800   2.905 -10.211  0.00  0.00     0.062 H 
ATOM     29  H   LIG d   1       1.886   2.222  -8.019  0.00  0.00     0.064 H 
ATOM     30  H   LIG d   1       7.296  -0.902  -6.990  0.00  0.00     0.034 H 
ATOM     31  H   LIG d   1       6.537  -1.945  -8.220  0.00  0.00     0.034 H 
ENDROOT
BRANCH   1  32
ATOM     32  C   LIG d   1       9.564  -4.038  -4.839  0.00  0.00     0.049 C 
ATOM     33  H   LIG d   1       9.796  -4.407  -5.838  0.00  0.00     0.055 H 
BRANCH  32  34
ATOM     34  C   LIG d   1      10.667  -3.086  -4.375  0.00  0.00    -0.042 C 
ATOM     35  H   LIG d   1      10.219  -2.199  -3.930  0.00  0.00     0.025 H 
ATOM     36  H   LIG d   1      11.292  -3.587  -3.635  0.00  0.00     0.025 H 
ATOM     37  H   LIG d   1      11.278  -2.795  -5.230  0.00  0.00     0.025 H 
ENDBRANCH  32  34
BRANCH  32  38
ATOM     38  C   LIG d   1       9.471  -5.201  -3.884  0.00  0.00    -0.027 A 
ATOM     39  C   LIG d   1       9.987  -5.090  -2.607  0.00  0.00    -0.057 A 
ATOM     40  C   LIG d   1       9.900  -6.157  -1.732  0.00  0.00    -0.061 A 
ATOM     41  H   LIG d   1      10.455  -4.169  -2.292  0.00  0.00     0.062 H 
ATOM     42  C   LIG d   1       9.300  -7.335  -2.135  0.00  0.00    -0.062 A 
ATOM     43  H   LIG d   1      10.303  -6.070  -0.733  0.00  0.00     0.062 H 
ATOM     44  C   LIG d   1       8.786  -7.447  -3.413  0.00  0.00    -0.061 A 
ATOM     45  H   LIG d   1       9.235  -8.169  -1.451  0.00  0.00     0.062 H 
ATOM     46  C   LIG d   1       8.866  -6.378  -4.286  0.00  0.00    -0.057 A 
ATOM     47  H   LIG d   1       8.318  -8.368  -3.728  0.00  0.00     0.062 H 
ATOM     48  H   LIG d   1       8.460  -6.463  -5.283  0.00  0.00     0.062 H 
ENDBRANCH  32  38
ENDBRANCH   1  32
TORSDOF 3
ENDMDL
MODEL 4
REMARK VINA RESULT:      -6.7      2.179      7.774
REMARK  3 active torsions:
REMARK  status: ('A' for Active; 'I' for Inactive)
REMARK    1  A    between atoms: C_1  and  C_2 
REMARK    2  A    between atoms: C_2  and  C_4 
REMARK    3  A    between atoms: C_2  and  N_10 
ROOT
ATOM      1  N   LIG d   1       5.514  -2.836  -4.835  0.00  0.00    -0.284 N 
ATOM      2  C   LIG d   1       4.857  -4.113  -4.612  0.00  0.00     0.092 A 
ATOM      3  C   LIG d   1       4.357  -4.716  -5.886  0.00  0.00     0.234 A 
ATOM      4  O   LIG d   1       3.812  -5.797  -5.824  0.00  0.00    -0.274 OA
ATOM      5  N   LIG d   1       4.471  -4.144  -7.086  0.00  0.00    -0.283 N 
ATOM      6  C   LIG d   1       4.006  -4.883  -8.279  0.00  0.00     0.056 C 
ATOM      7  C   LIG d   1       3.208  -3.918  -9.126  0.00  0.00     0.038 A 
ATOM      8  C   LIG d   1       3.185  -2.585  -8.917  0.00  0.00    -0.015 A 
ATOM      9  C   LIG d   1       2.318  -2.013  -9.928  0.00  0.00     0.003 A 
ATOM     10  C   LIG d   1       1.923  -0.700 -10.204  0.00  0.00    -0.052 A 
ATOM     11  C   LIG d   1       1.068  -0.520 -11.263  0.00  0.00    -0.061 A 
ATOM     12  C   LIG d   1       0.612  -1.580 -12.030  0.00  0.00    -0.060 A 
ATOM     13  C   LIG d   1       0.988  -2.888 -11.779  0.00  0.00    -0.038 A 
ATOM     14  C   LIG d   1       1.855  -3.102 -10.710  0.00  0.00     0.047 A 
ATOM     15  N   LIG d   1       2.410  -4.237 -10.192  0.00  0.00    -0.356 N 
ATOM     16  H   LIG d   1       2.263  -5.134 -10.532  0.00  0.00     0.166 HD
ATOM     17  C   LIG d   1       3.938  -1.876  -7.821  0.00  0.00     0.002 C 
ATOM     18  C   LIG d   1       5.033  -2.809  -7.286  0.00  0.00     0.107 A 
ATOM     19  H   LIG d   1       5.824  -2.869  -8.033  0.00  0.00     0.060 H 
ATOM     20  C   LIG d   1       5.603  -2.245  -6.024  0.00  0.00     0.237 A 
ATOM     21  O   LIG d   1       6.180  -1.180  -6.088  0.00  0.00    -0.274 OA
ATOM     22  H   LIG d   1       4.016  -3.966  -3.936  0.00  0.00     0.056 H 
ATOM     23  H   LIG d   1       5.565  -4.801  -4.150  0.00  0.00     0.056 H 
ATOM     24  H   LIG d   1       3.376  -5.718  -7.975  0.00  0.00     0.053 H 
ATOM     25  H   LIG d   1       4.863  -5.251  -8.844  0.00  0.00     0.053 H 
ATOM     26  H   LIG d   1       2.272   0.133  -9.612  0.00  0.00     0.062 H 
ATOM     27  H   LIG d   1       0.740   0.480 -11.506  0.00  0.00     0.062 H 
ATOM     28  H   LIG d   1      -0.059  -1.378 -12.852  0.00  0.00     0.062 H 
ATOM     29  H   LIG d   1       0.626  -3.706 -12.384  0.00  0.00     0.064 H 
ATOM     30  H   LIG d   1       3.252  -1.617  -7.015  0.00  0.00     0.034 H 
ATOM     31  H   LIG d   1       4.394  -0.968  -8.219  0.00  0.00     0.034 H 
ENDROOT
BRANCH   1  32
ATOM     32  C   LIG d   1       6.116  -2.161  -3.682  0.00  0.00     0.049 C 
ATOM     33  H   LIG d   1       6.227  -2.871  -2.862  0.00  0.00     0.055 H 
BRANCH  32  34
ATOM     34  C   LIG d   1       7.489  -1.611  -4.072  0.00  0.00    -0.042 C 
ATOM     35  H   LIG d   1       8.096  -2.413  -4.490  0.00  0.00     0.025 H 
ATOM     36  H   LIG d   1       7.367  -0.824  -4.816  0.00  0.00     0.025 H 
ATOM     37  H   LIG d   1       7.981  -1.204  -3.189  0.00  0.00     0.025 H 
ENDBRANCH  32  34
BRANCH  32  38
ATOM     38  C   LIG d   1       5.226  -1.026  -3.244  0.00  0.00    -0.027 A 
ATOM     39  C   LIG d   1       3.869  -1.231  -3.088  0.00  0.00    -0.057 A 
ATOM     40  C   LIG d   1       3.054  -0.190  -2.685  0.00  0.00    -0.061 A 
ATOM     41  H   LIG d   1       3.445  -2.206  -3.279  0.00  0.00     0.062 H 
ATOM     42  C   LIG d   1       3.597   1.058  -2.440  0.00  0.00    -0.062 A 
ATOM     43  H   LIG d   1       1.992  -0.350  -2.563  0.00  0.00     0.062 H 
ATOM     44  C   LIG d   1       4.954   1.264  -2.597  0.00  0.00    -0.061 A 
ATOM     45  H   LIG d   1       2.959   1.872  -2.127  0.00  0.00     0.062 H 
ATOM     46  C   LIG d   1       5.770   0.221  -2.993  0.00  0.00    -0.057 A 
ATOM     47  H   LIG d   1       5.378   2.239  -2.406  0.00  0.00     0.062 H 
ATOM     48  H   LIG d   1       6.831   0.380  -3.112  0.00  0.00     0.062 H 
ENDBRANCH  32  38
ENDBRANCH   1  32
TORSDOF 3
ENDMDL
MODEL 5
REMARK VINA RESULT:      -6.6      1.605      3.023
REMARK  3 active torsions:
REMARK  status: ('A' for Active; 'I' for Inactive)
REMARK    1  A    between atoms: C_1  and  C_2 
REMARK    2  A    between atoms: C_2  and  C_4 
REMARK    3  A    between atoms: C_2  and  N_10 
ROOT
ATOM      1  N   LIG d   1       3.977  -2.037 -10.666  0.00  0.00    -0.284 N 
ATOM      2  C   LIG d   1       2.586  -1.621 -10.686  0.00  0.00     0.092 A 
ATOM      3  C   LIG d   1       2.263  -0.690  -9.562  0.00  0.00     0.234 A 
ATOM      4  O   LIG d   1       1.132  -0.258  -9.493  0.00  0.00    -0.274 OA
ATOM      5  N   LIG d   1       3.135  -0.303  -8.630  0.00  0.00    -0.283 N 
ATOM      6  C   LIG d   1       2.709   0.687  -7.618  0.00  0.00     0.056 C 
ATOM      7  C   LIG d   1       3.185   0.190  -6.271  0.00  0.00     0.038 A 
ATOM      8  C   LIG d   1       4.058  -0.829  -6.118  0.00  0.00    -0.015 A 
ATOM      9  C   LIG d   1       4.263  -1.000  -4.693  0.00  0.00     0.003 A 
ATOM     10  C   LIG d   1       5.049  -1.885  -3.949  0.00  0.00    -0.052 A 
ATOM     11  C   LIG d   1       4.998  -1.762  -2.583  0.00  0.00    -0.061 A 
ATOM     12  C   LIG d   1       4.209  -0.809  -1.959  0.00  0.00    -0.060 A 
ATOM     13  C   LIG d   1       3.422   0.079  -2.671  0.00  0.00    -0.038 A 
ATOM     14  C   LIG d   1       3.454  -0.022  -4.060  0.00  0.00     0.047 A 
ATOM     15  N   LIG d   1       2.814   0.674  -5.045  0.00  0.00    -0.356 N 
ATOM     16  H   LIG d   1       2.192   1.404  -4.898  0.00  0.00     0.166 HD
ATOM     17  C   LIG d   1       4.670  -1.611  -7.251  0.00  0.00     0.002 C 
ATOM     18  C   LIG d   1       4.502  -0.814  -8.552  0.00  0.00     0.107 A 
ATOM     19  H   LIG d   1       5.192   0.029  -8.527  0.00  0.00     0.060 H 
ATOM     20  C   LIG d   1       4.845  -1.681  -9.721  0.00  0.00     0.237 A 
ATOM     21  O   LIG d   1       5.984  -2.087  -9.813  0.00  0.00    -0.274 OA
ATOM     22  H   LIG d   1       1.950  -2.504 -10.609  0.00  0.00     0.056 H 
ATOM     23  H   LIG d   1       2.378  -1.119 -11.631  0.00  0.00     0.056 H 
ATOM     24  H   LIG d   1       1.624   0.774  -7.618  0.00  0.00     0.053 H 
ATOM     25  H   LIG d   1       3.160   1.655  -7.835  0.00  0.00     0.053 H 
ATOM     26  H   LIG d   1       5.667  -2.632  -4.427  0.00  0.00     0.062 H 
ATOM     27  H   LIG d   1       5.591  -2.429  -1.975  0.00  0.00     0.062 H 
ATOM     28  H   LIG d   1       4.208  -0.758  -0.880  0.00  0.00     0.062 H 
ATOM     29  H   LIG d   1       2.811   0.818  -2.173  0.00  0.00     0.064 H 
ATOM     30  H   LIG d   1       4.169  -2.573  -7.345  0.00  0.00     0.034 H 
ATOM     31  H   LIG d   1       5.732  -1.768  -7.054  0.00  0.00     0.034 H 
ENDROOT
BRANCH   1  32
ATOM     32  C   LIG d   1       4.455  -2.899 -11.751  0.00  0.00     0.049 C 
ATOM     33  H   LIG d   1       5.531  -3.041 -11.655  0.00  0.00     0.055 H 
BRANCH  32  34
ATOM     34  C   LIG d   1       3.751  -4.255 -11.673  0.00  0.00    -0.042 C 
ATOM     35  H   LIG d   1       4.468  -5.048 -11.883  0.00  0.00     0.025 H 
ATOM     36  H   LIG d   1       3.340  -4.393 -10.673  0.00  0.00     0.025 H 
ATOM     37  H   LIG d   1       2.946  -4.289 -12.406  0.00  0.00     0.025 H 
ENDBRANCH  32  34
BRANCH  32  38
ATOM     38  C   LIG d   1       4.151  -2.251 -13.078  0.00  0.00    -0.027 A 
ATOM     39  C   LIG d   1       3.236  -2.831 -13.937  0.00  0.00    -0.057 A 
ATOM     40  C   LIG d   1       2.957  -2.236 -15.153  0.00  0.00    -0.061 A 
ATOM     41  H   LIG d   1       2.737  -3.747 -13.657  0.00  0.00     0.062 H 
ATOM     42  C   LIG d   1       3.595  -1.063 -15.511  0.00  0.00    -0.062 A 
ATOM     43  H   LIG d   1       2.242  -2.688 -15.824  0.00  0.00     0.062 H 
ATOM     44  C   LIG d   1       4.511  -0.484 -14.653  0.00  0.00    -0.061 A 
ATOM     45  H   LIG d   1       3.378  -0.599 -16.463  0.00  0.00     0.062 H 
ATOM     46  C   LIG d   1       4.785  -1.075 -13.434  0.00  0.00    -0.057 A 
ATOM     47  H   LIG d   1       5.010   0.432 -14.933  0.00  0.00     0.062 H 
ATOM     48  H   LIG d   1       5.497  -0.621 -12.761  0.00  0.00     0.062 H 
ENDBRANCH  32  38
ENDBRANCH   1  32
TORSDOF 3
ENDMDL
MODEL 6
REMARK VINA RESULT:      -6.6      3.435      8.534
REMARK  3 active torsions:
REMARK  status: ('A' for Active; 'I' for Inactive)
REMARK    1  A    between atoms: C_1  and  C_2 
REMARK    2  A    between atoms: C_2  and  C_4 
REMARK    3  A    between atoms: C_2  and  N_10 
ROOT
ATOM      1  N   LIG d   1       5.682  -2.671  -5.368  0.00  0.00    -0.284 N 
ATOM      2  C   LIG d   1       6.017  -1.790  -6.474  0.00  0.00     0.092 A 
ATOM      3  C   LIG d   1       5.162  -2.046  -7.673  0.00  0.00     0.234 A 
ATOM      4  O   LIG d   1       5.338  -1.351  -8.651  0.00  0.00    -0.274 OA
ATOM      5  N   LIG d   1       4.220  -2.988  -7.740  0.00  0.00    -0.283 N 
ATOM      6  C   LIG d   1       3.388  -3.084  -8.958  0.00  0.00     0.056 C 
ATOM      7  C   LIG d   1       3.307  -4.546  -9.337  0.00  0.00     0.038 A 
ATOM      8  C   LIG d   1       3.712  -5.549  -8.529  0.00  0.00    -0.015 A 
ATOM      9  C   LIG d   1       3.472  -6.789  -9.241  0.00  0.00     0.003 A 
ATOM     10  C   LIG d   1       3.688  -8.129  -8.907  0.00  0.00    -0.052 A 
ATOM     11  C   LIG d   1       3.337  -9.066  -9.847  0.00  0.00    -0.061 A 
ATOM     12  C   LIG d   1       2.792  -8.713 -11.071  0.00  0.00    -0.060 A 
ATOM     13  C   LIG d   1       2.567  -7.394 -11.426  0.00  0.00    -0.038 A 
ATOM     14  C   LIG d   1       2.915  -6.421 -10.492  0.00  0.00     0.047 A 
ATOM     15  N   LIG d   1       2.835  -5.058 -10.516  0.00  0.00    -0.356 N 
ATOM     16  H   LIG d   1       2.492  -4.532 -11.256  0.00  0.00     0.166 HD
ATOM     17  C   LIG d   1       4.299  -5.359  -7.154  0.00  0.00     0.002 C 
ATOM     18  C   LIG d   1       3.966  -3.943  -6.663  0.00  0.00     0.107 A 
ATOM     19  H   LIG d   1       2.906  -3.912  -6.408  0.00  0.00     0.060 H 
ATOM     20  C   LIG d   1       4.765  -3.634  -5.438  0.00  0.00     0.237 A 
ATOM     21  O   LIG d   1       4.568  -4.304  -4.447  0.00  0.00    -0.274 OA
ATOM     22  H   LIG d   1       7.062  -1.942  -6.744  0.00  0.00     0.056 H 
ATOM     23  H   LIG d   1       5.881  -0.756  -6.157  0.00  0.00     0.056 H 
ATOM     24  H   LIG d   1       3.848  -2.517  -9.767  0.00  0.00     0.053 H 
ATOM     25  H   LIG d   1       2.389  -2.698  -8.756  0.00  0.00     0.053 H 
ATOM     26  H   LIG d   1       4.112  -8.414  -7.955  0.00  0.00     0.062 H 
ATOM     27  H   LIG d   1       3.490 -10.112  -9.625  0.00  0.00     0.062 H 
ATOM     28  H   LIG d   1       2.534  -9.493 -11.771  0.00  0.00     0.062 H 
ATOM     29  H   LIG d   1       2.142  -7.131 -12.383  0.00  0.00     0.064 H 
ATOM     30  H   LIG d   1       5.381  -5.484  -7.198  0.00  0.00     0.034 H 
ATOM     31  H   LIG d   1       3.872  -6.093  -6.470  0.00  0.00     0.034 H 
ENDROOT
BRANCH   1  32
ATOM     32  C   LIG d   1       6.394  -2.487  -4.101  0.00  0.00     0.049 C 
ATOM     33  H   LIG d   1       6.291  -3.387  -3.493  0.00  0.00     0.055 H 
BRANCH  32  34
ATOM     34  C   LIG d   1       7.875  -2.225  -4.380  0.00  0.00    -0.042 C 
ATOM     35  H   LIG d   1       8.252  -1.487  -3.674  0.00  0.00     0.025 H 
ATOM     36  H   LIG d   1       8.435  -3.154  -4.268  0.00  0.00     0.025 H 
ATOM     37  H   LIG d   1       7.992  -1.851  -5.397  0.00  0.00     0.025 H 
ENDBRANCH  32  34
BRANCH  32  38
ATOM     38  C   LIG d   1       5.807  -1.313  -3.360  0.00  0.00    -0.027 A 
ATOM     39  C   LIG d   1       6.307  -0.042  -3.572  0.00  0.00    -0.057 A 
ATOM     40  C   LIG d   1       5.768   1.035  -2.894  0.00  0.00    -0.061 A 
ATOM     41  H   LIG d   1       7.117   0.110  -4.271  0.00  0.00     0.062 H 
ATOM     42  C   LIG d   1       4.731   0.840  -2.000  0.00  0.00    -0.062 A 
ATOM     43  H   LIG d   1       6.158   2.028  -3.060  0.00  0.00     0.062 H 
ATOM     44  C   LIG d   1       4.232  -0.431  -1.787  0.00  0.00    -0.061 A 
ATOM     45  H   LIG d   1       4.311   1.682  -1.469  0.00  0.00     0.062 H 
ATOM     46  C   LIG d   1       4.766  -1.507  -2.471  0.00  0.00    -0.057 A 
ATOM     47  H   LIG d   1       3.422  -0.583  -1.089  0.00  0.00     0.062 H 
ATOM     48  H   LIG d   1       4.374  -2.500  -2.308  0.00  0.00     0.062 H 
ENDBRANCH  32  38
ENDBRANCH   1  32
TORSDOF 3
ENDMDL
MODEL 7
REMARK VINA RESULT:      -6.5      6.862      9.891
REMARK  3 active torsions:
REMARK  status: ('A' for Active; 'I' for Inactive)
REMARK    1  A    between atoms: C_1  and  C_2 
REMARK    2  A    between atoms: C_2  and  C_4 
REMARK    3  A    between atoms: C_2  and  N_10 
ROOT
ATOM      1  N   LIG d   1      10.960   3.622  -4.608  0.00  0.00    -0.284 N 
ATOM      2  C   LIG d   1      11.825   2.466  -4.444  0.00  0.00     0.092 A 
ATOM      3  C   LIG d   1      11.087   1.182  -4.645  0.00  0.00     0.234 A 
ATOM      4  O   LIG d   1      11.716   0.149  -4.556  0.00  0.00    -0.274 OA
ATOM      5  N   LIG d   1       9.784   1.095  -4.915  0.00  0.00    -0.283 N 
ATOM      6  C   LIG d   1       9.192  -0.235  -5.172  0.00  0.00     0.056 C 
ATOM      7  C   LIG d   1       7.901  -0.315  -4.388  0.00  0.00     0.038 A 
ATOM      8  C   LIG d   1       7.318   0.752  -3.801  0.00  0.00    -0.015 A 
ATOM      9  C   LIG d   1       6.111   0.273  -3.158  0.00  0.00     0.003 A 
ATOM     10  C   LIG d   1       5.118   0.914  -2.411  0.00  0.00    -0.052 A 
ATOM     11  C   LIG d   1       4.093   0.131  -1.940  0.00  0.00    -0.061 A 
ATOM     12  C   LIG d   1       4.033  -1.231  -2.188  0.00  0.00    -0.060 A 
ATOM     13  C   LIG d   1       5.002  -1.890  -2.925  0.00  0.00    -0.038 A 
ATOM     14  C   LIG d   1       6.055  -1.120  -3.415  0.00  0.00     0.047 A 
ATOM     15  N   LIG d   1       7.156  -1.440  -4.156  0.00  0.00    -0.356 N 
ATOM     16  H   LIG d   1       7.375  -2.331  -4.474  0.00  0.00     0.166 HD
ATOM     17  C   LIG d   1       7.865   2.156  -3.837  0.00  0.00     0.002 C 
ATOM     18  C   LIG d   1       8.899   2.258  -4.967  0.00  0.00     0.107 A 
ATOM     19  H   LIG d   1       8.366   2.251  -5.918  0.00  0.00     0.060 H 
ATOM     20  C   LIG d   1       9.652   3.543  -4.846  0.00  0.00     0.237 A 
ATOM     21  O   LIG d   1       9.033   4.578  -4.969  0.00  0.00    -0.274 OA
ATOM     22  H   LIG d   1      12.247   2.479  -3.440  0.00  0.00     0.056 H 
ATOM     23  H   LIG d   1      12.637   2.525  -5.170  0.00  0.00     0.056 H 
ATOM     24  H   LIG d   1       9.876  -1.015  -4.839  0.00  0.00     0.053 H 
ATOM     25  H   LIG d   1       8.987  -0.350  -6.236  0.00  0.00     0.053 H 
ATOM     26  H   LIG d   1       5.156   1.976  -2.212  0.00  0.00     0.062 H 
ATOM     27  H   LIG d   1       3.308   0.591  -1.358  0.00  0.00     0.062 H 
ATOM     28  H   LIG d   1       3.203  -1.796  -1.793  0.00  0.00     0.062 H 
ATOM     29  H   LIG d   1       4.945  -2.952  -3.111  0.00  0.00     0.064 H 
ATOM     30  H   LIG d   1       8.340   2.387  -2.885  0.00  0.00     0.034 H 
ATOM     31  H   LIG d   1       7.052   2.859  -4.022  0.00  0.00     0.034 H 
ENDROOT
BRANCH   1  32
ATOM     32  C   LIG d   1      11.563   4.954  -4.507  0.00  0.00     0.049 C 
ATOM     33  H   LIG d   1      12.646   4.857  -4.431  0.00  0.00     0.055 H 
BRANCH  32  34
ATOM     34  C   LIG d   1      11.209   5.770  -5.751  0.00  0.00    -0.042 C 
ATOM     35  H   LIG d   1      10.234   6.238  -5.614  0.00  0.00     0.025 H 
ATOM     36  H   LIG d   1      11.962   6.543  -5.906  0.00  0.00     0.025 H 
ATOM     37  H   LIG d   1      11.178   5.114  -6.620  0.00  0.00     0.025 H 
ENDBRANCH  32  34
BRANCH  32  38
ATOM     38  C   LIG d   1      11.035   5.653  -3.281  0.00  0.00    -0.027 A 
ATOM     39  C   LIG d   1      11.114   5.038  -2.046  0.00  0.00    -0.057 A 
ATOM     40  C   LIG d   1      10.631   5.681  -0.921  0.00  0.00    -0.061 A 
ATOM     41  H   LIG d   1      11.555   4.056  -1.959  0.00  0.00     0.062 H 
ATOM     42  C   LIG d   1      10.067   6.938  -1.032  0.00  0.00    -0.062 A 
ATOM     43  H   LIG d   1      10.693   5.200   0.044  0.00  0.00     0.062 H 
ATOM     44  C   LIG d   1       9.987   7.553  -2.268  0.00  0.00    -0.061 A 
ATOM     45  H   LIG d   1       9.688   7.439  -0.153  0.00  0.00     0.062 H 
ATOM     46  C   LIG d   1      10.476   6.914  -3.391  0.00  0.00    -0.057 A 
ATOM     47  H   LIG d   1       9.545   8.535  -2.354  0.00  0.00     0.062 H 
ATOM     48  H   LIG d   1      10.418   7.395  -4.356  0.00  0.00     0.062 H 
ENDBRANCH  32  38
ENDBRANCH   1  32
TORSDOF 3
ENDMDL
MODEL 8
REMARK VINA RESULT:      -6.4      4.204      7.670
REMARK  3 active torsions:
REMARK  status: ('A' for Active; 'I' for Inactive)
REMARK    1  A    between atoms: C_1  and  C_2 
REMARK    2  A    between atoms: C_2  and  C_4 
REMARK    3  A    between atoms: C_2  and  N_10 
ROOT
ATOM      1  N   LIG d   1       5.875  -6.210  -6.243  0.00  0.00    -0.284 N 
ATOM      2  C   LIG d   1       6.905  -5.482  -5.521  0.00  0.00     0.092 A 
ATOM      3  C   LIG d   1       6.475  -4.093  -5.178  0.00  0.00     0.234 A 
ATOM      4  O   LIG d   1       7.248  -3.399  -4.552  0.00  0.00    -0.274 OA
ATOM      5  N   LIG d   1       5.297  -3.564  -5.514  0.00  0.00    -0.283 N 
ATOM      6  C   LIG d   1       4.961  -2.204  -5.041  0.00  0.00     0.056 C 
ATOM      7  C   LIG d   1       4.380  -1.448  -6.215  0.00  0.00     0.038 A 
ATOM      8  C   LIG d   1       4.013  -2.037  -7.374  0.00  0.00    -0.015 A 
ATOM      9  C   LIG d   1       3.506  -0.991  -8.238  0.00  0.00     0.003 A 
ATOM     10  C   LIG d   1       2.991  -1.003  -9.538  0.00  0.00    -0.052 A 
ATOM     11  C   LIG d   1       2.597   0.204 -10.060  0.00  0.00    -0.061 A 
ATOM     12  C   LIG d   1       2.700   1.386  -9.343  0.00  0.00    -0.060 A 
ATOM     13  C   LIG d   1       3.205   1.426  -8.056  0.00  0.00    -0.038 A 
ATOM     14  C   LIG d   1       3.613   0.215  -7.500  0.00  0.00     0.047 A 
ATOM     15  N   LIG d   1       4.150  -0.100  -6.284  0.00  0.00    -0.356 N 
ATOM     16  H   LIG d   1       4.338   0.536  -5.575  0.00  0.00     0.166 HD
ATOM     17  C   LIG d   1       4.134  -3.511  -7.662  0.00  0.00     0.002 C 
ATOM     18  C   LIG d   1       4.311  -4.264  -6.336  0.00  0.00     0.107 A 
ATOM     19  H   LIG d   1       3.354  -4.264  -5.814  0.00  0.00     0.060 H 
ATOM     20  C   LIG d   1       4.711  -5.678  -6.609  0.00  0.00     0.237 A 
ATOM     21  O   LIG d   1       3.925  -6.386  -7.204  0.00  0.00    -0.274 OA
ATOM     22  H   LIG d   1       7.802  -5.433  -6.139  0.00  0.00     0.056 H 
ATOM     23  H   LIG d   1       7.140  -6.017  -4.601  0.00  0.00     0.056 H 
ATOM     24  H   LIG d   1       5.861  -1.702  -4.687  0.00  0.00     0.053 H 
ATOM     25  H   LIG d   1       4.227  -2.261  -4.238  0.00  0.00     0.053 H 
ATOM     26  H   LIG d   1       2.906  -1.919 -10.105  0.00  0.00     0.062 H 
ATOM     27  H   LIG d   1       2.195   0.234 -11.063  0.00  0.00     0.062 H 
ATOM     28  H   LIG d   1       2.375   2.306  -9.805  0.00  0.00     0.062 H 
ATOM     29  H   LIG d   1       3.281   2.353  -7.507  0.00  0.00     0.064 H 
ATOM     30  H   LIG d   1       4.998  -3.689  -8.301  0.00  0.00     0.034 H 
ATOM     31  H   LIG d   1       3.229  -3.861  -8.162  0.00  0.00     0.034 H 
ENDROOT
BRANCH   1  32
ATOM     32  C   LIG d   1       6.132  -7.611  -6.586  0.00  0.00     0.049 C 
ATOM     33  H   LIG d   1       5.423  -7.934  -7.347  0.00  0.00     0.055 H 
BRANCH  32  34
ATOM     34  C   LIG d   1       7.558  -7.751  -7.122  0.00  0.00    -0.042 C 
ATOM     35  H   LIG d   1       7.566  -8.461  -7.949  0.00  0.00     0.025 H 
ATOM     36  H   LIG d   1       7.911  -6.781  -7.474  0.00  0.00     0.025 H 
ATOM     37  H   LIG d   1       8.212  -8.110  -6.328  0.00  0.00     0.025 H 
ENDBRANCH  32  34
BRANCH  32  38
ATOM     38  C   LIG d   1       5.972  -8.467  -5.356  0.00  0.00    -0.027 A 
ATOM     39  C   LIG d   1       4.727  -8.959  -5.013  0.00  0.00    -0.057 A 
ATOM     40  C   LIG d   1       4.581  -9.745  -3.885  0.00  0.00    -0.061 A 
ATOM     41  H   LIG d   1       3.868  -8.730  -5.627  0.00  0.00     0.062 H 
ATOM     42  C   LIG d   1       5.680 -10.038  -3.100  0.00  0.00    -0.062 A 
ATOM     43  H   LIG d   1       3.608 -10.129  -3.617  0.00  0.00     0.062 H 
ATOM     44  C   LIG d   1       6.925  -9.546  -3.442  0.00  0.00    -0.061 A 
ATOM     45  H   LIG d   1       5.565 -10.652  -2.218  0.00  0.00     0.062 H 
ATOM     46  C   LIG d   1       7.073  -8.765  -4.573  0.00  0.00    -0.057 A 
ATOM     47  H   LIG d   1       7.784  -9.775  -2.828  0.00  0.00     0.062 H 
ATOM     48  H   LIG d   1       8.046  -8.384  -4.844  0.00  0.00     0.062 H 
ENDBRANCH  32  38
ENDBRANCH   1  32
TORSDOF 3
ENDMDL
MODEL 9
REMARK VINA RESULT:      -6.4      7.250      9.599
REMARK  3 active torsions:
REMARK  status: ('A' for Active; 'I' for Inactive)
REMARK    1  A    between atoms: C_1  and  C_2 
REMARK    2  A    between atoms: C_2  and  C_4 
REMARK    3  A    between atoms: C_2  and  N_10 
ROOT
ATOM      1  N   LIG d   1      11.073   3.497  -4.603  0.00  0.00    -0.284 N 
ATOM      2  C   LIG d   1      11.896   2.304  -4.500  0.00  0.00     0.092 A 
ATOM      3  C   LIG d   1      11.106   1.056  -4.727  0.00  0.00     0.234 A 
ATOM      4  O   LIG d   1      11.697  -0.002  -4.688  0.00  0.00    -0.274 OA
ATOM      5  N   LIG d   1       9.794   1.028  -4.969  0.00  0.00    -0.283 N 
ATOM      6  C   LIG d   1       9.146  -0.270  -5.257  0.00  0.00     0.056 C 
ATOM      7  C   LIG d   1       7.871  -0.329  -4.446  0.00  0.00     0.038 A 
ATOM      8  C   LIG d   1       7.343   0.738  -3.809  0.00  0.00    -0.015 A 
ATOM      9  C   LIG d   1       6.133   0.283  -3.154  0.00  0.00     0.003 A 
ATOM     10  C   LIG d   1       5.182   0.934  -2.362  0.00  0.00    -0.052 A 
ATOM     11  C   LIG d   1       4.139   0.173  -1.895  0.00  0.00    -0.061 A 
ATOM     12  C   LIG d   1       4.022  -1.176  -2.188  0.00  0.00    -0.060 A 
ATOM     13  C   LIG d   1       4.947  -1.844  -2.969  0.00  0.00    -0.038 A 
ATOM     14  C   LIG d   1       6.018  -1.098  -3.457  0.00  0.00     0.047 A 
ATOM     15  N   LIG d   1       7.089  -1.433  -4.235  0.00  0.00    -0.356 N 
ATOM     16  H   LIG d   1       7.267  -2.319  -4.589  0.00  0.00     0.166 HD
ATOM     17  C   LIG d   1       7.942   2.121  -3.810  0.00  0.00     0.002 C 
ATOM     18  C   LIG d   1       8.953   2.224  -4.960  0.00  0.00     0.107 A 
ATOM     19  H   LIG d   1       8.399   2.271  -5.897  0.00  0.00     0.060 H 
ATOM     20  C   LIG d   1       9.758   3.475  -4.812  0.00  0.00     0.237 A 
ATOM     21  O   LIG d   1       9.176   4.536  -4.886  0.00  0.00    -0.274 OA
ATOM     22  H   LIG d   1      12.341   2.266  -3.506  0.00  0.00     0.056 H 
ATOM     23  H   LIG d   1      12.693   2.358  -5.242  0.00  0.00     0.056 H 
ATOM     24  H   LIG d   1       9.807  -1.086  -4.968  0.00  0.00     0.053 H 
ATOM     25  H   LIG d   1       8.913  -0.339  -6.319  0.00  0.00     0.053 H 
ATOM     26  H   LIG d   1       5.265   1.985  -2.128  0.00  0.00     0.062 H 
ATOM     27  H   LIG d   1       3.385   0.642  -1.278  0.00  0.00     0.062 H 
ATOM     28  H   LIG d   1       3.179  -1.723  -1.792  0.00  0.00     0.062 H 
ATOM     29  H   LIG d   1       4.846  -2.896  -3.190  0.00  0.00     0.064 H 
ATOM     30  H   LIG d   1       8.447   2.301  -2.862  0.00  0.00     0.034 H 
ATOM     31  H   LIG d   1       7.152   2.860  -3.951  0.00  0.00     0.034 H 
ENDROOT
BRANCH   1  32
ATOM     32  C   LIG d   1      11.728   4.801  -4.471  0.00  0.00     0.049 C 
ATOM     33  H   LIG d   1      10.974   5.588  -4.473  0.00  0.00     0.055 H 
BRANCH  32  34
ATOM     34  C   LIG d   1      12.513   4.847  -3.159  0.00  0.00    -0.042 C 
ATOM     35  H   LIG d   1      11.840   4.647  -2.326  0.00  0.00     0.025 H 
ATOM     36  H   LIG d   1      13.298   4.090  -3.179  0.00  0.00     0.025 H 
ATOM     37  H   LIG d   1      12.961   5.833  -3.038  0.00  0.00     0.025 H 
ENDBRANCH  32  34
BRANCH  32  38
ATOM     38  C   LIG d   1      12.672   5.009  -5.628  0.00  0.00    -0.027 A 
ATOM     39  C   LIG d   1      14.034   5.079  -5.405  0.00  0.00    -0.057 A 
ATOM     40  C   LIG d   1      14.899   5.268  -6.467  0.00  0.00    -0.061 A 
ATOM     41  H   LIG d   1      14.423   4.983  -4.402  0.00  0.00     0.062 H 
ATOM     42  C   LIG d   1      14.401   5.390  -7.751  0.00  0.00    -0.062 A 
ATOM     43  H   LIG d   1      15.964   5.323  -6.293  0.00  0.00     0.062 H 
ATOM     44  C   LIG d   1      13.039   5.321  -7.974  0.00  0.00    -0.061 A 
ATOM     45  H   LIG d   1      15.077   5.539  -8.580  0.00  0.00     0.062 H 
ATOM     46  C   LIG d   1      12.174   5.125  -6.913  0.00  0.00    -0.057 A 
ATOM     47  H   LIG d   1      12.650   5.417  -8.977  0.00  0.00     0.062 H 
ATOM     48  H   LIG d   1      11.110   5.066  -7.087  0.00  0.00     0.062 H 
ENDBRANCH  32  38
ENDBRANCH   1  32
TORSDOF 3
ENDMDL
MODEL 10
REMARK VINA RESULT:      -6.2      5.027      8.189
REMARK  3 active torsions:
REMARK  status: ('A' for Active; 'I' for Inactive)
REMARK    1  A    between atoms: C_1  and  C_2 
REMARK    2  A    between atoms: C_2  and  C_4 
REMARK    3  A    between atoms: C_2  and  N_10 
ROOT
ATOM      1  N   LIG d   1       8.813  -5.353  -4.431  0.00  0.00    -0.284 N 
ATOM      2  C   LIG d   1       7.728  -6.103  -5.040  0.00  0.00     0.092 A 
ATOM      3  C   LIG d   1       6.670  -5.206  -5.599  0.00  0.00     0.234 A 
ATOM      4  O   LIG d   1       5.725  -5.723  -6.155  0.00  0.00    -0.274 OA
ATOM      5  N   LIG d   1       6.697  -3.874  -5.527  0.00  0.00    -0.283 N 
ATOM      6  C   LIG d   1       5.628  -3.099  -6.192  0.00  0.00     0.056 C 
ATOM      7  C   LIG d   1       5.172  -2.032  -5.222  0.00  0.00     0.038 A 
ATOM      8  C   LIG d   1       5.834  -1.725  -4.086  0.00  0.00    -0.015 A 
ATOM      9  C   LIG d   1       5.091  -0.663  -3.437  0.00  0.00     0.003 A 
ATOM     10  C   LIG d   1       5.295   0.047  -2.250  0.00  0.00    -0.052 A 
ATOM     11  C   LIG d   1       4.365   1.007  -1.935  0.00  0.00    -0.061 A 
ATOM     12  C   LIG d   1       3.274   1.270  -2.746  0.00  0.00    -0.060 A 
ATOM     13  C   LIG d   1       3.049   0.583  -3.926  0.00  0.00    -0.038 A 
ATOM     14  C   LIG d   1       3.975  -0.398  -4.272  0.00  0.00     0.047 A 
ATOM     15  N   LIG d   1       4.055  -1.249  -5.337  0.00  0.00    -0.356 N 
ATOM     16  H   LIG d   1       3.418  -1.288  -6.068  0.00  0.00     0.166 HD
ATOM     17  C   LIG d   1       7.103  -2.394  -3.625  0.00  0.00     0.002 C 
ATOM     18  C   LIG d   1       7.736  -3.132  -4.814  0.00  0.00     0.107 A 
ATOM     19  H   LIG d   1       8.162  -2.389  -5.488  0.00  0.00     0.060 H 
ATOM     20  C   LIG d   1       8.830  -4.026  -4.327  0.00  0.00     0.237 A 
ATOM     21  O   LIG d   1       9.794  -3.510  -3.802  0.00  0.00    -0.274 OA
ATOM     22  H   LIG d   1       7.280  -6.753  -4.289  0.00  0.00     0.056 H 
ATOM     23  H   LIG d   1       8.130  -6.719  -5.845  0.00  0.00     0.056 H 
ATOM     24  H   LIG d   1       4.795  -3.755  -6.440  0.00  0.00     0.053 H 
ATOM     25  H   LIG d   1       6.017  -2.633  -7.097  0.00  0.00     0.053 H 
ATOM     26  H   LIG d   1       6.143  -0.151  -1.611  0.00  0.00     0.062 H 
ATOM     27  H   LIG d   1       4.489   1.575  -1.024  0.00  0.00     0.062 H 
ATOM     28  H   LIG d   1       2.575   2.037  -2.447  0.00  0.00     0.062 H 
ATOM     29  H   LIG d   1       2.193   0.796  -4.550  0.00  0.00     0.064 H 
ATOM     30  H   LIG d   1       6.874  -3.106  -2.834  0.00  0.00     0.034 H 
ATOM     31  H   LIG d   1       7.798  -1.641  -3.252  0.00  0.00     0.034 H 
ENDROOT
BRANCH   1  32
ATOM     32  C   LIG d   1       9.955  -6.102  -3.901  0.00  0.00     0.049 C 
ATOM     33  H   LIG d   1      10.652  -5.412  -3.424  0.00  0.00     0.055 H 
BRANCH  32  34
ATOM     34  C   LIG d   1       9.464  -7.124  -2.874  0.00  0.00    -0.042 C 
ATOM     35  H   LIG d   1      10.035  -8.046  -2.979  0.00  0.00     0.025 H 
ATOM     36  H   LIG d   1       9.603  -6.724  -1.869  0.00  0.00     0.025 H 
ATOM     37  H   LIG d   1       8.407  -7.328  -3.042  0.00  0.00     0.025 H 
ENDBRANCH  32  34
BRANCH  32  38
ATOM     38  C   LIG d   1      10.653  -6.818  -5.028  0.00  0.00    -0.027 A 
ATOM     39  C   LIG d   1      11.285  -6.094  -6.022  0.00  0.00    -0.057 A 
ATOM     40  C   LIG d   1      11.926  -6.752  -7.055  0.00  0.00    -0.061 A 
ATOM     41  H   LIG d   1      11.279  -5.015  -5.990  0.00  0.00     0.062 H 
ATOM     42  C   LIG d   1      11.934  -8.134  -7.095  0.00  0.00    -0.062 A 
ATOM     43  H   LIG d   1      12.420  -6.187  -7.832  0.00  0.00     0.062 H 
ATOM     44  C   LIG d   1      11.301  -8.858  -6.103  0.00  0.00    -0.061 A 
ATOM     45  H   LIG d   1      12.434  -8.648  -7.904  0.00  0.00     0.062 H 
ATOM     46  C   LIG d   1      10.666  -8.201  -5.066  0.00  0.00    -0.057 A 
ATOM     47  H   LIG d   1      11.307  -9.938  -6.134  0.00  0.00     0.062 H 
ATOM     48  H   LIG d   1      10.176  -8.765  -4.287  0.00  0.00     0.062 H 
ENDBRANCH  32  38
ENDBRANCH   1  32
TORSDOF 3
ENDMDL
