MODEL 1
REMARK VINA RESULT:      -5.8      0.000      0.000
REMARK  4 active torsions:
REMARK  status: ('A' for Active; 'I' for Inactive)
REMARK    1  A    between atoms: C_1  and  C_2 
REMARK    2  A    between atoms: C_4  and  C_7 
REMARK       I    between atoms: C_7  and  N_9 
REMARK    3  A    between atoms: N_9  and  C_10 
REMARK    4  A    between atoms: C_10  and  C_11 
ROOT
ATOM      1  C   LIG d   1       7.411   1.298  -4.060  0.00  0.00     0.266 C 
ATOM      2  O   LIG d   1       7.271   1.566  -5.238  0.00  0.00    -0.268 OA
ATOM      3  N   LIG d   1       8.576   1.573  -3.441  0.00  0.00    -0.306 N 
ATOM      4  H   LIG d   1       8.687   1.359  -2.501  0.00  0.00     0.149 HD
ENDROOT
BRANCH   3   5
ATOM      5  C   LIG d   1       9.675   2.192  -4.185  0.00  0.00     0.037 C 
ATOM      6  H   LIG d   1       9.499   2.076  -5.255  0.00  0.00     0.051 H 
ATOM      7  H   LIG d   1      10.614   1.707  -3.917  0.00  0.00     0.051 H 
BRANCH   5   8
ATOM      8  C   LIG d   1       9.750   3.657  -3.845  0.00  0.00    -0.030 A 
ATOM      9  C   LIG d   1      10.231   4.056  -2.611  0.00  0.00    -0.056 A 
ATOM     10  C   LIG d   1      10.300   5.400  -2.298  0.00  0.00    -0.043 A 
ATOM     11  H   LIG d   1      10.551   3.317  -1.892  0.00  0.00     0.062 H 
ATOM     12  C   LIG d   1       9.889   6.347  -3.219  0.00  0.00     0.041 A 
ATOM     13  H   LIG d   1      10.676   5.712  -1.334  0.00  0.00     0.063 H 
ATOM     14  C   LIG d   1       9.409   5.948  -4.454  0.00  0.00    -0.043 A 
ATOM     15 CL   LIG d   1       9.977   8.036  -2.827  0.00  0.00    -0.084 Cl
ATOM     16  C   LIG d   1       9.340   4.603  -4.766  0.00  0.00    -0.056 A 
ATOM     17  H   LIG d   1       9.088   6.687  -5.174  0.00  0.00     0.063 H 
ATOM     18  H   LIG d   1       8.961   4.291  -5.727  0.00  0.00     0.062 H 
ENDBRANCH   5   8
ENDBRANCH   3   5
BRANCH   1  19
ATOM     19  C   LIG d   1       6.298   0.673  -3.306  0.00  0.00     0.168 A 
ATOM     20  C   LIG d   1       5.846  -0.673  -3.406  0.00  0.00     0.013 A 
ATOM     21  C   LIG d   1       4.824  -0.740  -2.522  0.00  0.00     0.135 A 
ATOM     22  H   LIG d   1       6.230  -1.458  -4.040  0.00  0.00     0.068 H 
ATOM     23  O   LIG d   1       4.713   0.476  -1.970  0.00  0.00    -0.359 OA
ATOM     24  N   LIG d   1       5.537   1.245  -2.407  0.00  0.00    -0.073 NA
BRANCH  21  25
ATOM     25  C   LIG d   1       3.975  -1.947  -2.219  0.00  0.00    -0.004 C 
ATOM     26  H   LIG d   1       3.322  -1.730  -1.373  0.00  0.00     0.031 H 
ATOM     27  H   LIG d   1       3.370  -2.194  -3.091  0.00  0.00     0.031 H 
ATOM     28  H   LIG d   1       4.619  -2.792  -1.973  0.00  0.00     0.031 H 
ENDBRANCH  21  25
ENDBRANCH   1  19
TORSDOF 4
ENDMDL
MODEL 2
REMARK VINA RESULT:      -5.7      6.965      8.654
REMARK  4 active torsions:
REMARK  status: ('A' for Active; 'I' for Inactive)
REMARK    1  A    between atoms: C_1  and  C_2 
REMARK    2  A    between atoms: C_4  and  C_7 
REMARK       I    between atoms: C_7  and  N_9 
REMARK    3  A    between atoms: N_9  and  C_10 
REMARK    4  A    between atoms: C_10  and  C_11 
ROOT
ATOM      1  C   LIG d   1       3.936   0.407  -6.687  0.00  0.00     0.266 C 
ATOM      2  O   LIG d   1       5.066   0.241  -7.105  0.00  0.00    -0.268 OA
ATOM      3  N   LIG d   1       3.042   1.099  -7.420  0.00  0.00    -0.306 N 
ATOM      4  H   LIG d   1       2.141   1.232  -7.087  0.00  0.00     0.149 HD
ENDROOT
BRANCH   3   5
ATOM      5  C   LIG d   1       3.430   1.652  -8.720  0.00  0.00     0.037 C 
ATOM      6  H   LIG d   1       4.510   1.797  -8.744  0.00  0.00     0.051 H 
ATOM      7  H   LIG d   1       2.932   2.611  -8.870  0.00  0.00     0.051 H 
BRANCH   5   8
ATOM      8  C   LIG d   1       3.025   0.699  -9.813  0.00  0.00    -0.030 A 
ATOM      9  C   LIG d   1       1.885  -0.069  -9.673  0.00  0.00    -0.056 A 
ATOM     10  C   LIG d   1       1.513  -0.944 -10.676  0.00  0.00    -0.043 A 
ATOM     11  H   LIG d   1       1.284   0.014  -8.780  0.00  0.00     0.062 H 
ATOM     12  C   LIG d   1       2.282  -1.051 -11.821  0.00  0.00     0.041 A 
ATOM     13  H   LIG d   1       0.621  -1.544 -10.567  0.00  0.00     0.063 H 
ATOM     14  C   LIG d   1       3.424  -0.282 -11.961  0.00  0.00    -0.043 A 
ATOM     15 CL   LIG d   1       1.816  -2.150 -13.082  0.00  0.00    -0.084 Cl
ATOM     16  C   LIG d   1       3.795   0.593 -10.958  0.00  0.00    -0.056 A 
ATOM     17  H   LIG d   1       4.026  -0.365 -12.855  0.00  0.00     0.063 H 
ATOM     18  H   LIG d   1       4.688   1.190 -11.064  0.00  0.00     0.062 H 
ENDBRANCH   5   8
ENDBRANCH   3   5
BRANCH   1  19
ATOM     19  C   LIG d   1       3.543  -0.154  -5.372  0.00  0.00     0.168 A 
ATOM     20  C   LIG d   1       4.273  -1.091  -4.588  0.00  0.00     0.013 A 
ATOM     21  C   LIG d   1       3.497  -1.274  -3.494  0.00  0.00     0.135 A 
ATOM     22  H   LIG d   1       5.225  -1.547  -4.813  0.00  0.00     0.068 H 
ATOM     23  O   LIG d   1       2.416  -0.499  -3.655  0.00  0.00    -0.359 OA
ATOM     24  N   LIG d   1       2.456   0.119  -4.693  0.00  0.00    -0.073 NA
BRANCH  21  25
ATOM     25  C   LIG d   1       3.793  -2.176  -2.324  0.00  0.00    -0.004 C 
ATOM     26  H   LIG d   1       4.840  -2.073  -2.041  0.00  0.00     0.031 H 
ATOM     27  H   LIG d   1       3.159  -1.897  -1.482  0.00  0.00     0.031 H 
ATOM     28  H   LIG d   1       3.591  -3.210  -2.602  0.00  0.00     0.031 H 
ENDBRANCH  21  25
ENDBRANCH   1  19
TORSDOF 4
ENDMDL
MODEL 3
REMARK VINA RESULT:      -5.6      5.733      7.886
REMARK  4 active torsions:
REMARK  status: ('A' for Active; 'I' for Inactive)
REMARK    1  A    between atoms: C_1  and  C_2 
REMARK    2  A    between atoms: C_4  and  C_7 
REMARK       I    between atoms: C_7  and  N_9 
REMARK    3  A    between atoms: N_9  and  C_10 
REMARK    4  A    between atoms: C_10  and  C_11 
ROOT
ATOM      1  C   LIG d   1       4.561  -3.240  -7.221  0.00  0.00     0.266 C 
ATOM      2  O   LIG d   1       5.745  -3.011  -7.378  0.00  0.00    -0.268 OA
ATOM      3  N   LIG d   1       4.106  -3.633  -6.015  0.00  0.00    -0.306 N 
ATOM      4  H   LIG d   1       3.162  -3.816  -5.889  0.00  0.00     0.149 HD
ENDROOT
BRANCH   3   5
ATOM      5  C   LIG d   1       5.036  -3.785  -4.893  0.00  0.00     0.037 C 
ATOM      6  H   LIG d   1       6.052  -3.887  -5.276  0.00  0.00     0.051 H 
ATOM      7  H   LIG d   1       4.772  -4.675  -4.321  0.00  0.00     0.051 H 
BRANCH   5   8
ATOM      8  C   LIG d   1       4.953  -2.573  -4.003  0.00  0.00    -0.030 A 
ATOM      9  C   LIG d   1       3.976  -2.496  -3.029  0.00  0.00    -0.056 A 
ATOM     10  C   LIG d   1       3.899  -1.384  -2.212  0.00  0.00    -0.043 A 
ATOM     11  H   LIG d   1       3.271  -3.305  -2.906  0.00  0.00     0.062 H 
ATOM     12  C   LIG d   1       4.801  -0.347  -2.369  0.00  0.00     0.041 A 
ATOM     13  H   LIG d   1       3.135  -1.325  -1.450  0.00  0.00     0.063 H 
ATOM     14  C   LIG d   1       5.780  -0.424  -3.344  0.00  0.00    -0.043 A 
ATOM     15 CL   LIG d   1       4.706   1.050  -1.342  0.00  0.00    -0.084 Cl
ATOM     16  C   LIG d   1       5.856  -1.537  -4.160  0.00  0.00    -0.056 A 
ATOM     17  H   LIG d   1       6.485   0.385  -3.467  0.00  0.00     0.063 H 
ATOM     18  H   LIG d   1       6.616  -1.595  -4.924  0.00  0.00     0.062 H 
ENDBRANCH   5   8
ENDBRANCH   3   5
BRANCH   1  19
ATOM     19  C   LIG d   1       3.619  -3.085  -8.355  0.00  0.00     0.168 A 
ATOM     20  C   LIG d   1       3.076  -1.869  -8.858  0.00  0.00     0.013 A 
ATOM     21  C   LIG d   1       2.287  -2.265  -9.883  0.00  0.00     0.135 A 
ATOM     22  H   LIG d   1       3.255  -0.865  -8.504  0.00  0.00     0.068 H 
ATOM     23  O   LIG d   1       2.381  -3.599  -9.949  0.00  0.00    -0.359 OA
ATOM     24  N   LIG d   1       3.124  -4.040  -9.104  0.00  0.00    -0.073 NA
BRANCH  21  25
ATOM     25  C   LIG d   1       1.462  -1.375 -10.777  0.00  0.00    -0.004 C 
ATOM     26  H   LIG d   1       2.050  -1.088 -11.648  0.00  0.00     0.031 H 
ATOM     27  H   LIG d   1       0.570  -1.913 -11.101  0.00  0.00     0.031 H 
ATOM     28  H   LIG d   1       1.165  -0.482 -10.227  0.00  0.00     0.031 H 
ENDBRANCH  21  25
ENDBRANCH   1  19
TORSDOF 4
ENDMDL
MODEL 4
REMARK VINA RESULT:      -5.3      7.324      9.108
REMARK  4 active torsions:
REMARK  status: ('A' for Active; 'I' for Inactive)
REMARK    1  A    between atoms: C_1  and  C_2 
REMARK    2  A    between atoms: C_4  and  C_7 
REMARK       I    between atoms: C_7  and  N_9 
REMARK    3  A    between atoms: N_9  and  C_10 
REMARK    4  A    between atoms: C_10  and  C_11 
ROOT
ATOM      1  C   LIG d   1       2.392  -0.339  -9.476  0.00  0.00     0.266 C 
ATOM      2  O   LIG d   1       3.046   0.549  -9.989  0.00  0.00    -0.268 OA
ATOM      3  N   LIG d   1       2.251  -0.383  -8.137  0.00  0.00    -0.306 N 
ATOM      4  H   LIG d   1       1.729  -1.091  -7.727  0.00  0.00     0.149 HD
ENDROOT
BRANCH   3   5
ATOM      5  C   LIG d   1       2.886   0.636  -7.298  0.00  0.00     0.037 C 
ATOM      6  H   LIG d   1       2.203   1.475  -7.165  0.00  0.00     0.051 H 
ATOM      7  H   LIG d   1       3.800   0.986  -7.780  0.00  0.00     0.051 H 
BRANCH   5   8
ATOM      8  C   LIG d   1       3.223   0.044  -5.955  0.00  0.00    -0.030 A 
ATOM      9  C   LIG d   1       4.295  -0.820  -5.829  0.00  0.00    -0.056 A 
ATOM     10  C   LIG d   1       4.604  -1.365  -4.597  0.00  0.00    -0.043 A 
ATOM     11  H   LIG d   1       4.890  -1.070  -6.694  0.00  0.00     0.062 H 
ATOM     12  C   LIG d   1       3.840  -1.044  -3.488  0.00  0.00     0.041 A 
ATOM     13  H   LIG d   1       5.442  -2.039  -4.499  0.00  0.00     0.063 H 
ATOM     14  C   LIG d   1       2.767  -0.179  -3.614  0.00  0.00    -0.043 A 
ATOM     15 CL   LIG d   1       4.228  -1.727  -1.940  0.00  0.00    -0.084 Cl
ATOM     16  C   LIG d   1       2.459   0.365  -4.847  0.00  0.00    -0.056 A 
ATOM     17  H   LIG d   1       2.171   0.071  -2.749  0.00  0.00     0.063 H 
ATOM     18  H   LIG d   1       1.620   1.036  -4.946  0.00  0.00     0.062 H 
ENDBRANCH   5   8
ENDBRANCH   3   5
BRANCH   1  19
ATOM     19  C   LIG d   1       1.748  -1.369 -10.325  0.00  0.00     0.168 A 
ATOM     20  C   LIG d   1       1.213  -1.191 -11.632  0.00  0.00     0.013 A 
ATOM     21  C   LIG d   1       0.750  -2.418 -11.964  0.00  0.00     0.135 A 
ATOM     22  H   LIG d   1       1.186  -0.287 -12.221  0.00  0.00     0.068 H 
ATOM     23  O   LIG d   1       1.005  -3.221 -10.923  0.00  0.00    -0.359 OA
ATOM     24  N   LIG d   1       1.562  -2.632 -10.026  0.00  0.00    -0.073 NA
BRANCH  21  25
ATOM     25  C   LIG d   1       0.077  -2.805 -13.256  0.00  0.00    -0.004 C 
ATOM     26  H   LIG d   1       0.693  -2.487 -14.097  0.00  0.00     0.031 H 
ATOM     27  H   LIG d   1      -0.052  -3.887 -13.289  0.00  0.00     0.031 H 
ATOM     28  H   LIG d   1      -0.898  -2.322 -13.316  0.00  0.00     0.031 H 
ENDBRANCH  21  25
ENDBRANCH   1  19
TORSDOF 4
ENDMDL
MODEL 5
REMARK VINA RESULT:      -5.2      6.189      8.238
REMARK  4 active torsions:
REMARK  status: ('A' for Active; 'I' for Inactive)
REMARK    1  A    between atoms: C_1  and  C_2 
REMARK    2  A    between atoms: C_4  and  C_7 
REMARK       I    between atoms: C_7  and  N_9 
REMARK    3  A    between atoms: N_9  and  C_10 
REMARK    4  A    between atoms: C_10  and  C_11 
ROOT
ATOM      1  C   LIG d   1       6.913  -2.513  -3.982  0.00  0.00     0.266 C 
ATOM      2  O   LIG d   1       6.675  -3.063  -5.040  0.00  0.00    -0.268 OA
ATOM      3  N   LIG d   1       8.137  -2.618  -3.429  0.00  0.00    -0.306 N 
ATOM      4  H   LIG d   1       8.327  -2.178  -2.585  0.00  0.00     0.149 HD
ENDROOT
BRANCH   3   5
ATOM      5  C   LIG d   1       9.181  -3.395  -4.099  0.00  0.00     0.037 C 
ATOM      6  H   LIG d   1      10.131  -2.865  -4.028  0.00  0.00     0.051 H 
ATOM      7  H   LIG d   1       8.917  -3.528  -5.149  0.00  0.00     0.051 H 
BRANCH   5   8
ATOM      8  C   LIG d   1       9.308  -4.743  -3.439  0.00  0.00    -0.030 A 
ATOM      9  C   LIG d   1       9.741  -4.832  -2.129  0.00  0.00    -0.056 A 
ATOM     10  C   LIG d   1       9.858  -6.069  -1.522  0.00  0.00    -0.043 A 
ATOM     11  H   LIG d   1       9.989  -3.936  -1.580  0.00  0.00     0.062 H 
ATOM     12  C   LIG d   1       9.540  -7.217  -2.225  0.00  0.00     0.041 A 
ATOM     13  H   LIG d   1      10.196  -6.139  -0.498  0.00  0.00     0.063 H 
ATOM     14  C   LIG d   1       9.106  -7.127  -3.536  0.00  0.00    -0.043 A 
ATOM     15 CL   LIG d   1       9.685  -8.770  -1.464  0.00  0.00    -0.084 Cl
ATOM     16  C   LIG d   1       8.989  -5.890  -4.142  0.00  0.00    -0.056 A 
ATOM     17  H   LIG d   1       8.857  -8.023  -4.086  0.00  0.00     0.063 H 
ATOM     18  H   LIG d   1       8.655  -5.820  -5.166  0.00  0.00     0.062 H 
ENDBRANCH   5   8
ENDBRANCH   3   5
BRANCH   1  19
ATOM     19  C   LIG d   1       5.856  -1.725  -3.303  0.00  0.00     0.168 A 
ATOM     20  C   LIG d   1       5.897  -0.340  -2.975  0.00  0.00     0.013 A 
ATOM     21  C   LIG d   1       4.705  -0.112  -2.378  0.00  0.00     0.135 A 
ATOM     22  H   LIG d   1       6.695   0.364  -3.162  0.00  0.00     0.068 H 
ATOM     23  O   LIG d   1       4.048  -1.279  -2.371  0.00  0.00    -0.359 OA
ATOM     24  N   LIG d   1       4.692  -2.161  -2.891  0.00  0.00    -0.073 NA
BRANCH  21  25
ATOM     25  C   LIG d   1       4.214   1.201  -1.826  0.00  0.00    -0.004 C 
ATOM     26  H   LIG d   1       4.271   1.183  -0.737  0.00  0.00     0.031 H 
ATOM     27  H   LIG d   1       4.835   2.012  -2.208  0.00  0.00     0.031 H 
ATOM     28  H   LIG d   1       3.181   1.361  -2.133  0.00  0.00     0.031 H 
ENDBRANCH  21  25
ENDBRANCH   1  19
TORSDOF 4
ENDMDL
MODEL 6
REMARK VINA RESULT:      -5.2      3.704      6.917
REMARK  4 active torsions:
REMARK  status: ('A' for Active; 'I' for Inactive)
REMARK    1  A    between atoms: C_1  and  C_2 
REMARK    2  A    between atoms: C_4  and  C_7 
REMARK       I    between atoms: C_7  and  N_9 
REMARK    3  A    between atoms: N_9  and  C_10 
REMARK    4  A    between atoms: C_10  and  C_11 
ROOT
ATOM      1  C   LIG d   1       9.948   2.884  -3.378  0.00  0.00     0.266 C 
ATOM      2  O   LIG d   1      10.924   2.181  -3.559  0.00  0.00    -0.268 OA
ATOM      3  N   LIG d   1       8.734   2.469  -3.787  0.00  0.00    -0.306 N 
ATOM      4  H   LIG d   1       7.956   3.030  -3.643  0.00  0.00     0.149 HD
ENDROOT
BRANCH   3   5
ATOM      5  C   LIG d   1       8.587   1.172  -4.452  0.00  0.00     0.037 C 
ATOM      6  H   LIG d   1       9.499   0.590  -4.317  0.00  0.00     0.051 H 
ATOM      7  H   LIG d   1       8.411   1.328  -5.517  0.00  0.00     0.051 H 
BRANCH   5   8
ATOM      8  C   LIG d   1       7.422   0.429  -3.853  0.00  0.00    -0.030 A 
ATOM      9  C   LIG d   1       7.383  -0.952  -3.907  0.00  0.00    -0.056 A 
ATOM     10  C   LIG d   1       6.314  -1.635  -3.358  0.00  0.00    -0.043 A 
ATOM     11  H   LIG d   1       8.187  -1.497  -4.377  0.00  0.00     0.062 H 
ATOM     12  C   LIG d   1       5.283  -0.937  -2.755  0.00  0.00     0.041 A 
ATOM     13  H   LIG d   1       6.283  -2.714  -3.399  0.00  0.00     0.063 H 
ATOM     14  C   LIG d   1       5.323   0.446  -2.702  0.00  0.00    -0.043 A 
ATOM     15 CL   LIG d   1       3.940  -1.794  -2.064  0.00  0.00    -0.084 Cl
ATOM     16  C   LIG d   1       6.392   1.128  -3.250  0.00  0.00    -0.056 A 
ATOM     17  H   LIG d   1       4.518   0.992  -2.231  0.00  0.00     0.063 H 
ATOM     18  H   LIG d   1       6.422   2.206  -3.213  0.00  0.00     0.062 H 
ENDBRANCH   5   8
ENDBRANCH   3   5
BRANCH   1  19
ATOM     19  C   LIG d   1      10.097   4.196  -2.704  0.00  0.00     0.168 A 
ATOM     20  C   LIG d   1      10.936   4.500  -1.595  0.00  0.00     0.013 A 
ATOM     21  C   LIG d   1      10.710   5.814  -1.366  0.00  0.00     0.135 A 
ATOM     22  H   LIG d   1      11.600   3.836  -1.063  0.00  0.00     0.068 H 
ATOM     23  O   LIG d   1       9.813   6.215  -2.277  0.00  0.00    -0.359 OA
ATOM     24  N   LIG d   1       9.486   5.314  -3.013  0.00  0.00    -0.073 NA
BRANCH  21  25
ATOM     25  C   LIG d   1      11.345   6.662  -0.294  0.00  0.00    -0.004 C 
ATOM     26  H   LIG d   1      12.303   6.228  -0.007  0.00  0.00     0.031 H 
ATOM     27  H   LIG d   1      11.503   7.671  -0.675  0.00  0.00     0.031 H 
ATOM     28  H   LIG d   1      10.689   6.701   0.574  0.00  0.00     0.031 H 
ENDBRANCH  21  25
ENDBRANCH   1  19
TORSDOF 4
ENDMDL
MODEL 7
REMARK VINA RESULT:      -4.8      9.955     11.806
REMARK  4 active torsions:
REMARK  status: ('A' for Active; 'I' for Inactive)
REMARK    1  A    between atoms: C_1  and  C_2 
REMARK    2  A    between atoms: C_4  and  C_7 
REMARK       I    between atoms: C_7  and  N_9 
REMARK    3  A    between atoms: N_9  and  C_10 
REMARK    4  A    between atoms: C_10  and  C_11 
ROOT
ATOM      1  C   LIG d   1      -0.264  -5.019 -10.207  0.00  0.00     0.266 C 
ATOM      2  O   LIG d   1       0.473  -5.977 -10.342  0.00  0.00    -0.268 OA
ATOM      3  N   LIG d   1       0.245  -3.772 -10.214  0.00  0.00    -0.306 N 
ATOM      4  H   LIG d   1      -0.343  -3.008 -10.106  0.00  0.00     0.149 HD
ENDROOT
BRANCH   3   5
ATOM      5  C   LIG d   1       1.686  -3.568 -10.381  0.00  0.00     0.037 C 
ATOM      6  H   LIG d   1       1.946  -3.666 -11.435  0.00  0.00     0.051 H 
ATOM      7  H   LIG d   1       2.228  -4.317  -9.802  0.00  0.00     0.051 H 
BRANCH   5   8
ATOM      8  C   LIG d   1       2.059  -2.192  -9.897  0.00  0.00    -0.030 A 
ATOM      9  C   LIG d   1       1.448  -1.078 -10.443  0.00  0.00    -0.056 A 
ATOM     10  C   LIG d   1       1.791   0.185 -10.000  0.00  0.00    -0.043 A 
ATOM     11  H   LIG d   1       0.703  -1.196 -11.216  0.00  0.00     0.062 H 
ATOM     12  C   LIG d   1       2.745   0.336  -9.009  0.00  0.00     0.041 A 
ATOM     13  H   LIG d   1       1.313   1.056 -10.426  0.00  0.00     0.063 H 
ATOM     14  C   LIG d   1       3.356  -0.779  -8.463  0.00  0.00    -0.043 A 
ATOM     15 CL   LIG d   1       3.175   1.923  -8.451  0.00  0.00    -0.084 Cl
ATOM     16  C   LIG d   1       3.013  -2.042  -8.907  0.00  0.00    -0.056 A 
ATOM     17  H   LIG d   1       4.101  -0.662  -7.690  0.00  0.00     0.063 H 
ATOM     18  H   LIG d   1       3.493  -2.912  -8.485  0.00  0.00     0.062 H 
ENDBRANCH   5   8
ENDBRANCH   3   5
BRANCH   1  19
ATOM     19  C   LIG d   1      -1.723  -5.225 -10.038  0.00  0.00     0.168 A 
ATOM     20  C   LIG d   1      -2.749  -4.884 -10.964  0.00  0.00     0.013 A 
ATOM     21  C   LIG d   1      -3.888  -5.273 -10.346  0.00  0.00     0.135 A 
ATOM     22  H   LIG d   1      -2.642  -4.423 -11.935  0.00  0.00     0.068 H 
ATOM     23  O   LIG d   1      -3.526  -5.792  -9.165  0.00  0.00    -0.359 OA
ATOM     24  N   LIG d   1      -2.327  -5.765  -9.009  0.00  0.00    -0.073 NA
BRANCH  21  25
ATOM     25  C   LIG d   1      -5.290  -5.147 -10.882  0.00  0.00    -0.004 C 
ATOM     26  H   LIG d   1      -5.989  -5.042 -10.052  0.00  0.00     0.031 H 
ATOM     27  H   LIG d   1      -5.355  -4.269 -11.525  0.00  0.00     0.031 H 
ATOM     28  H   LIG d   1      -5.541  -6.037 -11.458  0.00  0.00     0.031 H 
ENDBRANCH  21  25
ENDBRANCH   1  19
TORSDOF 4
ENDMDL
MODEL 8
REMARK VINA RESULT:      -4.7      5.138      8.059
REMARK  4 active torsions:
REMARK  status: ('A' for Active; 'I' for Inactive)
REMARK    1  A    between atoms: C_1  and  C_2 
REMARK    2  A    between atoms: C_4  and  C_7 
REMARK       I    between atoms: C_7  and  N_9 
REMARK    3  A    between atoms: N_9  and  C_10 
REMARK    4  A    between atoms: C_10  and  C_11 
ROOT
ATOM      1  C   LIG d   1       9.815   7.564  -0.920  0.00  0.00     0.266 C 
ATOM      2  O   LIG d   1       8.619   7.782  -0.896  0.00  0.00    -0.268 OA
ATOM      3  N   LIG d   1      10.373   6.990  -2.003  0.00  0.00    -0.306 N 
ATOM      4  H   LIG d   1      11.327   6.816  -2.022  0.00  0.00     0.149 HD
ENDROOT
BRANCH   3   5
ATOM      5  C   LIG d   1       9.540   6.627  -3.152  0.00  0.00     0.037 C 
ATOM      6  H   LIG d   1       9.786   7.272  -3.996  0.00  0.00     0.051 H 
ATOM      7  H   LIG d   1       8.489   6.754  -2.893  0.00  0.00     0.051 H 
BRANCH   5   8
ATOM      8  C   LIG d   1       9.797   5.191  -3.525  0.00  0.00    -0.030 A 
ATOM      9  C   LIG d   1       9.537   4.754  -4.811  0.00  0.00    -0.056 A 
ATOM     10  C   LIG d   1       9.771   3.436  -5.154  0.00  0.00    -0.043 A 
ATOM     11  H   LIG d   1       9.151   5.442  -5.547  0.00  0.00     0.062 H 
ATOM     12  C   LIG d   1      10.267   2.553  -4.211  0.00  0.00     0.041 A 
ATOM     13  H   LIG d   1       9.569   3.094  -6.159  0.00  0.00     0.063 H 
ATOM     14  C   LIG d   1      10.526   2.991  -2.924  0.00  0.00    -0.043 A 
ATOM     15 CL   LIG d   1      10.562   0.897  -4.641  0.00  0.00    -0.084 Cl
ATOM     16  C   LIG d   1      10.292   4.309  -2.582  0.00  0.00    -0.056 A 
ATOM     17  H   LIG d   1      10.913   2.302  -2.187  0.00  0.00     0.063 H 
ATOM     18  H   LIG d   1      10.490   4.650  -1.577  0.00  0.00     0.062 H 
ENDBRANCH   5   8
ENDBRANCH   3   5
BRANCH   1  19
ATOM     19  C   LIG d   1      10.658   7.932   0.243  0.00  0.00     0.168 A 
ATOM     20  C   LIG d   1      11.010   9.245   0.664  0.00  0.00     0.013 A 
ATOM     21  C   LIG d   1      11.779   9.041   1.758  0.00  0.00     0.135 A 
ATOM     22  H   LIG d   1      10.728  10.186   0.215  0.00  0.00     0.068 H 
ATOM     23  O   LIG d   1      11.851   7.715   1.936  0.00  0.00    -0.359 OA
ATOM     24  N   LIG d   1      11.223   7.114   1.096  0.00  0.00    -0.073 NA
BRANCH  21  25
ATOM     25  C   LIG d   1      12.428  10.100   2.611  0.00  0.00    -0.004 C 
ATOM     26  H   LIG d   1      13.390   9.737   2.973  0.00  0.00     0.031 H 
ATOM     27  H   LIG d   1      12.582  11.002   2.017  0.00  0.00     0.031 H 
ATOM     28  H   LIG d   1      11.784  10.331   3.458  0.00  0.00     0.031 H 
ENDBRANCH  21  25
ENDBRANCH   1  19
TORSDOF 4
ENDMDL
MODEL 9
REMARK VINA RESULT:      -4.6      6.586      7.762
REMARK  4 active torsions:
REMARK  status: ('A' for Active; 'I' for Inactive)
REMARK    1  A    between atoms: C_1  and  C_2 
REMARK    2  A    between atoms: C_4  and  C_7 
REMARK       I    between atoms: C_7  and  N_9 
REMARK    3  A    between atoms: N_9  and  C_10 
REMARK    4  A    between atoms: C_10  and  C_11 
ROOT
ATOM      1  C   LIG d   1      10.321   8.749  -3.488  0.00  0.00     0.266 C 
ATOM      2  O   LIG d   1      11.220   9.529  -3.739  0.00  0.00    -0.268 OA
ATOM      3  N   LIG d   1       9.400   8.460  -4.428  0.00  0.00    -0.306 N 
ATOM      4  H   LIG d   1       8.683   7.838  -4.227  0.00  0.00     0.149 HD
ENDROOT
BRANCH   3   5
ATOM      5  C   LIG d   1       9.479   9.084  -5.750  0.00  0.00     0.037 C 
ATOM      6  H   LIG d   1      10.405   9.654  -5.828  0.00  0.00     0.051 H 
ATOM      7  H   LIG d   1       8.629   9.754  -5.887  0.00  0.00     0.051 H 
BRANCH   5   8
ATOM      8  C   LIG d   1       9.454   8.017  -6.813  0.00  0.00    -0.030 A 
ATOM      9  C   LIG d   1       9.865   6.732  -6.511  0.00  0.00    -0.056 A 
ATOM     10  C   LIG d   1       9.843   5.752  -7.486  0.00  0.00    -0.043 A 
ATOM     11  H   LIG d   1      10.204   6.494  -5.514  0.00  0.00     0.062 H 
ATOM     12  C   LIG d   1       9.409   6.057  -8.763  0.00  0.00     0.041 A 
ATOM     13  H   LIG d   1      10.164   4.748  -7.250  0.00  0.00     0.063 H 
ATOM     14  C   LIG d   1       8.998   7.344  -9.065  0.00  0.00    -0.043 A 
ATOM     15 CL   LIG d   1       9.381   4.827  -9.988  0.00  0.00    -0.084 Cl
ATOM     16  C   LIG d   1       9.020   8.323  -8.090  0.00  0.00    -0.056 A 
ATOM     17  H   LIG d   1       8.659   7.583 -10.063  0.00  0.00     0.063 H 
ATOM     18  H   LIG d   1       8.704   9.328  -8.326  0.00  0.00     0.062 H 
ENDBRANCH   5   8
ENDBRANCH   3   5
BRANCH   1  19
ATOM     19  C   LIG d   1      10.242   8.117  -2.150  0.00  0.00     0.168 A 
ATOM     20  C   LIG d   1      11.209   8.191  -1.108  0.00  0.00     0.013 A 
ATOM     21  C   LIG d   1      10.669   7.456  -0.109  0.00  0.00     0.135 A 
ATOM     22  H   LIG d   1      12.153   8.715  -1.114  0.00  0.00     0.068 H 
ATOM     23  O   LIG d   1       9.491   7.004  -0.558  0.00  0.00    -0.359 OA
ATOM     24  N   LIG d   1       9.263   7.381  -1.684  0.00  0.00    -0.073 NA
BRANCH  21  25
ATOM     25  C   LIG d   1      11.277   7.196   1.245  0.00  0.00    -0.004 C 
ATOM     26  H   LIG d   1      11.693   8.122   1.641  0.00  0.00     0.031 H 
ATOM     27  H   LIG d   1      10.508   6.824   1.923  0.00  0.00     0.031 H 
ATOM     28  H   LIG d   1      12.068   6.453   1.152  0.00  0.00     0.031 H 
ENDBRANCH  21  25
ENDBRANCH   1  19
TORSDOF 4
ENDMDL
MODEL 10
REMARK VINA RESULT:      -4.5      5.865      8.037
REMARK  4 active torsions:
REMARK  status: ('A' for Active; 'I' for Inactive)
REMARK    1  A    between atoms: C_1  and  C_2 
REMARK    2  A    between atoms: C_4  and  C_7 
REMARK       I    between atoms: C_7  and  N_9 
REMARK    3  A    between atoms: N_9  and  C_10 
REMARK    4  A    between atoms: C_10  and  C_11 
ROOT
ATOM      1  C   LIG d   1       9.699   7.318  -1.904  0.00  0.00     0.266 C 
ATOM      2  O   LIG d   1       9.934   6.212  -1.458  0.00  0.00    -0.268 OA
ATOM      3  N   LIG d   1       9.371   7.464  -3.202  0.00  0.00    -0.306 N 
ATOM      4  H   LIG d   1       9.184   8.347  -3.558  0.00  0.00     0.149 HD
ENDROOT
BRANCH   3   5
ATOM      5  C   LIG d   1       9.299   6.292  -4.078  0.00  0.00     0.037 C 
ATOM      6  H   LIG d   1       8.340   5.793  -3.937  0.00  0.00     0.051 H 
ATOM      7  H   LIG d   1      10.107   5.603  -3.829  0.00  0.00     0.051 H 
BRANCH   5   8
ATOM      8  C   LIG d   1       9.434   6.727  -5.513  0.00  0.00    -0.030 A 
ATOM      9  C   LIG d   1       9.815   5.814  -6.479  0.00  0.00    -0.056 A 
ATOM     10  C   LIG d   1       9.940   6.213  -7.796  0.00  0.00    -0.043 A 
ATOM     11  H   LIG d   1      10.016   4.790  -6.204  0.00  0.00     0.062 H 
ATOM     12  C   LIG d   1       9.683   7.526  -8.149  0.00  0.00     0.041 A 
ATOM     13  H   LIG d   1      10.237   5.500  -8.551  0.00  0.00     0.063 H 
ATOM     14  C   LIG d   1       9.301   8.440  -7.182  0.00  0.00    -0.043 A 
ATOM     15 CL   LIG d   1       9.838   8.028  -9.804  0.00  0.00    -0.084 Cl
ATOM     16  C   LIG d   1       9.176   8.040  -5.865  0.00  0.00    -0.056 A 
ATOM     17  H   LIG d   1       9.100   9.465  -7.457  0.00  0.00     0.063 H 
ATOM     18  H   LIG d   1       8.883   8.753  -5.110  0.00  0.00     0.062 H 
ENDBRANCH   5   8
ENDBRANCH   3   5
BRANCH   1  19
ATOM     19  C   LIG d   1       9.771   8.504  -1.018  0.00  0.00     0.168 A 
ATOM     20  C   LIG d   1      10.921   9.000  -0.342  0.00  0.00     0.013 A 
ATOM     21  C   LIG d   1      10.465  10.086   0.325  0.00  0.00     0.135 A 
ATOM     22  H   LIG d   1      11.925   8.603  -0.359  0.00  0.00     0.068 H 
ATOM     23  O   LIG d   1       9.159  10.189   0.043  0.00  0.00    -0.359 OA
ATOM     24  N   LIG d   1       8.789   9.313  -0.703  0.00  0.00    -0.073 NA
BRANCH  21  25
ATOM     25  C   LIG d   1      11.270  11.000   1.211  0.00  0.00    -0.004 C 
ATOM     26  H   LIG d   1      11.044  10.786   2.256  0.00  0.00     0.031 H 
ATOM     27  H   LIG d   1      12.333  10.840   1.029  0.00  0.00     0.031 H 
ATOM     28  H   LIG d   1      11.017  12.037   0.990  0.00  0.00     0.031 H 
ENDBRANCH  21  25
ENDBRANCH   1  19
TORSDOF 4
ENDMDL
