MODEL 1
REMARK VINA RESULT:      -6.4      0.000      0.000
REMARK  8 active torsions:
REMARK  status: ('A' for Active; 'I' for Inactive)
REMARK    1  A    between atoms: C_1  and  C_2 
REMARK    2  A    between atoms: C_18  and  C_20 
REMARK    3  A    between atoms: C_20  and  N_54 
REMARK    4  A    between atoms: C_21  and  C_22 
REMARK    5  A    between atoms: C_21  and  N_54 
REMARK    6  A    between atoms: C_22  and  C_23 
REMARK    7  A    between atoms: C_23  and  O_24 
REMARK    8  A    between atoms: O_24  and  C_25 
ROOT
ATOM      1  C   LIG d   1       6.204  -2.093  -5.148  0.00  0.00    -0.023 C 
ATOM      2  C   LIG d   1       7.265  -3.005  -4.546  0.00  0.00    -0.047 C 
ATOM      3  C   LIG d   1       7.337  -4.335  -5.291  0.00  0.00    -0.050 C 
ATOM      4  C   LIG d   1       5.987  -5.051  -5.232  0.00  0.00    -0.021 C 
ATOM      5  C   LIG d   1       4.881  -4.121  -5.728  0.00  0.00     0.096 A 
ATOM      6  C   LIG d   1       4.823  -2.745  -5.047  0.00  0.00    -0.004 C 
ATOM      7  H   LIG d   1       4.078  -2.126  -5.557  0.00  0.00     0.034 H 
ATOM      8  C   LIG d   1       4.451  -2.960  -3.585  0.00  0.00    -0.040 C 
ATOM      9  C   LIG d   1       4.678  -1.812  -2.657  0.00  0.00     0.014 C 
ATOM     10  H   LIG d   1       4.816  -2.256  -1.641  0.00  0.00     0.035 H 
ATOM     11  C   LIG d   1       5.911  -0.945  -2.924  0.00  0.00     0.107 C 
ATOM     12  H   LIG d   1       6.807  -1.357  -2.425  0.00  0.00     0.074 H 
ATOM     13  C   LIG d   1       6.169  -0.755  -4.417  0.00  0.00    -0.010 C 
ATOM     14  O   LIG d   1       5.559   0.374  -2.386  0.00  0.00    -0.461 OA
ATOM     15  C   LIG d   1       4.242   0.495  -2.175  0.00  0.00     0.316 C 
ATOM     16  O   LIG d   1       3.686   1.489  -1.758  0.00  0.00    -0.250 OA
ATOM     17  C   LIG d   1       3.535  -0.801  -2.535  0.00  0.00     0.102 C 
ATOM     18  H   LIG d   1       2.863  -1.091  -1.715  0.00  0.00     0.047 H 
ATOM     19  C   LIG d   1       4.405  -4.244  -7.169  0.00  0.00     0.078 A 
ATOM     20  O   LIG d   1       3.627  -4.722  -6.069  0.00  0.00    -0.368 OA
ATOM     21  H   LIG d   1       8.239  -2.510  -4.596  0.00  0.00     0.027 H 
ATOM     22  H   LIG d   1       7.028  -3.196  -3.495  0.00  0.00     0.027 H 
ATOM     23  H   LIG d   1       8.092  -4.969  -4.811  0.00  0.00     0.027 H 
ATOM     24  H   LIG d   1       7.633  -4.185  -6.327  0.00  0.00     0.027 H 
ATOM     25  H   LIG d   1       5.779  -5.353  -4.205  0.00  0.00     0.029 H 
ATOM     26  H   LIG d   1       6.021  -5.943  -5.863  0.00  0.00     0.029 H 
ATOM     27  H   LIG d   1       3.399  -3.268  -3.532  0.00  0.00     0.027 H 
ATOM     28  H   LIG d   1       5.033  -3.818  -3.211  0.00  0.00     0.027 H 
ATOM     29  H   LIG d   1       5.390  -0.133  -4.850  0.00  0.00     0.031 H 
ATOM     30  H   LIG d   1       7.134  -0.261  -4.551  0.00  0.00     0.031 H 
ATOM     31  H   LIG d   1       4.057  -3.344  -7.677  0.00  0.00     0.059 H 
ATOM     32  H   LIG d   1       4.886  -4.987  -7.808  0.00  0.00     0.059 H 
ENDROOT
BRANCH  17  33
ATOM     33  C   LIG d   1       2.730  -0.637  -3.821  0.00  0.00    -0.020 C 
ATOM     34  H   LIG d   1       2.981  -1.443  -4.511  0.00  0.00     0.082 H 
ATOM     35  H   LIG d   1       1.666  -0.674  -3.591  0.00  0.00     0.082 H 
BRANCH  33  36
ATOM     36  N   LIG d   1       3.061   0.662  -4.435  0.00  0.00     0.228 N 
ATOM     37  H   LIG d   1       4.078   0.729  -4.561  0.00  0.00     0.201 HD
ATOM     38  H   LIG d   1       2.743   1.419  -3.817  0.00  0.00     0.201 HD
BRANCH  36  39
ATOM     39  C   LIG d   1       2.397   0.793  -5.746  0.00  0.00    -0.032 C 
ATOM     40  H   LIG d   1       1.380   0.406  -5.681  0.00  0.00     0.081 H 
ATOM     41  H   LIG d   1       2.369   1.842  -6.039  0.00  0.00     0.081 H 
BRANCH  39  42
ATOM     42  C   LIG d   1       3.183  -0.008  -6.787  0.00  0.00     0.011 C 
ATOM     43  H   LIG d   1       4.240  -0.012  -6.520  0.00  0.00     0.034 H 
ATOM     44  H   LIG d   1       2.811  -1.032  -6.815  0.00  0.00     0.034 H 
BRANCH  42  45
ATOM     45  C   LIG d   1       3.007   0.638  -8.164  0.00  0.00     0.052 C 
ATOM     46  H   LIG d   1       3.688   0.169  -8.874  0.00  0.00     0.056 H 
ATOM     47  H   LIG d   1       1.980   0.502  -8.501  0.00  0.00     0.056 H 
BRANCH  45  48
ATOM     48  O   LIG d   1       3.298   2.034  -8.076  0.00  0.00    -0.383 OA
BRANCH  48  49
ATOM     49  C   LIG d   1       3.925   2.572  -9.241  0.00  0.00     0.036 C 
ATOM     50  H   LIG d   1       4.340   3.553  -9.010  0.00  0.00     0.052 H 
ATOM     51  H   LIG d   1       4.725   1.906  -9.563  0.00  0.00     0.052 H 
ATOM     52  H   LIG d   1       3.188   2.668 -10.038  0.00  0.00     0.052 H 
ENDBRANCH  48  49
ENDBRANCH  45  48
ENDBRANCH  42  45
ENDBRANCH  39  42
ENDBRANCH  36  39
ENDBRANCH  33  36
ENDBRANCH  17  33
BRANCH   1  53
ATOM     53  C   LIG d   1       6.535  -1.815  -6.618  0.00  0.00    -0.059 C 
ATOM     54  H   LIG d   1       7.362  -1.108  -6.677  0.00  0.00     0.024 H 
ATOM     55  H   LIG d   1       6.819  -2.746  -7.109  0.00  0.00     0.024 H 
ATOM     56  H   LIG d   1       5.661  -1.393  -7.114  0.00  0.00     0.024 H 
ENDBRANCH   1  53
TORSDOF 8
ENDMDL
MODEL 2
REMARK VINA RESULT:      -5.7      2.499      5.810
REMARK  8 active torsions:
REMARK  status: ('A' for Active; 'I' for Inactive)
REMARK    1  A    between atoms: C_1  and  C_2 
REMARK    2  A    between atoms: C_18  and  C_20 
REMARK    3  A    between atoms: C_20  and  N_54 
REMARK    4  A    between atoms: C_21  and  C_22 
REMARK    5  A    between atoms: C_21  and  N_54 
REMARK    6  A    between atoms: C_22  and  C_23 
REMARK    7  A    between atoms: C_23  and  O_24 
REMARK    8  A    between atoms: O_24  and  C_25 
ROOT
ATOM      1  C   LIG d   1       4.706  -1.203  -3.004  0.00  0.00    -0.023 C 
ATOM      2  C   LIG d   1       5.100  -0.079  -2.055  0.00  0.00    -0.047 C 
ATOM      3  C   LIG d   1       4.005   0.982  -1.972  0.00  0.00    -0.050 C 
ATOM      4  C   LIG d   1       3.741   1.581  -3.353  0.00  0.00    -0.021 C 
ATOM      5  C   LIG d   1       3.450   0.467  -4.358  0.00  0.00     0.096 A 
ATOM      6  C   LIG d   1       4.497  -0.656  -4.418  0.00  0.00    -0.004 C 
ATOM      7  H   LIG d   1       4.132  -1.449  -5.078  0.00  0.00     0.034 H 
ATOM      8  C   LIG d   1       5.796  -0.058  -4.945  0.00  0.00    -0.040 C 
ATOM      9  C   LIG d   1       7.036  -0.871  -4.758  0.00  0.00     0.014 C 
ATOM     10  H   LIG d   1       7.885  -0.144  -4.744  0.00  0.00     0.035 H 
ATOM     11  C   LIG d   1       7.137  -1.683  -3.464  0.00  0.00     0.107 C 
ATOM     12  H   LIG d   1       7.565  -1.079  -2.644  0.00  0.00     0.074 H 
ATOM     13  C   LIG d   1       5.791  -2.274  -3.048  0.00  0.00    -0.010 C 
ATOM     14  O   LIG d   1       8.007  -2.814  -3.805  0.00  0.00    -0.461 OA
ATOM     15  C   LIG d   1       8.135  -2.968  -5.129  0.00  0.00     0.316 C 
ATOM     16  O   LIG d   1       8.778  -3.839  -5.676  0.00  0.00    -0.250 OA
ATOM     17  C   LIG d   1       7.354  -1.887  -5.858  0.00  0.00     0.102 C 
ATOM     18  H   LIG d   1       7.995  -1.425  -6.622  0.00  0.00     0.047 H 
ATOM     19  C   LIG d   1       2.002   0.135  -4.692  0.00  0.00     0.078 A 
ATOM     20  O   LIG d   1       2.846   0.849  -5.599  0.00  0.00    -0.368 OA
ATOM     21  H   LIG d   1       5.277  -0.494  -1.058  0.00  0.00     0.027 H 
ATOM     22  H   LIG d   1       6.025   0.386  -2.404  0.00  0.00     0.027 H 
ATOM     23  H   LIG d   1       4.340   1.782  -1.300  0.00  0.00     0.027 H 
ATOM     24  H   LIG d   1       3.088   0.563  -1.566  0.00  0.00     0.027 H 
ATOM     25  H   LIG d   1       4.615   2.148  -3.678  0.00  0.00     0.029 H 
ATOM     26  H   LIG d   1       2.882   2.254  -3.299  0.00  0.00     0.029 H 
ATOM     27  H   LIG d   1       5.670   0.172  -6.010  0.00  0.00     0.027 H 
ATOM     28  H   LIG d   1       5.949   0.912  -4.446  0.00  0.00     0.027 H 
ATOM     29  H   LIG d   1       5.497  -3.051  -3.750  0.00  0.00     0.031 H 
ATOM     30  H   LIG d   1       5.887  -2.711  -2.053  0.00  0.00     0.031 H 
ATOM     31  H   LIG d   1       1.754  -0.897  -4.943  0.00  0.00     0.059 H 
ATOM     32  H   LIG d   1       1.216   0.696  -4.185  0.00  0.00     0.059 H 
ENDROOT
BRANCH  17  33
ATOM     33  C   LIG d   1       6.111  -2.474  -6.520  0.00  0.00    -0.020 C 
ATOM     34  H   LIG d   1       5.235  -1.898  -6.221  0.00  0.00     0.082 H 
ATOM     35  H   LIG d   1       6.221  -2.430  -7.603  0.00  0.00     0.082 H 
BRANCH  33  36
ATOM     36  N   LIG d   1       5.953  -3.876  -6.093  0.00  0.00     0.228 N 
ATOM     37  H   LIG d   1       6.511  -4.039  -5.247  0.00  0.00     0.201 HD
ATOM     38  H   LIG d   1       6.280  -4.497  -6.844  0.00  0.00     0.201 HD
BRANCH  36  39
ATOM     39  C   LIG d   1       4.536  -4.167  -5.805  0.00  0.00    -0.032 C 
ATOM     40  H   LIG d   1       4.459  -4.732  -4.876  0.00  0.00     0.081 H 
ATOM     41  H   LIG d   1       3.983  -3.232  -5.709  0.00  0.00     0.081 H 
BRANCH  39  42
ATOM     42  C   LIG d   1       3.949  -4.990  -6.954  0.00  0.00     0.011 C 
ATOM     43  H   LIG d   1       2.861  -4.968  -6.897  0.00  0.00     0.034 H 
ATOM     44  H   LIG d   1       4.273  -4.568  -7.905  0.00  0.00     0.034 H 
BRANCH  42  45
ATOM     45  C   LIG d   1       4.437  -6.437  -6.844  0.00  0.00     0.052 C 
ATOM     46  H   LIG d   1       3.720  -7.100  -7.329  0.00  0.00     0.056 H 
ATOM     47  H   LIG d   1       5.407  -6.532  -7.331  0.00  0.00     0.056 H 
BRANCH  45  48
ATOM     48  O   LIG d   1       4.559  -6.795  -5.466  0.00  0.00    -0.383 OA
BRANCH  48  49
ATOM     49  C   LIG d   1       4.965  -8.148  -5.250  0.00  0.00     0.036 C 
ATOM     50  H   LIG d   1       4.087  -8.793  -5.239  0.00  0.00     0.052 H 
ATOM     51  H   LIG d   1       5.634  -8.458  -6.053  0.00  0.00     0.052 H 
ATOM     52  H   LIG d   1       5.484  -8.223  -4.295  0.00  0.00     0.052 H 
ENDBRANCH  48  49
ENDBRANCH  45  48
ENDBRANCH  42  45
ENDBRANCH  39  42
ENDBRANCH  36  39
ENDBRANCH  33  36
ENDBRANCH  17  33
BRANCH   1  53
ATOM     53  C   LIG d   1       3.414  -1.867  -2.514  0.00  0.00    -0.059 C 
ATOM     54  H   LIG d   1       3.141  -2.676  -3.192  0.00  0.00     0.024 H 
ATOM     55  H   LIG d   1       3.570  -2.270  -1.513  0.00  0.00     0.024 H 
ATOM     56  H   LIG d   1       2.613  -1.128  -2.489  0.00  0.00     0.024 H 
ENDBRANCH   1  53
TORSDOF 8
ENDMDL
MODEL 3
REMARK VINA RESULT:      -5.6      2.760      5.020
REMARK  8 active torsions:
REMARK  status: ('A' for Active; 'I' for Inactive)
REMARK    1  A    between atoms: C_1  and  C_2 
REMARK    2  A    between atoms: C_18  and  C_20 
REMARK    3  A    between atoms: C_20  and  N_54 
REMARK    4  A    between atoms: C_21  and  C_22 
REMARK    5  A    between atoms: C_21  and  N_54 
REMARK    6  A    between atoms: C_22  and  C_23 
REMARK    7  A    between atoms: C_23  and  O_24 
REMARK    8  A    between atoms: O_24  and  C_25 
ROOT
ATOM      1  C   LIG d   1       4.884  -1.306  -4.646  0.00  0.00    -0.023 C 
ATOM      2  C   LIG d   1       4.491  -2.457  -3.728  0.00  0.00    -0.047 C 
ATOM      3  C   LIG d   1       3.648  -1.964  -2.555  0.00  0.00    -0.050 C 
ATOM      4  C   LIG d   1       4.425  -0.933  -1.738  0.00  0.00    -0.021 C 
ATOM      5  C   LIG d   1       4.930   0.184  -2.651  0.00  0.00     0.096 A 
ATOM      6  C   LIG d   1       5.725  -0.280  -3.882  0.00  0.00    -0.004 C 
ATOM      7  H   LIG d   1       5.932   0.584  -4.519  0.00  0.00     0.034 H 
ATOM      8  C   LIG d   1       7.016  -0.923  -3.391  0.00  0.00    -0.040 C 
ATOM      9  C   LIG d   1       7.772  -1.753  -4.377  0.00  0.00     0.014 C 
ATOM     10  H   LIG d   1       8.363  -2.487  -3.778  0.00  0.00     0.035 H 
ATOM     11  C   LIG d   1       6.941  -2.569  -5.370  0.00  0.00     0.107 C 
ATOM     12  H   LIG d   1       6.666  -3.553  -4.949  0.00  0.00     0.074 H 
ATOM     13  C   LIG d   1       5.694  -1.818  -5.832  0.00  0.00    -0.010 C 
ATOM     14  O   LIG d   1       7.806  -2.713  -6.546  0.00  0.00    -0.461 OA
ATOM     15  C   LIG d   1       8.827  -1.848  -6.527  0.00  0.00     0.316 C 
ATOM     16  O   LIG d   1       9.674  -1.742  -7.389  0.00  0.00    -0.250 OA
ATOM     17  C   LIG d   1       8.777  -1.009  -5.261  0.00  0.00     0.102 C 
ATOM     18  H   LIG d   1       9.767  -1.006  -4.784  0.00  0.00     0.047 H 
ATOM     19  C   LIG d   1       4.136   1.480  -2.740  0.00  0.00     0.078 A 
ATOM     20  O   LIG d   1       5.369   1.393  -2.022  0.00  0.00    -0.368 OA
ATOM     21  H   LIG d   1       3.920  -3.195  -4.298  0.00  0.00     0.027 H 
ATOM     22  H   LIG d   1       5.393  -2.940  -3.343  0.00  0.00     0.027 H 
ATOM     23  H   LIG d   1       3.410  -2.818  -1.909  0.00  0.00     0.027 H 
ATOM     24  H   LIG d   1       2.711  -1.534  -2.903  0.00  0.00     0.027 H 
ATOM     25  H   LIG d   1       5.272  -1.418  -1.250  0.00  0.00     0.029 H 
ATOM     26  H   LIG d   1       3.772  -0.508  -0.973  0.00  0.00     0.029 H 
ATOM     27  H   LIG d   1       7.673  -0.137  -2.999  0.00  0.00     0.027 H 
ATOM     28  H   LIG d   1       6.769  -1.564  -2.530  0.00  0.00     0.027 H 
ATOM     29  H   LIG d   1       5.981  -0.976  -6.457  0.00  0.00     0.031 H 
ATOM     30  H   LIG d   1       5.066  -2.495  -6.414  0.00  0.00     0.031 H 
ATOM     31  H   LIG d   1       4.141   2.024  -3.684  0.00  0.00     0.059 H 
ATOM     32  H   LIG d   1       3.217   1.560  -2.157  0.00  0.00     0.059 H 
ENDROOT
BRANCH  17  33
ATOM     33  C   LIG d   1       8.360   0.424  -5.581  0.00  0.00    -0.020 C 
ATOM     34  H   LIG d   1       7.316   0.436  -5.895  0.00  0.00     0.082 H 
ATOM     35  H   LIG d   1       8.478   1.043  -4.692  0.00  0.00     0.082 H 
BRANCH  33  36
ATOM     36  N   LIG d   1       9.211   0.944  -6.667  0.00  0.00     0.228 N 
ATOM     37  H   LIG d   1       9.645   0.158  -7.164  0.00  0.00     0.201 HD
ATOM     38  H   LIG d   1       9.945   1.541  -6.265  0.00  0.00     0.201 HD
BRANCH  36  39
ATOM     39  C   LIG d   1       8.405   1.736  -7.614  0.00  0.00    -0.032 C 
ATOM     40  H   LIG d   1       8.300   2.755  -7.244  0.00  0.00     0.081 H 
ATOM     41  H   LIG d   1       8.894   1.750  -8.588  0.00  0.00     0.081 H 
BRANCH  39  42
ATOM     42  C   LIG d   1       7.020   1.097  -7.749  0.00  0.00     0.011 C 
ATOM     43  H   LIG d   1       7.129   0.047  -8.021  0.00  0.00     0.034 H 
ATOM     44  H   LIG d   1       6.490   1.174  -6.800  0.00  0.00     0.034 H 
BRANCH  42  45
ATOM     45  C   LIG d   1       6.227   1.826  -8.838  0.00  0.00     0.052 C 
ATOM     46  H   LIG d   1       6.559   2.862  -8.897  0.00  0.00     0.056 H 
ATOM     47  H   LIG d   1       6.393   1.336  -9.797  0.00  0.00     0.056 H 
BRANCH  45  48
ATOM     48  O   LIG d   1       4.835   1.788  -8.518  0.00  0.00    -0.383 OA
BRANCH  48  49
ATOM     49  C   LIG d   1       4.025   2.619  -9.351  0.00  0.00     0.036 C 
ATOM     50  H   LIG d   1       4.402   3.641  -9.321  0.00  0.00     0.052 H 
ATOM     51  H   LIG d   1       4.059   2.249 -10.376  0.00  0.00     0.052 H 
ATOM     52  H   LIG d   1       2.996   2.600  -8.992  0.00  0.00     0.052 H 
ENDBRANCH  48  49
ENDBRANCH  45  48
ENDBRANCH  42  45
ENDBRANCH  39  42
ENDBRANCH  36  39
ENDBRANCH  33  36
ENDBRANCH  17  33
BRANCH   1  53
ATOM     53  C   LIG d   1       3.624  -0.630  -5.196  0.00  0.00    -0.059 C 
ATOM     54  H   LIG d   1       2.859  -0.599  -4.420  0.00  0.00     0.024 H 
ATOM     55  H   LIG d   1       3.864   0.387  -5.509  0.00  0.00     0.024 H 
ATOM     56  H   LIG d   1       3.251  -1.195  -6.050  0.00  0.00     0.024 H 
ENDBRANCH   1  53
TORSDOF 8
ENDMDL
MODEL 4
REMARK VINA RESULT:      -5.5      3.818      6.036
REMARK  8 active torsions:
REMARK  status: ('A' for Active; 'I' for Inactive)
REMARK    1  A    between atoms: C_1  and  C_2 
REMARK    2  A    between atoms: C_18  and  C_20 
REMARK    3  A    between atoms: C_20  and  N_54 
REMARK    4  A    between atoms: C_21  and  C_22 
REMARK    5  A    between atoms: C_21  and  N_54 
REMARK    6  A    between atoms: C_22  and  C_23 
REMARK    7  A    between atoms: C_23  and  O_24 
REMARK    8  A    between atoms: O_24  and  C_25 
ROOT
ATOM      1  C   LIG d   1       4.850  -0.878  -4.677  0.00  0.00    -0.023 C 
ATOM      2  C   LIG d   1       4.652  -2.252  -4.051  0.00  0.00    -0.047 C 
ATOM      3  C   LIG d   1       3.763  -2.172  -2.812  0.00  0.00    -0.050 C 
ATOM      4  C   LIG d   1       4.389  -1.246  -1.769  0.00  0.00    -0.021 C 
ATOM      5  C   LIG d   1       4.702   0.112  -2.397  0.00  0.00     0.096 A 
ATOM      6  C   LIG d   1       5.537   0.064  -3.686  0.00  0.00    -0.004 C 
ATOM      7  H   LIG d   1       5.599   1.072  -4.108  0.00  0.00     0.034 H 
ATOM      8  C   LIG d   1       6.920  -0.469  -3.331  0.00  0.00    -0.040 C 
ATOM      9  C   LIG d   1       7.776  -0.929  -4.465  0.00  0.00     0.014 C 
ATOM     10  H   LIG d   1       8.482  -1.681  -4.036  0.00  0.00     0.035 H 
ATOM     11  C   LIG d   1       7.062  -1.617  -5.632  0.00  0.00     0.107 C 
ATOM     12  H   LIG d   1       6.947  -2.701  -5.448  0.00  0.00     0.074 H 
ATOM     13  C   LIG d   1       5.707  -0.979  -5.934  0.00  0.00    -0.010 C 
ATOM     14  O   LIG d   1       7.919  -1.358  -6.794  0.00  0.00    -0.461 OA
ATOM     15  C   LIG d   1       8.797  -0.375  -6.561  0.00  0.00     0.316 C 
ATOM     16  O   LIG d   1       9.603   0.051  -7.362  0.00  0.00    -0.250 OA
ATOM     17  C   LIG d   1       8.640   0.140  -5.140  0.00  0.00     0.102 C 
ATOM     18  H   LIG d   1       9.627   0.185  -4.657  0.00  0.00     0.047 H 
ATOM     19  C   LIG d   1       3.718   1.258  -2.205  0.00  0.00     0.078 A 
ATOM     20  O   LIG d   1       4.963   1.200  -1.504  0.00  0.00    -0.368 OA
ATOM     21  H   LIG d   1       4.191  -2.921  -4.783  0.00  0.00     0.027 H 
ATOM     22  H   LIG d   1       5.623  -2.667  -3.769  0.00  0.00     0.027 H 
ATOM     23  H   LIG d   1       3.669  -3.175  -2.379  0.00  0.00     0.027 H 
ATOM     24  H   LIG d   1       2.767  -1.822  -3.071  0.00  0.00     0.027 H 
ATOM     25  H   LIG d   1       5.308  -1.693  -1.388  0.00  0.00     0.029 H 
ATOM     26  H   LIG d   1       3.692  -1.109  -0.940  0.00  0.00     0.029 H 
ATOM     27  H   LIG d   1       7.456   0.299  -2.759  0.00  0.00     0.027 H 
ATOM     28  H   LIG d   1       6.788  -1.317  -2.641  0.00  0.00     0.027 H 
ATOM     29  H   LIG d   1       5.853   0.016  -6.348  0.00  0.00     0.031 H 
ATOM     30  H   LIG d   1       5.180  -1.595  -6.665  0.00  0.00     0.031 H 
ATOM     31  H   LIG d   1       3.625   1.996  -3.002  0.00  0.00     0.059 H 
ATOM     32  H   LIG d   1       2.808   1.064  -1.637  0.00  0.00     0.059 H 
ENDROOT
BRANCH  17  33
ATOM     33  C   LIG d   1       8.005   1.526  -5.135  0.00  0.00    -0.020 C 
ATOM     34  H   LIG d   1       8.227   2.031  -6.076  0.00  0.00     0.082 H 
ATOM     35  H   LIG d   1       6.925   1.431  -5.020  0.00  0.00     0.082 H 
BRANCH  33  36
ATOM     36  N   LIG d   1       8.557   2.307  -4.012  0.00  0.00     0.228 N 
ATOM     37  H   LIG d   1       8.216   1.915  -3.126  0.00  0.00     0.201 HD
ATOM     38  H   LIG d   1       8.248   3.284  -4.094  0.00  0.00     0.201 HD
BRANCH  36  39
ATOM     39  C   LIG d   1      10.031   2.260  -4.031  0.00  0.00    -0.032 C 
ATOM     40  H   LIG d   1      10.365   1.224  -3.983  0.00  0.00     0.081 H 
ATOM     41  H   LIG d   1      10.400   2.719  -4.949  0.00  0.00     0.081 H 
BRANCH  39  42
ATOM     42  C   LIG d   1      10.572   3.028  -2.824  0.00  0.00     0.011 C 
ATOM     43  H   LIG d   1      10.303   2.501  -1.908  0.00  0.00     0.034 H 
ATOM     44  H   LIG d   1      11.657   3.101  -2.896  0.00  0.00     0.034 H 
BRANCH  42  45
ATOM     45  C   LIG d   1       9.966   4.434  -2.800  0.00  0.00     0.052 C 
ATOM     46  H   LIG d   1       9.033   4.417  -2.237  0.00  0.00     0.056 H 
ATOM     47  H   LIG d   1      10.665   5.123  -2.326  0.00  0.00     0.056 H 
BRANCH  45  48
ATOM     48  O   LIG d   1       9.708   4.863  -4.138  0.00  0.00    -0.383 OA
BRANCH  48  49
ATOM     49  C   LIG d   1       9.486   6.269  -4.265  0.00  0.00     0.036 C 
ATOM     50  H   LIG d   1       9.379   6.710  -3.274  0.00  0.00     0.052 H 
ATOM     51  H   LIG d   1      10.334   6.726  -4.777  0.00  0.00     0.052 H 
ATOM     52  H   LIG d   1       8.577   6.443  -4.840  0.00  0.00     0.052 H 
ENDBRANCH  48  49
ENDBRANCH  45  48
ENDBRANCH  42  45
ENDBRANCH  39  42
ENDBRANCH  36  39
ENDBRANCH  33  36
ENDBRANCH  17  33
BRANCH   1  53
ATOM     53  C   LIG d   1       3.492  -0.295  -5.084  0.00  0.00    -0.059 C 
ATOM     54  H   LIG d   1       2.871  -1.082  -5.510  0.00  0.00     0.024 H 
ATOM     55  H   LIG d   1       2.997   0.121  -4.205  0.00  0.00     0.024 H 
ATOM     56  H   LIG d   1       3.640   0.492  -5.823  0.00  0.00     0.024 H 
ENDBRANCH   1  53
TORSDOF 8
ENDMDL
MODEL 5
REMARK VINA RESULT:      -5.4      2.526      4.686
REMARK  8 active torsions:
REMARK  status: ('A' for Active; 'I' for Inactive)
REMARK    1  A    between atoms: C_1  and  C_2 
REMARK    2  A    between atoms: C_18  and  C_20 
REMARK    3  A    between atoms: C_20  and  N_54 
REMARK    4  A    between atoms: C_21  and  C_22 
REMARK    5  A    between atoms: C_21  and  N_54 
REMARK    6  A    between atoms: C_22  and  C_23 
REMARK    7  A    between atoms: C_23  and  O_24 
REMARK    8  A    between atoms: O_24  and  C_25 
ROOT
ATOM      1  C   LIG d   1       4.810  -1.215  -3.060  0.00  0.00    -0.023 C 
ATOM      2  C   LIG d   1       5.196  -0.135  -2.058  0.00  0.00    -0.047 C 
ATOM      3  C   LIG d   1       4.066   0.874  -1.870  0.00  0.00    -0.050 C 
ATOM      4  C   LIG d   1       3.726   1.544  -3.201  0.00  0.00    -0.021 C 
ATOM      5  C   LIG d   1       3.439   0.482  -4.262  0.00  0.00     0.096 A 
ATOM      6  C   LIG d   1       4.525  -0.592  -4.429  0.00  0.00    -0.004 C 
ATOM      7  H   LIG d   1       4.166  -1.359  -5.122  0.00  0.00     0.034 H 
ATOM      8  C   LIG d   1       5.779   0.088  -4.965  0.00  0.00    -0.040 C 
ATOM      9  C   LIG d   1       7.055  -0.683  -4.873  0.00  0.00     0.014 C 
ATOM     10  H   LIG d   1       7.876   0.075  -4.846  0.00  0.00     0.035 H 
ATOM     11  C   LIG d   1       7.237  -1.567  -3.636  0.00  0.00     0.107 C 
ATOM     12  H   LIG d   1       7.673  -0.996  -2.796  0.00  0.00     0.074 H 
ATOM     13  C   LIG d   1       5.932  -2.236  -3.209  0.00  0.00    -0.010 C 
ATOM     14  O   LIG d   1       8.136  -2.640  -4.077  0.00  0.00    -0.461 OA
ATOM     15  C   LIG d   1       8.218  -2.708  -5.412  0.00  0.00     0.316 C 
ATOM     16  O   LIG d   1       8.872  -3.518  -6.035  0.00  0.00    -0.250 OA
ATOM     17  C   LIG d   1       7.369  -1.618  -6.044  0.00  0.00     0.102 C 
ATOM     18  H   LIG d   1       7.962  -1.086  -6.802  0.00  0.00     0.047 H 
ATOM     19  C   LIG d   1       1.993   0.112  -4.563  0.00  0.00     0.078 A 
ATOM     20  O   LIG d   1       2.773   0.912  -5.454  0.00  0.00    -0.368 OA
ATOM     21  H   LIG d   1       5.428  -0.601  -1.096  0.00  0.00     0.027 H 
ATOM     22  H   LIG d   1       6.089   0.388  -2.412  0.00  0.00     0.027 H 
ATOM     23  H   LIG d   1       4.396   1.645  -1.163  0.00  0.00     0.027 H 
ATOM     24  H   LIG d   1       3.182   0.394  -1.458  0.00  0.00     0.027 H 
ATOM     25  H   LIG d   1       4.564   2.164  -3.522  0.00  0.00     0.029 H 
ATOM     26  H   LIG d   1       2.845   2.177  -3.075  0.00  0.00     0.029 H 
ATOM     27  H   LIG d   1       5.603   0.376  -6.009  0.00  0.00     0.027 H 
ATOM     28  H   LIG d   1       5.914   1.031  -4.413  0.00  0.00     0.027 H 
ATOM     29  H   LIG d   1       5.641  -2.981  -3.946  0.00  0.00     0.031 H 
ATOM     30  H   LIG d   1       6.084  -2.728  -2.246  0.00  0.00     0.031 H 
ATOM     31  H   LIG d   1       1.775  -0.912  -4.868  0.00  0.00     0.059 H 
ATOM     32  H   LIG d   1       1.206   0.609  -3.994  0.00  0.00     0.059 H 
ENDROOT
BRANCH  17  33
ATOM     33  C   LIG d   1       6.125  -2.214  -6.696  0.00  0.00    -0.020 C 
ATOM     34  H   LIG d   1       5.852  -3.136  -6.181  0.00  0.00     0.082 H 
ATOM     35  H   LIG d   1       5.302  -1.503  -6.626  0.00  0.00     0.082 H 
BRANCH  33  36
ATOM     36  N   LIG d   1       6.413  -2.504  -8.113  0.00  0.00     0.228 N 
ATOM     37  H   LIG d   1       6.290  -3.509  -8.285  0.00  0.00     0.201 HD
ATOM     38  H   LIG d   1       7.383  -2.237  -8.322  0.00  0.00     0.201 HD
BRANCH  36  39
ATOM     39  C   LIG d   1       5.499  -1.744  -8.986  0.00  0.00    -0.032 C 
ATOM     40  H   LIG d   1       6.024  -0.888  -9.409  0.00  0.00     0.081 H 
ATOM     41  H   LIG d   1       5.144  -2.387  -9.792  0.00  0.00     0.081 H 
BRANCH  39  42
ATOM     42  C   LIG d   1       4.307  -1.256  -8.161  0.00  0.00     0.011 C 
ATOM     43  H   LIG d   1       3.479  -1.957  -8.268  0.00  0.00     0.034 H 
ATOM     44  H   LIG d   1       4.594  -1.190  -7.112  0.00  0.00     0.034 H 
BRANCH  42  45
ATOM     45  C   LIG d   1       3.873   0.125  -8.660  0.00  0.00     0.052 C 
ATOM     46  H   LIG d   1       3.883   0.137  -9.750  0.00  0.00     0.056 H 
ATOM     47  H   LIG d   1       2.866   0.340  -8.303  0.00  0.00     0.056 H 
BRANCH  45  48
ATOM     48  O   LIG d   1       4.776   1.116  -8.164  0.00  0.00    -0.383 OA
BRANCH  48  49
ATOM     49  C   LIG d   1       5.213   2.050  -9.153  0.00  0.00     0.036 C 
ATOM     50  H   LIG d   1       4.411   2.221  -9.871  0.00  0.00     0.052 H 
ATOM     51  H   LIG d   1       5.478   2.991  -8.671  0.00  0.00     0.052 H 
ATOM     52  H   LIG d   1       6.085   1.649  -9.670  0.00  0.00     0.052 H 
ENDBRANCH  48  49
ENDBRANCH  45  48
ENDBRANCH  42  45
ENDBRANCH  39  42
ENDBRANCH  36  39
ENDBRANCH  33  36
ENDBRANCH  17  33
BRANCH   1  53
ATOM     53  C   LIG d   1       3.564  -1.958  -2.565  0.00  0.00    -0.059 C 
ATOM     54  H   LIG d   1       2.904  -2.163  -3.408  0.00  0.00     0.024 H 
ATOM     55  H   LIG d   1       3.862  -2.899  -2.101  0.00  0.00     0.024 H 
ATOM     56  H   LIG d   1       3.039  -1.343  -1.835  0.00  0.00     0.024 H 
ENDBRANCH   1  53
TORSDOF 8
ENDMDL
MODEL 6
REMARK VINA RESULT:      -5.4      3.346      5.394
REMARK  8 active torsions:
REMARK  status: ('A' for Active; 'I' for Inactive)
REMARK    1  A    between atoms: C_1  and  C_2 
REMARK    2  A    between atoms: C_18  and  C_20 
REMARK    3  A    between atoms: C_20  and  N_54 
REMARK    4  A    between atoms: C_21  and  C_22 
REMARK    5  A    between atoms: C_21  and  N_54 
REMARK    6  A    between atoms: C_22  and  C_23 
REMARK    7  A    between atoms: C_23  and  O_24 
REMARK    8  A    between atoms: O_24  and  C_25 
ROOT
ATOM      1  C   LIG d   1       4.774  -1.047  -4.623  0.00  0.00    -0.023 C 
ATOM      2  C   LIG d   1       4.496  -2.346  -3.877  0.00  0.00    -0.047 C 
ATOM      3  C   LIG d   1       3.647  -2.097  -2.634  0.00  0.00    -0.050 C 
ATOM      4  C   LIG d   1       4.362  -1.134  -1.686  0.00  0.00    -0.021 C 
ATOM      5  C   LIG d   1       4.754   0.139  -2.434  0.00  0.00     0.096 A 
ATOM      6  C   LIG d   1       5.551  -0.077  -3.730  0.00  0.00    -0.004 C 
ATOM      7  H   LIG d   1       5.673   0.884  -4.238  0.00  0.00     0.034 H 
ATOM      8  C   LIG d   1       6.901  -0.676  -3.357  0.00  0.00    -0.040 C 
ATOM      9  C   LIG d   1       7.694  -1.291  -4.463  0.00  0.00     0.014 C 
ATOM     10  H   LIG d   1       8.356  -2.054  -3.985  0.00  0.00     0.035 H 
ATOM     11  C   LIG d   1       6.904  -2.022  -5.552  0.00  0.00     0.107 C 
ATOM     12  H   LIG d   1       6.718  -3.075  -5.274  0.00  0.00     0.074 H 
ATOM     13  C   LIG d   1       5.591  -1.315  -5.883  0.00  0.00    -0.010 C 
ATOM     14  O   LIG d   1       7.748  -1.924  -6.749  0.00  0.00    -0.461 OA
ATOM     15  C   LIG d   1       8.698  -0.991  -6.618  0.00  0.00     0.316 C 
ATOM     16  O   LIG d   1       9.512  -0.693  -7.467  0.00  0.00    -0.250 OA
ATOM     17  C   LIG d   1       8.614  -0.349  -5.243  0.00  0.00     0.102 C 
ATOM     18  H   LIG d   1       9.613  -0.334  -4.785  0.00  0.00     0.047 H 
ATOM     19  C   LIG d   1       3.858   1.366  -2.323  0.00  0.00     0.078 A 
ATOM     20  O   LIG d   1       5.113   1.277  -1.642  0.00  0.00    -0.368 OA
ATOM     21  H   LIG d   1       3.971  -3.038  -4.541  0.00  0.00     0.027 H 
ATOM     22  H   LIG d   1       5.443  -2.805  -3.579  0.00  0.00     0.027 H 
ATOM     23  H   LIG d   1       3.493  -3.051  -2.115  0.00  0.00     0.027 H 
ATOM     24  H   LIG d   1       2.671  -1.699  -2.902  0.00  0.00     0.027 H 
ATOM     25  H   LIG d   1       5.257  -1.613  -1.285  0.00  0.00     0.029 H 
ATOM     26  H   LIG d   1       3.697  -0.878  -0.858  0.00  0.00     0.029 H 
ATOM     27  H   LIG d   1       7.504   0.096  -2.863  0.00  0.00     0.027 H 
ATOM     28  H   LIG d   1       6.727  -1.452  -2.594  0.00  0.00     0.027 H 
ATOM     29  H   LIG d   1       5.795  -0.372  -6.383  0.00  0.00     0.031 H 
ATOM     30  H   LIG d   1       5.003  -1.951  -6.548  0.00  0.00     0.031 H 
ATOM     31  H   LIG d   1       3.797   2.039  -3.178  0.00  0.00     0.059 H 
ATOM     32  H   LIG d   1       2.951   1.286  -1.722  0.00  0.00     0.059 H 
ENDROOT
BRANCH  17  33
ATOM     33  C   LIG d   1       8.078   1.076  -5.345  0.00  0.00    -0.020 C 
ATOM     34  H   LIG d   1       7.210   1.184  -4.695  0.00  0.00     0.082 H 
ATOM     35  H   LIG d   1       8.852   1.779  -5.038  0.00  0.00     0.082 H 
BRANCH  33  36
ATOM     36  N   LIG d   1       7.688   1.347  -6.741  0.00  0.00     0.228 N 
ATOM     37  H   LIG d   1       6.682   1.547  -6.780  0.00  0.00     0.201 HD
ATOM     38  H   LIG d   1       7.894   0.520  -7.317  0.00  0.00     0.201 HD
BRANCH  36  39
ATOM     39  C   LIG d   1       8.436   2.504  -7.267  0.00  0.00    -0.032 C 
ATOM     40  H   LIG d   1       8.031   3.424  -6.846  0.00  0.00     0.081 H 
ATOM     41  H   LIG d   1       9.488   2.413  -6.998  0.00  0.00     0.081 H 
BRANCH  39  42
ATOM     42  C   LIG d   1       8.301   2.538  -8.791  0.00  0.00     0.011 C 
ATOM     43  H   LIG d   1       8.760   1.645  -9.216  0.00  0.00     0.034 H 
ATOM     44  H   LIG d   1       7.245   2.568  -9.062  0.00  0.00     0.034 H 
BRANCH  42  45
ATOM     45  C   LIG d   1       9.005   3.782  -9.337  0.00  0.00     0.052 C 
ATOM     46  H   LIG d   1       9.673   4.186  -8.576  0.00  0.00     0.056 H 
ATOM     47  H   LIG d   1       9.582   3.514 -10.222  0.00  0.00     0.056 H 
BRANCH  45  48
ATOM     48  O   LIG d   1       8.029   4.767  -9.686  0.00  0.00    -0.383 OA
BRANCH  48  49
ATOM     49  C   LIG d   1       8.578   6.056  -9.964  0.00  0.00     0.036 C 
ATOM     50  H   LIG d   1       9.103   6.425  -9.083  0.00  0.00     0.052 H 
ATOM     51  H   LIG d   1       9.276   5.981 -10.799  0.00  0.00     0.052 H 
ATOM     52  H   LIG d   1       7.774   6.745 -10.223  0.00  0.00     0.052 H 
ENDBRANCH  48  49
ENDBRANCH  45  48
ENDBRANCH  42  45
ENDBRANCH  39  42
ENDBRANCH  36  39
ENDBRANCH  33  36
ENDBRANCH  17  33
BRANCH   1  53
ATOM     53  C   LIG d   1       3.451  -0.403  -5.052  0.00  0.00    -0.059 C 
ATOM     54  H   LIG d   1       2.698  -1.179  -5.193  0.00  0.00     0.024 H 
ATOM     55  H   LIG d   1       3.116   0.290  -4.279  0.00  0.00     0.024 H 
ATOM     56  H   LIG d   1       3.596   0.137  -5.987  0.00  0.00     0.024 H 
ENDBRANCH   1  53
TORSDOF 8
ENDMDL
MODEL 7
REMARK VINA RESULT:      -5.3      1.522      1.967
REMARK  8 active torsions:
REMARK  status: ('A' for Active; 'I' for Inactive)
REMARK    1  A    between atoms: C_1  and  C_2 
REMARK    2  A    between atoms: C_18  and  C_20 
REMARK    3  A    between atoms: C_20  and  N_54 
REMARK    4  A    between atoms: C_21  and  C_22 
REMARK    5  A    between atoms: C_21  and  N_54 
REMARK    6  A    between atoms: C_22  and  C_23 
REMARK    7  A    between atoms: C_23  and  O_24 
REMARK    8  A    between atoms: O_24  and  C_25 
ROOT
ATOM      1  C   LIG d   1       7.582  -2.023  -4.665  0.00  0.00    -0.023 C 
ATOM      2  C   LIG d   1       7.951  -3.048  -3.600  0.00  0.00    -0.047 C 
ATOM      3  C   LIG d   1       8.499  -4.325  -4.231  0.00  0.00    -0.050 C 
ATOM      4  C   LIG d   1       7.460  -4.945  -5.166  0.00  0.00    -0.021 C 
ATOM      5  C   LIG d   1       6.986  -3.906  -6.181  0.00  0.00     0.096 A 
ATOM      6  C   LIG d   1       6.492  -2.579  -5.584  0.00  0.00    -0.004 C 
ATOM      7  H   LIG d   1       6.291  -1.875  -6.397  0.00  0.00     0.034 H 
ATOM      8  C   LIG d   1       5.228  -2.867  -4.782  0.00  0.00    -0.040 C 
ATOM      9  C   LIG d   1       4.775  -1.805  -3.835  0.00  0.00     0.014 C 
ATOM     10  H   LIG d   1       4.187  -2.326  -3.041  0.00  0.00     0.035 H 
ATOM     11  C   LIG d   1       5.870  -1.012  -3.116  0.00  0.00     0.107 C 
ATOM     12  H   LIG d   1       6.191  -1.521  -2.189  0.00  0.00     0.074 H 
ATOM     13  C   LIG d   1       7.071  -0.739  -4.019  0.00  0.00    -0.010 C 
ATOM     14  O   LIG d   1       5.256   0.289  -2.827  0.00  0.00    -0.461 OA
ATOM     15  C   LIG d   1       4.144   0.489  -3.545  0.00  0.00     0.316 C 
ATOM     16  O   LIG d   1       3.458   1.489  -3.514  0.00  0.00    -0.250 OA
ATOM     17  C   LIG d   1       3.857  -0.725  -4.413  0.00  0.00     0.102 C 
ATOM     18  H   LIG d   1       2.806  -1.022  -4.292  0.00  0.00     0.047 H 
ATOM     19  C   LIG d   1       7.608  -3.895  -7.571  0.00  0.00     0.078 A 
ATOM     20  O   LIG d   1       6.288  -4.391  -7.333  0.00  0.00    -0.368 OA
ATOM     21  H   LIG d   1       8.706  -2.622  -2.933  0.00  0.00     0.027 H 
ATOM     22  H   LIG d   1       7.065  -3.293  -3.008  0.00  0.00     0.027 H 
ATOM     23  H   LIG d   1       8.727  -5.043  -3.433  0.00  0.00     0.027 H 
ATOM     24  H   LIG d   1       9.419  -4.125  -4.776  0.00  0.00     0.027 H 
ATOM     25  H   LIG d   1       6.610  -5.300  -4.581  0.00  0.00     0.029 H 
ATOM     26  H   LIG d   1       7.905  -5.791  -5.694  0.00  0.00     0.029 H 
ATOM     27  H   LIG d   1       4.415  -3.101  -5.481  0.00  0.00     0.027 H 
ATOM     28  H   LIG d   1       5.399  -3.788  -4.202  0.00  0.00     0.027 H 
ATOM     29  H   LIG d   1       6.793  -0.034  -4.799  0.00  0.00     0.031 H 
ATOM     30  H   LIG d   1       7.876  -0.308  -3.421  0.00  0.00     0.031 H 
ATOM     31  H   LIG d   1       7.701  -2.939  -8.087  0.00  0.00     0.059 H 
ATOM     32  H   LIG d   1       8.390  -4.624  -7.789  0.00  0.00     0.059 H 
ENDROOT
BRANCH  17  33
ATOM     33  C   LIG d   1       4.135  -0.415  -5.881  0.00  0.00    -0.020 C 
ATOM     34  H   LIG d   1       5.165  -0.076  -5.992  0.00  0.00     0.082 H 
ATOM     35  H   LIG d   1       3.983  -1.315  -6.477  0.00  0.00     0.082 H 
BRANCH  33  36
ATOM     36  N   LIG d   1       3.213   0.642  -6.335  0.00  0.00     0.228 N 
ATOM     37  H   LIG d   1       3.632   1.561  -6.147  0.00  0.00     0.201 HD
ATOM     38  H   LIG d   1       2.326   0.560  -5.823  0.00  0.00     0.201 HD
BRANCH  36  39
ATOM     39  C   LIG d   1       2.955   0.511  -7.781  0.00  0.00    -0.032 C 
ATOM     40  H   LIG d   1       3.752  -0.070  -8.244  0.00  0.00     0.081 H 
ATOM     41  H   LIG d   1       2.000   0.008  -7.938  0.00  0.00     0.081 H 
BRANCH  39  42
ATOM     42  C   LIG d   1       2.906   1.905  -8.410  0.00  0.00     0.011 C 
ATOM     43  H   LIG d   1       2.060   1.965  -9.095  0.00  0.00     0.034 H 
ATOM     44  H   LIG d   1       2.794   2.654  -7.626  0.00  0.00     0.034 H 
BRANCH  42  45
ATOM     45  C   LIG d   1       4.205   2.162  -9.180  0.00  0.00     0.052 C 
ATOM     46  H   LIG d   1       4.199   1.585 -10.104  0.00  0.00     0.056 H 
ATOM     47  H   LIG d   1       4.284   3.224  -9.414  0.00  0.00     0.056 H 
BRANCH  45  48
ATOM     48  O   LIG d   1       5.319   1.767  -8.378  0.00  0.00    -0.383 OA
BRANCH  48  49
ATOM     49  C   LIG d   1       6.521   1.549  -9.119  0.00  0.00     0.036 C 
ATOM     50  H   LIG d   1       6.291   1.528 -10.185  0.00  0.00     0.052 H 
ATOM     51  H   LIG d   1       7.226   2.355  -8.914  0.00  0.00     0.052 H 
ATOM     52  H   LIG d   1       6.962   0.596  -8.824  0.00  0.00     0.052 H 
ENDBRANCH  48  49
ENDBRANCH  45  48
ENDBRANCH  42  45
ENDBRANCH  39  42
ENDBRANCH  36  39
ENDBRANCH  33  36
ENDBRANCH  17  33
BRANCH   1  53
ATOM     53  C   LIG d   1       8.821  -1.668  -5.493  0.00  0.00    -0.059 C 
ATOM     54  H   LIG d   1       9.504  -1.070  -4.890  0.00  0.00     0.024 H 
ATOM     55  H   LIG d   1       9.324  -2.585  -5.806  0.00  0.00     0.024 H 
ATOM     56  H   LIG d   1       8.521  -1.100  -6.373  0.00  0.00     0.024 H 
ENDBRANCH   1  53
TORSDOF 8
ENDMDL
MODEL 8
REMARK VINA RESULT:      -5.2      1.891      2.414
REMARK  8 active torsions:
REMARK  status: ('A' for Active; 'I' for Inactive)
REMARK    1  A    between atoms: C_1  and  C_2 
REMARK    2  A    between atoms: C_18  and  C_20 
REMARK    3  A    between atoms: C_20  and  N_54 
REMARK    4  A    between atoms: C_21  and  C_22 
REMARK    5  A    between atoms: C_21  and  N_54 
REMARK    6  A    between atoms: C_22  and  C_23 
REMARK    7  A    between atoms: C_23  and  O_24 
REMARK    8  A    between atoms: O_24  and  C_25 
ROOT
ATOM      1  C   LIG d   1       6.670  -3.553  -6.008  0.00  0.00    -0.023 C 
ATOM      2  C   LIG d   1       7.398  -4.636  -5.221  0.00  0.00    -0.047 C 
ATOM      3  C   LIG d   1       6.926  -6.028  -5.632  0.00  0.00    -0.050 C 
ATOM      4  C   LIG d   1       5.424  -6.174  -5.388  0.00  0.00    -0.021 C 
ATOM      5  C   LIG d   1       4.671  -5.036  -6.075  0.00  0.00     0.096 A 
ATOM      6  C   LIG d   1       5.165  -3.620  -5.738  0.00  0.00    -0.004 C 
ATOM      7  H   LIG d   1       4.639  -2.899  -6.370  0.00  0.00     0.034 H 
ATOM      8  C   LIG d   1       4.886  -3.365  -4.262  0.00  0.00    -0.040 C 
ATOM      9  C   LIG d   1       5.591  -2.207  -3.634  0.00  0.00     0.014 C 
ATOM     10  H   LIG d   1       5.663  -2.441  -2.544  0.00  0.00     0.035 H 
ATOM     11  C   LIG d   1       7.017  -1.926  -4.115  0.00  0.00     0.107 C 
ATOM     12  H   LIG d   1       7.756  -2.519  -3.544  0.00  0.00     0.074 H 
ATOM     13  C   LIG d   1       7.178  -2.170  -5.614  0.00  0.00    -0.010 C 
ATOM     14  O   LIG d   1       7.204  -0.487  -3.899  0.00  0.00    -0.461 OA
ATOM     15  C   LIG d   1       6.040   0.146  -3.705  0.00  0.00     0.316 C 
ATOM     16  O   LIG d   1       5.911   1.339  -3.528  0.00  0.00    -0.250 OA
ATOM     17  C   LIG d   1       4.892  -0.849  -3.740  0.00  0.00     0.102 C 
ATOM     18  H   LIG d   1       4.244  -0.691  -2.866  0.00  0.00     0.047 H 
ATOM     19  C   LIG d   1       4.043  -5.285  -7.440  0.00  0.00     0.078 A 
ATOM     20  O   LIG d   1       3.259  -5.198  -6.248  0.00  0.00    -0.368 OA
ATOM     21  H   LIG d   1       8.474  -4.552  -5.399  0.00  0.00     0.027 H 
ATOM     22  H   LIG d   1       7.213  -4.496  -4.152  0.00  0.00     0.027 H 
ATOM     23  H   LIG d   1       7.455  -6.773  -5.025  0.00  0.00     0.027 H 
ATOM     24  H   LIG d   1       7.154  -6.223  -6.678  0.00  0.00     0.027 H 
ATOM     25  H   LIG d   1       5.225  -6.150  -4.316  0.00  0.00     0.029 H 
ATOM     26  H   LIG d   1       5.081  -7.130  -5.790  0.00  0.00     0.029 H 
ATOM     27  H   LIG d   1       3.804  -3.250  -4.124  0.00  0.00     0.027 H 
ATOM     28  H   LIG d   1       5.164  -4.273  -3.704  0.00  0.00     0.027 H 
ATOM     29  H   LIG d   1       6.628  -1.416  -6.171  0.00  0.00     0.031 H 
ATOM     30  H   LIG d   1       8.236  -2.103  -5.873  0.00  0.00     0.031 H 
ATOM     31  H   LIG d   1       3.986  -4.452  -8.141  0.00  0.00     0.059 H 
ATOM     32  H   LIG d   1       4.170  -6.270  -7.892  0.00  0.00     0.059 H 
ENDROOT
BRANCH  17  33
ATOM     33  C   LIG d   1       4.075  -0.685  -5.018  0.00  0.00    -0.020 C 
ATOM     34  H   LIG d   1       3.943  -1.658  -5.492  0.00  0.00     0.082 H 
ATOM     35  H   LIG d   1       3.099  -0.265  -4.774  0.00  0.00     0.082 H 
BRANCH  33  36
ATOM     36  N   LIG d   1       4.789   0.221  -5.936  0.00  0.00     0.228 N 
ATOM     37  H   LIG d   1       5.790   0.216  -5.707  0.00  0.00     0.201 HD
ATOM     38  H   LIG d   1       4.419   1.174  -5.828  0.00  0.00     0.201 HD
BRANCH  36  39
ATOM     39  C   LIG d   1       4.606  -0.216  -7.332  0.00  0.00    -0.032 C 
ATOM     40  H   LIG d   1       4.968  -1.238  -7.446  0.00  0.00     0.081 H 
ATOM     41  H   LIG d   1       3.549  -0.173  -7.594  0.00  0.00     0.081 H 
BRANCH  39  42
ATOM     42  C   LIG d   1       5.399   0.712  -8.256  0.00  0.00     0.011 C 
ATOM     43  H   LIG d   1       5.261   0.398  -9.291  0.00  0.00     0.034 H 
ATOM     44  H   LIG d   1       5.042   1.735  -8.136  0.00  0.00     0.034 H 
BRANCH  42  45
ATOM     45  C   LIG d   1       6.885   0.642  -7.895  0.00  0.00     0.052 C 
ATOM     46  H   LIG d   1       7.150  -0.385  -7.643  0.00  0.00     0.056 H 
ATOM     47  H   LIG d   1       7.481   0.973  -8.745  0.00  0.00     0.056 H 
BRANCH  45  48
ATOM     48  O   LIG d   1       7.143   1.490  -6.774  0.00  0.00    -0.383 OA
BRANCH  48  49
ATOM     49  C   LIG d   1       8.526   1.599  -6.434  0.00  0.00     0.036 C 
ATOM     50  H   LIG d   1       8.780   0.835  -5.698  0.00  0.00     0.052 H 
ATOM     51  H   LIG d   1       9.132   1.458  -7.329  0.00  0.00     0.052 H 
ATOM     52  H   LIG d   1       8.720   2.586  -6.015  0.00  0.00     0.052 H 
ENDBRANCH  48  49
ENDBRANCH  45  48
ENDBRANCH  42  45
ENDBRANCH  39  42
ENDBRANCH  36  39
ENDBRANCH  33  36
ENDBRANCH  17  33
BRANCH   1  53
ATOM     53  C   LIG d   1       6.933  -3.738  -7.506  0.00  0.00    -0.059 C 
ATOM     54  H   LIG d   1       7.431  -2.853  -7.900  0.00  0.00     0.024 H 
ATOM     55  H   LIG d   1       7.569  -4.610  -7.659  0.00  0.00     0.024 H 
ATOM     56  H   LIG d   1       5.986  -3.883  -8.026  0.00  0.00     0.024 H 
ENDBRANCH   1  53
TORSDOF 8
ENDMDL
MODEL 9
REMARK VINA RESULT:      -5.0      2.094      5.414
REMARK  8 active torsions:
REMARK  status: ('A' for Active; 'I' for Inactive)
REMARK    1  A    between atoms: C_1  and  C_2 
REMARK    2  A    between atoms: C_18  and  C_20 
REMARK    3  A    between atoms: C_20  and  N_54 
REMARK    4  A    between atoms: C_21  and  C_22 
REMARK    5  A    between atoms: C_21  and  N_54 
REMARK    6  A    between atoms: C_22  and  C_23 
REMARK    7  A    between atoms: C_23  and  O_24 
REMARK    8  A    between atoms: O_24  and  C_25 
ROOT
ATOM      1  C   LIG d   1       5.300  -0.689  -8.877  0.00  0.00    -0.023 C 
ATOM      2  C   LIG d   1       4.296  -1.568  -9.610  0.00  0.00    -0.047 C 
ATOM      3  C   LIG d   1       3.252  -0.724 -10.338  0.00  0.00    -0.050 C 
ATOM      4  C   LIG d   1       2.495   0.157  -9.344  0.00  0.00    -0.021 C 
ATOM      5  C   LIG d   1       3.483   0.974  -8.512  0.00  0.00     0.096 A 
ATOM      6  C   LIG d   1       4.591   0.163  -7.822  0.00  0.00    -0.004 C 
ATOM      7  H   LIG d   1       5.301   0.853  -7.357  0.00  0.00     0.034 H 
ATOM      8  C   LIG d   1       3.935  -0.734  -6.779  0.00  0.00    -0.040 C 
ATOM      9  C   LIG d   1       4.763  -1.853  -6.237  0.00  0.00     0.014 C 
ATOM     10  H   LIG d   1       4.043  -2.637  -5.897  0.00  0.00     0.035 H 
ATOM     11  C   LIG d   1       5.722  -2.537  -7.215  0.00  0.00     0.107 C 
ATOM     12  H   LIG d   1       5.217  -3.350  -7.768  0.00  0.00     0.074 H 
ATOM     13  C   LIG d   1       6.358  -1.544  -8.186  0.00  0.00    -0.010 C 
ATOM     14  O   LIG d   1       6.804  -3.054  -6.372  0.00  0.00    -0.461 OA
ATOM     15  C   LIG d   1       6.802  -2.497  -5.154  0.00  0.00     0.316 C 
ATOM     16  O   LIG d   1       7.602  -2.731  -4.273  0.00  0.00    -0.250 OA
ATOM     17  C   LIG d   1       5.643  -1.522  -5.028  0.00  0.00     0.102 C 
ATOM     18  H   LIG d   1       5.094  -1.723  -4.097  0.00  0.00     0.047 H 
ATOM     19  C   LIG d   1       3.775   2.413  -8.916  0.00  0.00     0.078 A 
ATOM     20  O   LIG d   1       2.959   2.092  -7.787  0.00  0.00    -0.368 OA
ATOM     21  H   LIG d   1       4.824  -2.193 -10.336  0.00  0.00     0.027 H 
ATOM     22  H   LIG d   1       3.791  -2.222  -8.894  0.00  0.00     0.027 H 
ATOM     23  H   LIG d   1       2.536  -1.394 -10.829  0.00  0.00     0.027 H 
ATOM     24  H   LIG d   1       3.716  -0.107 -11.104  0.00  0.00     0.027 H 
ATOM     25  H   LIG d   1       1.893  -0.470  -8.685  0.00  0.00     0.029 H 
ATOM     26  H   LIG d   1       1.834   0.835  -9.889  0.00  0.00     0.029 H 
ATOM     27  H   LIG d   1       3.581  -0.109  -5.950  0.00  0.00     0.027 H 
ATOM     28  H   LIG d   1       3.030  -1.171  -7.231  0.00  0.00     0.027 H 
ATOM     29  H   LIG d   1       7.047  -0.895  -7.652  0.00  0.00     0.031 H 
ATOM     30  H   LIG d   1       6.909  -2.097  -8.950  0.00  0.00     0.031 H 
ATOM     31  H   LIG d   1       4.770   2.812  -8.720  0.00  0.00     0.059 H 
ATOM     32  H   LIG d   1       3.277   2.808  -9.803  0.00  0.00     0.059 H 
ENDROOT
BRANCH  17  33
ATOM     33  C   LIG d   1       6.149  -0.082  -5.022  0.00  0.00    -0.020 C 
ATOM     34  H   LIG d   1       6.990   0.010  -5.709  0.00  0.00     0.082 H 
ATOM     35  H   LIG d   1       5.348   0.586  -5.338  0.00  0.00     0.082 H 
BRANCH  33  36
ATOM     36  N   LIG d   1       6.582   0.272  -3.658  0.00  0.00     0.228 N 
ATOM     37  H   LIG d   1       7.500   0.729  -3.701  0.00  0.00     0.201 HD
ATOM     38  H   LIG d   1       6.651  -0.583  -3.092  0.00  0.00     0.201 HD
BRANCH  36  39
ATOM     39  C   LIG d   1       5.610   1.189  -3.034  0.00  0.00    -0.032 C 
ATOM     40  H   LIG d   1       6.140   1.951  -2.462  0.00  0.00     0.081 H 
ATOM     41  H   LIG d   1       5.010   1.668  -3.808  0.00  0.00     0.081 H 
BRANCH  39  42
ATOM     42  C   LIG d   1       4.696   0.393  -2.101  0.00  0.00     0.011 C 
ATOM     43  H   LIG d   1       5.094  -0.615  -1.975  0.00  0.00     0.034 H 
ATOM     44  H   LIG d   1       4.647   0.888  -1.131  0.00  0.00     0.034 H 
BRANCH  42  45
ATOM     45  C   LIG d   1       3.292   0.314  -2.706  0.00  0.00     0.052 C 
ATOM     46  H   LIG d   1       2.587   0.835  -2.059  0.00  0.00     0.056 H 
ATOM     47  H   LIG d   1       3.295   0.781  -3.691  0.00  0.00     0.056 H 
BRANCH  45  48
ATOM     48  O   LIG d   1       2.903  -1.056  -2.831  0.00  0.00    -0.383 OA
BRANCH  48  49
ATOM     49  C   LIG d   1       3.813  -1.975  -2.225  0.00  0.00     0.036 C 
ATOM     50  H   LIG d   1       4.837  -1.654  -2.417  0.00  0.00     0.052 H 
ATOM     51  H   LIG d   1       3.638  -2.005  -1.149  0.00  0.00     0.052 H 
ATOM     52  H   LIG d   1       3.659  -2.969  -2.645  0.00  0.00     0.052 H 
ENDBRANCH  48  49
ENDBRANCH  45  48
ENDBRANCH  42  45
ENDBRANCH  39  42
ENDBRANCH  36  39
ENDBRANCH  33  36
ENDBRANCH  17  33
BRANCH   1  53
ATOM     53  C   LIG d   1       6.017   0.224  -9.877  0.00  0.00    -0.059 C 
ATOM     54  H   LIG d   1       6.246  -0.338 -10.783  0.00  0.00     0.024 H 
ATOM     55  H   LIG d   1       5.372   1.067 -10.127  0.00  0.00     0.024 H 
ATOM     56  H   LIG d   1       6.943   0.592  -9.435  0.00  0.00     0.024 H 
ENDBRANCH   1  53
TORSDOF 8
ENDMDL
