MODEL 1
REMARK VINA RESULT:      -6.4      0.000      0.000
REMARK  9 active torsions:
REMARK  status: ('A' for Active; 'I' for Inactive)
REMARK    1  A    between atoms: C_1  and  C_2 
REMARK    2  A    between atoms: C_6  and  O_26 
REMARK    3  A    between atoms: C_12  and  C_13 
REMARK    4  A    between atoms: C_13  and  C_14 
REMARK       I    between atoms: C_14  and  N_16 
REMARK    5  A    between atoms: N_16  and  C_17 
REMARK    6  A    between atoms: N_16  and  C_18 
REMARK    7  A    between atoms: O_26  and  C_27 
REMARK    8  A    between atoms: C_27  and  C_28 
REMARK    9  A    between atoms: C_28  and  C_30 
ROOT
ATOM      1  C   LIG d   1       9.554   3.430  -5.822  0.00  0.00    -0.029 A 
ATOM      2  C   LIG d   1       8.645   2.342  -5.453  0.00  0.00     0.021 A 
ATOM      3  C   LIG d   1       8.109   1.490  -6.426  0.00  0.00    -0.047 A 
ATOM      4  C   LIG d   1       7.261   0.488  -6.057  0.00  0.00    -0.019 A 
ATOM      5  C   LIG d   1       6.923   0.306  -4.716  0.00  0.00     0.124 A 
ATOM      6  C   LIG d   1       7.446   1.140  -3.740  0.00  0.00     0.023 A 
ATOM      7  C   LIG d   1       8.310   2.163  -4.099  0.00  0.00     0.143 A 
ATOM      8  O   LIG d   1       8.829   2.987  -3.163  0.00  0.00    -0.422 OA
ATOM      9  C   LIG d   1       9.666   3.983  -3.494  0.00  0.00     0.341 A 
ATOM     10  O   LIG d   1      10.110   4.701  -2.616  0.00  0.00    -0.245 OA
ATOM     11  C   LIG d   1      10.045   4.219  -4.831  0.00  0.00     0.049 A 
ATOM     12  H   LIG d   1       8.366   1.626  -7.467  0.00  0.00     0.063 H 
ATOM     13  H   LIG d   1       6.846  -0.170  -6.806  0.00  0.00     0.065 H 
ATOM     14  H   LIG d   1       7.180   0.992  -2.704  0.00  0.00     0.069 H 
ENDROOT
BRANCH  11  15
ATOM     15  C   LIG d   1      10.987   5.348  -5.162  0.00  0.00     0.056 C 
ATOM     16  H   LIG d   1      11.447   5.163  -6.133  0.00  0.00     0.041 H 
ATOM     17  H   LIG d   1      11.761   5.411  -4.399  0.00  0.00     0.041 H 
BRANCH  15  18
ATOM     18  C   LIG d   1      10.220   6.644  -5.208  0.00  0.00     0.220 C 
ATOM     19  O   LIG d   1       9.187   6.715  -5.839  0.00  0.00    -0.275 OA
ATOM     20  N   LIG d   1      10.681   7.724  -4.547  0.00  0.00    -0.300 N 
BRANCH  20  21
ATOM     21  C   LIG d   1      11.929   7.638  -3.785  0.00  0.00     0.004 C 
ATOM     22  H   LIG d   1      12.108   8.583  -3.273  0.00  0.00     0.043 H 
ATOM     23  H   LIG d   1      11.852   6.836  -3.051  0.00  0.00     0.043 H 
ATOM     24  H   LIG d   1      12.756   7.430  -4.463  0.00  0.00     0.043 H 
ENDBRANCH  20  21
BRANCH  20  25
ATOM     25  C   LIG d   1       9.936   8.984  -4.592  0.00  0.00     0.046 C 
ATOM     26  H   LIG d   1       8.903   8.791  -4.884  0.00  0.00     0.052 H 
ATOM     27  C   LIG d   1       9.967   9.663  -3.193  0.00  0.00     0.084 C 
ATOM     28  S   LIG d   1       9.546  11.397  -3.650  0.00  0.00    -0.029 S 
ATOM     29  H   LIG d   1       9.214   9.236  -2.530  0.00  0.00     0.052 H 
ATOM     30  H   LIG d   1      10.961   9.603  -2.748  0.00  0.00     0.052 H 
ATOM     31  C   LIG d   1      10.017  11.367  -5.426  0.00  0.00     0.068 C 
ATOM     32  O   LIG d   1       8.140  11.574  -3.548  0.00  0.00    -0.174 OA
ATOM     33  O   LIG d   1      10.415  12.282  -2.955  0.00  0.00    -0.174 OA
ATOM     34  C   LIG d   1      10.590   9.940  -5.603  0.00  0.00    -0.013 C 
ATOM     35  H   LIG d   1      10.778  12.118  -5.636  0.00  0.00     0.050 H 
ATOM     36  H   LIG d   1       9.142  11.513  -6.060  0.00  0.00     0.050 H 
ATOM     37  H   LIG d   1      11.667   9.960  -5.437  0.00  0.00     0.030 H 
ATOM     38  H   LIG d   1      10.386   9.591  -6.615  0.00  0.00     0.030 H 
ENDBRANCH  20  25
ENDBRANCH  15  18
ENDBRANCH  11  15
BRANCH   1  39
ATOM     39  C   LIG d   1       9.937   3.664  -7.261  0.00  0.00    -0.038 C 
ATOM     40  H   LIG d   1      10.591   4.534  -7.325  0.00  0.00     0.028 H 
ATOM     41  H   LIG d   1      10.458   2.787  -7.645  0.00  0.00     0.028 H 
ATOM     42  H   LIG d   1       9.039   3.841  -7.852  0.00  0.00     0.028 H 
ENDBRANCH   1  39
BRANCH   5  43
ATOM     43  O   LIG d   1       6.078  -0.696  -4.364  0.00  0.00    -0.488 OA
BRANCH  43  44
ATOM     44  C   LIG d   1       6.122  -1.136  -3.005  0.00  0.00     0.110 C 
ATOM     45  H   LIG d   1       6.392  -2.192  -2.974  0.00  0.00     0.074 H 
ATOM     46  H   LIG d   1       6.864  -0.553  -2.459  0.00  0.00     0.074 H 
BRANCH  44  47
ATOM     47  C   LIG d   1       4.768  -0.945  -2.372  0.00  0.00    -0.043 C 
ATOM     48  C   LIG d   1       3.945  -1.959  -2.268  0.00  0.00    -0.097 C 
ATOM     49  H   LIG d   1       2.975  -1.822  -1.814  0.00  0.00     0.053 H 
ATOM     50  H   LIG d   1       4.238  -2.931  -2.636  0.00  0.00     0.053 H 
BRANCH  47  51
ATOM     51  C   LIG d   1       4.360   0.412  -1.859  0.00  0.00    -0.041 C 
ATOM     52  H   LIG d   1       4.677   0.520  -0.821  0.00  0.00     0.028 H 
ATOM     53  H   LIG d   1       4.830   1.186  -2.466  0.00  0.00     0.028 H 
ATOM     54  H   LIG d   1       3.276   0.512  -1.920  0.00  0.00     0.028 H 
ENDBRANCH  47  51
ENDBRANCH  44  47
ENDBRANCH  43  44
ENDBRANCH   5  43
TORSDOF 9
ENDMDL
MODEL 2
REMARK VINA RESULT:      -6.0      9.086     13.879
REMARK  9 active torsions:
REMARK  status: ('A' for Active; 'I' for Inactive)
REMARK    1  A    between atoms: C_1  and  C_2 
REMARK    2  A    between atoms: C_6  and  O_26 
REMARK    3  A    between atoms: C_12  and  C_13 
REMARK    4  A    between atoms: C_13  and  C_14 
REMARK       I    between atoms: C_14  and  N_16 
REMARK    5  A    between atoms: N_16  and  C_17 
REMARK    6  A    between atoms: N_16  and  C_18 
REMARK    7  A    between atoms: O_26  and  C_27 
REMARK    8  A    between atoms: C_27  and  C_28 
REMARK    9  A    between atoms: C_28  and  C_30 
ROOT
ATOM      1  C   LIG d   1       2.534  -1.945  -9.571  0.00  0.00    -0.029 A 
ATOM      2  C   LIG d   1       3.021  -1.339  -8.330  0.00  0.00     0.021 A 
ATOM      3  C   LIG d   1       2.467  -0.149  -7.843  0.00  0.00    -0.047 A 
ATOM      4  C   LIG d   1       2.943   0.397  -6.687  0.00  0.00    -0.019 A 
ATOM      5  C   LIG d   1       3.978  -0.222  -5.987  0.00  0.00     0.124 A 
ATOM      6  C   LIG d   1       4.537  -1.400  -6.454  0.00  0.00     0.023 A 
ATOM      7  C   LIG d   1       4.065  -1.969  -7.627  0.00  0.00     0.143 A 
ATOM      8  O   LIG d   1       4.597  -3.117  -8.100  0.00  0.00    -0.422 OA
ATOM      9  C   LIG d   1       4.152  -3.680  -9.234  0.00  0.00     0.341 A 
ATOM     10  O   LIG d   1       4.662  -4.716  -9.622  0.00  0.00    -0.245 OA
ATOM     11  C   LIG d   1       3.109  -3.103  -9.988  0.00  0.00     0.049 A 
ATOM     12  H   LIG d   1       1.666   0.335  -8.382  0.00  0.00     0.063 H 
ATOM     13  H   LIG d   1       2.517   1.316  -6.312  0.00  0.00     0.065 H 
ATOM     14  H   LIG d   1       5.338  -1.874  -5.906  0.00  0.00     0.069 H 
ENDROOT
BRANCH  11  15
ATOM     15  C   LIG d   1       2.638  -3.766 -11.257  0.00  0.00     0.056 C 
ATOM     16  H   LIG d   1       3.467  -4.309 -11.712  0.00  0.00     0.041 H 
ATOM     17  H   LIG d   1       2.275  -3.008 -11.950  0.00  0.00     0.041 H 
BRANCH  15  18
ATOM     18  C   LIG d   1       1.523  -4.728 -10.936  0.00  0.00     0.220 C 
ATOM     19  O   LIG d   1       1.658  -5.537 -10.043  0.00  0.00    -0.275 OA
ATOM     20  N   LIG d   1       0.375  -4.689 -11.642  0.00  0.00    -0.300 N 
BRANCH  20  21
ATOM     21  C   LIG d   1       0.212  -3.711 -12.721  0.00  0.00     0.004 C 
ATOM     22  H   LIG d   1      -0.168  -2.777 -12.309  0.00  0.00     0.043 H 
ATOM     23  H   LIG d   1       1.175  -3.533 -13.198  0.00  0.00     0.043 H 
ATOM     24  H   LIG d   1      -0.492  -4.098 -13.457  0.00  0.00     0.043 H 
ENDBRANCH  20  21
BRANCH  20  25
ATOM     25  C   LIG d   1      -0.708  -5.624 -11.330  0.00  0.00     0.046 C 
ATOM     26  H   LIG d   1      -0.294  -6.542 -10.912  0.00  0.00     0.052 H 
ATOM     27  C   LIG d   1      -1.685  -4.975 -10.308  0.00  0.00     0.084 C 
ATOM     28  S   LIG d   1      -3.181  -6.020 -10.560  0.00  0.00    -0.029 S 
ATOM     29  H   LIG d   1      -1.307  -5.066  -9.289  0.00  0.00     0.052 H 
ATOM     30  H   LIG d   1      -1.885  -3.933 -10.560  0.00  0.00     0.052 H 
ATOM     31  C   LIG d   1      -2.821  -6.667 -12.243  0.00  0.00     0.068 C 
ATOM     32  O   LIG d   1      -3.153  -7.099  -9.636  0.00  0.00    -0.174 OA
ATOM     33  O   LIG d   1      -4.326  -5.180 -10.622  0.00  0.00    -0.174 OA
ATOM     34  C   LIG d   1      -1.499  -5.948 -12.608  0.00  0.00    -0.013 C 
ATOM     35  H   LIG d   1      -3.614  -6.395 -12.939  0.00  0.00     0.050 H 
ATOM     36  H   LIG d   1      -2.679  -7.747 -12.219  0.00  0.00     0.050 H 
ATOM     37  H   LIG d   1      -1.725  -5.023 -13.138  0.00  0.00     0.030 H 
ATOM     38  H   LIG d   1      -0.901  -6.596 -13.249  0.00  0.00     0.030 H 
ENDBRANCH  20  25
ENDBRANCH  15  18
ENDBRANCH  11  15
BRANCH   1  39
ATOM     39  C   LIG d   1       1.423  -1.304 -10.361  0.00  0.00    -0.038 C 
ATOM     40  H   LIG d   1       1.789  -0.388 -10.826  0.00  0.00     0.028 H 
ATOM     41  H   LIG d   1       1.082  -1.993 -11.134  0.00  0.00     0.028 H 
ATOM     42  H   LIG d   1       0.594  -1.066  -9.695  0.00  0.00     0.028 H 
ENDBRANCH   1  39
BRANCH   5  43
ATOM     43  O   LIG d   1       4.440   0.335  -4.838  0.00  0.00    -0.488 OA
BRANCH  43  44
ATOM     44  C   LIG d   1       3.499   0.514  -3.779  0.00  0.00     0.110 C 
ATOM     45  H   LIG d   1       3.330   1.580  -3.620  0.00  0.00     0.074 H 
ATOM     46  H   LIG d   1       2.557   0.032  -4.044  0.00  0.00     0.074 H 
BRANCH  44  47
ATOM     47  C   LIG d   1       4.040  -0.102  -2.515  0.00  0.00    -0.043 C 
ATOM     48  C   LIG d   1       4.594   0.656  -1.602  0.00  0.00    -0.097 C 
ATOM     49  H   LIG d   1       4.982   0.215  -0.696  0.00  0.00     0.053 H 
ATOM     50  H   LIG d   1       4.661   1.724  -1.755  0.00  0.00     0.053 H 
BRANCH  47  51
ATOM     51  C   LIG d   1       3.947  -1.591  -2.303  0.00  0.00    -0.041 C 
ATOM     52  H   LIG d   1       2.899  -1.890  -2.274  0.00  0.00     0.028 H 
ATOM     53  H   LIG d   1       4.450  -2.107  -3.120  0.00  0.00     0.028 H 
ATOM     54  H   LIG d   1       4.426  -1.853  -1.359  0.00  0.00     0.028 H 
ENDBRANCH  47  51
ENDBRANCH  44  47
ENDBRANCH  43  44
ENDBRANCH   5  43
TORSDOF 9
ENDMDL
MODEL 3
REMARK VINA RESULT:      -5.7      8.901     13.027
REMARK  9 active torsions:
REMARK  status: ('A' for Active; 'I' for Inactive)
REMARK    1  A    between atoms: C_1  and  C_2 
REMARK    2  A    between atoms: C_6  and  O_26 
REMARK    3  A    between atoms: C_12  and  C_13 
REMARK    4  A    between atoms: C_13  and  C_14 
REMARK       I    between atoms: C_14  and  N_16 
REMARK    5  A    between atoms: N_16  and  C_17 
REMARK    6  A    between atoms: N_16  and  C_18 
REMARK    7  A    between atoms: O_26  and  C_27 
REMARK    8  A    between atoms: C_27  and  C_28 
REMARK    9  A    between atoms: C_28  and  C_30 
ROOT
ATOM      1  C   LIG d   1       8.089  -5.504  -4.801  0.00  0.00    -0.029 A 
ATOM      2  C   LIG d   1       7.448  -4.188  -4.752  0.00  0.00     0.021 A 
ATOM      3  C   LIG d   1       6.259  -3.940  -5.450  0.00  0.00    -0.047 A 
ATOM      4  C   LIG d   1       5.685  -2.704  -5.393  0.00  0.00    -0.019 A 
ATOM      5  C   LIG d   1       6.274  -1.686  -4.644  0.00  0.00     0.124 A 
ATOM      6  C   LIG d   1       7.449  -1.915  -3.947  0.00  0.00     0.023 A 
ATOM      7  C   LIG d   1       8.046  -3.166  -3.994  0.00  0.00     0.143 A 
ATOM      8  O   LIG d   1       9.192  -3.409  -3.323  0.00  0.00    -0.422 OA
ATOM      9  C   LIG d   1       9.783  -4.614  -3.359  0.00  0.00     0.341 A 
ATOM     10  O   LIG d   1      10.816  -4.787  -2.737  0.00  0.00    -0.245 OA
ATOM     11  C   LIG d   1       9.237  -5.684  -4.097  0.00  0.00     0.049 A 
ATOM     12  H   LIG d   1       5.799  -4.725  -6.032  0.00  0.00     0.063 H 
ATOM     13  H   LIG d   1       4.769  -2.511  -5.931  0.00  0.00     0.065 H 
ATOM     14  H   LIG d   1       7.899  -1.121  -3.369  0.00  0.00     0.069 H 
ENDROOT
BRANCH  11  15
ATOM     15  C   LIG d   1       9.931  -7.022  -4.113  0.00  0.00     0.056 C 
ATOM     16  H   LIG d   1      10.998  -6.876  -4.286  0.00  0.00     0.041 H 
ATOM     17  H   LIG d   1       9.515  -7.638  -4.909  0.00  0.00     0.041 H 
BRANCH  15  18
ATOM     18  C   LIG d   1       9.726  -7.709  -2.788  0.00  0.00     0.220 C 
ATOM     19  O   LIG d   1       8.607  -7.851  -2.345  0.00  0.00    -0.275 OA
ATOM     20  N   LIG d   1      10.788  -8.166  -2.095  0.00  0.00    -0.300 N 
BRANCH  20  21
ATOM     21  C   LIG d   1      12.141  -7.995  -2.630  0.00  0.00     0.004 C 
ATOM     22  H   LIG d   1      12.107  -8.022  -3.719  0.00  0.00     0.043 H 
ATOM     23  H   LIG d   1      12.543  -7.037  -2.303  0.00  0.00     0.043 H 
ATOM     24  H   LIG d   1      12.779  -8.799  -2.266  0.00  0.00     0.043 H 
ENDBRANCH  20  21
BRANCH  20  25
ATOM     25  C   LIG d   1      10.589  -8.834  -0.807  0.00  0.00     0.046 C 
ATOM     26  H   LIG d   1       9.524  -8.993  -0.634  0.00  0.00     0.052 H 
ATOM     27  C   LIG d   1      11.330 -10.202  -0.804  0.00  0.00     0.084 C 
ATOM     28  S   LIG d   1      11.451 -10.517   1.008  0.00  0.00    -0.029 S 
ATOM     29  H   LIG d   1      10.738 -10.972  -1.299  0.00  0.00     0.052 H 
ATOM     30  H   LIG d   1      12.319 -10.116  -1.256  0.00  0.00     0.052 H 
ATOM     31  C   LIG d   1      11.260  -8.798   1.629  0.00  0.00     0.068 C 
ATOM     32  O   LIG d   1      10.328 -11.284   1.420  0.00  0.00    -0.174 OA
ATOM     33  O   LIG d   1      12.761 -10.976   1.310  0.00  0.00    -0.174 OA
ATOM     34  C   LIG d   1      11.174  -7.971   0.323  0.00  0.00    -0.013 C 
ATOM     35  H   LIG d   1      12.128  -8.502   2.217  0.00  0.00     0.050 H 
ATOM     36  H   LIG d   1      10.344  -8.696   2.211  0.00  0.00     0.050 H 
ATOM     37  H   LIG d   1      12.172  -7.635   0.041  0.00  0.00     0.030 H 
ATOM     38  H   LIG d   1      10.533  -7.105   0.484  0.00  0.00     0.030 H 
ENDBRANCH  20  25
ENDBRANCH  15  18
ENDBRANCH  11  15
BRANCH   1  39
ATOM     39  C   LIG d   1       7.489  -6.629  -5.604  0.00  0.00    -0.038 C 
ATOM     40  H   LIG d   1       6.412  -6.662  -5.435  0.00  0.00     0.028 H 
ATOM     41  H   LIG d   1       7.686  -6.464  -6.664  0.00  0.00     0.028 H 
ATOM     42  H   LIG d   1       7.934  -7.574  -5.295  0.00  0.00     0.028 H 
ENDBRANCH   1  39
BRANCH   5  43
ATOM     43  O   LIG d   1       5.690  -0.461  -4.596  0.00  0.00    -0.488 OA
BRANCH  43  44
ATOM     44  C   LIG d   1       4.320  -0.410  -4.197  0.00  0.00     0.110 C 
ATOM     45  H   LIG d   1       3.914   0.578  -4.418  0.00  0.00     0.074 H 
ATOM     46  H   LIG d   1       3.755  -1.166  -4.742  0.00  0.00     0.074 H 
BRANCH  44  47
ATOM     47  C   LIG d   1       4.217  -0.675  -2.717  0.00  0.00    -0.043 C 
ATOM     48  C   LIG d   1       4.494   0.276  -1.861  0.00  0.00    -0.097 C 
ATOM     49  H   LIG d   1       4.420   0.087  -0.800  0.00  0.00     0.053 H 
ATOM     50  H   LIG d   1       4.794   1.252  -2.216  0.00  0.00     0.053 H 
BRANCH  47  51
ATOM     51  C   LIG d   1       3.799  -2.036  -2.223  0.00  0.00    -0.041 C 
ATOM     52  H   LIG d   1       3.641  -2.699  -3.074  0.00  0.00     0.028 H 
ATOM     53  H   LIG d   1       4.579  -2.445  -1.582  0.00  0.00     0.028 H 
ATOM     54  H   LIG d   1       2.873  -1.946  -1.656  0.00  0.00     0.028 H 
ENDBRANCH  47  51
ENDBRANCH  44  47
ENDBRANCH  43  44
ENDBRANCH   5  43
TORSDOF 9
ENDMDL
MODEL 4
REMARK VINA RESULT:      -5.7      1.730      1.872
REMARK  9 active torsions:
REMARK  status: ('A' for Active; 'I' for Inactive)
REMARK    1  A    between atoms: C_1  and  C_2 
REMARK    2  A    between atoms: C_6  and  O_26 
REMARK    3  A    between atoms: C_12  and  C_13 
REMARK    4  A    between atoms: C_13  and  C_14 
REMARK       I    between atoms: C_14  and  N_16 
REMARK    5  A    between atoms: N_16  and  C_17 
REMARK    6  A    between atoms: N_16  and  C_18 
REMARK    7  A    between atoms: O_26  and  C_27 
REMARK    8  A    between atoms: C_27  and  C_28 
REMARK    9  A    between atoms: C_28  and  C_30 
ROOT
ATOM      1  C   LIG d   1       9.404   3.212  -5.874  0.00  0.00    -0.029 A 
ATOM      2  C   LIG d   1       8.536   2.042  -5.719  0.00  0.00     0.021 A 
ATOM      3  C   LIG d   1       7.876   1.485  -6.820  0.00  0.00    -0.047 A 
ATOM      4  C   LIG d   1       7.068   0.399  -6.648  0.00  0.00    -0.019 A 
ATOM      5  C   LIG d   1       6.896  -0.160  -5.382  0.00  0.00     0.124 A 
ATOM      6  C   LIG d   1       7.543   0.379  -4.282  0.00  0.00     0.023 A 
ATOM      7  C   LIG d   1       8.368   1.482  -4.440  0.00  0.00     0.143 A 
ATOM      8  O   LIG d   1       9.007   2.023  -3.379  0.00  0.00    -0.422 OA
ATOM      9  C   LIG d   1       9.808   3.092  -3.515  0.00  0.00     0.341 A 
ATOM     10  O   LIG d   1      10.364   3.545  -2.531  0.00  0.00    -0.245 OA
ATOM     11  C   LIG d   1      10.022   3.702  -4.768  0.00  0.00     0.049 A 
ATOM     12  H   LIG d   1       8.004   1.914  -7.803  0.00  0.00     0.063 H 
ATOM     13  H   LIG d   1       6.557  -0.031  -7.497  0.00  0.00     0.065 H 
ATOM     14  H   LIG d   1       7.406  -0.060  -3.305  0.00  0.00     0.069 H 
ENDROOT
BRANCH  11  15
ATOM     15  C   LIG d   1      10.929   4.901  -4.879  0.00  0.00     0.056 C 
ATOM     16  H   LIG d   1      11.143   5.098  -5.930  0.00  0.00     0.041 H 
ATOM     17  H   LIG d   1      11.860   4.703  -4.349  0.00  0.00     0.041 H 
BRANCH  15  18
ATOM     18  C   LIG d   1      10.250   6.101  -4.271  0.00  0.00     0.220 C 
ATOM     19  O   LIG d   1       9.121   6.392  -4.603  0.00  0.00    -0.275 OA
ATOM     20  N   LIG d   1      10.898   6.851  -3.357  0.00  0.00    -0.300 N 
BRANCH  20  21
ATOM     21  C   LIG d   1      12.262   6.499  -2.955  0.00  0.00     0.004 C 
ATOM     22  H   LIG d   1      12.291   5.456  -2.642  0.00  0.00     0.043 H 
ATOM     23  H   LIG d   1      12.938   6.644  -3.797  0.00  0.00     0.043 H 
ATOM     24  H   LIG d   1      12.572   7.136  -2.128  0.00  0.00     0.043 H 
ENDBRANCH  20  21
BRANCH  20  25
ATOM     25  C   LIG d   1      10.238   8.018  -2.766  0.00  0.00     0.046 C 
ATOM     26  H   LIG d   1       9.285   8.194  -3.266  0.00  0.00     0.052 H 
ATOM     27  C   LIG d   1       9.997   7.773  -1.249  0.00  0.00     0.084 C 
ATOM     28  S   LIG d   1       9.765   9.503  -0.660  0.00  0.00    -0.029 S 
ATOM     29  H   LIG d   1       9.100   7.176  -1.083  0.00  0.00     0.052 H 
ATOM     30  H   LIG d   1      10.868   7.311  -0.781  0.00  0.00     0.052 H 
ATOM     31  C   LIG d   1      10.607  10.404  -2.023  0.00  0.00     0.068 C 
ATOM     32  O   LIG d   1       8.380   9.818  -0.685  0.00  0.00    -0.174 OA
ATOM     33  O   LIG d   1      10.503   9.685   0.541  0.00  0.00    -0.174 OA
ATOM     34  C   LIG d   1      11.138   9.255  -2.914  0.00  0.00    -0.013 C 
ATOM     35  H   LIG d   1      11.429  11.006  -1.638  0.00  0.00     0.050 H 
ATOM     36  H   LIG d   1       9.897  11.022  -2.574  0.00  0.00     0.050 H 
ATOM     37  H   LIG d   1      12.154   9.001  -2.610  0.00  0.00     0.030 H 
ATOM     38  H   LIG d   1      11.142   9.576  -3.956  0.00  0.00     0.030 H 
ENDBRANCH  20  25
ENDBRANCH  15  18
ENDBRANCH  11  15
BRANCH   1  39
ATOM     39  C   LIG d   1       9.611   3.849  -7.223  0.00  0.00    -0.038 C 
ATOM     40  H   LIG d   1      10.651   4.161  -7.323  0.00  0.00     0.028 H 
ATOM     41  H   LIG d   1       9.370   3.130  -8.006  0.00  0.00     0.028 H 
ATOM     42  H   LIG d   1       8.961   4.719  -7.317  0.00  0.00     0.028 H 
ENDBRANCH   1  39
BRANCH   5  43
ATOM     43  O   LIG d   1       6.089  -1.241  -5.227  0.00  0.00    -0.488 OA
BRANCH  43  44
ATOM     44  C   LIG d   1       5.964  -1.773  -3.908  0.00  0.00     0.110 C 
ATOM     45  H   LIG d   1       6.100  -2.855  -3.938  0.00  0.00     0.074 H 
ATOM     46  H   LIG d   1       6.723  -1.329  -3.263  0.00  0.00     0.074 H 
BRANCH  44  47
ATOM     47  C   LIG d   1       4.595  -1.454  -3.365  0.00  0.00    -0.043 C 
ATOM     48  C   LIG d   1       3.648  -1.048  -4.174  0.00  0.00    -0.097 C 
ATOM     49  H   LIG d   1       2.666  -0.820  -3.785  0.00  0.00     0.053 H 
ATOM     50  H   LIG d   1       3.849  -0.943  -5.230  0.00  0.00     0.053 H 
BRANCH  47  51
ATOM     51  C   LIG d   1       4.315  -1.601  -1.892  0.00  0.00    -0.041 C 
ATOM     52  H   LIG d   1       3.267  -1.372  -1.695  0.00  0.00     0.028 H 
ATOM     53  H   LIG d   1       4.528  -2.623  -1.581  0.00  0.00     0.028 H 
ATOM     54  H   LIG d   1       4.948  -0.912  -1.332  0.00  0.00     0.028 H 
ENDBRANCH  47  51
ENDBRANCH  44  47
ENDBRANCH  43  44
ENDBRANCH   5  43
TORSDOF 9
ENDMDL
MODEL 5
REMARK VINA RESULT:      -5.7      8.741     13.276
REMARK  9 active torsions:
REMARK  status: ('A' for Active; 'I' for Inactive)
REMARK    1  A    between atoms: C_1  and  C_2 
REMARK    2  A    between atoms: C_6  and  O_26 
REMARK    3  A    between atoms: C_12  and  C_13 
REMARK    4  A    between atoms: C_13  and  C_14 
REMARK       I    between atoms: C_14  and  N_16 
REMARK    5  A    between atoms: N_16  and  C_17 
REMARK    6  A    between atoms: N_16  and  C_18 
REMARK    7  A    between atoms: O_26  and  C_27 
REMARK    8  A    between atoms: C_27  and  C_28 
REMARK    9  A    between atoms: C_28  and  C_30 
ROOT
ATOM      1  C   LIG d   1       7.521  -4.985  -5.055  0.00  0.00    -0.029 A 
ATOM      2  C   LIG d   1       6.882  -3.670  -4.957  0.00  0.00     0.021 A 
ATOM      3  C   LIG d   1       5.571  -3.472  -5.406  0.00  0.00    -0.047 A 
ATOM      4  C   LIG d   1       5.001  -2.236  -5.308  0.00  0.00    -0.019 A 
ATOM      5  C   LIG d   1       5.715  -1.169  -4.764  0.00  0.00     0.124 A 
ATOM      6  C   LIG d   1       7.014  -1.349  -4.315  0.00  0.00     0.023 A 
ATOM      7  C   LIG d   1       7.608  -2.599  -4.406  0.00  0.00     0.143 A 
ATOM      8  O   LIG d   1       8.873  -2.794  -3.975  0.00  0.00    -0.422 OA
ATOM      9  C   LIG d   1       9.463  -3.997  -4.057  0.00  0.00     0.341 A 
ATOM     10  O   LIG d   1      10.605  -4.126  -3.655  0.00  0.00    -0.245 OA
ATOM     11  C   LIG d   1       8.793  -5.115  -4.597  0.00  0.00     0.049 A 
ATOM     12  H   LIG d   1       5.013  -4.294  -5.829  0.00  0.00     0.063 H 
ATOM     13  H   LIG d   1       3.990  -2.082  -5.655  0.00  0.00     0.065 H 
ATOM     14  H   LIG d   1       7.560  -0.518  -3.894  0.00  0.00     0.069 H 
ENDROOT
BRANCH  11  15
ATOM     15  C   LIG d   1       9.491  -6.449  -4.673  0.00  0.00     0.056 C 
ATOM     16  H   LIG d   1      10.570  -6.295  -4.669  0.00  0.00     0.041 H 
ATOM     17  H   LIG d   1       9.199  -6.959  -5.589  0.00  0.00     0.041 H 
BRANCH  15  18
ATOM     18  C   LIG d   1       9.099  -7.288  -3.484  0.00  0.00     0.220 C 
ATOM     19  O   LIG d   1       9.147  -6.817  -2.368  0.00  0.00    -0.275 OA
ATOM     20  N   LIG d   1       8.695  -8.561  -3.661  0.00  0.00    -0.300 N 
BRANCH  20  21
ATOM     21  C   LIG d   1       8.637  -9.130  -5.010  0.00  0.00     0.004 C 
ATOM     22  H   LIG d   1       8.399  -8.344  -5.726  0.00  0.00     0.043 H 
ATOM     23  H   LIG d   1       9.602  -9.570  -5.261  0.00  0.00     0.043 H 
ATOM     24  H   LIG d   1       7.868  -9.900  -5.046  0.00  0.00     0.043 H 
ENDBRANCH  20  21
BRANCH  20  25
ATOM     25  C   LIG d   1       8.315  -9.377  -2.506  0.00  0.00     0.046 C 
ATOM     26  H   LIG d   1       8.030  -8.730  -1.676  0.00  0.00     0.052 H 
ATOM     27  C   LIG d   1       7.122 -10.300  -2.884  0.00  0.00     0.084 C 
ATOM     28  S   LIG d   1       7.251 -11.577  -1.562  0.00  0.00    -0.029 S 
ATOM     29  H   LIG d   1       6.174  -9.765  -2.824  0.00  0.00     0.052 H 
ATOM     30  H   LIG d   1       7.262 -10.740  -3.872  0.00  0.00     0.052 H 
ATOM     31  C   LIG d   1       9.012 -11.349  -1.090  0.00  0.00     0.068 C 
ATOM     32  O   LIG d   1       6.427 -11.197  -0.470  0.00  0.00    -0.174 OA
ATOM     33  O   LIG d   1       7.091 -12.863  -2.146  0.00  0.00    -0.174 OA
ATOM     34  C   LIG d   1       9.495 -10.268  -2.087  0.00  0.00    -0.013 C 
ATOM     35  H   LIG d   1       9.571 -12.275  -1.224  0.00  0.00     0.050 H 
ATOM     36  H   LIG d   1       9.094 -10.992  -0.063  0.00  0.00     0.050 H 
ATOM     37  H   LIG d   1       9.915 -10.751  -2.969  0.00  0.00     0.030 H 
ATOM     38  H   LIG d   1      10.261  -9.654  -1.611  0.00  0.00     0.030 H 
ENDBRANCH  20  25
ENDBRANCH  15  18
ENDBRANCH  11  15
BRANCH   1  39
ATOM     39  C   LIG d   1       6.786  -6.161  -5.643  0.00  0.00    -0.038 C 
ATOM     40  H   LIG d   1       5.769  -6.186  -5.252  0.00  0.00     0.028 H 
ATOM     41  H   LIG d   1       6.755  -6.065  -6.729  0.00  0.00     0.028 H 
ATOM     42  H   LIG d   1       7.301  -7.083  -5.374  0.00  0.00     0.028 H 
ENDBRANCH   1  39
BRANCH   5  43
ATOM     43  O   LIG d   1       5.134   0.054  -4.674  0.00  0.00    -0.488 OA
BRANCH  43  44
ATOM     44  C   LIG d   1       3.928   0.145  -3.913  0.00  0.00     0.110 C 
ATOM     45  H   LIG d   1       3.475   1.125  -4.068  0.00  0.00     0.074 H 
ATOM     46  H   LIG d   1       3.235  -0.632  -4.237  0.00  0.00     0.074 H 
BRANCH  44  47
ATOM     47  C   LIG d   1       4.241  -0.038  -2.451  0.00  0.00    -0.043 C 
ATOM     48  C   LIG d   1       4.547   0.999  -1.712  0.00  0.00    -0.097 C 
ATOM     49  H   LIG d   1       4.771   0.867  -0.663  0.00  0.00     0.053 H 
ATOM     50  H   LIG d   1       4.573   1.986  -2.150  0.00  0.00     0.053 H 
BRANCH  47  51
ATOM     51  C   LIG d   1       4.206  -1.415  -1.839  0.00  0.00    -0.041 C 
ATOM     52  H   LIG d   1       4.501  -1.355  -0.791  0.00  0.00     0.028 H 
ATOM     53  H   LIG d   1       3.196  -1.819  -1.911  0.00  0.00     0.028 H 
ATOM     54  H   LIG d   1       4.896  -2.067  -2.374  0.00  0.00     0.028 H 
ENDBRANCH  47  51
ENDBRANCH  44  47
ENDBRANCH  43  44
ENDBRANCH   5  43
TORSDOF 9
ENDMDL
MODEL 6
REMARK VINA RESULT:      -5.6      8.653     11.606
REMARK  9 active torsions:
REMARK  status: ('A' for Active; 'I' for Inactive)
REMARK    1  A    between atoms: C_1  and  C_2 
REMARK    2  A    between atoms: C_6  and  O_26 
REMARK    3  A    between atoms: C_12  and  C_13 
REMARK    4  A    between atoms: C_13  and  C_14 
REMARK       I    between atoms: C_14  and  N_16 
REMARK    5  A    between atoms: N_16  and  C_17 
REMARK    6  A    between atoms: N_16  and  C_18 
REMARK    7  A    between atoms: O_26  and  C_27 
REMARK    8  A    between atoms: C_27  and  C_28 
REMARK    9  A    between atoms: C_28  and  C_30 
ROOT
ATOM      1  C   LIG d   1       4.166  -1.792  -9.759  0.00  0.00    -0.029 A 
ATOM      2  C   LIG d   1       4.023  -1.208  -8.423  0.00  0.00     0.021 A 
ATOM      3  C   LIG d   1       5.029  -1.355  -7.461  0.00  0.00    -0.047 A 
ATOM      4  C   LIG d   1       4.868  -0.807  -6.222  0.00  0.00    -0.019 A 
ATOM      5  C   LIG d   1       3.708  -0.101  -5.907  0.00  0.00     0.124 A 
ATOM      6  C   LIG d   1       2.703   0.055  -6.848  0.00  0.00     0.023 A 
ATOM      7  C   LIG d   1       2.850  -0.496  -8.112  0.00  0.00     0.143 A 
ATOM      8  O   LIG d   1       1.881  -0.356  -9.042  0.00  0.00    -0.422 OA
ATOM      9  C   LIG d   1       2.008  -0.884 -10.271  0.00  0.00     0.341 A 
ATOM     10  O   LIG d   1       1.109  -0.732 -11.077  0.00  0.00    -0.245 OA
ATOM     11  C   LIG d   1       3.157  -1.609 -10.650  0.00  0.00     0.049 A 
ATOM     12  H   LIG d   1       5.930  -1.902  -7.699  0.00  0.00     0.063 H 
ATOM     13  H   LIG d   1       5.644  -0.920  -5.479  0.00  0.00     0.065 H 
ATOM     14  H   LIG d   1       1.807   0.604  -6.597  0.00  0.00     0.069 H 
ENDROOT
BRANCH  11  15
ATOM     15  C   LIG d   1       3.261  -2.187 -12.038  0.00  0.00     0.056 C 
ATOM     16  H   LIG d   1       2.272  -2.491 -12.380  0.00  0.00     0.041 H 
ATOM     17  H   LIG d   1       3.922  -3.052 -12.023  0.00  0.00     0.041 H 
BRANCH  15  18
ATOM     18  C   LIG d   1       3.818  -1.146 -12.974  0.00  0.00     0.220 C 
ATOM     19  O   LIG d   1       4.258  -0.105 -12.532  0.00  0.00    -0.275 OA
ATOM     20  N   LIG d   1       3.829  -1.370 -14.303  0.00  0.00    -0.300 N 
BRANCH  20  21
ATOM     21  C   LIG d   1       3.298  -2.627 -14.837  0.00  0.00     0.004 C 
ATOM     22  H   LIG d   1       2.236  -2.700 -14.606  0.00  0.00     0.043 H 
ATOM     23  H   LIG d   1       3.438  -2.650 -15.917  0.00  0.00     0.043 H 
ATOM     24  H   LIG d   1       3.827  -3.465 -14.385  0.00  0.00     0.043 H 
ENDBRANCH  20  21
BRANCH  20  25
ATOM     25  C   LIG d   1       4.370  -0.358 -15.213  0.00  0.00     0.046 C 
ATOM     26  H   LIG d   1       4.377   0.614 -14.720  0.00  0.00     0.052 H 
ATOM     27  C   LIG d   1       5.818  -0.746 -15.629  0.00  0.00     0.084 C 
ATOM     28  S   LIG d   1       6.013   0.266 -17.155  0.00  0.00    -0.029 S 
ATOM     29  H   LIG d   1       6.540  -0.453 -14.866  0.00  0.00     0.052 H 
ATOM     30  H   LIG d   1       5.893  -1.812 -15.850  0.00  0.00     0.052 H 
ATOM     31  C   LIG d   1       4.244   0.530 -17.574  0.00  0.00     0.068 C 
ATOM     32  O   LIG d   1       6.598   1.514 -16.811  0.00  0.00    -0.174 OA
ATOM     33  O   LIG d   1       6.614  -0.533 -18.166  0.00  0.00    -0.174 OA
ATOM     34  C   LIG d   1       3.510  -0.289 -16.485  0.00  0.00    -0.013 C 
ATOM     35  H   LIG d   1       4.020   0.141 -18.567  0.00  0.00     0.050 H 
ATOM     36  H   LIG d   1       3.984   1.587 -17.504  0.00  0.00     0.050 H 
ATOM     37  H   LIG d   1       3.326  -1.298 -16.853  0.00  0.00     0.030 H 
ATOM     38  H   LIG d   1       2.559   0.190 -16.251  0.00  0.00     0.030 H 
ENDBRANCH  20  25
ENDBRANCH  15  18
ENDBRANCH  11  15
BRANCH   1  39
ATOM     39  C   LIG d   1       5.401  -2.568 -10.136  0.00  0.00    -0.038 C 
ATOM     40  H   LIG d   1       5.225  -3.099 -11.072  0.00  0.00     0.028 H 
ATOM     41  H   LIG d   1       6.239  -1.881 -10.259  0.00  0.00     0.028 H 
ATOM     42  H   LIG d   1       5.633  -3.286  -9.350  0.00  0.00     0.028 H 
ENDBRANCH   1  39
BRANCH   5  43
ATOM     43  O   LIG d   1       3.563   0.439  -4.671  0.00  0.00    -0.488 OA
BRANCH  43  44
ATOM     44  C   LIG d   1       2.811  -0.314  -3.718  0.00  0.00     0.110 C 
ATOM     45  H   LIG d   1       2.016   0.311  -3.307  0.00  0.00     0.074 H 
ATOM     46  H   LIG d   1       2.374  -1.184  -4.207  0.00  0.00     0.074 H 
BRANCH  44  47
ATOM     47  C   LIG d   1       3.720  -0.766  -2.604  0.00  0.00    -0.043 C 
ATOM     48  C   LIG d   1       3.859  -2.043  -2.350  0.00  0.00    -0.097 C 
ATOM     49  H   LIG d   1       4.510  -2.367  -1.552  0.00  0.00     0.053 H 
ATOM     50  H   LIG d   1       3.323  -2.772  -2.941  0.00  0.00     0.053 H 
BRANCH  47  51
ATOM     51  C   LIG d   1       4.466   0.252  -1.780  0.00  0.00    -0.041 C 
ATOM     52  H   LIG d   1       5.020   0.919  -2.441  0.00  0.00     0.028 H 
ATOM     53  H   LIG d   1       3.757   0.831  -1.189  0.00  0.00     0.028 H 
ATOM     54  H   LIG d   1       5.161  -0.260  -1.115  0.00  0.00     0.028 H 
ENDBRANCH  47  51
ENDBRANCH  44  47
ENDBRANCH  43  44
ENDBRANCH   5  43
TORSDOF 9
ENDMDL
MODEL 7
REMARK VINA RESULT:      -5.5      3.277      4.409
REMARK  9 active torsions:
REMARK  status: ('A' for Active; 'I' for Inactive)
REMARK    1  A    between atoms: C_1  and  C_2 
REMARK    2  A    between atoms: C_6  and  O_26 
REMARK    3  A    between atoms: C_12  and  C_13 
REMARK    4  A    between atoms: C_13  and  C_14 
REMARK       I    between atoms: C_14  and  N_16 
REMARK    5  A    between atoms: N_16  and  C_17 
REMARK    6  A    between atoms: N_16  and  C_18 
REMARK    7  A    between atoms: O_26  and  C_27 
REMARK    8  A    between atoms: C_27  and  C_28 
REMARK    9  A    between atoms: C_28  and  C_30 
ROOT
ATOM      1  C   LIG d   1       9.527   3.365  -5.742  0.00  0.00    -0.029 A 
ATOM      2  C   LIG d   1       8.602   2.274  -5.426  0.00  0.00     0.021 A 
ATOM      3  C   LIG d   1       8.042   1.488  -6.441  0.00  0.00    -0.047 A 
ATOM      4  C   LIG d   1       7.179   0.481  -6.120  0.00  0.00    -0.019 A 
ATOM      5  C   LIG d   1       6.851   0.229  -4.788  0.00  0.00     0.124 A 
ATOM      6  C   LIG d   1       7.397   0.997  -3.772  0.00  0.00     0.023 A 
ATOM      7  C   LIG d   1       8.277   2.024  -4.081  0.00  0.00     0.143 A 
ATOM      8  O   LIG d   1       8.819   2.784  -3.105  0.00  0.00    -0.422 OA
ATOM      9  C   LIG d   1       9.671   3.782  -3.387  0.00  0.00     0.341 A 
ATOM     10  O   LIG d   1      10.136   4.441  -2.474  0.00  0.00    -0.245 OA
ATOM     11  C   LIG d   1      10.042   4.087  -4.713  0.00  0.00     0.049 A 
ATOM     12  H   LIG d   1       8.291   1.679  -7.474  0.00  0.00     0.063 H 
ATOM     13  H   LIG d   1       6.745  -0.125  -6.902  0.00  0.00     0.065 H 
ATOM     14  H   LIG d   1       7.139   0.795  -2.743  0.00  0.00     0.069 H 
ENDROOT
BRANCH  11  15
ATOM     15  C   LIG d   1      11.001   5.216  -4.989  0.00  0.00     0.056 C 
ATOM     16  H   LIG d   1      10.689   6.101  -4.433  0.00  0.00     0.041 H 
ATOM     17  H   LIG d   1      11.003   5.439  -6.055  0.00  0.00     0.041 H 
BRANCH  15  18
ATOM     18  C   LIG d   1      12.387   4.814  -4.557  0.00  0.00     0.220 C 
ATOM     19  O   LIG d   1      12.861   3.766  -4.940  0.00  0.00    -0.275 OA
ATOM     20  N   LIG d   1      13.101   5.619  -3.746  0.00  0.00    -0.300 N 
BRANCH  20  21
ATOM     21  C   LIG d   1      12.528   6.886  -3.283  0.00  0.00     0.004 C 
ATOM     22  H   LIG d   1      11.680   7.152  -3.912  0.00  0.00     0.043 H 
ATOM     23  H   LIG d   1      12.195   6.779  -2.251  0.00  0.00     0.043 H 
ATOM     24  H   LIG d   1      13.284   7.668  -3.341  0.00  0.00     0.043 H 
ENDBRANCH  20  21
BRANCH  20  25
ATOM     25  C   LIG d   1      14.449   5.228  -3.326  0.00  0.00     0.046 C 
ATOM     26  H   LIG d   1      14.772   4.355  -3.893  0.00  0.00     0.052 H 
ATOM     27  C   LIG d   1      15.436   6.406  -3.566  0.00  0.00     0.084 C 
ATOM     28  S   LIG d   1      16.817   5.922  -2.446  0.00  0.00    -0.029 S 
ATOM     29  H   LIG d   1      15.765   6.439  -4.605  0.00  0.00     0.052 H 
ATOM     30  H   LIG d   1      14.997   7.357  -3.263  0.00  0.00     0.052 H 
ATOM     31  C   LIG d   1      15.907   4.802  -1.308  0.00  0.00     0.068 C 
ATOM     32  O   LIG d   1      17.765   5.163  -3.182  0.00  0.00    -0.174 OA
ATOM     33  O   LIG d   1      17.247   7.068  -1.723  0.00  0.00    -0.174 OA
ATOM     34  C   LIG d   1      14.451   4.901  -1.824  0.00  0.00    -0.013 C 
ATOM     35  H   LIG d   1      15.978   5.156  -0.280  0.00  0.00     0.050 H 
ATOM     36  H   LIG d   1      16.279   3.780  -1.393  0.00  0.00     0.050 H 
ATOM     37  H   LIG d   1      13.927   5.688  -1.281  0.00  0.00     0.030 H 
ATOM     38  H   LIG d   1      13.944   3.950  -1.661  0.00  0.00     0.030 H 
ENDBRANCH  20  25
ENDBRANCH  15  18
ENDBRANCH  11  15
BRANCH   1  39
ATOM     39  C   LIG d   1       9.901   3.674  -7.169  0.00  0.00    -0.038 C 
ATOM     40  H   LIG d   1      10.280   2.771  -7.648  0.00  0.00     0.028 H 
ATOM     41  H   LIG d   1       9.022   4.029  -7.706  0.00  0.00     0.028 H 
ATOM     42  H   LIG d   1      10.672   4.444  -7.184  0.00  0.00     0.028 H 
ENDBRANCH   1  39
BRANCH   5  43
ATOM     43  O   LIG d   1       5.991  -0.776  -4.485  0.00  0.00    -0.488 OA
BRANCH  43  44
ATOM     44  C   LIG d   1       6.069  -1.322  -3.168  0.00  0.00     0.110 C 
ATOM     45  H   LIG d   1       6.295  -2.388  -3.229  0.00  0.00     0.074 H 
ATOM     46  H   LIG d   1       6.857  -0.816  -2.610  0.00  0.00     0.074 H 
BRANCH  44  47
ATOM     47  C   LIG d   1       4.751  -1.128  -2.464  0.00  0.00    -0.043 C 
ATOM     48  C   LIG d   1       3.890  -2.113  -2.403  0.00  0.00    -0.097 C 
ATOM     49  H   LIG d   1       2.944  -1.974  -1.899  0.00  0.00     0.053 H 
ATOM     50  H   LIG d   1       4.125  -3.065  -2.857  0.00  0.00     0.053 H 
BRANCH  47  51
ATOM     51  C   LIG d   1       4.423   0.200  -1.832  0.00  0.00    -0.041 C 
ATOM     52  H   LIG d   1       4.903   0.266  -0.855  0.00  0.00     0.028 H 
ATOM     53  H   LIG d   1       4.784   1.006  -2.470  0.00  0.00     0.028 H 
ATOM     54  H   LIG d   1       3.343   0.287  -1.712  0.00  0.00     0.028 H 
ENDBRANCH  47  51
ENDBRANCH  44  47
ENDBRANCH  43  44
ENDBRANCH   5  43
TORSDOF 9
ENDMDL
MODEL 8
REMARK VINA RESULT:      -5.2      8.644     13.311
REMARK  9 active torsions:
REMARK  status: ('A' for Active; 'I' for Inactive)
REMARK    1  A    between atoms: C_1  and  C_2 
REMARK    2  A    between atoms: C_6  and  O_26 
REMARK    3  A    between atoms: C_12  and  C_13 
REMARK    4  A    between atoms: C_13  and  C_14 
REMARK       I    between atoms: C_14  and  N_16 
REMARK    5  A    between atoms: N_16  and  C_17 
REMARK    6  A    between atoms: N_16  and  C_18 
REMARK    7  A    between atoms: O_26  and  C_27 
REMARK    8  A    between atoms: C_27  and  C_28 
REMARK    9  A    between atoms: C_28  and  C_30 
ROOT
ATOM      1  C   LIG d   1       8.359  -4.354  -4.378  0.00  0.00    -0.029 A 
ATOM      2  C   LIG d   1       7.589  -3.109  -4.424  0.00  0.00     0.021 A 
ATOM      3  C   LIG d   1       7.560  -2.240  -3.327  0.00  0.00    -0.047 A 
ATOM      4  C   LIG d   1       6.829  -1.089  -3.392  0.00  0.00    -0.019 A 
ATOM      5  C   LIG d   1       6.111  -0.773  -4.545  0.00  0.00     0.124 A 
ATOM      6  C   LIG d   1       6.130  -1.622  -5.640  0.00  0.00     0.023 A 
ATOM      7  C   LIG d   1       6.867  -2.795  -5.590  0.00  0.00     0.143 A 
ATOM      8  O   LIG d   1       6.898  -3.636  -6.646  0.00  0.00    -0.422 OA
ATOM      9  C   LIG d   1       7.606  -4.776  -6.614  0.00  0.00     0.341 A 
ATOM     10  O   LIG d   1       7.604  -5.504  -7.590  0.00  0.00    -0.245 OA
ATOM     11  C   LIG d   1       8.352  -5.152  -5.478  0.00  0.00     0.049 A 
ATOM     12  H   LIG d   1       8.113  -2.479  -2.430  0.00  0.00     0.063 H 
ATOM     13  H   LIG d   1       6.805  -0.418  -2.546  0.00  0.00     0.065 H 
ATOM     14  H   LIG d   1       5.572  -1.370  -6.530  0.00  0.00     0.069 H 
ENDROOT
BRANCH  11  15
ATOM     15  C   LIG d   1       9.134  -6.441  -5.480  0.00  0.00     0.056 C 
ATOM     16  H   LIG d   1      10.061  -6.304  -4.920  0.00  0.00     0.041 H 
ATOM     17  H   LIG d   1       9.367  -6.723  -6.505  0.00  0.00     0.041 H 
BRANCH  15  18
ATOM     18  C   LIG d   1       8.314  -7.527  -4.834  0.00  0.00     0.220 C 
ATOM     19  O   LIG d   1       7.126  -7.608  -5.065  0.00  0.00    -0.275 OA
ATOM     20  N   LIG d   1       8.899  -8.408  -4.000  0.00  0.00    -0.300 N 
BRANCH  20  21
ATOM     21  C   LIG d   1      10.334  -8.311  -3.721  0.00  0.00     0.004 C 
ATOM     22  H   LIG d   1      10.768  -9.310  -3.697  0.00  0.00     0.043 H 
ATOM     23  H   LIG d   1      10.817  -7.723  -4.501  0.00  0.00     0.043 H 
ATOM     24  H   LIG d   1      10.484  -7.826  -2.757  0.00  0.00     0.043 H 
ENDBRANCH  20  21
BRANCH  20  25
ATOM     25  C   LIG d   1       8.101  -9.464  -3.372  0.00  0.00     0.046 C 
ATOM     26  H   LIG d   1       7.136  -9.543  -3.872  0.00  0.00     0.052 H 
ATOM     27  C   LIG d   1       8.855 -10.822  -3.471  0.00  0.00     0.084 C 
ATOM     28  S   LIG d   1       8.004 -11.777  -2.144  0.00  0.00    -0.029 S 
ATOM     29  H   LIG d   1       8.708 -11.285  -4.446  0.00  0.00     0.052 H 
ATOM     30  H   LIG d   1       9.916 -10.700  -3.250  0.00  0.00     0.052 H 
ATOM     31  C   LIG d   1       7.335 -10.385  -1.148  0.00  0.00     0.068 C 
ATOM     32  O   LIG d   1       6.922 -12.498  -2.716  0.00  0.00    -0.174 OA
ATOM     33  O   LIG d   1       8.979 -12.470  -1.377  0.00  0.00    -0.174 OA
ATOM     34  C   LIG d   1       7.889  -9.141  -1.884  0.00  0.00    -0.013 C 
ATOM     35  H   LIG d   1       7.709 -10.428  -0.126  0.00  0.00     0.050 H 
ATOM     36  H   LIG d   1       6.245 -10.389  -1.162  0.00  0.00     0.050 H 
ATOM     37  H   LIG d   1       8.841  -8.851  -1.438  0.00  0.00     0.030 H 
ATOM     38  H   LIG d   1       7.180  -8.319  -1.790  0.00  0.00     0.030 H 
ENDBRANCH  20  25
ENDBRANCH  15  18
ENDBRANCH  11  15
BRANCH   1  39
ATOM     39  C   LIG d   1       9.142  -4.735  -3.149  0.00  0.00    -0.038 C 
ATOM     40  H   LIG d   1       8.918  -4.035  -2.344  0.00  0.00     0.028 H 
ATOM     41  H   LIG d   1       8.867  -5.744  -2.841  0.00  0.00     0.028 H 
ATOM     42  H   LIG d   1      10.208  -4.702  -3.373  0.00  0.00     0.028 H 
ENDBRANCH   1  39
BRANCH   5  43
ATOM     43  O   LIG d   1       5.389   0.375  -4.595  0.00  0.00    -0.488 OA
BRANCH  43  44
ATOM     44  C   LIG d   1       4.531   0.651  -3.487  0.00  0.00     0.110 C 
ATOM     45  H   LIG d   1       4.994   0.287  -2.570  0.00  0.00     0.074 H 
ATOM     46  H   LIG d   1       4.370   1.727  -3.411  0.00  0.00     0.074 H 
BRANCH  44  47
ATOM     47  C   LIG d   1       3.208  -0.042  -3.691  0.00  0.00    -0.043 C 
ATOM     48  C   LIG d   1       2.412   0.340  -4.658  0.00  0.00    -0.097 C 
ATOM     49  H   LIG d   1       1.464  -0.157  -4.805  0.00  0.00     0.053 H 
ATOM     50  H   LIG d   1       2.704   1.150  -5.311  0.00  0.00     0.053 H 
BRANCH  47  51
ATOM     51  C   LIG d   1       2.802  -1.171  -2.781  0.00  0.00    -0.041 C 
ATOM     52  H   LIG d   1       3.675  -1.778  -2.541  0.00  0.00     0.028 H 
ATOM     53  H   LIG d   1       2.379  -0.764  -1.863  0.00  0.00     0.028 H 
ATOM     54  H   LIG d   1       2.056  -1.789  -3.281  0.00  0.00     0.028 H 
ENDBRANCH  47  51
ENDBRANCH  44  47
ENDBRANCH  43  44
ENDBRANCH   5  43
TORSDOF 9
ENDMDL
MODEL 9
REMARK VINA RESULT:      -5.0      8.276     11.758
REMARK  9 active torsions:
REMARK  status: ('A' for Active; 'I' for Inactive)
REMARK    1  A    between atoms: C_1  and  C_2 
REMARK    2  A    between atoms: C_6  and  O_26 
REMARK    3  A    between atoms: C_12  and  C_13 
REMARK    4  A    between atoms: C_13  and  C_14 
REMARK       I    between atoms: C_14  and  N_16 
REMARK    5  A    between atoms: N_16  and  C_17 
REMARK    6  A    between atoms: N_16  and  C_18 
REMARK    7  A    between atoms: O_26  and  C_27 
REMARK    8  A    between atoms: C_27  and  C_28 
REMARK    9  A    between atoms: C_28  and  C_30 
ROOT
ATOM      1  C   LIG d   1       3.222  -4.512  -9.651  0.00  0.00    -0.029 A 
ATOM      2  C   LIG d   1       1.987  -5.106 -10.170  0.00  0.00     0.021 A 
ATOM      3  C   LIG d   1       1.899  -6.481 -10.418  0.00  0.00    -0.047 A 
ATOM      4  C   LIG d   1       0.739  -7.008 -10.906  0.00  0.00    -0.019 A 
ATOM      5  C   LIG d   1      -0.359  -6.187 -11.159  0.00  0.00     0.124 A 
ATOM      6  C   LIG d   1      -0.289  -4.825 -10.918  0.00  0.00     0.023 A 
ATOM      7  C   LIG d   1       0.883  -4.273 -10.422  0.00  0.00     0.143 A 
ATOM      8  O   LIG d   1       0.971  -2.947 -10.181  0.00  0.00    -0.422 OA
ATOM      9  C   LIG d   1       2.098  -2.396  -9.701  0.00  0.00     0.341 A 
ATOM     10  O   LIG d   1       2.132  -1.195  -9.499  0.00  0.00    -0.245 OA
ATOM     11  C   LIG d   1       3.243  -3.172  -9.425  0.00  0.00     0.049 A 
ATOM     12  H   LIG d   1       2.746  -7.122 -10.225  0.00  0.00     0.063 H 
ATOM     13  H   LIG d   1       0.670  -8.069 -11.099  0.00  0.00     0.065 H 
ATOM     14  H   LIG d   1      -1.144  -4.196 -11.116  0.00  0.00     0.069 H 
ENDROOT
BRANCH  11  15
ATOM     15  C   LIG d   1       4.489  -2.517  -8.888  0.00  0.00     0.056 C 
ATOM     16  H   LIG d   1       4.623  -1.546  -9.366  0.00  0.00     0.041 H 
ATOM     17  H   LIG d   1       5.351  -3.148  -9.099  0.00  0.00     0.041 H 
BRANCH  15  18
ATOM     18  C   LIG d   1       4.355  -2.329  -7.399  0.00  0.00     0.220 C 
ATOM     19  O   LIG d   1       4.183  -3.290  -6.680  0.00  0.00    -0.275 OA
ATOM     20  N   LIG d   1       4.428  -1.093  -6.866  0.00  0.00    -0.300 N 
BRANCH  20  21
ATOM     21  C   LIG d   1       4.636   0.068  -7.735  0.00  0.00     0.004 C 
ATOM     22  H   LIG d   1       5.700   0.181  -7.940  0.00  0.00     0.043 H 
ATOM     23  H   LIG d   1       4.099  -0.078  -8.672  0.00  0.00     0.043 H 
ATOM     24  H   LIG d   1       4.264   0.963  -7.239  0.00  0.00     0.043 H 
ENDBRANCH  20  21
BRANCH  20  25
ATOM     25  C   LIG d   1       4.298  -0.911  -5.419  0.00  0.00     0.046 C 
ATOM     26  H   LIG d   1       4.066  -1.866  -4.947  0.00  0.00     0.052 H 
ATOM     27  C   LIG d   1       5.627  -0.348  -4.839  0.00  0.00     0.084 C 
ATOM     28  S   LIG d   1       5.030   0.344  -3.239  0.00  0.00    -0.029 S 
ATOM     29  H   LIG d   1       6.355  -1.143  -4.678  0.00  0.00     0.052 H 
ATOM     30  H   LIG d   1       6.036   0.435  -5.478  0.00  0.00     0.052 H 
ATOM     31  C   LIG d   1       3.247   0.540  -3.638  0.00  0.00     0.068 C 
ATOM     32  O   LIG d   1       5.171  -0.643  -2.227  0.00  0.00    -0.174 OA
ATOM     33  O   LIG d   1       5.606   1.629  -3.048  0.00  0.00    -0.174 OA
ATOM     34  C   LIG d   1       3.179   0.100  -5.120  0.00  0.00    -0.013 C 
ATOM     35  H   LIG d   1       2.939   1.580  -3.528  0.00  0.00     0.050 H 
ATOM     36  H   LIG d   1       2.637  -0.113  -3.013  0.00  0.00     0.050 H 
ATOM     37  H   LIG d   1       3.300   0.973  -5.762  0.00  0.00     0.030 H 
ATOM     38  H   LIG d   1       2.212  -0.362  -5.316  0.00  0.00     0.030 H 
ENDBRANCH  20  25
ENDBRANCH  15  18
ENDBRANCH  11  15
BRANCH   1  39
ATOM     39  C   LIG d   1       4.433  -5.363  -9.372  0.00  0.00    -0.038 C 
ATOM     40  H   LIG d   1       4.117  -6.383  -9.149  0.00  0.00     0.028 H 
ATOM     41  H   LIG d   1       5.084  -5.367 -10.246  0.00  0.00     0.028 H 
ATOM     42  H   LIG d   1       4.974  -4.957  -8.518  0.00  0.00     0.028 H 
ENDBRANCH   1  39
BRANCH   5  43
ATOM     43  O   LIG d   1      -1.506  -6.728 -11.644  0.00  0.00    -0.488 OA
BRANCH  43  44
ATOM     44  C   LIG d   1      -2.378  -7.354 -10.702  0.00  0.00     0.110 C 
ATOM     45  H   LIG d   1      -2.648  -8.347 -11.062  0.00  0.00     0.074 H 
ATOM     46  H   LIG d   1      -1.871  -7.441  -9.741  0.00  0.00     0.074 H 
BRANCH  44  47
ATOM     47  C   LIG d   1      -3.624  -6.522 -10.541  0.00  0.00    -0.043 C 
ATOM     48  C   LIG d   1      -4.693  -6.802 -11.243  0.00  0.00    -0.097 C 
ATOM     49  H   LIG d   1      -5.587  -6.206 -11.127  0.00  0.00     0.053 H 
ATOM     50  H   LIG d   1      -4.682  -7.630 -11.938  0.00  0.00     0.053 H 
BRANCH  47  51
ATOM     51  C   LIG d   1      -3.639  -5.368  -9.573  0.00  0.00    -0.041 C 
ATOM     52  H   LIG d   1      -2.634  -4.953  -9.485  0.00  0.00     0.028 H 
ATOM     53  H   LIG d   1      -4.320  -4.598  -9.935  0.00  0.00     0.028 H 
ATOM     54  H   LIG d   1      -3.973  -5.718  -8.596  0.00  0.00     0.028 H 
ENDBRANCH  47  51
ENDBRANCH  44  47
ENDBRANCH  43  44
ENDBRANCH   5  43
TORSDOF 9
ENDMDL
