MODEL 1
REMARK VINA RESULT:      -6.4      0.000      0.000
REMARK  16 active torsions:
REMARK  status: ('A' for Active; 'I' for Inactive)
REMARK    1  A    between atoms: C_1  and  C_2 
REMARK    2  A    between atoms: C_2  and  C_4 
REMARK    3  A    between atoms: C_2  and  C_10 
REMARK    4  A    between atoms: C_4  and  C_5 
REMARK    5  A    between atoms: C_5  and  C_6 
REMARK    6  A    between atoms: C_6  and  C_7 
REMARK    7  A    between atoms: C_7  and  C_8 
REMARK    8  A    between atoms: C_7  and  C_9 
REMARK    9  A    between atoms: C_16  and  C_56 
REMARK   10  A    between atoms: C_26  and  C_55 
REMARK   11  A    between atoms: C_29  and  O_32 
REMARK   12  A    between atoms: O_32  and  C_33 
REMARK   13  A    between atoms: C_33  and  C_35 
REMARK   14  A    between atoms: C_35  and  O_36 
REMARK   15  A    between atoms: O_36  and  C_37 
REMARK   16  A    between atoms: C_44  and  C_49 
ROOT
ATOM      1  C   LIG d   1       5.193  -1.533  -5.499  0.00  0.00    -0.033 C 
ATOM      2  H   LIG d   1       4.114  -1.402  -5.411  0.00  0.00     0.031 H 
ATOM      3  C   LIG d   1       5.893  -0.155  -5.602  0.00  0.00    -0.049 C 
ATOM      4  C   LIG d   1       6.550  -0.102  -7.009  0.00  0.00    -0.049 C 
ATOM      5  C   LIG d   1       5.714  -1.102  -7.816  0.00  0.00    -0.032 C 
ATOM      6  H   LIG d   1       4.746  -0.668  -8.070  0.00  0.00     0.031 H 
ATOM      7  C   LIG d   1       5.534  -2.260  -6.796  0.00  0.00    -0.026 C 
ATOM      8  C   LIG d   1       4.467  -3.185  -7.351  0.00  0.00    -0.047 C 
ATOM      9  C   LIG d   1       5.027  -3.793  -8.647  0.00  0.00    -0.049 C 
ATOM     10  C   LIG d   1       5.418  -2.717  -9.655  0.00  0.00    -0.029 C 
ATOM     11  H   LIG d   1       4.515  -2.190  -9.963  0.00  0.00     0.031 H 
ATOM     12  C   LIG d   1       6.378  -1.671  -9.056  0.00  0.00    -0.031 C 
ATOM     13  H   LIG d   1       7.324  -2.145  -8.792  0.00  0.00     0.031 H 
ATOM     14  C   LIG d   1       6.592  -0.552 -10.082  0.00  0.00    -0.031 C 
ATOM     15  C   LIG d   1       7.091  -1.149 -11.365  0.00  0.00    -0.084 C 
ATOM     16  C   LIG d   1       6.837  -2.373 -11.724  0.00  0.00    -0.064 C 
ATOM     17  C   LIG d   1       6.037  -3.364 -10.882  0.00  0.00    -0.008 C 
ATOM     18  C   LIG d   1       4.941  -3.982 -11.757  0.00  0.00    -0.040 C 
ATOM     19  C   LIG d   1       5.577  -4.615 -12.996  0.00  0.00    -0.015 C 
ATOM     20  C   LIG d   1       6.267  -3.535 -13.832  0.00  0.00     0.107 C 
ATOM     21  H   LIG d   1       5.545  -2.760 -14.088  0.00  0.00     0.074 H 
ATOM     22  C   LIG d   1       7.389  -2.863 -13.053  0.00  0.00     0.006 C 
ATOM     23  H   LIG d   1       5.161   0.646  -5.501  0.00  0.00     0.027 H 
ATOM     24  H   LIG d   1       6.657  -0.064  -4.830  0.00  0.00     0.027 H 
ATOM     25  H   LIG d   1       6.472   0.898  -7.435  0.00  0.00     0.027 H 
ATOM     26  H   LIG d   1       7.591  -0.421  -6.961  0.00  0.00     0.027 H 
ATOM     27  H   LIG d   1       4.250  -3.975  -6.633  0.00  0.00     0.027 H 
ATOM     28  H   LIG d   1       3.561  -2.619  -7.568  0.00  0.00     0.027 H 
ATOM     29  H   LIG d   1       5.905  -4.393  -8.407  0.00  0.00     0.027 H 
ATOM     30  H   LIG d   1       4.269  -4.438  -9.092  0.00  0.00     0.027 H 
ATOM     31  H   LIG d   1       5.648  -0.038 -10.261  0.00  0.00     0.031 H 
ATOM     32  H   LIG d   1       7.327   0.156  -9.700  0.00  0.00     0.031 H 
ATOM     33  H   LIG d   1       7.688  -0.533 -12.022  0.00  0.00     0.057 H 
ATOM     34  H   LIG d   1       4.411  -4.746 -11.189  0.00  0.00     0.028 H 
ATOM     35  H   LIG d   1       4.241  -3.205 -12.065  0.00  0.00     0.028 H 
ATOM     36  H   LIG d   1       6.313  -5.358 -12.686  0.00  0.00     0.030 H 
ATOM     37  H   LIG d   1       4.805  -5.099 -13.594  0.00  0.00     0.030 H 
ATOM     38  H   LIG d   1       7.813  -2.025 -13.605  0.00  0.00     0.035 H 
ATOM     39  H   LIG d   1       8.158  -3.614 -12.876  0.00  0.00     0.035 H 
ENDROOT
BRANCH  20  40
ATOM     40  O   LIG d   1       6.784  -4.118 -15.029  0.00  0.00    -0.459 OA
BRANCH  40  41
ATOM     41  C   LIG d   1       6.379  -3.582 -16.192  0.00  0.00     0.345 C 
ATOM     42  O   LIG d   1       7.182  -3.061 -16.929  0.00  0.00    -0.247 OA
BRANCH  41  43
ATOM     43  C   LIG d   1       4.922  -3.627 -16.575  0.00  0.00     0.186 C 
ATOM     44  H   LIG d   1       4.831  -3.905 -17.626  0.00  0.00     0.082 H 
ATOM     45  H   LIG d   1       4.407  -4.364 -15.959  0.00  0.00     0.082 H 
BRANCH  43  46
ATOM     46  O   LIG d   1       4.336  -2.340 -16.372  0.00  0.00    -0.479 OA
BRANCH  46  47
ATOM     47  C   LIG d   1       3.819  -2.086 -15.142  0.00  0.00     0.143 A 
ATOM     48  C   LIG d   1       4.340  -1.046 -14.374  0.00  0.00     0.083 A 
ATOM     49  C   LIG d   1       3.827  -0.775 -13.138  0.00  0.00    -0.029 A 
ATOM     50 CL   LIG d   1       5.647  -0.085 -14.996  0.00  0.00    -0.080 Cl
ATOM     51  C   LIG d   1       2.780  -1.553 -12.636  0.00  0.00     0.027 A 
ATOM     52  H   LIG d   1       4.231   0.035 -12.549  0.00  0.00     0.064 H 
ATOM     53  C   LIG d   1       2.253  -2.606 -13.402  0.00  0.00     0.143 A 
ATOM     54  C   LIG d   1       2.210  -1.287 -11.304  0.00  0.00    -0.000 A 
ATOM     55  C   LIG d   1       2.782  -2.865 -14.657  0.00  0.00     0.025 A 
ATOM     56  O   LIG d   1       1.241  -3.356 -12.913  0.00  0.00    -0.422 OA
ATOM     57  H   LIG d   1       2.385  -3.672 -15.256  0.00  0.00     0.069 H 
ATOM     58  C   LIG d   1       0.710  -3.128 -11.702  0.00  0.00     0.338 A 
ATOM     59  C   LIG d   1       1.176  -2.095 -10.870  0.00  0.00     0.031 A 
ATOM     60  O   LIG d   1      -0.202  -3.835 -11.312  0.00  0.00    -0.245 OA
ATOM     61  H   LIG d   1       0.731  -1.934  -9.900  0.00  0.00     0.070 H 
BRANCH  54  62
ATOM     62  C   LIG d   1       2.729  -0.190 -10.456  0.00  0.00    -0.017 A 
ATOM     63  C   LIG d   1       3.536   0.803 -11.013  0.00  0.00    -0.054 A 
ATOM     64  C   LIG d   1       4.013   1.825 -10.219  0.00  0.00    -0.061 A 
ATOM     65  H   LIG d   1       3.785   0.772 -12.064  0.00  0.00     0.062 H 
ATOM     66  C   LIG d   1       3.700   1.862  -8.872  0.00  0.00    -0.062 A 
ATOM     67  H   LIG d   1       4.634   2.597 -10.649  0.00  0.00     0.062 H 
ATOM     68  C   LIG d   1       2.905   0.878  -8.312  0.00  0.00    -0.061 A 
ATOM     69  H   LIG d   1       4.079   2.663  -8.253  0.00  0.00     0.062 H 
ATOM     70  C   LIG d   1       2.418  -0.147  -9.097  0.00  0.00    -0.054 A 
ATOM     71  H   LIG d   1       2.663   0.913  -7.260  0.00  0.00     0.062 H 
ATOM     72  H   LIG d   1       1.795  -0.915  -8.659  0.00  0.00     0.062 H 
ENDBRANCH  54  62
ENDBRANCH  46  47
ENDBRANCH  43  46
ENDBRANCH  41  43
ENDBRANCH  40  41
ENDBRANCH  20  40
BRANCH  17  73
ATOM     73  C   LIG d   1       6.949  -4.500 -10.415  0.00  0.00    -0.056 C 
ATOM     74  H   LIG d   1       7.846  -4.525 -11.034  0.00  0.00     0.024 H 
ATOM     75  H   LIG d   1       7.231  -4.335  -9.374  0.00  0.00     0.024 H 
ATOM     76  H   LIG d   1       6.421  -5.450 -10.503  0.00  0.00     0.024 H 
ENDBRANCH  17  73
BRANCH   7  77
ATOM     77  C   LIG d   1       6.853  -3.018  -6.634  0.00  0.00    -0.059 C 
ATOM     78  H   LIG d   1       6.913  -3.432  -5.628  0.00  0.00     0.024 H 
ATOM     79  H   LIG d   1       6.898  -3.828  -7.363  0.00  0.00     0.024 H 
ATOM     80  H   LIG d   1       7.687  -2.336  -6.798  0.00  0.00     0.024 H 
ENDBRANCH   7  77
BRANCH   1  81
ATOM     81  C   LIG d   1       5.731  -2.312  -4.297  0.00  0.00    -0.041 C 
ATOM     82  H   LIG d   1       6.628  -2.859  -4.590  0.00  0.00     0.030 H 
BRANCH  81  83
ATOM     83  C   LIG d   1       4.668  -3.300  -3.812  0.00  0.00    -0.062 C 
ATOM     84  H   LIG d   1       3.775  -2.753  -3.509  0.00  0.00     0.023 H 
ATOM     85  H   LIG d   1       4.416  -3.988  -4.619  0.00  0.00     0.023 H 
ATOM     86  H   LIG d   1       5.055  -3.862  -2.962  0.00  0.00     0.023 H 
ENDBRANCH  81  83
BRANCH  81  87
ATOM     87  C   LIG d   1       6.074  -1.337  -3.169  0.00  0.00    -0.050 C 
ATOM     88  H   LIG d   1       6.946  -1.702  -2.626  0.00  0.00     0.027 H 
ATOM     89  H   LIG d   1       6.292  -0.356  -3.591  0.00  0.00     0.027 H 
BRANCH  87  90
ATOM     90  C   LIG d   1       4.886  -1.227  -2.211  0.00  0.00    -0.053 C 
ATOM     91  H   LIG d   1       3.991  -1.615  -2.696  0.00  0.00     0.026 H 
ATOM     92  H   LIG d   1       5.091  -1.806  -1.310  0.00  0.00     0.026 H 
BRANCH  90  93
ATOM     93  C   LIG d   1       4.668   0.240  -1.835  0.00  0.00    -0.051 C 
ATOM     94  H   LIG d   1       4.677   0.342  -0.750  0.00  0.00     0.027 H 
ATOM     95  H   LIG d   1       5.466   0.847  -2.264  0.00  0.00     0.027 H 
BRANCH  93  96
ATOM     96  C   LIG d   1       3.319   0.711  -2.381  0.00  0.00    -0.047 C 
ATOM     97  H   LIG d   1       2.704   1.082  -1.561  0.00  0.00     0.029 H 
BRANCH  96  98
ATOM     98  C   LIG d   1       3.543   1.831  -3.398  0.00  0.00    -0.063 C 
ATOM     99  H   LIG d   1       2.967   2.709  -3.105  0.00  0.00     0.023 H 
ATOM    100  H   LIG d   1       4.603   2.085  -3.432  0.00  0.00     0.023 H 
ATOM    101  H   LIG d   1       3.219   1.496  -4.384  0.00  0.00     0.023 H 
ENDBRANCH  96  98
BRANCH  96 102
ATOM    102  C   LIG d   1       2.607  -0.460  -3.062  0.00  0.00    -0.063 C 
ATOM    103  H   LIG d   1       3.331  -1.245  -3.285  0.00  0.00     0.023 H 
ATOM    104  H   LIG d   1       1.840  -0.855  -2.397  0.00  0.00     0.023 H 
ATOM    105  H   LIG d   1       2.146  -0.118  -3.987  0.00  0.00     0.023 H 
ENDBRANCH  96 102
ENDBRANCH  93  96
ENDBRANCH  90  93
ENDBRANCH  87  90
ENDBRANCH  81  87
ENDBRANCH   1  81
TORSDOF 16
ENDMDL
MODEL 2
REMARK VINA RESULT:      -6.2      5.554      8.316
REMARK  16 active torsions:
REMARK  status: ('A' for Active; 'I' for Inactive)
REMARK    1  A    between atoms: C_1  and  C_2 
REMARK    2  A    between atoms: C_2  and  C_4 
REMARK    3  A    between atoms: C_2  and  C_10 
REMARK    4  A    between atoms: C_4  and  C_5 
REMARK    5  A    between atoms: C_5  and  C_6 
REMARK    6  A    between atoms: C_6  and  C_7 
REMARK    7  A    between atoms: C_7  and  C_8 
REMARK    8  A    between atoms: C_7  and  C_9 
REMARK    9  A    between atoms: C_16  and  C_56 
REMARK   10  A    between atoms: C_26  and  C_55 
REMARK   11  A    between atoms: C_29  and  O_32 
REMARK   12  A    between atoms: O_32  and  C_33 
REMARK   13  A    between atoms: C_33  and  C_35 
REMARK   14  A    between atoms: C_35  and  O_36 
REMARK   15  A    between atoms: O_36  and  C_37 
REMARK   16  A    between atoms: C_44  and  C_49 
ROOT
ATOM      1  C   LIG d   1      11.139   5.149  -3.750  0.00  0.00    -0.033 C 
ATOM      2  H   LIG d   1      12.167   4.813  -3.610  0.00  0.00     0.031 H 
ATOM      3  C   LIG d   1      10.217   4.516  -2.678  0.00  0.00    -0.049 C 
ATOM      4  C   LIG d   1       9.221   3.601  -3.442  0.00  0.00    -0.049 C 
ATOM      5  C   LIG d   1       9.975   3.280  -4.738  0.00  0.00    -0.032 C 
ATOM      6  H   LIG d   1      10.758   2.545  -4.547  0.00  0.00     0.031 H 
ATOM      7  C   LIG d   1      10.601   4.657  -5.090  0.00  0.00    -0.026 C 
ATOM      8  C   LIG d   1      11.627   4.416  -6.182  0.00  0.00    -0.047 C 
ATOM      9  C   LIG d   1      10.860   3.926  -7.421  0.00  0.00    -0.049 C 
ATOM     10  C   LIG d   1      10.050   2.668  -7.124  0.00  0.00    -0.029 C 
ATOM     11  H   LIG d   1      10.742   1.860  -6.888  0.00  0.00     0.031 H 
ATOM     12  C   LIG d   1       9.117   2.842  -5.910  0.00  0.00    -0.031 C 
ATOM     13  H   LIG d   1       8.363   3.599  -6.128  0.00  0.00     0.031 H 
ATOM     14  C   LIG d   1       8.463   1.493  -5.592  0.00  0.00    -0.031 C 
ATOM     15  C   LIG d   1       7.756   0.986  -6.815  0.00  0.00    -0.084 C 
ATOM     16  C   LIG d   1       8.109   1.314  -8.024  0.00  0.00    -0.064 C 
ATOM     17  C   LIG d   1       9.251   2.270  -8.355  0.00  0.00    -0.008 C 
ATOM     18  C   LIG d   1      10.171   1.604  -9.382  0.00  0.00    -0.040 C 
ATOM     19  C   LIG d   1       9.351   1.194 -10.607  0.00  0.00    -0.015 C 
ATOM     20  C   LIG d   1       8.300   0.158 -10.203  0.00  0.00     0.107 C 
ATOM     21  H   LIG d   1       8.793  -0.692  -9.732  0.00  0.00     0.074 H 
ATOM     22  C   LIG d   1       7.321   0.729  -9.186  0.00  0.00     0.006 C 
ATOM     23  H   LIG d   1      10.807   3.924  -1.979  0.00  0.00     0.027 H 
ATOM     24  H   LIG d   1       9.675   5.296  -2.144  0.00  0.00     0.027 H 
ATOM     25  H   LIG d   1       9.020   2.692  -2.876  0.00  0.00     0.027 H 
ATOM     26  H   LIG d   1       8.295   4.135  -3.658  0.00  0.00     0.027 H 
ATOM     27  H   LIG d   1      12.149   5.344  -6.411  0.00  0.00     0.027 H 
ATOM     28  H   LIG d   1      12.339   3.656  -5.861  0.00  0.00     0.027 H 
ATOM     29  H   LIG d   1      10.186   4.714  -7.757  0.00  0.00     0.027 H 
ATOM     30  H   LIG d   1      11.574   3.709  -8.216  0.00  0.00     0.027 H 
ATOM     31  H   LIG d   1       9.230   0.779  -5.293  0.00  0.00     0.031 H 
ATOM     32  H   LIG d   1       7.745   1.618  -4.783  0.00  0.00     0.031 H 
ATOM     33  H   LIG d   1       6.917   0.319  -6.686  0.00  0.00     0.057 H 
ATOM     34  H   LIG d   1      10.949   2.305  -9.683  0.00  0.00     0.028 H 
ATOM     35  H   LIG d   1      10.630   0.719  -8.940  0.00  0.00     0.028 H 
ATOM     36  H   LIG d   1       8.854   2.073 -11.021  0.00  0.00     0.030 H 
ATOM     37  H   LIG d   1      10.013   0.766 -11.360  0.00  0.00     0.030 H 
ATOM     38  H   LIG d   1       6.636  -0.034  -8.819  0.00  0.00     0.035 H 
ATOM     39  H   LIG d   1       6.759   1.520  -9.682  0.00  0.00     0.035 H 
ENDROOT
BRANCH  20  40
ATOM     40  O   LIG d   1       7.596  -0.283 -11.365  0.00  0.00    -0.459 OA
BRANCH  40  41
ATOM     41  C   LIG d   1       6.584  -1.144 -11.173  0.00  0.00     0.345 C 
ATOM     42  O   LIG d   1       5.458  -0.830 -11.476  0.00  0.00    -0.247 OA
BRANCH  41  43
ATOM     43  C   LIG d   1       6.854  -2.502 -10.579  0.00  0.00     0.186 C 
ATOM     44  H   LIG d   1       6.893  -3.246 -11.374  0.00  0.00     0.082 H 
ATOM     45  H   LIG d   1       7.807  -2.486 -10.050  0.00  0.00     0.082 H 
BRANCH  43  46
ATOM     46  O   LIG d   1       5.807  -2.839  -9.665  0.00  0.00    -0.479 OA
BRANCH  46  47
ATOM     47  C   LIG d   1       6.057  -2.647  -8.344  0.00  0.00     0.143 A 
ATOM     48  C   LIG d   1       5.226  -1.815  -7.597  0.00  0.00     0.083 A 
ATOM     49  C   LIG d   1       5.461  -1.618  -6.266  0.00  0.00    -0.029 A 
ATOM     50 CL   LIG d   1       3.879  -1.028  -8.361  0.00  0.00    -0.080 Cl
ATOM     51  C   LIG d   1       6.549  -2.246  -5.653  0.00  0.00     0.027 A 
ATOM     52  H   LIG d   1       4.812  -0.976  -5.690  0.00  0.00     0.064 H 
ATOM     53  C   LIG d   1       7.394  -3.082  -6.402  0.00  0.00     0.143 A 
ATOM     54  C   LIG d   1       6.831  -2.047  -4.221  0.00  0.00    -0.000 A 
ATOM     55  C   LIG d   1       7.139  -3.276  -7.751  0.00  0.00     0.025 A 
ATOM     56  O   LIG d   1       8.445  -3.687  -5.806  0.00  0.00    -0.422 OA
ATOM     57  H   LIG d   1       7.781  -3.917  -8.337  0.00  0.00     0.069 H 
ATOM     58  C   LIG d   1       8.716  -3.517  -4.503  0.00  0.00     0.338 A 
ATOM     59  C   LIG d   1       7.923  -2.699  -3.681  0.00  0.00     0.031 A 
ATOM     60  O   LIG d   1       9.677  -4.089  -4.018  0.00  0.00    -0.245 OA
ATOM     61  H   LIG d   1       8.164  -2.580  -2.635  0.00  0.00     0.070 H 
BRANCH  54  62
ATOM     62  C   LIG d   1       5.971  -1.176  -3.388  0.00  0.00    -0.017 A 
ATOM     63  C   LIG d   1       4.906  -1.723  -2.671  0.00  0.00    -0.054 A 
ATOM     64  C   LIG d   1       4.112  -0.907  -1.893  0.00  0.00    -0.061 A 
ATOM     65  H   LIG d   1       4.705  -2.783  -2.724  0.00  0.00     0.062 H 
ATOM     66  C   LIG d   1       4.364   0.453  -1.830  0.00  0.00    -0.062 A 
ATOM     67  H   LIG d   1       3.290  -1.329  -1.334  0.00  0.00     0.062 H 
ATOM     68  C   LIG d   1       5.415   1.002  -2.543  0.00  0.00    -0.061 A 
ATOM     69  H   LIG d   1       3.736   1.088  -1.222  0.00  0.00     0.062 H 
ATOM     70  C   LIG d   1       6.220   0.195  -3.320  0.00  0.00    -0.054 A 
ATOM     71  H   LIG d   1       5.607   2.063  -2.488  0.00  0.00     0.062 H 
ATOM     72  H   LIG d   1       7.042   0.625  -3.876  0.00  0.00     0.062 H 
ENDBRANCH  54  62
ENDBRANCH  46  47
ENDBRANCH  43  46
ENDBRANCH  41  43
ENDBRANCH  40  41
ENDBRANCH  20  40
BRANCH  17  73
ATOM     73  C   LIG d   1       8.692   3.543  -8.993  0.00  0.00    -0.056 C 
ATOM     74  H   LIG d   1       9.148   4.415  -8.526  0.00  0.00     0.024 H 
ATOM     75  H   LIG d   1       8.918   3.543 -10.060  0.00  0.00     0.024 H 
ATOM     76  H   LIG d   1       7.612   3.577  -8.850  0.00  0.00     0.024 H 
ENDBRANCH  17  73
BRANCH   7  77
ATOM     77  C   LIG d   1       9.513   5.608  -5.593  0.00  0.00    -0.059 C 
ATOM     78  H   LIG d   1       8.534   5.224  -5.308  0.00  0.00     0.024 H 
ATOM     79  H   LIG d   1       9.660   6.593  -5.152  0.00  0.00     0.024 H 
ATOM     80  H   LIG d   1       9.571   5.684  -6.679  0.00  0.00     0.024 H 
ENDBRANCH   7  77
BRANCH   1  81
ATOM     81  C   LIG d   1      11.066   6.676  -3.678  0.00  0.00    -0.041 C 
ATOM     82  H   LIG d   1      10.603   7.061  -4.587  0.00  0.00     0.030 H 
BRANCH  81  83
ATOM     83  C   LIG d   1      12.478   7.248  -3.545  0.00  0.00    -0.062 C 
ATOM     84  H   LIG d   1      13.102   6.553  -2.982  0.00  0.00     0.023 H 
ATOM     85  H   LIG d   1      12.906   7.397  -4.537  0.00  0.00     0.023 H 
ATOM     86  H   LIG d   1      12.436   8.203  -3.021  0.00  0.00     0.023 H 
ENDBRANCH  81  83
BRANCH  81  87
ATOM     87  C   LIG d   1      10.231   7.090  -2.465  0.00  0.00    -0.050 C 
ATOM     88  H   LIG d   1       9.411   7.729  -2.790  0.00  0.00     0.027 H 
ATOM     89  H   LIG d   1       9.829   6.200  -1.981  0.00  0.00     0.027 H 
BRANCH  87  90
ATOM     90  C   LIG d   1      11.113   7.854  -1.476  0.00  0.00    -0.053 C 
ATOM     91  H   LIG d   1      12.157   7.584  -1.636  0.00  0.00     0.026 H 
ATOM     92  H   LIG d   1      10.987   8.925  -1.629  0.00  0.00     0.026 H 
BRANCH  90  93
ATOM     93  C   LIG d   1      10.707   7.492  -0.046  0.00  0.00    -0.051 C 
ATOM     94  H   LIG d   1      11.177   8.185   0.652  0.00  0.00     0.027 H 
ATOM     95  H   LIG d   1       9.623   7.559   0.051  0.00  0.00     0.027 H 
BRANCH  93  96
ATOM     96  C   LIG d   1      11.161   6.066   0.269  0.00  0.00    -0.047 C 
ATOM     97  H   LIG d   1      10.558   5.359  -0.302  0.00  0.00     0.029 H 
BRANCH  96  98
ATOM     98  C   LIG d   1      12.634   5.904  -0.111  0.00  0.00    -0.063 C 
ATOM     99  H   LIG d   1      12.949   4.879   0.086  0.00  0.00     0.023 H 
ATOM    100  H   LIG d   1      12.764   6.128  -1.170  0.00  0.00     0.023 H 
ATOM    101  H   LIG d   1      13.238   6.590   0.483  0.00  0.00     0.023 H 
ENDBRANCH  96  98
BRANCH  96 102
ATOM    102  C   LIG d   1      10.987   5.793   1.764  0.00  0.00    -0.063 C 
ATOM    103  H   LIG d   1      11.028   6.735   2.312  0.00  0.00     0.023 H 
ATOM    104  H   LIG d   1      10.023   5.315   1.937  0.00  0.00     0.023 H 
ATOM    105  H   LIG d   1      11.785   5.137   2.110  0.00  0.00     0.023 H 
ENDBRANCH  96 102
ENDBRANCH  93  96
ENDBRANCH  90  93
ENDBRANCH  87  90
ENDBRANCH  81  87
ENDBRANCH   1  81
TORSDOF 16
ENDMDL
MODEL 3
REMARK VINA RESULT:      -6.0      5.328      7.865
REMARK  16 active torsions:
REMARK  status: ('A' for Active; 'I' for Inactive)
REMARK    1  A    between atoms: C_1  and  C_2 
REMARK    2  A    between atoms: C_2  and  C_4 
REMARK    3  A    between atoms: C_2  and  C_10 
REMARK    4  A    between atoms: C_4  and  C_5 
REMARK    5  A    between atoms: C_5  and  C_6 
REMARK    6  A    between atoms: C_6  and  C_7 
REMARK    7  A    between atoms: C_7  and  C_8 
REMARK    8  A    between atoms: C_7  and  C_9 
REMARK    9  A    between atoms: C_16  and  C_56 
REMARK   10  A    between atoms: C_26  and  C_55 
REMARK   11  A    between atoms: C_29  and  O_32 
REMARK   12  A    between atoms: O_32  and  C_33 
REMARK   13  A    between atoms: C_33  and  C_35 
REMARK   14  A    between atoms: C_35  and  O_36 
REMARK   15  A    between atoms: O_36  and  C_37 
REMARK   16  A    between atoms: C_44  and  C_49 
ROOT
ATOM      1  C   LIG d   1      11.679   3.789  -3.775  0.00  0.00    -0.033 C 
ATOM      2  H   LIG d   1      12.576   3.177  -3.673  0.00  0.00     0.031 H 
ATOM      3  C   LIG d   1      10.643   3.410  -2.687  0.00  0.00    -0.049 C 
ATOM      4  C   LIG d   1       9.413   2.828  -3.437  0.00  0.00    -0.049 C 
ATOM      5  C   LIG d   1      10.016   2.343  -4.760  0.00  0.00    -0.032 C 
ATOM      6  H   LIG d   1      10.568   1.415  -4.607  0.00  0.00     0.031 H 
ATOM      7  C   LIG d   1      10.992   3.500  -5.107  0.00  0.00    -0.026 C 
ATOM      8  C   LIG d   1      11.884   3.012  -6.234  0.00  0.00    -0.047 C 
ATOM      9  C   LIG d   1      10.982   2.786  -7.457  0.00  0.00    -0.049 C 
ATOM     10  C   LIG d   1       9.860   1.796  -7.159  0.00  0.00    -0.029 C 
ATOM     11  H   LIG d   1      10.306   0.822  -6.958  0.00  0.00     0.031 H 
ATOM     12  C   LIG d   1       9.042   2.191  -5.914  0.00  0.00    -0.031 C 
ATOM     13  H   LIG d   1       8.524   3.133  -6.096  0.00  0.00     0.031 H 
ATOM     14  C   LIG d   1       8.046   1.069  -5.601  0.00  0.00    -0.031 C 
ATOM     15  C   LIG d   1       7.197   0.810  -6.811  0.00  0.00    -0.084 C 
ATOM     16  C   LIG d   1       7.598   1.058  -8.024  0.00  0.00    -0.064 C 
ATOM     17  C   LIG d   1       8.953   1.667  -8.372  0.00  0.00    -0.008 C 
ATOM     18  C   LIG d   1       9.626   0.798  -9.438  0.00  0.00    -0.040 C 
ATOM     19  C   LIG d   1       8.696   0.664 -10.645  0.00  0.00    -0.015 C 
ATOM     20  C   LIG d   1       7.408  -0.049 -10.228  0.00  0.00     0.107 C 
ATOM     21  H   LIG d   1       7.655  -1.014  -9.787  0.00  0.00     0.074 H 
ATOM     22  C   LIG d   1       6.651   0.745  -9.172  0.00  0.00     0.006 C 
ATOM     23  H   LIG d   1      11.062   2.659  -2.017  0.00  0.00     0.027 H 
ATOM     24  H   LIG d   1      10.352   4.296  -2.123  0.00  0.00     0.027 H 
ATOM     25  H   LIG d   1       8.980   1.996  -2.882  0.00  0.00     0.027 H 
ATOM     26  H   LIG d   1       8.668   3.603  -3.615  0.00  0.00     0.027 H 
ATOM     27  H   LIG d   1      12.638   3.764  -6.462  0.00  0.00     0.027 H 
ATOM     28  H   LIG d   1      12.364   2.076  -5.948  0.00  0.00     0.027 H 
ATOM     29  H   LIG d   1      10.545   3.739  -7.758  0.00  0.00     0.027 H 
ATOM     30  H   LIG d   1      11.588   2.400  -8.278  0.00  0.00     0.027 H 
ATOM     31  H   LIG d   1       8.591   0.163  -5.338  0.00  0.00     0.031 H 
ATOM     32  H   LIG d   1       7.411   1.368  -4.768  0.00  0.00     0.031 H 
ATOM     33  H   LIG d   1       6.209   0.400  -6.669  0.00  0.00     0.057 H 
ATOM     34  H   LIG d   1      10.561   1.263  -9.749  0.00  0.00     0.028 H 
ATOM     35  H   LIG d   1       9.831  -0.190  -9.026  0.00  0.00     0.028 H 
ATOM     36  H   LIG d   1       8.453   1.656 -11.027  0.00  0.00     0.030 H 
ATOM     37  H   LIG d   1       9.193   0.088 -11.426  0.00  0.00     0.030 H 
ATOM     38  H   LIG d   1       5.790   0.193  -8.797  0.00  0.00     0.035 H 
ATOM     39  H   LIG d   1       6.320   1.673  -9.637  0.00  0.00     0.035 H 
ENDROOT
BRANCH  20  40
ATOM     40  O   LIG d   1       6.581  -0.247 -11.376  0.00  0.00    -0.459 OA
BRANCH  40  41
ATOM     41  C   LIG d   1       5.460  -0.966 -11.202  0.00  0.00     0.345 C 
ATOM     42  O   LIG d   1       4.384  -0.479 -11.458  0.00  0.00    -0.247 OA
BRANCH  41  43
ATOM     43  C   LIG d   1       5.544  -2.379 -10.686  0.00  0.00     0.186 C 
ATOM     44  H   LIG d   1       5.419  -3.077 -11.515  0.00  0.00     0.082 H 
ATOM     45  H   LIG d   1       6.517  -2.539 -10.220  0.00  0.00     0.082 H 
BRANCH  43  46
ATOM     46  O   LIG d   1       4.512  -2.597  -9.722  0.00  0.00    -0.479 OA
BRANCH  46  47
ATOM     47  C   LIG d   1       4.837  -2.406  -8.417  0.00  0.00     0.143 A 
ATOM     48  C   LIG d   1       4.146  -1.458  -7.665  0.00  0.00     0.083 A 
ATOM     49  C   LIG d   1       4.458  -1.260  -6.349  0.00  0.00    -0.029 A 
ATOM     50 CL   LIG d   1       2.877  -0.528  -8.401  0.00  0.00    -0.080 Cl
ATOM     51  C   LIG d   1       5.483  -2.004  -5.760  0.00  0.00     0.027 A 
ATOM     52  H   LIG d   1       3.917  -0.528  -5.769  0.00  0.00     0.064 H 
ATOM     53  C   LIG d   1       6.187  -2.958  -6.514  0.00  0.00     0.143 A 
ATOM     54  C   LIG d   1       5.845  -1.808  -4.345  0.00  0.00    -0.000 A 
ATOM     55  C   LIG d   1       5.855  -3.150  -7.847  0.00  0.00     0.025 A 
ATOM     56  O   LIG d   1       7.178  -3.675  -5.940  0.00  0.00    -0.422 OA
ATOM     57  H   LIG d   1       6.389  -3.881  -8.437  0.00  0.00     0.069 H 
ATOM     58  C   LIG d   1       7.520  -3.508  -4.654  0.00  0.00     0.338 A 
ATOM     59  C   LIG d   1       6.869  -2.578  -3.827  0.00  0.00     0.031 A 
ATOM     60  O   LIG d   1       8.422  -4.184  -4.189  0.00  0.00    -0.245 OA
ATOM     61  H   LIG d   1       7.165  -2.464  -2.795  0.00  0.00     0.070 H 
BRANCH  54  62
ATOM     62  C   LIG d   1       5.135  -0.816  -3.507  0.00  0.00    -0.017 A 
ATOM     63  C   LIG d   1       5.776   0.362  -3.120  0.00  0.00    -0.054 A 
ATOM     64  C   LIG d   1       5.107   1.284  -2.342  0.00  0.00    -0.061 A 
ATOM     65  H   LIG d   1       6.793   0.552  -3.432  0.00  0.00     0.062 H 
ATOM     66  C   LIG d   1       3.807   1.038  -1.937  0.00  0.00    -0.062 A 
ATOM     67  H   LIG d   1       5.600   2.198  -2.046  0.00  0.00     0.062 H 
ATOM     68  C   LIG d   1       3.167  -0.130  -2.312  0.00  0.00    -0.061 A 
ATOM     69  H   LIG d   1       3.289   1.762  -1.325  0.00  0.00     0.062 H 
ATOM     70  C   LIG d   1       3.824  -1.057  -3.094  0.00  0.00    -0.054 A 
ATOM     71  H   LIG d   1       2.152  -0.315  -1.993  0.00  0.00     0.062 H 
ATOM     72  H   LIG d   1       3.323  -1.969  -3.388  0.00  0.00     0.062 H 
ENDBRANCH  54  62
ENDBRANCH  46  47
ENDBRANCH  43  46
ENDBRANCH  41  43
ENDBRANCH  40  41
ENDBRANCH  20  40
BRANCH  17  73
ATOM     73  C   LIG d   1       8.755   3.061  -8.970  0.00  0.00    -0.056 C 
ATOM     74  H   LIG d   1       7.768   3.123  -9.429  0.00  0.00     0.024 H 
ATOM     75  H   LIG d   1       8.837   3.810  -8.182  0.00  0.00     0.024 H 
ATOM     76  H   LIG d   1       9.519   3.244  -9.726  0.00  0.00     0.024 H 
ENDBRANCH  17  73
BRANCH   7  77
ATOM     77  C   LIG d   1      10.201   4.728  -5.560  0.00  0.00    -0.059 C 
ATOM     78  H   LIG d   1       9.947   4.629  -6.615  0.00  0.00     0.024 H 
ATOM     79  H   LIG d   1       9.286   4.808  -4.972  0.00  0.00     0.024 H 
ATOM     80  H   LIG d   1      10.804   5.624  -5.414  0.00  0.00     0.024 H 
ENDBRANCH   7  77
BRANCH   1  81
ATOM     81  C   LIG d   1      12.035   5.273  -3.674  0.00  0.00    -0.041 C 
ATOM     82  H   LIG d   1      11.384   5.850  -4.331  0.00  0.00     0.030 H 
BRANCH  81  83
ATOM     83  C   LIG d   1      13.492   5.478  -4.094  0.00  0.00    -0.062 C 
ATOM     84  H   LIG d   1      14.037   5.970  -3.289  0.00  0.00     0.023 H 
ATOM     85  H   LIG d   1      13.949   4.510  -4.303  0.00  0.00     0.023 H 
ATOM     86  H   LIG d   1      13.529   6.098  -4.989  0.00  0.00     0.023 H 
ENDBRANCH  81  83
BRANCH  81  87
ATOM     87  C   LIG d   1      11.850   5.745  -2.230  0.00  0.00    -0.050 C 
ATOM     88  H   LIG d   1      11.499   4.914  -1.619  0.00  0.00     0.027 H 
ATOM     89  H   LIG d   1      12.802   6.106  -1.841  0.00  0.00     0.027 H 
BRANCH  87  90
ATOM     90  C   LIG d   1      10.821   6.876  -2.192  0.00  0.00    -0.053 C 
ATOM     91  H   LIG d   1      11.308   7.819  -2.439  0.00  0.00     0.026 H 
ATOM     92  H   LIG d   1      10.032   6.674  -2.916  0.00  0.00     0.026 H 
BRANCH  90  93
ATOM     93  C   LIG d   1      10.215   6.967  -0.790  0.00  0.00    -0.051 C 
ATOM     94  H   LIG d   1       9.635   7.885  -0.703  0.00  0.00     0.027 H 
ATOM     95  H   LIG d   1       9.563   6.109  -0.620  0.00  0.00     0.027 H 
BRANCH  93  96
ATOM     96  C   LIG d   1      11.336   6.970   0.251  0.00  0.00    -0.047 C 
ATOM     97  H   LIG d   1      12.284   6.742  -0.235  0.00  0.00     0.029 H 
BRANCH  96  98
ATOM     98  C   LIG d   1      11.417   8.349   0.908  0.00  0.00    -0.063 C 
ATOM     99  H   LIG d   1      11.399   8.237   1.993  0.00  0.00     0.023 H 
ATOM    100  H   LIG d   1      12.343   8.841   0.609  0.00  0.00     0.023 H 
ATOM    101  H   LIG d   1      10.567   8.953   0.591  0.00  0.00     0.023 H 
ENDBRANCH  96  98
BRANCH  96 102
ATOM    102  C   LIG d   1      11.043   5.914   1.319  0.00  0.00    -0.063 C 
ATOM    103  H   LIG d   1      11.866   5.883   2.034  0.00  0.00     0.023 H 
ATOM    104  H   LIG d   1      10.121   6.170   1.840  0.00  0.00     0.023 H 
ATOM    105  H   LIG d   1      10.935   4.939   0.847  0.00  0.00     0.023 H 
ENDBRANCH  96 102
ENDBRANCH  93  96
ENDBRANCH  90  93
ENDBRANCH  87  90
ENDBRANCH  81  87
ENDBRANCH   1  81
TORSDOF 16
ENDMDL
MODEL 4
REMARK VINA RESULT:      -6.0      6.837      9.659
REMARK  16 active torsions:
REMARK  status: ('A' for Active; 'I' for Inactive)
REMARK    1  A    between atoms: C_1  and  C_2 
REMARK    2  A    between atoms: C_2  and  C_4 
REMARK    3  A    between atoms: C_2  and  C_10 
REMARK    4  A    between atoms: C_4  and  C_5 
REMARK    5  A    between atoms: C_5  and  C_6 
REMARK    6  A    between atoms: C_6  and  C_7 
REMARK    7  A    between atoms: C_7  and  C_8 
REMARK    8  A    between atoms: C_7  and  C_9 
REMARK    9  A    between atoms: C_16  and  C_56 
REMARK   10  A    between atoms: C_26  and  C_55 
REMARK   11  A    between atoms: C_29  and  O_32 
REMARK   12  A    between atoms: O_32  and  C_33 
REMARK   13  A    between atoms: C_33  and  C_35 
REMARK   14  A    between atoms: C_35  and  O_36 
REMARK   15  A    between atoms: O_36  and  C_37 
REMARK   16  A    between atoms: C_44  and  C_49 
ROOT
ATOM      1  C   LIG d   1       6.328  -3.703  -4.869  0.00  0.00    -0.033 C 
ATOM      2  H   LIG d   1       6.925  -3.842  -3.967  0.00  0.00     0.031 H 
ATOM      3  C   LIG d   1       4.824  -3.887  -4.550  0.00  0.00    -0.049 C 
ATOM      4  C   LIG d   1       4.357  -5.136  -5.348  0.00  0.00    -0.049 C 
ATOM      5  C   LIG d   1       5.659  -5.919  -5.553  0.00  0.00    -0.032 C 
ATOM      6  H   LIG d   1       5.952  -6.416  -4.627  0.00  0.00     0.031 H 
ATOM      7  C   LIG d   1       6.661  -4.782  -5.895  0.00  0.00    -0.026 C 
ATOM      8  C   LIG d   1       8.055  -5.376  -5.820  0.00  0.00    -0.047 C 
ATOM      9  C   LIG d   1       8.156  -6.431  -6.933  0.00  0.00    -0.049 C 
ATOM     10  C   LIG d   1       7.080  -7.504  -6.796  0.00  0.00    -0.029 C 
ATOM     11  H   LIG d   1       7.260  -8.055  -5.873  0.00  0.00     0.031 H 
ATOM     12  C   LIG d   1       5.662  -6.906  -6.705  0.00  0.00    -0.031 C 
ATOM     13  H   LIG d   1       5.414  -6.398  -7.637  0.00  0.00     0.031 H 
ATOM     14  C   LIG d   1       4.668  -8.036  -6.415  0.00  0.00    -0.031 C 
ATOM     15  C   LIG d   1       4.799  -9.093  -7.472  0.00  0.00    -0.084 C 
ATOM     16  C   LIG d   1       5.898  -9.297  -8.138  0.00  0.00    -0.064 C 
ATOM     17  C   LIG d   1       7.173  -8.476  -7.961  0.00  0.00    -0.008 C 
ATOM     18  C   LIG d   1       8.350  -9.433  -7.750  0.00  0.00    -0.040 C 
ATOM     19  C   LIG d   1       8.421 -10.415  -8.922  0.00  0.00    -0.015 C 
ATOM     20  C   LIG d   1       7.150 -11.265  -8.961  0.00  0.00     0.107 C 
ATOM     21  H   LIG d   1       7.023 -11.771  -8.004  0.00  0.00     0.074 H 
ATOM     22  C   LIG d   1       5.913 -10.404  -9.180  0.00  0.00     0.006 C 
ATOM     23  H   LIG d   1       4.685  -4.053  -3.482  0.00  0.00     0.027 H 
ATOM     24  H   LIG d   1       4.263  -3.009  -4.870  0.00  0.00     0.027 H 
ATOM     25  H   LIG d   1       3.643  -5.720  -4.768  0.00  0.00     0.027 H 
ATOM     26  H   LIG d   1       3.929  -4.844  -6.307  0.00  0.00     0.027 H 
ATOM     27  H   LIG d   1       8.800  -4.597  -5.979  0.00  0.00     0.027 H 
ATOM     28  H   LIG d   1       8.207  -5.846  -4.849  0.00  0.00     0.027 H 
ATOM     29  H   LIG d   1       8.048  -5.940  -7.900  0.00  0.00     0.027 H 
ATOM     30  H   LIG d   1       9.137  -6.904  -6.885  0.00  0.00     0.027 H 
ATOM     31  H   LIG d   1       4.884  -8.468  -5.438  0.00  0.00     0.031 H 
ATOM     32  H   LIG d   1       3.654  -7.639  -6.422  0.00  0.00     0.031 H 
ATOM     33  H   LIG d   1       3.943  -9.714  -7.689  0.00  0.00     0.057 H 
ATOM     34  H   LIG d   1       9.277  -8.863  -7.697  0.00  0.00     0.028 H 
ATOM     35  H   LIG d   1       8.208  -9.985  -6.821  0.00  0.00     0.028 H 
ATOM     36  H   LIG d   1       8.514  -9.859  -9.855  0.00  0.00     0.030 H 
ATOM     37  H   LIG d   1       9.288 -11.064  -8.800  0.00  0.00     0.030 H 
ATOM     38  H   LIG d   1       4.998 -10.992  -9.104  0.00  0.00     0.035 H 
ATOM     39  H   LIG d   1       5.990  -9.970 -10.176  0.00  0.00     0.035 H 
ENDROOT
BRANCH  20  40
ATOM     40  O   LIG d   1       7.259 -12.237 -10.002  0.00  0.00    -0.459 OA
BRANCH  40  41
ATOM     41  C   LIG d   1       7.101 -13.524  -9.653  0.00  0.00     0.345 C 
ATOM     42  O   LIG d   1       7.909 -14.350 -10.004  0.00  0.00    -0.247 OA
BRANCH  41  43
ATOM     43  C   LIG d   1       5.913 -13.938  -8.823  0.00  0.00     0.186 C 
ATOM     44  H   LIG d   1       5.198 -13.116  -8.775  0.00  0.00     0.082 H 
ATOM     45  H   LIG d   1       5.436 -14.807  -9.278  0.00  0.00     0.082 H 
BRANCH  43  46
ATOM     46  O   LIG d   1       6.346 -14.268  -7.502  0.00  0.00    -0.479 OA
BRANCH  46  47
ATOM     47  C   LIG d   1       6.241 -13.297  -6.558  0.00  0.00     0.143 A 
ATOM     48  C   LIG d   1       7.394 -12.719  -6.030  0.00  0.00     0.083 A 
ATOM     49  C   LIG d   1       7.304 -11.737  -5.085  0.00  0.00    -0.029 A 
ATOM     50 CL   LIG d   1       8.955 -13.245  -6.582  0.00  0.00    -0.080 Cl
ATOM     51  C   LIG d   1       6.048 -11.319  -4.636  0.00  0.00     0.027 A 
ATOM     52  H   LIG d   1       8.200 -11.289  -4.682  0.00  0.00     0.064 H 
ATOM     53  C   LIG d   1       4.882 -11.902  -5.160  0.00  0.00     0.143 A 
ATOM     54  C   LIG d   1       5.921 -10.267  -3.613  0.00  0.00    -0.000 A 
ATOM     55  C   LIG d   1       4.990 -12.894  -6.123  0.00  0.00     0.025 A 
ATOM     56  O   LIG d   1       3.670 -11.495  -4.724  0.00  0.00    -0.422 OA
ATOM     57  H   LIG d   1       4.101 -13.349  -6.534  0.00  0.00     0.069 H 
ATOM     58  C   LIG d   1       3.535 -10.538  -3.793  0.00  0.00     0.338 A 
ATOM     59  C   LIG d   1       4.648  -9.903  -3.217  0.00  0.00     0.031 A 
ATOM     60  O   LIG d   1       2.417 -10.210  -3.437  0.00  0.00    -0.245 OA
ATOM     61  H   LIG d   1       4.511  -9.136  -2.469  0.00  0.00     0.070 H 
BRANCH  54  62
ATOM     62  C   LIG d   1       7.118  -9.621  -3.029  0.00  0.00    -0.017 A 
ATOM     63  C   LIG d   1       7.744  -8.570  -3.700  0.00  0.00    -0.054 A 
ATOM     64  C   LIG d   1       8.856  -7.970  -3.148  0.00  0.00    -0.061 A 
ATOM     65  H   LIG d   1       7.357  -8.226  -4.648  0.00  0.00     0.062 H 
ATOM     66  C   LIG d   1       9.357  -8.414  -1.937  0.00  0.00    -0.062 A 
ATOM     67  H   LIG d   1       9.340  -7.153  -3.664  0.00  0.00     0.062 H 
ATOM     68  C   LIG d   1       8.744  -9.460  -1.269  0.00  0.00    -0.061 A 
ATOM     69  H   LIG d   1      10.231  -7.943  -1.511  0.00  0.00     0.062 H 
ATOM     70  C   LIG d   1       7.628 -10.065  -1.808  0.00  0.00    -0.054 A 
ATOM     71  H   LIG d   1       9.139  -9.801  -0.324  0.00  0.00     0.062 H 
ATOM     72  H   LIG d   1       7.148 -10.881  -1.286  0.00  0.00     0.062 H 
ENDBRANCH  54  62
ENDBRANCH  46  47
ENDBRANCH  43  46
ENDBRANCH  41  43
ENDBRANCH  40  41
ENDBRANCH  20  40
BRANCH  17  73
ATOM     73  C   LIG d   1       7.452  -7.673  -9.232  0.00  0.00    -0.056 C 
ATOM     74  H   LIG d   1       6.720  -7.934  -9.996  0.00  0.00     0.024 H 
ATOM     75  H   LIG d   1       7.382  -6.607  -9.012  0.00  0.00     0.024 H 
ATOM     76  H   LIG d   1       8.454  -7.903  -9.595  0.00  0.00     0.024 H 
ENDBRANCH  17  73
BRANCH   7  77
ATOM     77  C   LIG d   1       6.390  -4.258  -7.306  0.00  0.00    -0.059 C 
ATOM     78  H   LIG d   1       7.221  -3.632  -7.629  0.00  0.00     0.024 H 
ATOM     79  H   LIG d   1       6.281  -5.099  -7.991  0.00  0.00     0.024 H 
ATOM     80  H   LIG d   1       5.471  -3.670  -7.306  0.00  0.00     0.024 H 
ENDBRANCH   7  77
BRANCH   1  81
ATOM     81  C   LIG d   1       6.578  -2.314  -5.461  0.00  0.00    -0.041 C 
ATOM     82  H   LIG d   1       6.581  -2.377  -6.549  0.00  0.00     0.030 H 
BRANCH  81  83
ATOM     83  C   LIG d   1       7.932  -1.790  -4.978  0.00  0.00    -0.062 C 
ATOM     84  H   LIG d   1       7.799  -0.814  -4.512  0.00  0.00     0.023 H 
ATOM     85  H   LIG d   1       8.353  -2.485  -4.251  0.00  0.00     0.023 H 
ATOM     86  H   LIG d   1       8.610  -1.698  -5.827  0.00  0.00     0.023 H 
ENDBRANCH  81  83
BRANCH  81  87
ATOM     87  C   LIG d   1       5.471  -1.360  -5.009  0.00  0.00    -0.050 C 
ATOM     88  H   LIG d   1       5.279  -0.628  -5.793  0.00  0.00     0.027 H 
ATOM     89  H   LIG d   1       4.562  -1.927  -4.810  0.00  0.00     0.027 H 
BRANCH  87  90
ATOM     90  C   LIG d   1       5.910  -0.637  -3.733  0.00  0.00    -0.053 C 
ATOM     91  H   LIG d   1       6.996  -0.678  -3.648  0.00  0.00     0.026 H 
ATOM     92  H   LIG d   1       5.588   0.403  -3.776  0.00  0.00     0.026 H 
BRANCH  90  93
ATOM     93  C   LIG d   1       5.276  -1.317  -2.518  0.00  0.00    -0.051 C 
ATOM     94  H   LIG d   1       4.835  -2.267  -2.822  0.00  0.00     0.027 H 
ATOM     95  H   LIG d   1       6.042  -1.497  -1.762  0.00  0.00     0.027 H 
BRANCH  93  96
ATOM     96  C   LIG d   1       4.188  -0.412  -1.937  0.00  0.00    -0.047 C 
ATOM     97  H   LIG d   1       3.976  -0.711  -0.910  0.00  0.00     0.029 H 
BRANCH  96  98
ATOM     98  C   LIG d   1       4.668   1.040  -1.957  0.00  0.00    -0.063 C 
ATOM     99  H   LIG d   1       4.494   1.467  -2.945  0.00  0.00     0.023 H 
ATOM    100  H   LIG d   1       4.119   1.615  -1.211  0.00  0.00     0.023 H 
ATOM    101  H   LIG d   1       5.734   1.073  -1.729  0.00  0.00     0.023 H 
ENDBRANCH  96  98
BRANCH  96 102
ATOM    102  C   LIG d   1       2.916  -0.540  -2.778  0.00  0.00    -0.063 C 
ATOM    103  H   LIG d   1       2.655  -1.593  -2.886  0.00  0.00     0.023 H 
ATOM    104  H   LIG d   1       2.100  -0.013  -2.284  0.00  0.00     0.023 H 
ATOM    105  H   LIG d   1       3.085  -0.105  -3.762  0.00  0.00     0.023 H 
ENDBRANCH  96 102
ENDBRANCH  93  96
ENDBRANCH  90  93
ENDBRANCH  87  90
ENDBRANCH  81  87
ENDBRANCH   1  81
TORSDOF 16
ENDMDL
MODEL 5
REMARK VINA RESULT:      -5.8      4.691      7.358
REMARK  16 active torsions:
REMARK  status: ('A' for Active; 'I' for Inactive)
REMARK    1  A    between atoms: C_1  and  C_2 
REMARK    2  A    between atoms: C_2  and  C_4 
REMARK    3  A    between atoms: C_2  and  C_10 
REMARK    4  A    between atoms: C_4  and  C_5 
REMARK    5  A    between atoms: C_5  and  C_6 
REMARK    6  A    between atoms: C_6  and  C_7 
REMARK    7  A    between atoms: C_7  and  C_8 
REMARK    8  A    between atoms: C_7  and  C_9 
REMARK    9  A    between atoms: C_16  and  C_56 
REMARK   10  A    between atoms: C_26  and  C_55 
REMARK   11  A    between atoms: C_29  and  O_32 
REMARK   12  A    between atoms: O_32  and  C_33 
REMARK   13  A    between atoms: C_33  and  C_35 
REMARK   14  A    between atoms: C_35  and  O_36 
REMARK   15  A    between atoms: O_36  and  C_37 
REMARK   16  A    between atoms: C_44  and  C_49 
ROOT
ATOM      1  C   LIG d   1       7.478  -7.716  -4.188  0.00  0.00    -0.033 C 
ATOM      2  H   LIG d   1       6.850  -7.511  -3.320  0.00  0.00     0.031 H 
ATOM      3  C   LIG d   1       8.814  -6.940  -4.079  0.00  0.00    -0.049 C 
ATOM      4  C   LIG d   1       8.830  -5.928  -5.257  0.00  0.00    -0.049 C 
ATOM      5  C   LIG d   1       7.341  -5.743  -5.571  0.00  0.00    -0.032 C 
ATOM      6  H   LIG d   1       6.872  -5.109  -4.817  0.00  0.00     0.031 H 
ATOM      7  C   LIG d   1       6.810  -7.198  -5.458  0.00  0.00    -0.026 C 
ATOM      8  C   LIG d   1       5.295  -7.122  -5.440  0.00  0.00    -0.047 C 
ATOM      9  C   LIG d   1       4.854  -6.575  -6.807  0.00  0.00    -0.049 C 
ATOM     10  C   LIG d   1       5.482  -5.215  -7.101  0.00  0.00    -0.029 C 
ATOM     11  H   LIG d   1       5.099  -4.496  -6.376  0.00  0.00     0.031 H 
ATOM     12  C   LIG d   1       7.016  -5.233  -6.962  0.00  0.00    -0.031 C 
ATOM     13  H   LIG d   1       7.448  -5.894  -7.715  0.00  0.00     0.031 H 
ATOM     14  C   LIG d   1       7.543  -3.803  -7.121  0.00  0.00    -0.031 C 
ATOM     15  C   LIG d   1       7.073  -3.246  -8.433  0.00  0.00    -0.084 C 
ATOM     16  C   LIG d   1       5.988  -3.650  -9.026  0.00  0.00    -0.064 C 
ATOM     17  C   LIG d   1       5.079  -4.754  -8.492  0.00  0.00    -0.008 C 
ATOM     18  C   LIG d   1       3.636  -4.241  -8.475  0.00  0.00    -0.040 C 
ATOM     19  C   LIG d   1       3.251  -3.766  -9.878  0.00  0.00    -0.015 C 
ATOM     20  C   LIG d   1       4.142  -2.593 -10.290  0.00  0.00     0.107 C 
ATOM     21  H   LIG d   1       4.062  -1.799  -9.547  0.00  0.00     0.074 H 
ATOM     22  C   LIG d   1       5.607  -3.004 -10.349  0.00  0.00     0.006 C 
ATOM     23  H   LIG d   1       8.862  -6.408  -3.129  0.00  0.00     0.027 H 
ATOM     24  H   LIG d   1       9.655  -7.628  -4.166  0.00  0.00     0.027 H 
ATOM     25  H   LIG d   1       9.280  -4.984  -4.950  0.00  0.00     0.027 H 
ATOM     26  H   LIG d   1       9.355  -6.345  -6.117  0.00  0.00     0.027 H 
ATOM     27  H   LIG d   1       4.875  -8.116  -5.285  0.00  0.00     0.027 H 
ATOM     28  H   LIG d   1       4.966  -6.451  -4.647  0.00  0.00     0.027 H 
ATOM     29  H   LIG d   1       5.150  -7.279  -7.584  0.00  0.00     0.027 H 
ATOM     30  H   LIG d   1       3.769  -6.474  -6.815  0.00  0.00     0.027 H 
ATOM     31  H   LIG d   1       7.167  -3.185  -6.306  0.00  0.00     0.031 H 
ATOM     32  H   LIG d   1       8.633  -3.812  -7.100  0.00  0.00     0.031 H 
ATOM     33  H   LIG d   1       7.661  -2.474  -8.905  0.00  0.00     0.057 H 
ATOM     34  H   LIG d   1       2.968  -5.044  -8.167  0.00  0.00     0.028 H 
ATOM     35  H   LIG d   1       3.554  -3.410  -7.775  0.00  0.00     0.028 H 
ATOM     36  H   LIG d   1       3.379  -4.585 -10.586  0.00  0.00     0.030 H 
ATOM     37  H   LIG d   1       2.208  -3.447  -9.880  0.00  0.00     0.030 H 
ATOM     38  H   LIG d   1       6.255  -2.149 -10.539  0.00  0.00     0.035 H 
ATOM     39  H   LIG d   1       5.710  -3.730 -11.154  0.00  0.00     0.035 H 
ENDROOT
BRANCH  20  40
ATOM     40  O   LIG d   1       3.721  -2.099 -11.562  0.00  0.00    -0.459 OA
BRANCH  40  41
ATOM     41  C   LIG d   1       3.385  -0.801 -11.630  0.00  0.00     0.345 C 
ATOM     42  O   LIG d   1       2.229  -0.483 -11.784  0.00  0.00    -0.247 OA
BRANCH  41  43
ATOM     43  C   LIG d   1       4.449   0.260 -11.516  0.00  0.00     0.186 C 
ATOM     44  H   LIG d   1       5.426  -0.213 -11.417  0.00  0.00     0.082 H 
ATOM     45  H   LIG d   1       4.438   0.884 -12.410  0.00  0.00     0.082 H 
BRANCH  43  46
ATOM     46  O   LIG d   1       4.194   1.069 -10.366  0.00  0.00    -0.479 OA
BRANCH  46  47
ATOM     47  C   LIG d   1       4.735   0.658  -9.190  0.00  0.00     0.143 A 
ATOM     48  C   LIG d   1       3.907   0.166  -8.183  0.00  0.00     0.083 A 
ATOM     49  C   LIG d   1       4.437  -0.258  -6.998  0.00  0.00    -0.029 A 
ATOM     50 CL   LIG d   1       2.191   0.084  -8.439  0.00  0.00    -0.080 Cl
ATOM     51  C   LIG d   1       5.817  -0.185  -6.791  0.00  0.00     0.027 A 
ATOM     52  H   LIG d   1       3.792  -0.643  -6.222  0.00  0.00     0.064 H 
ATOM     53  C   LIG d   1       6.658   0.315  -7.799  0.00  0.00     0.143 A 
ATOM     54  C   LIG d   1       6.417  -0.629  -5.520  0.00  0.00    -0.000 A 
ATOM     55  C   LIG d   1       6.104   0.736  -8.999  0.00  0.00     0.025 A 
ATOM     56  O   LIG d   1       7.991   0.383  -7.595  0.00  0.00    -0.422 OA
ATOM     57  H   LIG d   1       6.739   1.122  -9.782  0.00  0.00     0.069 H 
ATOM     58  C   LIG d   1       8.553  -0.016  -6.444  0.00  0.00     0.338 A 
ATOM     59  C   LIG d   1       7.788  -0.529  -5.383  0.00  0.00     0.031 A 
ATOM     60  O   LIG d   1       9.762   0.067  -6.315  0.00  0.00    -0.245 OA
ATOM     61  H   LIG d   1       8.267  -0.843  -4.468  0.00  0.00     0.070 H 
BRANCH  54  62
ATOM     62  C   LIG d   1       5.576  -1.164  -4.425  0.00  0.00    -0.017 A 
ATOM     63  C   LIG d   1       5.119  -2.481  -4.472  0.00  0.00    -0.054 A 
ATOM     64  C   LIG d   1       4.340  -2.975  -3.447  0.00  0.00    -0.061 A 
ATOM     65  H   LIG d   1       5.377  -3.114  -5.309  0.00  0.00     0.062 H 
ATOM     66  C   LIG d   1       4.004  -2.163  -2.377  0.00  0.00    -0.062 A 
ATOM     67  H   LIG d   1       3.989  -3.995  -3.480  0.00  0.00     0.062 H 
ATOM     68  C   LIG d   1       4.449  -0.854  -2.327  0.00  0.00    -0.061 A 
ATOM     69  H   LIG d   1       3.390  -2.554  -1.578  0.00  0.00     0.062 H 
ATOM     70  C   LIG d   1       5.233  -0.351  -3.344  0.00  0.00    -0.054 A 
ATOM     71  H   LIG d   1       4.184  -0.226  -1.489  0.00  0.00     0.062 H 
ATOM     72  H   LIG d   1       5.582   0.672  -3.303  0.00  0.00     0.062 H 
ENDBRANCH  54  62
ENDBRANCH  46  47
ENDBRANCH  43  46
ENDBRANCH  41  43
ENDBRANCH  40  41
ENDBRANCH  20  40
BRANCH  17  73
ATOM     73  C   LIG d   1       5.128  -5.963  -9.428  0.00  0.00    -0.056 C 
ATOM     74  H   LIG d   1       4.153  -6.100  -9.897  0.00  0.00     0.024 H 
ATOM     75  H   LIG d   1       5.881  -5.795 -10.199  0.00  0.00     0.024 H 
ATOM     76  H   LIG d   1       5.385  -6.855  -8.857  0.00  0.00     0.024 H 
ENDBRANCH  17  73
BRANCH   7  77
ATOM     77  C   LIG d   1       7.280  -8.016  -6.662  0.00  0.00    -0.059 C 
ATOM     78  H   LIG d   1       6.472  -8.666  -6.998  0.00  0.00     0.024 H 
ATOM     79  H   LIG d   1       7.565  -7.342  -7.470  0.00  0.00     0.024 H 
ATOM     80  H   LIG d   1       8.139  -8.624  -6.376  0.00  0.00     0.024 H 
ENDBRANCH   7  77
BRANCH   1  81
ATOM     81  C   LIG d   1       7.745  -9.218  -4.304  0.00  0.00    -0.041 C 
ATOM     82  H   LIG d   1       7.713  -9.513  -5.353  0.00  0.00     0.030 H 
BRANCH  81  83
ATOM     83  C   LIG d   1       6.677  -9.988  -3.526  0.00  0.00    -0.062 C 
ATOM     84  H   LIG d   1       6.621 -11.011  -3.899  0.00  0.00     0.023 H 
ATOM     85  H   LIG d   1       6.938 -10.003  -2.467  0.00  0.00     0.023 H 
ATOM     86  H   LIG d   1       5.710  -9.501  -3.656  0.00  0.00     0.023 H 
ENDBRANCH  81  83
BRANCH  81  87
ATOM     87  C   LIG d   1       9.126  -9.537  -3.727  0.00  0.00    -0.050 C 
ATOM     88  H   LIG d   1       9.765  -9.937  -4.514  0.00  0.00     0.027 H 
ATOM     89  H   LIG d   1       9.570  -8.627  -3.325  0.00  0.00     0.027 H 
BRANCH  87  90
ATOM     90  C   LIG d   1       8.985 -10.572  -2.609  0.00  0.00    -0.053 C 
ATOM     91  H   LIG d   1       7.930 -10.715  -2.378  0.00  0.00     0.026 H 
ATOM     92  H   LIG d   1       9.417 -11.518  -2.934  0.00  0.00     0.026 H 
BRANCH  90  93
ATOM     93  C   LIG d   1       9.719 -10.078  -1.361  0.00  0.00    -0.051 C 
ATOM     94  H   LIG d   1      10.779 -10.316  -1.445  0.00  0.00     0.027 H 
ATOM     95  H   LIG d   1       9.595  -8.998  -1.271  0.00  0.00     0.027 H 
BRANCH  93  96
ATOM     96  C   LIG d   1       9.138 -10.764  -0.123  0.00  0.00    -0.047 C 
ATOM     97  H   LIG d   1       8.670 -10.018   0.520  0.00  0.00     0.029 H 
BRANCH  96  98
ATOM     98  C   LIG d   1       8.093 -11.795  -0.554  0.00  0.00    -0.063 C 
ATOM     99  H   LIG d   1       7.251 -11.285  -1.022  0.00  0.00     0.023 H 
ATOM    100  H   LIG d   1       8.539 -12.490  -1.265  0.00  0.00     0.023 H 
ATOM    101  H   LIG d   1       7.744 -12.344   0.321  0.00  0.00     0.023 H 
ENDBRANCH  96  98
BRANCH  96 102
ATOM    102  C   LIG d   1      10.260 -11.467   0.644  0.00  0.00    -0.063 C 
ATOM    103  H   LIG d   1      11.202 -10.945   0.469  0.00  0.00     0.023 H 
ATOM    104  H   LIG d   1      10.033 -11.456   1.710  0.00  0.00     0.023 H 
ATOM    105  H   LIG d   1      10.346 -12.497   0.301  0.00  0.00     0.023 H 
ENDBRANCH  96 102
ENDBRANCH  93  96
ENDBRANCH  90  93
ENDBRANCH  87  90
ENDBRANCH  81  87
ENDBRANCH   1  81
TORSDOF 16
ENDMDL
MODEL 6
REMARK VINA RESULT:      -5.8      4.899      7.904
REMARK  16 active torsions:
REMARK  status: ('A' for Active; 'I' for Inactive)
REMARK    1  A    between atoms: C_1  and  C_2 
REMARK    2  A    between atoms: C_2  and  C_4 
REMARK    3  A    between atoms: C_2  and  C_10 
REMARK    4  A    between atoms: C_4  and  C_5 
REMARK    5  A    between atoms: C_5  and  C_6 
REMARK    6  A    between atoms: C_6  and  C_7 
REMARK    7  A    between atoms: C_7  and  C_8 
REMARK    8  A    between atoms: C_7  and  C_9 
REMARK    9  A    between atoms: C_16  and  C_56 
REMARK   10  A    between atoms: C_26  and  C_55 
REMARK   11  A    between atoms: C_29  and  O_32 
REMARK   12  A    between atoms: O_32  and  C_33 
REMARK   13  A    between atoms: C_33  and  C_35 
REMARK   14  A    between atoms: C_35  and  O_36 
REMARK   15  A    between atoms: O_36  and  C_37 
REMARK   16  A    between atoms: C_44  and  C_49 
ROOT
ATOM      1  C   LIG d   1      11.810  -4.594  -5.146  0.00  0.00    -0.033 C 
ATOM      2  H   LIG d   1      11.321  -5.565  -5.235  0.00  0.00     0.031 H 
ATOM      3  C   LIG d   1      11.639  -4.036  -3.711  0.00  0.00    -0.049 C 
ATOM      4  C   LIG d   1      10.785  -2.745  -3.843  0.00  0.00    -0.049 C 
ATOM      5  C   LIG d   1      10.028  -2.966  -5.157  0.00  0.00    -0.032 C 
ATOM      6  H   LIG d   1       9.219  -3.683  -5.012  0.00  0.00     0.031 H 
ATOM      7  C   LIG d   1      11.134  -3.577  -6.061  0.00  0.00    -0.026 C 
ATOM      8  C   LIG d   1      10.449  -4.131  -7.296  0.00  0.00    -0.047 C 
ATOM      9  C   LIG d   1       9.844  -2.936  -8.050  0.00  0.00    -0.049 C 
ATOM     10  C   LIG d   1       8.874  -2.147  -7.176  0.00  0.00    -0.029 C 
ATOM     11  H   LIG d   1       8.024  -2.787  -6.941  0.00  0.00     0.031 H 
ATOM     12  C   LIG d   1       9.507  -1.714  -5.838  0.00  0.00    -0.031 C 
ATOM     13  H   LIG d   1      10.325  -1.018  -6.025  0.00  0.00     0.031 H 
ATOM     14  C   LIG d   1       8.424  -1.068  -4.966  0.00  0.00    -0.031 C 
ATOM     15  C   LIG d   1       7.796   0.067  -5.720  0.00  0.00    -0.084 C 
ATOM     16  C   LIG d   1       7.756   0.120  -7.019  0.00  0.00    -0.064 C 
ATOM     17  C   LIG d   1       8.365  -0.935  -7.939  0.00  0.00    -0.008 C 
ATOM     18  C   LIG d   1       7.310  -1.367  -8.962  0.00  0.00    -0.040 C 
ATOM     19  C   LIG d   1       6.795  -0.136  -9.711  0.00  0.00    -0.015 C 
ATOM     20  C   LIG d   1       6.109   0.817  -8.729  0.00  0.00     0.107 C 
ATOM     21  H   LIG d   1       5.313   0.287  -8.207  0.00  0.00     0.074 H 
ATOM     22  C   LIG d   1       7.083   1.318  -7.670  0.00  0.00     0.006 C 
ATOM     23  H   LIG d   1      11.122  -4.763  -3.086  0.00  0.00     0.027 H 
ATOM     24  H   LIG d   1      12.613  -3.798  -3.284  0.00  0.00     0.027 H 
ATOM     25  H   LIG d   1      10.091  -2.654  -3.008  0.00  0.00     0.027 H 
ATOM     26  H   LIG d   1      11.425  -1.864  -3.910  0.00  0.00     0.027 H 
ATOM     27  H   LIG d   1      11.177  -4.639  -7.928  0.00  0.00     0.027 H 
ATOM     28  H   LIG d   1       9.660  -4.823  -7.003  0.00  0.00     0.027 H 
ATOM     29  H   LIG d   1      10.648  -2.276  -8.376  0.00  0.00     0.027 H 
ATOM     30  H   LIG d   1       9.312  -3.304  -8.928  0.00  0.00     0.027 H 
ATOM     31  H   LIG d   1       7.664  -1.810  -4.723  0.00  0.00     0.031 H 
ATOM     32  H   LIG d   1       8.874  -0.691  -4.048  0.00  0.00     0.031 H 
ATOM     33  H   LIG d   1       7.355   0.877  -5.158  0.00  0.00     0.057 H 
ATOM     34  H   LIG d   1       7.755  -2.064  -9.671  0.00  0.00     0.028 H 
ATOM     35  H   LIG d   1       6.481  -1.851  -8.446  0.00  0.00     0.028 H 
ATOM     36  H   LIG d   1       7.633   0.376 -10.186  0.00  0.00     0.030 H 
ATOM     37  H   LIG d   1       6.082  -0.446 -10.474  0.00  0.00     0.030 H 
ATOM     38  H   LIG d   1       6.576   1.912  -6.910  0.00  0.00     0.035 H 
ATOM     39  H   LIG d   1       7.830   1.927  -8.176  0.00  0.00     0.035 H 
ENDROOT
BRANCH  20  40
ATOM     40  O   LIG d   1       5.556   1.922  -9.446  0.00  0.00    -0.459 OA
BRANCH  40  41
ATOM     41  C   LIG d   1       4.253   1.851  -9.762  0.00  0.00     0.345 C 
ATOM     42  O   LIG d   1       3.918   1.684 -10.911  0.00  0.00    -0.247 OA
BRANCH  41  43
ATOM     43  C   LIG d   1       3.209   1.982  -8.684  0.00  0.00     0.186 C 
ATOM     44  H   LIG d   1       3.680   2.315  -7.759  0.00  0.00     0.082 H 
ATOM     45  H   LIG d   1       2.458   2.710  -8.991  0.00  0.00     0.082 H 
BRANCH  43  46
ATOM     46  O   LIG d   1       2.584   0.715  -8.470  0.00  0.00    -0.479 OA
BRANCH  46  47
ATOM     47  C   LIG d   1       3.165  -0.113  -7.563  0.00  0.00     0.143 A 
ATOM     48  C   LIG d   1       3.629  -1.364  -7.967  0.00  0.00     0.083 A 
ATOM     49  C   LIG d   1       4.220  -2.205  -7.068  0.00  0.00    -0.029 A 
ATOM     50 CL   LIG d   1       3.459  -1.854  -9.625  0.00  0.00    -0.080 Cl
ATOM     51  C   LIG d   1       4.350  -1.813  -5.733  0.00  0.00     0.027 A 
ATOM     52  H   LIG d   1       4.583  -3.171  -7.386  0.00  0.00     0.064 H 
ATOM     53  C   LIG d   1       3.881  -0.555  -5.317  0.00  0.00     0.143 A 
ATOM     54  C   LIG d   1       4.979  -2.701  -4.740  0.00  0.00    -0.000 A 
ATOM     55  C   LIG d   1       3.286   0.289  -6.244  0.00  0.00     0.025 A 
ATOM     56  O   LIG d   1       4.008  -0.180  -4.026  0.00  0.00    -0.422 OA
ATOM     57  H   LIG d   1       2.922   1.258  -5.937  0.00  0.00     0.069 H 
ATOM     58  C   LIG d   1       4.577  -0.976  -3.109  0.00  0.00     0.338 A 
ATOM     59  C   LIG d   1       5.075  -2.248  -3.437  0.00  0.00     0.031 A 
ATOM     60  O   LIG d   1       4.667  -0.586  -1.958  0.00  0.00    -0.245 OA
ATOM     61  H   LIG d   1       5.528  -2.869  -2.679  0.00  0.00     0.070 H 
BRANCH  54  62
ATOM     62  C   LIG d   1       5.490  -4.035  -5.125  0.00  0.00    -0.017 A 
ATOM     63  C   LIG d   1       6.860  -4.237  -5.299  0.00  0.00    -0.054 A 
ATOM     64  C   LIG d   1       7.331  -5.484  -5.653  0.00  0.00    -0.061 A 
ATOM     65  H   LIG d   1       7.550  -3.419  -5.154  0.00  0.00     0.062 H 
ATOM     66  C   LIG d   1       6.447  -6.531  -5.846  0.00  0.00    -0.062 A 
ATOM     67  H   LIG d   1       8.391  -5.643  -5.784  0.00  0.00     0.062 H 
ATOM     68  C   LIG d   1       5.087  -6.337  -5.681  0.00  0.00    -0.061 A 
ATOM     69  H   LIG d   1       6.821  -7.505  -6.127  0.00  0.00     0.062 H 
ATOM     70  C   LIG d   1       4.605  -5.096  -5.321  0.00  0.00    -0.054 A 
ATOM     71  H   LIG d   1       4.403  -7.159  -5.831  0.00  0.00     0.062 H 
ATOM     72  H   LIG d   1       3.542  -4.945  -5.191  0.00  0.00     0.062 H 
ENDBRANCH  54  62
ENDBRANCH  46  47
ENDBRANCH  43  46
ENDBRANCH  41  43
ENDBRANCH  40  41
ENDBRANCH  20  40
BRANCH  17  73
ATOM     73  C   LIG d   1       9.538  -0.331  -8.713  0.00  0.00    -0.056 C 
ATOM     74  H   LIG d   1      10.472  -0.767  -8.358  0.00  0.00     0.024 H 
ATOM     75  H   LIG d   1       9.419  -0.543  -9.776  0.00  0.00     0.024 H 
ATOM     76  H   LIG d   1       9.559   0.748  -8.558  0.00  0.00     0.024 H 
ENDBRANCH  17  73
BRANCH   7  77
ATOM     77  C   LIG d   1      12.136  -2.492  -6.460  0.00  0.00    -0.059 C 
ATOM     78  H   LIG d   1      12.933  -2.934  -7.056  0.00  0.00     0.024 H 
ATOM     79  H   LIG d   1      11.628  -1.725  -7.044  0.00  0.00     0.024 H 
ATOM     80  H   LIG d   1      12.561  -2.041  -5.562  0.00  0.00     0.024 H 
ENDBRANCH   7  77
BRANCH   1  81
ATOM     81  C   LIG d   1      13.295  -4.716  -5.494  0.00  0.00    -0.041 C 
ATOM     82  H   LIG d   1      13.560  -3.954  -6.228  0.00  0.00     0.030 H 
BRANCH  81  83
ATOM     83  C   LIG d   1      13.570  -6.102  -6.078  0.00  0.00    -0.062 C 
ATOM     84  H   LIG d   1      12.695  -6.737  -5.937  0.00  0.00     0.023 H 
ATOM     85  H   LIG d   1      13.786  -6.013  -7.143  0.00  0.00     0.023 H 
ATOM     86  H   LIG d   1      14.426  -6.547  -5.570  0.00  0.00     0.023 H 
ENDBRANCH  81  83
BRANCH  81  87
ATOM     87  C   LIG d   1      14.133  -4.519  -4.229  0.00  0.00    -0.050 C 
ATOM     88  H   LIG d   1      13.609  -3.850  -3.547  0.00  0.00     0.027 H 
ATOM     89  H   LIG d   1      14.290  -5.482  -3.745  0.00  0.00     0.027 H 
BRANCH  87  90
ATOM     90  C   LIG d   1      15.485  -3.910  -4.603  0.00  0.00    -0.053 C 
ATOM     91  H   LIG d   1      16.229  -4.191  -3.858  0.00  0.00     0.026 H 
ATOM     92  H   LIG d   1      15.793  -4.280  -5.581  0.00  0.00     0.026 H 
BRANCH  90  93
ATOM     93  C   LIG d   1      15.363  -2.385  -4.652  0.00  0.00    -0.051 C 
ATOM     94  H   LIG d   1      16.357  -1.940  -4.646  0.00  0.00     0.027 H 
ATOM     95  H   LIG d   1      14.838  -2.092  -5.562  0.00  0.00     0.027 H 
BRANCH  93  96
ATOM     96  C   LIG d   1      14.579  -1.898  -3.432  0.00  0.00    -0.047 C 
ATOM     97  H   LIG d   1      13.839  -2.648  -3.151  0.00  0.00     0.029 H 
BRANCH  96  98
ATOM     98  C   LIG d   1      15.541  -1.668  -2.265  0.00  0.00    -0.063 C 
ATOM     99  H   LIG d   1      16.411  -1.112  -2.615  0.00  0.00     0.023 H 
ATOM    100  H   LIG d   1      15.036  -1.101  -1.483  0.00  0.00     0.023 H 
ATOM    101  H   LIG d   1      15.863  -2.631  -1.865  0.00  0.00     0.023 H 
ENDBRANCH  96  98
BRANCH  96 102
ATOM    102  C   LIG d   1      13.870  -0.585  -3.772  0.00  0.00    -0.063 C 
ATOM    103  H   LIG d   1      14.546   0.251  -3.591  0.00  0.00     0.023 H 
ATOM    104  H   LIG d   1      13.576  -0.593  -4.821  0.00  0.00     0.023 H 
ATOM    105  H   LIG d   1      12.984  -0.477  -3.147  0.00  0.00     0.023 H 
ENDBRANCH  96 102
ENDBRANCH  93  96
ENDBRANCH  90  93
ENDBRANCH  87  90
ENDBRANCH  81  87
ENDBRANCH   1  81
TORSDOF 16
ENDMDL
MODEL 7
REMARK VINA RESULT:      -5.8      7.241      9.951
REMARK  16 active torsions:
REMARK  status: ('A' for Active; 'I' for Inactive)
REMARK    1  A    between atoms: C_1  and  C_2 
REMARK    2  A    between atoms: C_2  and  C_4 
REMARK    3  A    between atoms: C_2  and  C_10 
REMARK    4  A    between atoms: C_4  and  C_5 
REMARK    5  A    between atoms: C_5  and  C_6 
REMARK    6  A    between atoms: C_6  and  C_7 
REMARK    7  A    between atoms: C_7  and  C_8 
REMARK    8  A    between atoms: C_7  and  C_9 
REMARK    9  A    between atoms: C_16  and  C_56 
REMARK   10  A    between atoms: C_26  and  C_55 
REMARK   11  A    between atoms: C_29  and  O_32 
REMARK   12  A    between atoms: O_32  and  C_33 
REMARK   13  A    between atoms: C_33  and  C_35 
REMARK   14  A    between atoms: C_35  and  O_36 
REMARK   15  A    between atoms: O_36  and  C_37 
REMARK   16  A    between atoms: C_44  and  C_49 
ROOT
ATOM      1  C   LIG d   1      10.351   7.715  -1.443  0.00  0.00    -0.033 C 
ATOM      2  H   LIG d   1       9.412   7.621  -0.895  0.00  0.00     0.031 H 
ATOM      3  C   LIG d   1      10.310   8.957  -2.368  0.00  0.00    -0.049 C 
ATOM      4  C   LIG d   1      10.393   8.422  -3.824  0.00  0.00    -0.049 C 
ATOM      5  C   LIG d   1       9.866   6.988  -3.693  0.00  0.00    -0.032 C 
ATOM      6  H   LIG d   1       8.781   6.992  -3.582  0.00  0.00     0.031 H 
ATOM      7  C   LIG d   1      10.542   6.522  -2.374  0.00  0.00    -0.026 C 
ATOM      8  C   LIG d   1       9.868   5.228  -1.959  0.00  0.00    -0.047 C 
ATOM      9  C   LIG d   1      10.192   4.183  -3.038  0.00  0.00    -0.049 C 
ATOM     10  C   LIG d   1       9.734   4.637  -4.421  0.00  0.00    -0.029 C 
ATOM     11  H   LIG d   1       8.646   4.705  -4.418  0.00  0.00     0.031 H 
ATOM     12  C   LIG d   1      10.279   6.029  -4.794  0.00  0.00    -0.031 C 
ATOM     13  H   LIG d   1      11.366   5.992  -4.872  0.00  0.00     0.031 H 
ATOM     14  C   LIG d   1       9.648   6.468  -6.120  0.00  0.00    -0.031 C 
ATOM     15  C   LIG d   1       9.919   5.426  -7.165  0.00  0.00    -0.084 C 
ATOM     16  C   LIG d   1      10.123   4.172  -6.880  0.00  0.00    -0.064 C 
ATOM     17  C   LIG d   1      10.147   3.609  -5.461  0.00  0.00    -0.008 C 
ATOM     18  C   LIG d   1       9.214   2.396  -5.397  0.00  0.00    -0.040 C 
ATOM     19  C   LIG d   1       9.631   1.377  -6.460  0.00  0.00    -0.015 C 
ATOM     20  C   LIG d   1       9.477   1.992  -7.853  0.00  0.00     0.107 C 
ATOM     21  H   LIG d   1       8.451   2.333  -7.987  0.00  0.00     0.074 H 
ATOM     22  C   LIG d   1      10.379   3.206  -8.025  0.00  0.00     0.006 C 
ATOM     23  H   LIG d   1       9.377   9.502  -2.223  0.00  0.00     0.027 H 
ATOM     24  H   LIG d   1      11.159   9.607  -2.159  0.00  0.00     0.027 H 
ATOM     25  H   LIG d   1       9.757   9.007  -4.488  0.00  0.00     0.027 H 
ATOM     26  H   LIG d   1      11.424   8.422  -4.177  0.00  0.00     0.027 H 
ATOM     27  H   LIG d   1      10.257   4.899  -0.995  0.00  0.00     0.027 H 
ATOM     28  H   LIG d   1       8.790   5.374  -1.896  0.00  0.00     0.027 H 
ATOM     29  H   LIG d   1      11.269   4.014  -3.057  0.00  0.00     0.027 H 
ATOM     30  H   LIG d   1       9.692   3.247  -2.788  0.00  0.00     0.027 H 
ATOM     31  H   LIG d   1       8.572   6.582  -5.990  0.00  0.00     0.031 H 
ATOM     32  H   LIG d   1      10.081   7.418  -6.432  0.00  0.00     0.031 H 
ATOM     33  H   LIG d   1       9.946   5.729  -8.201  0.00  0.00     0.057 H 
ATOM     34  H   LIG d   1       9.279   1.939  -4.410  0.00  0.00     0.028 H 
ATOM     35  H   LIG d   1       8.188   2.716  -5.583  0.00  0.00     0.028 H 
ATOM     36  H   LIG d   1      10.672   1.095  -6.301  0.00  0.00     0.030 H 
ATOM     37  H   LIG d   1       9.000   0.492  -6.382  0.00  0.00     0.030 H 
ATOM     38  H   LIG d   1      10.197   3.708  -8.976  0.00  0.00     0.035 H 
ATOM     39  H   LIG d   1      11.410   2.856  -7.986  0.00  0.00     0.035 H 
ENDROOT
BRANCH  20  40
ATOM     40  O   LIG d   1       9.786   1.009  -8.843  0.00  0.00    -0.459 OA
BRANCH  40  41
ATOM     41  C   LIG d   1       8.816   0.702  -9.718  0.00  0.00     0.345 C 
ATOM     42  O   LIG d   1       8.119   1.575 -10.180  0.00  0.00    -0.247 OA
BRANCH  41  43
ATOM     43  C   LIG d   1       8.594  -0.732 -10.125  0.00  0.00     0.186 C 
ATOM     44  H   LIG d   1       8.635  -0.813 -11.211  0.00  0.00     0.082 H 
ATOM     45  H   LIG d   1       9.370  -1.359  -9.685  0.00  0.00     0.082 H 
BRANCH  43  46
ATOM     46  O   LIG d   1       7.313  -1.166  -9.665  0.00  0.00    -0.479 OA
BRANCH  46  47
ATOM     47  C   LIG d   1       7.134  -1.240  -8.320  0.00  0.00     0.143 A 
ATOM     48  C   LIG d   1       6.143  -0.472  -7.711  0.00  0.00     0.083 A 
ATOM     49  C   LIG d   1       5.947  -0.541  -6.361  0.00  0.00    -0.029 A 
ATOM     50 CL   LIG d   1       5.148   0.576  -8.675  0.00  0.00    -0.080 Cl
ATOM     51  C   LIG d   1       6.753  -1.379  -5.586  0.00  0.00     0.027 A 
ATOM     52  H   LIG d   1       5.176   0.052  -5.894  0.00  0.00     0.064 H 
ATOM     53  C   LIG d   1       7.757  -2.153  -6.192  0.00  0.00     0.143 A 
ATOM     54  C   LIG d   1       6.568  -1.470  -4.127  0.00  0.00    -0.000 A 
ATOM     55  C   LIG d   1       7.940  -2.075  -7.564  0.00  0.00     0.025 A 
ATOM     56  O   LIG d   1       8.533  -2.962  -5.439  0.00  0.00    -0.422 OA
ATOM     57  H   LIG d   1       8.707  -2.665  -8.043  0.00  0.00     0.069 H 
ATOM     58  C   LIG d   1       8.379  -3.057  -4.110  0.00  0.00     0.338 A 
ATOM     59  C   LIG d   1       7.400  -2.320  -3.422  0.00  0.00     0.031 A 
ATOM     60  O   LIG d   1       9.108  -3.804  -3.480  0.00  0.00    -0.245 OA
ATOM     61  H   LIG d   1       7.298  -2.415  -2.351  0.00  0.00     0.070 H 
BRANCH  54  62
ATOM     62  C   LIG d   1       5.526  -0.677  -3.438  0.00  0.00    -0.017 A 
ATOM     63  C   LIG d   1       5.812   0.612  -2.986  0.00  0.00    -0.054 A 
ATOM     64  C   LIG d   1       4.835   1.349  -2.349  0.00  0.00    -0.061 A 
ATOM     65  H   LIG d   1       6.795   1.033  -3.137  0.00  0.00     0.062 H 
ATOM     66  C   LIG d   1       3.576   0.808  -2.150  0.00  0.00    -0.062 A 
ATOM     67  H   LIG d   1       5.053   2.348  -2.002  0.00  0.00     0.062 H 
ATOM     68  C   LIG d   1       3.288  -0.471  -2.591  0.00  0.00    -0.061 A 
ATOM     69  H   LIG d   1       2.816   1.388  -1.647  0.00  0.00     0.062 H 
ATOM     70  C   LIG d   1       4.255  -1.216  -3.234  0.00  0.00    -0.054 A 
ATOM     71  H   LIG d   1       2.304  -0.887  -2.434  0.00  0.00     0.062 H 
ATOM     72  H   LIG d   1       4.029  -2.215  -3.579  0.00  0.00     0.062 H 
ENDBRANCH  54  62
ENDBRANCH  46  47
ENDBRANCH  43  46
ENDBRANCH  41  43
ENDBRANCH  40  41
ENDBRANCH  20  40
BRANCH  17  73
ATOM     73  C   LIG d   1      11.557   3.124  -5.121  0.00  0.00    -0.056 C 
ATOM     74  H   LIG d   1      12.119   2.963  -6.041  0.00  0.00     0.024 H 
ATOM     75  H   LIG d   1      12.063   3.877  -4.514  0.00  0.00     0.024 H 
ATOM     76  H   LIG d   1      11.496   2.189  -4.564  0.00  0.00     0.024 H 
ENDBRANCH  17  73
BRANCH   7  77
ATOM     77  C   LIG d   1      12.034   6.283  -2.612  0.00  0.00    -0.059 C 
ATOM     78  H   LIG d   1      12.370   6.890  -3.451  0.00  0.00     0.024 H 
ATOM     79  H   LIG d   1      12.593   6.558  -1.717  0.00  0.00     0.024 H 
ATOM     80  H   LIG d   1      12.203   5.229  -2.835  0.00  0.00     0.024 H 
ENDBRANCH   7  77
BRANCH   1  81
ATOM     81  C   LIG d   1      11.524   7.819  -0.467  0.00  0.00    -0.041 C 
ATOM     82  H   LIG d   1      12.375   7.263  -0.861  0.00  0.00     0.030 H 
BRANCH  81  83
ATOM     83  C   LIG d   1      11.116   7.234   0.886  0.00  0.00    -0.062 C 
ATOM     84  H   LIG d   1      11.610   7.788   1.686  0.00  0.00     0.023 H 
ATOM     85  H   LIG d   1      10.035   7.313   1.005  0.00  0.00     0.023 H 
ATOM     86  H   LIG d   1      11.412   6.186   0.934  0.00  0.00     0.023 H 
ENDBRANCH  81  83
BRANCH  81  87
ATOM     87  C   LIG d   1      11.913   9.289  -0.291  0.00  0.00    -0.050 C 
ATOM     88  H   LIG d   1      12.998   9.373  -0.232  0.00  0.00     0.027 H 
ATOM     89  H   LIG d   1      11.550   9.864  -1.143  0.00  0.00     0.027 H 
BRANCH  87  90
ATOM     90  C   LIG d   1      11.287   9.831   0.995  0.00  0.00    -0.053 C 
ATOM     91  H   LIG d   1      10.662   9.063   1.447  0.00  0.00     0.026 H 
ATOM     92  H   LIG d   1      12.076  10.114   1.691  0.00  0.00     0.026 H 
BRANCH  90  93
ATOM     93  C   LIG d   1      10.433  11.058   0.668  0.00  0.00    -0.051 C 
ATOM     94  H   LIG d   1       9.536  10.744   0.133  0.00  0.00     0.027 H 
ATOM     95  H   LIG d   1      10.147  11.558   1.594  0.00  0.00     0.027 H 
BRANCH  93  96
ATOM     96  C   LIG d   1      11.237  12.022  -0.206  0.00  0.00    -0.047 C 
ATOM     97  H   LIG d   1      12.081  11.494  -0.649  0.00  0.00     0.029 H 
BRANCH  96  98
ATOM     98  C   LIG d   1      10.341  12.573  -1.316  0.00  0.00    -0.063 C 
ATOM     99  H   LIG d   1       9.553  13.186  -0.877  0.00  0.00     0.023 H 
ATOM    100  H   LIG d   1      10.937  13.180  -1.998  0.00  0.00     0.023 H 
ATOM    101  H   LIG d   1       9.893  11.745  -1.865  0.00  0.00     0.023 H 
ENDBRANCH  96  98
BRANCH  96 102
ATOM    102  C   LIG d   1      11.753  13.179   0.653  0.00  0.00    -0.063 C 
ATOM    103  H   LIG d   1      12.827  13.068   0.804  0.00  0.00     0.023 H 
ATOM    104  H   LIG d   1      11.553  14.123   0.148  0.00  0.00     0.023 H 
ATOM    105  H   LIG d   1      11.247  13.169   1.618  0.00  0.00     0.023 H 
ENDBRANCH  96 102
ENDBRANCH  93  96
ENDBRANCH  90  93
ENDBRANCH  87  90
ENDBRANCH  81  87
ENDBRANCH   1  81
TORSDOF 16
ENDMDL
MODEL 8
REMARK VINA RESULT:      -5.7      8.551     11.304
REMARK  16 active torsions:
REMARK  status: ('A' for Active; 'I' for Inactive)
REMARK    1  A    between atoms: C_1  and  C_2 
REMARK    2  A    between atoms: C_2  and  C_4 
REMARK    3  A    between atoms: C_2  and  C_10 
REMARK    4  A    between atoms: C_4  and  C_5 
REMARK    5  A    between atoms: C_5  and  C_6 
REMARK    6  A    between atoms: C_6  and  C_7 
REMARK    7  A    between atoms: C_7  and  C_8 
REMARK    8  A    between atoms: C_7  and  C_9 
REMARK    9  A    between atoms: C_16  and  C_56 
REMARK   10  A    between atoms: C_26  and  C_55 
REMARK   11  A    between atoms: C_29  and  O_32 
REMARK   12  A    between atoms: O_32  and  C_33 
REMARK   13  A    between atoms: C_33  and  C_35 
REMARK   14  A    between atoms: C_35  and  O_36 
REMARK   15  A    between atoms: O_36  and  C_37 
REMARK   16  A    between atoms: C_44  and  C_49 
ROOT
ATOM      1  C   LIG d   1       6.979   0.198  -4.777  0.00  0.00    -0.033 C 
ATOM      2  H   LIG d   1       5.926   0.358  -5.011  0.00  0.00     0.031 H 
ATOM      3  C   LIG d   1       7.343   0.892  -3.441  0.00  0.00    -0.049 C 
ATOM      4  C   LIG d   1       8.372   2.002  -3.791  0.00  0.00    -0.049 C 
ATOM      5  C   LIG d   1       8.078   2.290  -5.268  0.00  0.00    -0.032 C 
ATOM      6  H   LIG d   1       7.165   2.877  -5.364  0.00  0.00     0.031 H 
ATOM      7  C   LIG d   1       7.861   0.859  -5.832  0.00  0.00    -0.026 C 
ATOM      8  C   LIG d   1       7.259   1.010  -7.217  0.00  0.00    -0.047 C 
ATOM      9  C   LIG d   1       8.316   1.698  -8.095  0.00  0.00    -0.049 C 
ATOM     10  C   LIG d   1       8.743   3.044  -7.518  0.00  0.00    -0.029 C 
ATOM     11  H   LIG d   1       7.884   3.715  -7.539  0.00  0.00     0.031 H 
ATOM     12  C   LIG d   1       9.205   2.936  -6.052  0.00  0.00    -0.031 C 
ATOM     13  H   LIG d   1      10.105   2.323  -5.993  0.00  0.00     0.031 H 
ATOM     14  C   LIG d   1       9.465   4.346  -5.511  0.00  0.00    -0.031 C 
ATOM     15  C   LIG d   1      10.459   5.039  -6.396  0.00  0.00    -0.084 C 
ATOM     16  C   LIG d   1      10.614   4.744  -7.654  0.00  0.00    -0.064 C 
ATOM     17  C   LIG d   1       9.842   3.645  -8.379  0.00  0.00    -0.008 C 
ATOM     18  C   LIG d   1       9.242   4.228  -9.662  0.00  0.00    -0.040 C 
ATOM     19  C   LIG d   1      10.357   4.844 -10.509  0.00  0.00    -0.015 C 
ATOM     20  C   LIG d   1      11.006   6.002  -9.748  0.00  0.00     0.107 C 
ATOM     21  H   LIG d   1      10.242   6.730  -9.477  0.00  0.00     0.074 H 
ATOM     22  C   LIG d   1      11.648   5.523  -8.453  0.00  0.00     0.006 C 
ATOM     23  H   LIG d   1       6.453   1.335  -2.995  0.00  0.00     0.027 H 
ATOM     24  H   LIG d   1       7.788   0.172  -2.755  0.00  0.00     0.027 H 
ATOM     25  H   LIG d   1       8.203   2.891  -3.184  0.00  0.00     0.027 H 
ATOM     26  H   LIG d   1       9.391   1.637  -3.666  0.00  0.00     0.027 H 
ATOM     27  H   LIG d   1       7.018   0.029  -7.625  0.00  0.00     0.027 H 
ATOM     28  H   LIG d   1       6.361   1.625  -7.166  0.00  0.00     0.027 H 
ATOM     29  H   LIG d   1       9.189   1.050  -8.174  0.00  0.00     0.027 H 
ATOM     30  H   LIG d   1       7.901   1.854  -9.092  0.00  0.00     0.027 H 
ATOM     31  H   LIG d   1       8.532   4.908  -5.500  0.00  0.00     0.031 H 
ATOM     32  H   LIG d   1       9.863   4.279  -4.499  0.00  0.00     0.031 H 
ATOM     33  H   LIG d   1      11.072   5.819  -5.970  0.00  0.00     0.057 H 
ATOM     34  H   LIG d   1       8.751   3.436 -10.226  0.00  0.00     0.028 H 
ATOM     35  H   LIG d   1       8.514   4.997  -9.406  0.00  0.00     0.028 H 
ATOM     36  H   LIG d   1      11.110   4.085 -10.724  0.00  0.00     0.030 H 
ATOM     37  H   LIG d   1       9.940   5.214 -11.446  0.00  0.00     0.030 H 
ATOM     38  H   LIG d   1      12.018   6.358  -7.858  0.00  0.00     0.035 H 
ATOM     39  H   LIG d   1      12.474   4.866  -8.721  0.00  0.00     0.035 H 
ENDROOT
BRANCH  20  40
ATOM     40  O   LIG d   1      11.986   6.627 -10.578  0.00  0.00    -0.459 OA
BRANCH  40  41
ATOM     41  C   LIG d   1      11.633   7.773 -11.180  0.00  0.00     0.345 C 
ATOM     42  O   LIG d   1      10.971   7.746 -12.191  0.00  0.00    -0.247 OA
BRANCH  41  43
ATOM     43  C   LIG d   1      12.063   9.094 -10.596  0.00  0.00     0.186 C 
ATOM     44  H   LIG d   1      13.026   8.976 -10.100  0.00  0.00     0.082 H 
ATOM     45  H   LIG d   1      12.153   9.832 -11.393  0.00  0.00     0.082 H 
BRANCH  43  46
ATOM     46  O   LIG d   1      11.090   9.535  -9.647  0.00  0.00    -0.479 OA
BRANCH  46  47
ATOM     47  C   LIG d   1      11.377   9.338  -8.334  0.00  0.00     0.143 A 
ATOM     48  C   LIG d   1      10.396   8.838  -7.479  0.00  0.00     0.083 A 
ATOM     49  C   LIG d   1      10.672   8.629  -6.158  0.00  0.00    -0.029 A 
ATOM     50 CL   LIG d   1       8.815   8.472  -8.100  0.00  0.00    -0.080 Cl
ATOM     51  C   LIG d   1      11.941   8.930  -5.658  0.00  0.00     0.027 A 
ATOM     52  H   LIG d   1       9.910   8.237  -5.501  0.00  0.00     0.064 H 
ATOM     53  C   LIG d   1      12.934   9.439  -6.513  0.00  0.00     0.143 A 
ATOM     54  C   LIG d   1      12.265   8.720  -4.237  0.00  0.00    -0.000 A 
ATOM     55  C   LIG d   1      12.639   9.641  -7.853  0.00  0.00     0.025 A 
ATOM     56  O   LIG d   1      14.160   9.729  -6.026  0.00  0.00    -0.422 OA
ATOM     57  H   LIG d   1      13.393  10.032  -8.520  0.00  0.00     0.069 H 
ATOM     58  C   LIG d   1      14.472   9.544  -4.734  0.00  0.00     0.338 A 
ATOM     59  C   LIG d   1      13.541   9.039  -3.811  0.00  0.00     0.031 A 
ATOM     60  O   LIG d   1      15.595   9.822  -4.350  0.00  0.00    -0.245 OA
ATOM     61  H   LIG d   1      13.819   8.901  -2.777  0.00  0.00     0.070 H 
BRANCH  54  62
ATOM     62  C   LIG d   1      11.257   8.186  -3.294  0.00  0.00    -0.017 A 
ATOM     63  C   LIG d   1      10.535   9.054  -2.474  0.00  0.00    -0.054 A 
ATOM     64  C   LIG d   1       9.593   8.551  -1.602  0.00  0.00    -0.061 A 
ATOM     65  H   LIG d   1      10.712  10.119  -2.525  0.00  0.00     0.062 H 
ATOM     66  C   LIG d   1       9.370   7.187  -1.532  0.00  0.00    -0.062 A 
ATOM     67  H   LIG d   1       9.030   9.222  -0.970  0.00  0.00     0.062 H 
ATOM     68  C   LIG d   1      10.086   6.320  -2.338  0.00  0.00    -0.061 A 
ATOM     69  H   LIG d   1       8.634   6.798  -0.844  0.00  0.00     0.062 H 
ATOM     70  C   LIG d   1      11.027   6.812  -3.218  0.00  0.00    -0.054 A 
ATOM     71  H   LIG d   1       9.907   5.256  -2.279  0.00  0.00     0.062 H 
ATOM     72  H   LIG d   1      11.585   6.134  -3.848  0.00  0.00     0.062 H 
ENDBRANCH  54  62
ENDBRANCH  46  47
ENDBRANCH  43  46
ENDBRANCH  41  43
ENDBRANCH  40  41
ENDBRANCH  20  40
BRANCH  17  73
ATOM     73  C   LIG d   1      10.799   2.523  -8.785  0.00  0.00    -0.056 C 
ATOM     74  H   LIG d   1      11.017   2.599  -9.850  0.00  0.00     0.024 H 
ATOM     75  H   LIG d   1      11.725   2.612  -8.217  0.00  0.00     0.024 H 
ATOM     76  H   LIG d   1      10.336   1.558  -8.577  0.00  0.00     0.024 H 
ENDBRANCH  17  73
BRANCH   7  77
ATOM     77  C   LIG d   1       9.202   0.127  -5.920  0.00  0.00    -0.059 C 
ATOM     78  H   LIG d   1       9.029  -0.949  -5.926  0.00  0.00     0.024 H 
ATOM     79  H   LIG d   1       9.714   0.418  -6.837  0.00  0.00     0.024 H 
ATOM     80  H   LIG d   1       9.818   0.392  -5.060  0.00  0.00     0.024 H 
ENDBRANCH   7  77
BRANCH   1  81
ATOM     81  C   LIG d   1       7.282  -1.300  -4.696  0.00  0.00    -0.041 C 
ATOM     82  H   LIG d   1       8.356  -1.459  -4.788  0.00  0.00     0.030 H 
BRANCH  81  83
ATOM     83  C   LIG d   1       6.560  -2.029  -5.831  0.00  0.00    -0.062 C 
ATOM     84  H   LIG d   1       6.810  -3.089  -5.799  0.00  0.00     0.023 H 
ATOM     85  H   LIG d   1       5.483  -1.906  -5.715  0.00  0.00     0.023 H 
ATOM     86  H   LIG d   1       6.872  -1.611  -6.788  0.00  0.00     0.023 H 
ENDBRANCH  81  83
BRANCH  81  87
ATOM     87  C   LIG d   1       6.799  -1.846  -3.351  0.00  0.00    -0.050 C 
ATOM     88  H   LIG d   1       7.316  -2.779  -3.131  0.00  0.00     0.027 H 
ATOM     89  H   LIG d   1       7.011  -1.119  -2.567  0.00  0.00     0.027 H 
BRANCH  87  90
ATOM     90  C   LIG d   1       5.292  -2.100  -3.415  0.00  0.00    -0.053 C 
ATOM     91  H   LIG d   1       4.869  -1.569  -4.268  0.00  0.00     0.026 H 
ATOM     92  H   LIG d   1       5.108  -3.169  -3.525  0.00  0.00     0.026 H 
BRANCH  90  93
ATOM     93  C   LIG d   1       4.635  -1.600  -2.127  0.00  0.00    -0.051 C 
ATOM     94  H   LIG d   1       4.163  -2.437  -1.611  0.00  0.00     0.027 H 
ATOM     95  H   LIG d   1       5.394  -1.157  -1.481  0.00  0.00     0.027 H 
BRANCH  93  96
ATOM     96  C   LIG d   1       3.577  -0.549  -2.468  0.00  0.00    -0.047 C 
ATOM     97  H   LIG d   1       2.642  -0.797  -1.965  0.00  0.00     0.029 H 
BRANCH  96  98
ATOM     98  C   LIG d   1       4.058   0.827  -2.003  0.00  0.00    -0.063 C 
ATOM     99  H   LIG d   1       5.099   0.761  -1.687  0.00  0.00     0.023 H 
ATOM    100  H   LIG d   1       3.971   1.539  -2.825  0.00  0.00     0.023 H 
ATOM    101  H   LIG d   1       3.444   1.162  -1.167  0.00  0.00     0.023 H 
ENDBRANCH  96  98
BRANCH  96 102
ATOM    102  C   LIG d   1       3.352  -0.525  -3.981  0.00  0.00    -0.063 C 
ATOM    103  H   LIG d   1       4.313  -0.583  -4.493  0.00  0.00     0.023 H 
ATOM    104  H   LIG d   1       2.735  -1.376  -4.270  0.00  0.00     0.023 H 
ATOM    105  H   LIG d   1       2.848   0.399  -4.259  0.00  0.00     0.023 H 
ENDBRANCH  96 102
ENDBRANCH  93  96
ENDBRANCH  90  93
ENDBRANCH  87  90
ENDBRANCH  81  87
ENDBRANCH   1  81
TORSDOF 16
ENDMDL
MODEL 9
REMARK VINA RESULT:      -5.7      6.917     10.218
REMARK  16 active torsions:
REMARK  status: ('A' for Active; 'I' for Inactive)
REMARK    1  A    between atoms: C_1  and  C_2 
REMARK    2  A    between atoms: C_2  and  C_4 
REMARK    3  A    between atoms: C_2  and  C_10 
REMARK    4  A    between atoms: C_4  and  C_5 
REMARK    5  A    between atoms: C_5  and  C_6 
REMARK    6  A    between atoms: C_6  and  C_7 
REMARK    7  A    between atoms: C_7  and  C_8 
REMARK    8  A    between atoms: C_7  and  C_9 
REMARK    9  A    between atoms: C_16  and  C_56 
REMARK   10  A    between atoms: C_26  and  C_55 
REMARK   11  A    between atoms: C_29  and  O_32 
REMARK   12  A    between atoms: O_32  and  C_33 
REMARK   13  A    between atoms: C_33  and  C_35 
REMARK   14  A    between atoms: C_35  and  O_36 
REMARK   15  A    between atoms: O_36  and  C_37 
REMARK   16  A    between atoms: C_44  and  C_49 
ROOT
ATOM      1  C   LIG d   1      10.731   6.507  -3.415  0.00  0.00    -0.033 C 
ATOM      2  H   LIG d   1      10.853   6.633  -2.339  0.00  0.00     0.031 H 
ATOM      3  C   LIG d   1       9.229   6.409  -3.778  0.00  0.00    -0.049 C 
ATOM      4  C   LIG d   1       9.009   4.983  -4.352  0.00  0.00    -0.049 C 
ATOM      5  C   LIG d   1      10.164   4.184  -3.738  0.00  0.00    -0.032 C 
ATOM      6  H   LIG d   1       9.960   3.971  -2.687  0.00  0.00     0.031 H 
ATOM      7  C   LIG d   1      11.345   5.185  -3.865  0.00  0.00    -0.026 C 
ATOM      8  C   LIG d   1      12.483   4.646  -3.017  0.00  0.00    -0.047 C 
ATOM      9  C   LIG d   1      12.930   3.321  -3.653  0.00  0.00    -0.049 C 
ATOM     10  C   LIG d   1      11.780   2.323  -3.751  0.00  0.00    -0.029 C 
ATOM     11  H   LIG d   1      11.470   2.056  -2.740  0.00  0.00     0.031 H 
ATOM     12  C   LIG d   1      10.550   2.911  -4.468  0.00  0.00    -0.031 C 
ATOM     13  H   LIG d   1      10.798   3.133  -5.506  0.00  0.00     0.031 H 
ATOM     14  C   LIG d   1       9.399   1.902  -4.383  0.00  0.00    -0.031 C 
ATOM     15  C   LIG d   1       9.849   0.590  -4.957  0.00  0.00    -0.084 C 
ATOM     16  C   LIG d   1      11.095   0.215  -4.976  0.00  0.00    -0.064 C 
ATOM     17  C   LIG d   1      12.254   1.062  -4.455  0.00  0.00    -0.008 C 
ATOM     18  C   LIG d   1      13.095   0.212  -3.498  0.00  0.00    -0.040 C 
ATOM     19  C   LIG d   1      13.550  -1.060  -4.215  0.00  0.00    -0.015 C 
ATOM     20  C   LIG d   1      12.330  -1.897  -4.608  0.00  0.00     0.107 C 
ATOM     21  H   LIG d   1      11.738  -2.112  -3.720  0.00  0.00     0.074 H 
ATOM     22  C   LIG d   1      11.429  -1.141  -5.576  0.00  0.00     0.006 C 
ATOM     23  H   LIG d   1       8.618   6.551  -2.886  0.00  0.00     0.027 H 
ATOM     24  H   LIG d   1       8.976   7.158  -4.529  0.00  0.00     0.027 H 
ATOM     25  H   LIG d   1       8.049   4.581  -4.032  0.00  0.00     0.027 H 
ATOM     26  H   LIG d   1       9.082   4.989  -5.440  0.00  0.00     0.027 H 
ATOM     27  H   LIG d   1      13.310   5.355  -3.014  0.00  0.00     0.027 H 
ATOM     28  H   LIG d   1      12.136   4.472  -1.999  0.00  0.00     0.027 H 
ATOM     29  H   LIG d   1      13.316   3.518  -4.653  0.00  0.00     0.027 H 
ATOM     30  H   LIG d   1      13.726   2.888  -3.047  0.00  0.00     0.027 H 
ATOM     31  H   LIG d   1       9.113   1.765  -3.340  0.00  0.00     0.031 H 
ATOM     32  H   LIG d   1       8.547   2.274  -4.950  0.00  0.00     0.031 H 
ATOM     33  H   LIG d   1       9.106  -0.073  -5.372  0.00  0.00     0.057 H 
ATOM     34  H   LIG d   1      13.967   0.781  -3.177  0.00  0.00     0.028 H 
ATOM     35  H   LIG d   1      12.495  -0.056  -2.628  0.00  0.00     0.028 H 
ATOM     36  H   LIG d   1      14.109  -0.790  -5.112  0.00  0.00     0.030 H 
ATOM     37  H   LIG d   1      14.191  -1.642  -3.552  0.00  0.00     0.030 H 
ATOM     38  H   LIG d   1      10.509  -1.690  -5.776  0.00  0.00     0.035 H 
ATOM     39  H   LIG d   1      11.986  -1.005  -6.502  0.00  0.00     0.035 H 
ENDROOT
BRANCH  20  40
ATOM     40  O   LIG d   1      12.765  -3.122  -5.200  0.00  0.00    -0.459 OA
BRANCH  40  41
ATOM     41  C   LIG d   1      12.425  -4.257  -4.568  0.00  0.00     0.345 C 
ATOM     42  O   LIG d   1      12.839  -4.475  -3.454  0.00  0.00    -0.247 OA
BRANCH  41  43
ATOM     43  C   LIG d   1      11.530  -5.260  -5.249  0.00  0.00     0.186 C 
ATOM     44  H   LIG d   1      11.249  -4.886  -6.234  0.00  0.00     0.082 H 
ATOM     45  H   LIG d   1      12.060  -6.206  -5.358  0.00  0.00     0.082 H 
BRANCH  43  46
ATOM     46  O   LIG d   1      10.353  -5.459  -4.463  0.00  0.00    -0.479 OA
BRANCH  46  47
ATOM     47  C   LIG d   1       9.352  -4.553  -4.611  0.00  0.00     0.143 A 
ATOM     48  C   LIG d   1       8.867  -3.872  -3.496  0.00  0.00     0.083 A 
ATOM     49  C   LIG d   1       7.864  -2.953  -3.630  0.00  0.00    -0.029 A 
ATOM     50 CL   LIG d   1       9.545  -4.187  -1.928  0.00  0.00    -0.080 Cl
ATOM     51  C   LIG d   1       7.315  -2.705  -4.891  0.00  0.00     0.027 A 
ATOM     52  H   LIG d   1       7.495  -2.424  -2.765  0.00  0.00     0.064 H 
ATOM     53  C   LIG d   1       7.796  -3.393  -6.018  0.00  0.00     0.143 A 
ATOM     54  C   LIG d   1       6.230  -1.725  -5.065  0.00  0.00    -0.000 A 
ATOM     55  C   LIG d   1       8.817  -4.318  -5.866  0.00  0.00     0.025 A 
ATOM     56  O   LIG d   1       7.262  -3.150  -7.235  0.00  0.00    -0.422 OA
ATOM     57  H   LIG d   1       9.196  -4.853  -6.724  0.00  0.00     0.069 H 
ATOM     58  C   LIG d   1       6.273  -2.261  -7.411  0.00  0.00     0.338 A 
ATOM     59  C   LIG d   1       5.734  -1.530  -6.340  0.00  0.00     0.031 A 
ATOM     60  O   LIG d   1       5.830  -2.082  -8.532  0.00  0.00    -0.245 OA
ATOM     61  H   LIG d   1       4.937  -0.820  -6.510  0.00  0.00     0.070 H 
BRANCH  54  62
ATOM     62  C   LIG d   1       5.687  -0.974  -3.910  0.00  0.00    -0.017 A 
ATOM     63  C   LIG d   1       4.801  -1.592  -3.026  0.00  0.00    -0.054 A 
ATOM     64  C   LIG d   1       4.303  -0.889  -1.950  0.00  0.00    -0.061 A 
ATOM     65  H   LIG d   1       4.509  -2.621  -3.184  0.00  0.00     0.062 H 
ATOM     66  C   LIG d   1       4.671   0.430  -1.751  0.00  0.00    -0.062 A 
ATOM     67  H   LIG d   1       3.621  -1.367  -1.263  0.00  0.00     0.062 H 
ATOM     68  C   LIG d   1       5.544   1.051  -2.627  0.00  0.00    -0.061 A 
ATOM     69  H   LIG d   1       4.275   0.978  -0.908  0.00  0.00     0.062 H 
ATOM     70  C   LIG d   1       6.054   0.356  -3.704  0.00  0.00    -0.054 A 
ATOM     71  H   LIG d   1       5.829   2.080  -2.466  0.00  0.00     0.062 H 
ATOM     72  H   LIG d   1       6.737   0.841  -4.387  0.00  0.00     0.062 H 
ENDBRANCH  54  62
ENDBRANCH  46  47
ENDBRANCH  43  46
ENDBRANCH  41  43
ENDBRANCH  40  41
ENDBRANCH  20  40
BRANCH  17  73
ATOM     73  C   LIG d   1      13.156   1.475  -5.619  0.00  0.00    -0.056 C 
ATOM     74  H   LIG d   1      13.982   0.770  -5.707  0.00  0.00     0.024 H 
ATOM     75  H   LIG d   1      12.578   1.475  -6.544  0.00  0.00     0.024 H 
ATOM     76  H   LIG d   1      13.550   2.475  -5.436  0.00  0.00     0.024 H 
ENDBRANCH  17  73
BRANCH   7  77
ATOM     77  C   LIG d   1      11.783   5.287  -5.327  0.00  0.00    -0.059 C 
ATOM     78  H   LIG d   1      11.367   4.453  -5.891  0.00  0.00     0.024 H 
ATOM     79  H   LIG d   1      11.425   6.226  -5.748  0.00  0.00     0.024 H 
ATOM     80  H   LIG d   1      12.872   5.256  -5.384  0.00  0.00     0.024 H 
ENDBRANCH   7  77
BRANCH   1  81
ATOM     81  C   LIG d   1      11.382   7.674  -4.161  0.00  0.00    -0.041 C 
ATOM     82  H   LIG d   1      11.868   7.303  -5.063  0.00  0.00     0.030 H 
BRANCH  81  83
ATOM     83  C   LIG d   1      12.422   8.340  -3.259  0.00  0.00    -0.062 C 
ATOM     84  H   LIG d   1      13.305   7.704  -3.190  0.00  0.00     0.023 H 
ATOM     85  H   LIG d   1      12.703   9.306  -3.679  0.00  0.00     0.023 H 
ATOM     86  H   LIG d   1      12.001   8.486  -2.264  0.00  0.00     0.023 H 
ENDBRANCH  81  83
BRANCH  81  87
ATOM     87  C   LIG d   1      10.310   8.696  -4.544  0.00  0.00    -0.050 C 
ATOM     88  H   LIG d   1       9.323   8.288  -4.324  0.00  0.00     0.027 H 
ATOM     89  H   LIG d   1      10.460   9.611  -3.971  0.00  0.00     0.027 H 
BRANCH  87  90
ATOM     90  C   LIG d   1      10.412   9.008  -6.038  0.00  0.00    -0.053 C 
ATOM     91  H   LIG d   1      10.329  10.083  -6.192  0.00  0.00     0.026 H 
ATOM     92  H   LIG d   1      11.373   8.660  -6.416  0.00  0.00     0.026 H 
BRANCH  90  93
ATOM     93  C   LIG d   1       9.283   8.296  -6.786  0.00  0.00    -0.051 C 
ATOM     94  H   LIG d   1       8.630   7.798  -6.069  0.00  0.00     0.027 H 
ATOM     95  H   LIG d   1       8.707   9.027  -7.354  0.00  0.00     0.027 H 
BRANCH  93  96
ATOM     96  C   LIG d   1       9.877   7.260  -7.741  0.00  0.00    -0.047 C 
ATOM     97  H   LIG d   1       9.893   6.284  -7.255  0.00  0.00     0.029 H 
BRANCH  96  98
ATOM     98  C   LIG d   1       9.023   7.185  -9.008  0.00  0.00    -0.063 C 
ATOM     99  H   LIG d   1       8.308   8.008  -9.014  0.00  0.00     0.023 H 
ATOM    100  H   LIG d   1       9.667   7.257  -9.886  0.00  0.00     0.023 H 
ATOM    101  H   LIG d   1       8.486   6.236  -9.028  0.00  0.00     0.023 H 
ENDBRANCH  96  98
BRANCH  96 102
ATOM    102  C   LIG d   1      11.304   7.669  -8.113  0.00  0.00    -0.063 C 
ATOM    103  H   LIG d   1      12.008   7.187  -7.434  0.00  0.00     0.023 H 
ATOM    104  H   LIG d   1      11.516   7.358  -9.135  0.00  0.00     0.023 H 
ATOM    105  H   LIG d   1      11.405   8.750  -8.033  0.00  0.00     0.023 H 
ENDBRANCH  96 102
ENDBRANCH  93  96
ENDBRANCH  90  93
ENDBRANCH  87  90
ENDBRANCH  81  87
ENDBRANCH   1  81
TORSDOF 16
ENDMDL
MODEL 10
REMARK VINA RESULT:      -5.5      7.437     11.612
REMARK  16 active torsions:
REMARK  status: ('A' for Active; 'I' for Inactive)
REMARK    1  A    between atoms: C_1  and  C_2 
REMARK    2  A    between atoms: C_2  and  C_4 
REMARK    3  A    between atoms: C_2  and  C_10 
REMARK    4  A    between atoms: C_4  and  C_5 
REMARK    5  A    between atoms: C_5  and  C_6 
REMARK    6  A    between atoms: C_6  and  C_7 
REMARK    7  A    between atoms: C_7  and  C_8 
REMARK    8  A    between atoms: C_7  and  C_9 
REMARK    9  A    between atoms: C_16  and  C_56 
REMARK   10  A    between atoms: C_26  and  C_55 
REMARK   11  A    between atoms: C_29  and  O_32 
REMARK   12  A    between atoms: O_32  and  C_33 
REMARK   13  A    between atoms: C_33  and  C_35 
REMARK   14  A    between atoms: C_35  and  O_36 
REMARK   15  A    between atoms: O_36  and  C_37 
REMARK   16  A    between atoms: C_44  and  C_49 
ROOT
ATOM      1  C   LIG d   1       9.206   1.440  -4.624  0.00  0.00    -0.033 C 
ATOM      2  H   LIG d   1      10.075   1.257  -3.992  0.00  0.00     0.031 H 
ATOM      3  C   LIG d   1       8.049   2.038  -3.786  0.00  0.00    -0.049 C 
ATOM      4  C   LIG d   1       6.901   0.992  -3.815  0.00  0.00    -0.049 C 
ATOM      5  C   LIG d   1       7.640  -0.321  -4.101  0.00  0.00    -0.032 C 
ATOM      6  H   LIG d   1       8.156  -0.667  -3.204  0.00  0.00     0.031 H 
ATOM      7  C   LIG d   1       8.669   0.123  -5.177  0.00  0.00    -0.026 C 
ATOM      8  C   LIG d   1       9.673  -1.004  -5.329  0.00  0.00    -0.047 C 
ATOM      9  C   LIG d   1       8.910  -2.215  -5.890  0.00  0.00    -0.049 C 
ATOM     10  C   LIG d   1       7.745  -2.617  -4.991  0.00  0.00    -0.029 C 
ATOM     11  H   LIG d   1       8.149  -2.960  -4.038  0.00  0.00     0.031 H 
ATOM     12  C   LIG d   1       6.799  -1.438  -4.690  0.00  0.00    -0.031 C 
ATOM     13  H   LIG d   1       6.321  -1.103  -5.612  0.00  0.00     0.031 H 
ATOM     14  C   LIG d   1       5.755  -1.891  -3.664  0.00  0.00    -0.031 C 
ATOM     15  C   LIG d   1       5.043  -3.104  -4.186  0.00  0.00    -0.084 C 
ATOM     16  C   LIG d   1       5.581  -3.932  -5.033  0.00  0.00    -0.064 C 
ATOM     17  C   LIG d   1       6.978  -3.764  -5.627  0.00  0.00    -0.008 C 
ATOM     18  C   LIG d   1       7.751  -5.074  -5.446  0.00  0.00    -0.040 C 
ATOM     19  C   LIG d   1       6.960  -6.222  -6.077  0.00  0.00    -0.015 C 
ATOM     20  C   LIG d   1       5.621  -6.385  -5.354  0.00  0.00     0.107 C 
ATOM     21  H   LIG d   1       5.801  -6.541  -4.291  0.00  0.00     0.074 H 
ATOM     22  C   LIG d   1       4.764  -5.132  -5.484  0.00  0.00     0.006 C 
ATOM     23  H   LIG d   1       8.376   2.205  -2.761  0.00  0.00     0.027 H 
ATOM     24  H   LIG d   1       7.712   2.975  -4.230  0.00  0.00     0.027 H 
ATOM     25  H   LIG d   1       6.394   0.947  -2.851  0.00  0.00     0.027 H 
ATOM     26  H   LIG d   1       6.193   1.217  -4.613  0.00  0.00     0.027 H 
ATOM     27  H   LIG d   1      10.461  -0.709  -6.021  0.00  0.00     0.027 H 
ATOM     28  H   LIG d   1      10.101  -1.253  -4.359  0.00  0.00     0.027 H 
ATOM     29  H   LIG d   1       8.526  -1.966  -6.880  0.00  0.00     0.027 H 
ATOM     30  H   LIG d   1       9.597  -3.057  -5.979  0.00  0.00     0.027 H 
ATOM     31  H   LIG d   1       6.252  -2.136  -2.725  0.00  0.00     0.031 H 
ATOM     32  H   LIG d   1       5.036  -1.090  -3.498  0.00  0.00     0.031 H 
ATOM     33  H   LIG d   1       4.038  -3.299  -3.843  0.00  0.00     0.057 H 
ATOM     34  H   LIG d   1       8.723  -4.993  -5.932  0.00  0.00     0.028 H 
ATOM     35  H   LIG d   1       7.891  -5.270  -4.383  0.00  0.00     0.028 H 
ATOM     36  H   LIG d   1       6.778  -6.002  -7.129  0.00  0.00     0.030 H 
ATOM     37  H   LIG d   1       7.531  -7.146  -5.994  0.00  0.00     0.030 H 
ATOM     38  H   LIG d   1       3.857  -5.205  -4.885  0.00  0.00     0.035 H 
ATOM     39  H   LIG d   1       4.503  -5.023  -6.536  0.00  0.00     0.035 H 
ENDROOT
BRANCH  20  40
ATOM     40  O   LIG d   1       4.925  -7.511  -5.890  0.00  0.00    -0.459 OA
BRANCH  40  41
ATOM     41  C   LIG d   1       4.912  -8.629  -5.147  0.00  0.00     0.345 C 
ATOM     42  O   LIG d   1       3.887  -8.996  -4.623  0.00  0.00    -0.247 OA
BRANCH  41  43
ATOM     43  C   LIG d   1       6.178  -9.426  -4.963  0.00  0.00     0.186 C 
ATOM     44  H   LIG d   1       6.206 -10.236  -5.692  0.00  0.00     0.082 H 
ATOM     45  H   LIG d   1       7.041  -8.776  -5.109  0.00  0.00     0.082 H 
BRANCH  43  46
ATOM     46  O   LIG d   1       6.210  -9.972  -3.643  0.00  0.00    -0.479 OA
BRANCH  46  47
ATOM     47  C   LIG d   1       7.298  -9.684  -2.883  0.00  0.00     0.143 A 
ATOM     48  C   LIG d   1       7.408 -10.221  -1.602  0.00  0.00     0.083 A 
ATOM     49  C   LIG d   1       8.499  -9.945  -0.828  0.00  0.00    -0.029 A 
ATOM     50 CL   LIG d   1       6.154 -11.254  -0.988  0.00  0.00    -0.080 Cl
ATOM     51  C   LIG d   1       9.505  -9.109  -1.321  0.00  0.00     0.027 A 
ATOM     52  H   LIG d   1       8.583 -10.367   0.162  0.00  0.00     0.064 H 
ATOM     53  C   LIG d   1       9.398  -8.559  -2.609  0.00  0.00     0.143 A 
ATOM     54  C   LIG d   1      10.690  -8.788  -0.506  0.00  0.00    -0.000 A 
ATOM     55  C   LIG d   1       8.286  -8.853  -3.384  0.00  0.00     0.025 A 
ATOM     56  O   LIG d   1      10.372  -7.751  -3.082  0.00  0.00    -0.422 OA
ATOM     57  H   LIG d   1       8.192  -8.438  -4.376  0.00  0.00     0.069 H 
ATOM     58  C   LIG d   1      11.458  -7.449  -2.354  0.00  0.00     0.338 A 
ATOM     59  C   LIG d   1      11.645  -7.955  -1.057  0.00  0.00     0.031 A 
ATOM     60  O   LIG d   1      12.306  -6.715  -2.831  0.00  0.00    -0.245 OA
ATOM     61  H   LIG d   1      12.529  -7.695  -0.492  0.00  0.00     0.070 H 
BRANCH  54  62
ATOM     62  C   LIG d   1      10.851  -9.341   0.857  0.00  0.00    -0.017 A 
ATOM     63  C   LIG d   1      11.016  -8.483   1.946  0.00  0.00    -0.054 A 
ATOM     64  C   LIG d   1      11.161  -9.004   3.214  0.00  0.00    -0.061 A 
ATOM     65  H   LIG d   1      11.026  -7.413   1.795  0.00  0.00     0.062 H 
ATOM     66  C   LIG d   1      11.154 -10.374   3.408  0.00  0.00    -0.062 A 
ATOM     67  H   LIG d   1      11.283  -8.341   4.058  0.00  0.00     0.062 H 
ATOM     68  C   LIG d   1      10.998 -11.230   2.332  0.00  0.00    -0.061 A 
ATOM     69  H   LIG d   1      11.272 -10.777   4.403  0.00  0.00     0.062 H 
ATOM     70  C   LIG d   1      10.846 -10.722   1.059  0.00  0.00    -0.054 A 
ATOM     71  H   LIG d   1      10.992 -12.299   2.490  0.00  0.00     0.062 H 
ATOM     72  H   LIG d   1      10.723 -11.391   0.220  0.00  0.00     0.062 H 
ENDBRANCH  54  62
ENDBRANCH  46  47
ENDBRANCH  43  46
ENDBRANCH  41  43
ENDBRANCH  40  41
ENDBRANCH  20  40
BRANCH  17  73
ATOM     73  C   LIG d   1       6.872  -3.494  -7.129  0.00  0.00    -0.056 C 
ATOM     74  H   LIG d   1       6.473  -2.492  -7.291  0.00  0.00     0.024 H 
ATOM     75  H   LIG d   1       7.861  -3.568  -7.582  0.00  0.00     0.024 H 
ATOM     76  H   LIG d   1       6.207  -4.228  -7.584  0.00  0.00     0.024 H 
ENDBRANCH  17  73
BRANCH   7  77
ATOM     77  C   LIG d   1       7.954   0.372  -6.506  0.00  0.00    -0.059 C 
ATOM     78  H   LIG d   1       8.682   0.367  -7.317  0.00  0.00     0.024 H 
ATOM     79  H   LIG d   1       7.217  -0.414  -6.675  0.00  0.00     0.024 H 
ATOM     80  H   LIG d   1       7.452   1.339  -6.475  0.00  0.00     0.024 H 
ENDBRANCH   7  77
BRANCH   1  81
ATOM     81  C   LIG d   1       9.575   2.384  -5.770  0.00  0.00    -0.041 C 
ATOM     82  H   LIG d   1       9.055   2.076  -6.677  0.00  0.00     0.030 H 
BRANCH  81  83
ATOM     83  C   LIG d   1      11.085   2.334  -6.007  0.00  0.00    -0.062 C 
ATOM     84  H   LIG d   1      11.324   2.843  -6.941  0.00  0.00     0.023 H 
ATOM     85  H   LIG d   1      11.599   2.830  -5.182  0.00  0.00     0.023 H 
ATOM     86  H   LIG d   1      11.410   1.296  -6.065  0.00  0.00     0.023 H 
ENDBRANCH  81  83
BRANCH  81  87
ATOM     87  C   LIG d   1       9.162   3.812  -5.407  0.00  0.00    -0.050 C 
ATOM     88  H   LIG d   1       8.702   4.289  -6.273  0.00  0.00     0.027 H 
ATOM     89  H   LIG d   1       8.448   3.785  -4.585  0.00  0.00     0.027 H 
BRANCH  87  90
ATOM     90  C   LIG d   1      10.398   4.608  -4.983  0.00  0.00    -0.053 C 
ATOM     91  H   LIG d   1      11.130   3.933  -4.539  0.00  0.00     0.026 H 
ATOM     92  H   LIG d   1      10.834   5.094  -5.855  0.00  0.00     0.026 H 
BRANCH  90  93
ATOM     93  C   LIG d   1       9.994   5.669  -3.957  0.00  0.00    -0.051 C 
ATOM     94  H   LIG d   1      10.696   6.501  -3.999  0.00  0.00     0.027 H 
ATOM     95  H   LIG d   1       8.990   6.029  -4.184  0.00  0.00     0.027 H 
BRANCH  93  96
ATOM     96  C   LIG d   1      10.012   5.057  -2.555  0.00  0.00    -0.047 C 
ATOM     97  H   LIG d   1       9.088   4.503  -2.388  0.00  0.00     0.029 H 
BRANCH  96  98
ATOM     98  C   LIG d   1      11.205   4.107  -2.429  0.00  0.00    -0.063 C 
ATOM     99  H   LIG d   1      10.873   3.162  -1.999  0.00  0.00     0.023 H 
ATOM    100  H   LIG d   1      11.634   3.928  -3.415  0.00  0.00     0.023 H 
ATOM    101  H   LIG d   1      11.958   4.556  -1.781  0.00  0.00     0.023 H 
ENDBRANCH  96  98
BRANCH  96 102
ATOM    102  C   LIG d   1      10.135   6.171  -1.514  0.00  0.00    -0.063 C 
ATOM    103  H   LIG d   1      11.169   6.235  -1.170  0.00  0.00     0.023 H 
ATOM    104  H   LIG d   1       9.843   7.120  -1.961  0.00  0.00     0.023 H 
ATOM    105  H   LIG d   1       9.485   5.952  -0.668  0.00  0.00     0.023 H 
ENDBRANCH  96 102
ENDBRANCH  93  96
ENDBRANCH  90  93
ENDBRANCH  87  90
ENDBRANCH  81  87
ENDBRANCH   1  81
TORSDOF 16
ENDMDL
