MODEL 1
REMARK VINA RESULT:      -5.3      0.000      0.000
REMARK  6 active torsions:
REMARK  status: ('A' for Active; 'I' for Inactive)
REMARK    1  A    between atoms: C_1  and  N_37 
REMARK    2  A    between atoms: C_2  and  N_37 
REMARK    3  A    between atoms: C_3  and  C_4 
REMARK    4  A    between atoms: C_3  and  N_37 
REMARK    5  A    between atoms: C_4  and  C_5 
REMARK    6  A    between atoms: C_5  and  C_7 
ROOT
ATOM      1  C   LIG d   1       3.268  -0.326  -7.488  0.00  0.00     0.021 A 
ATOM      2  C   LIG d   1       4.061  -1.464  -7.675  0.00  0.00    -0.048 A 
ATOM      3  C   LIG d   1       4.698  -2.045  -6.602  0.00  0.00    -0.016 A 
ATOM      4  C   LIG d   1       4.543  -1.508  -5.330  0.00  0.00     0.162 A 
ATOM      5  C   LIG d   1       3.753  -0.380  -5.135  0.00  0.00     0.163 A 
ATOM      6  C   LIG d   1       3.114   0.214  -6.203  0.00  0.00    -0.006 A 
ATOM      7  O   LIG d   1       3.613   0.136  -3.879  0.00  0.00    -0.488 OA
ATOM      8  C   LIG d   1       2.880  -0.667  -2.951  0.00  0.00     0.093 C 
ATOM      9  C   LIG d   1       3.785  -1.705  -2.304  0.00  0.00     0.016 C 
ATOM     10  C   LIG d   1       4.316  -2.716  -3.307  0.00  0.00     0.093 C 
ATOM     11  O   LIG d   1       5.168  -2.083  -4.264  0.00  0.00    -0.488 OA
ATOM     12  H   LIG d   1       4.176  -1.884  -8.663  0.00  0.00     0.063 H 
ATOM     13  H   LIG d   1       5.313  -2.920  -6.747  0.00  0.00     0.066 H 
ATOM     14  H   LIG d   1       2.500   1.089  -6.051  0.00  0.00     0.066 H 
ATOM     15  H   LIG d   1       2.072  -1.175  -3.477  0.00  0.00     0.070 H 
ATOM     16  H   LIG d   1       2.459  -0.026  -2.177  0.00  0.00     0.070 H 
ATOM     17  H   LIG d   1       3.223  -2.232  -1.534  0.00  0.00     0.033 H 
ATOM     18  H   LIG d   1       4.628  -1.195  -1.837  0.00  0.00     0.033 H 
ATOM     19  H   LIG d   1       3.477  -3.180  -3.826  0.00  0.00     0.070 H 
ATOM     20  H   LIG d   1       4.879  -3.484  -2.777  0.00  0.00     0.070 H 
ENDROOT
BRANCH   1  21
ATOM     21  C   LIG d   1       2.593   0.298  -8.634  0.00  0.00     0.168 C 
ATOM     22  O   LIG d   1       1.803  -0.342  -9.294  0.00  0.00    -0.292 OA
BRANCH  21  23
ATOM     23  C   LIG d   1       2.879   1.735  -8.985  0.00  0.00     0.051 C 
ATOM     24  H   LIG d   1       2.017   2.238  -9.060  0.00  0.00     0.040 H 
ATOM     25  H   LIG d   1       3.494   2.185  -8.205  0.00  0.00     0.040 H 
BRANCH  23  26
ATOM     26  C   LIG d   1       3.623   1.796 -10.321  0.00  0.00    -0.025 C 
ATOM     27  H   LIG d   1       2.905   1.937 -11.130  0.00  0.00     0.082 H 
ATOM     28  H   LIG d   1       4.323   2.632 -10.309  0.00  0.00     0.082 H 
BRANCH  26  29
ATOM     29  N   LIG d   1       4.374   0.538 -10.507  0.00  0.00     0.231 N 
ATOM     30  H   LIG d   1       3.961  -0.188  -9.909  0.00  0.00     0.203 HD
BRANCH  29  31
ATOM     31  C   LIG d   1       4.290   0.104 -11.917  0.00  0.00    -0.043 C 
ATOM     32  H   LIG d   1       4.159   0.962 -12.574  0.00  0.00     0.078 H 
ATOM     33  H   LIG d   1       5.209  -0.421 -12.182  0.00  0.00     0.078 H 
ATOM     34  H   LIG d   1       3.442  -0.572 -12.028  0.00  0.00     0.078 H 
ENDBRANCH  29  31
BRANCH  29  35
ATOM     35  C   LIG d   1       5.788   0.731 -10.121  0.00  0.00    -0.043 C 
ATOM     36  H   LIG d   1       5.962   1.791  -9.935  0.00  0.00     0.078 H 
ATOM     37  H   LIG d   1       5.988   0.165  -9.212  0.00  0.00     0.078 H 
ATOM     38  H   LIG d   1       6.450   0.389 -10.916  0.00  0.00     0.078 H 
ENDBRANCH  29  35
ENDBRANCH  26  29
ENDBRANCH  23  26
ENDBRANCH  21  23
ENDBRANCH   1  21
TORSDOF 6
ENDMDL
MODEL 2
REMARK VINA RESULT:      -5.2      1.466      2.619
REMARK  6 active torsions:
REMARK  status: ('A' for Active; 'I' for Inactive)
REMARK    1  A    between atoms: C_1  and  N_37 
REMARK    2  A    between atoms: C_2  and  N_37 
REMARK    3  A    between atoms: C_3  and  C_4 
REMARK    4  A    between atoms: C_3  and  N_37 
REMARK    5  A    between atoms: C_4  and  C_5 
REMARK    6  A    between atoms: C_5  and  C_7 
ROOT
ATOM      1  C   LIG d   1       3.946  -0.658  -6.889  0.00  0.00     0.021 A 
ATOM      2  C   LIG d   1       2.801   0.125  -6.693  0.00  0.00    -0.048 A 
ATOM      3  C   LIG d   1       2.424   0.488  -5.420  0.00  0.00    -0.016 A 
ATOM      4  C   LIG d   1       3.186   0.088  -4.330  0.00  0.00     0.162 A 
ATOM      5  C   LIG d   1       4.327  -0.686  -4.516  0.00  0.00     0.163 A 
ATOM      6  C   LIG d   1       4.713  -1.060  -5.787  0.00  0.00    -0.006 A 
ATOM      7  O   LIG d   1       5.064  -1.072  -3.434  0.00  0.00    -0.488 OA
ATOM      8  C   LIG d   1       5.756  -0.028  -2.744  0.00  0.00     0.093 C 
ATOM      9  C   LIG d   1       4.841   0.653  -1.739  0.00  0.00     0.016 C 
ATOM     10  C   LIG d   1       3.683   1.377  -2.407  0.00  0.00     0.093 C 
ATOM     11  O   LIG d   1       2.819   0.450  -3.069  0.00  0.00    -0.488 OA
ATOM     12  H   LIG d   1       2.213   0.440  -7.541  0.00  0.00     0.063 H 
ATOM     13  H   LIG d   1       1.539   1.088  -5.269  0.00  0.00     0.066 H 
ATOM     14  H   LIG d   1       5.599  -1.660  -5.931  0.00  0.00     0.066 H 
ATOM     15  H   LIG d   1       6.106   0.708  -3.467  0.00  0.00     0.070 H 
ATOM     16  H   LIG d   1       6.612  -0.453  -2.220  0.00  0.00     0.070 H 
ATOM     17  H   LIG d   1       5.422   1.372  -1.163  0.00  0.00     0.033 H 
ATOM     18  H   LIG d   1       4.441  -0.101  -1.059  0.00  0.00     0.033 H 
ATOM     19  H   LIG d   1       4.077   2.084  -3.138  0.00  0.00     0.070 H 
ATOM     20  H   LIG d   1       3.116   1.920  -1.651  0.00  0.00     0.070 H 
ENDROOT
BRANCH   1  21
ATOM     21  C   LIG d   1       4.346  -1.051  -8.246  0.00  0.00     0.168 C 
ATOM     22  O   LIG d   1       3.626  -1.773  -8.905  0.00  0.00    -0.292 OA
BRANCH  21  23
ATOM     23  C   LIG d   1       5.645  -0.554  -8.823  0.00  0.00     0.051 C 
ATOM     24  H   LIG d   1       6.347  -0.550  -8.110  0.00  0.00     0.040 H 
ATOM     25  H   LIG d   1       5.958  -1.210  -9.635  0.00  0.00     0.040 H 
BRANCH  23  26
ATOM     26  C   LIG d   1       5.456   0.867  -9.359  0.00  0.00    -0.025 C 
ATOM     27  H   LIG d   1       5.544   1.579  -8.538  0.00  0.00     0.082 H 
ATOM     28  H   LIG d   1       6.221   1.079 -10.106  0.00  0.00     0.082 H 
BRANCH  26  29
ATOM     29  N   LIG d   1       4.124   0.966  -9.989  0.00  0.00     0.231 N 
ATOM     30  H   LIG d   1       3.487   0.303  -9.530  0.00  0.00     0.203 HD
BRANCH  29  31
ATOM     31  C   LIG d   1       3.589   2.334  -9.830  0.00  0.00    -0.043 C 
ATOM     32  H   LIG d   1       4.217   3.053 -10.355  0.00  0.00     0.078 H 
ATOM     33  H   LIG d   1       2.578   2.369 -10.236  0.00  0.00     0.078 H 
ATOM     34  H   LIG d   1       3.562   2.581  -8.769  0.00  0.00     0.078 H 
ENDBRANCH  29  31
BRANCH  29  35
ATOM     35  C   LIG d   1       4.217   0.624 -11.425  0.00  0.00    -0.043 C 
ATOM     36  H   LIG d   1       3.994  -0.436 -11.551  0.00  0.00     0.078 H 
ATOM     37  H   LIG d   1       3.489   1.216 -11.978  0.00  0.00     0.078 H 
ATOM     38  H   LIG d   1       5.218   0.832 -11.802  0.00  0.00     0.078 H 
ENDBRANCH  29  35
ENDBRANCH  26  29
ENDBRANCH  23  26
ENDBRANCH  21  23
ENDBRANCH   1  21
TORSDOF 6
ENDMDL
MODEL 3
REMARK VINA RESULT:      -5.2      2.649      5.979
REMARK  6 active torsions:
REMARK  status: ('A' for Active; 'I' for Inactive)
REMARK    1  A    between atoms: C_1  and  N_37 
REMARK    2  A    between atoms: C_2  and  N_37 
REMARK    3  A    between atoms: C_3  and  C_4 
REMARK    4  A    between atoms: C_3  and  N_37 
REMARK    5  A    between atoms: C_4  and  C_5 
REMARK    6  A    between atoms: C_5  and  C_7 
ROOT
ATOM      1  C   LIG d   1       4.360  -1.117  -5.450  0.00  0.00     0.021 A 
ATOM      2  C   LIG d   1       5.690  -1.139  -5.887  0.00  0.00    -0.048 A 
ATOM      3  C   LIG d   1       6.030  -0.557  -7.088  0.00  0.00    -0.016 A 
ATOM      4  C   LIG d   1       5.055   0.061  -7.859  0.00  0.00     0.162 A 
ATOM      5  C   LIG d   1       3.732   0.091  -7.430  0.00  0.00     0.163 A 
ATOM      6  C   LIG d   1       3.378  -0.492  -6.231  0.00  0.00    -0.006 A 
ATOM      7  O   LIG d   1       2.786   0.702  -8.202  0.00  0.00    -0.488 OA
ATOM      8  C   LIG d   1       2.892   2.123  -8.313  0.00  0.00     0.093 C 
ATOM      9  C   LIG d   1       3.874   2.506  -9.409  0.00  0.00     0.016 C 
ATOM     10  C   LIG d   1       5.295   2.069  -9.092  0.00  0.00     0.093 C 
ATOM     11  O   LIG d   1       5.389   0.643  -9.046  0.00  0.00    -0.488 OA
ATOM     12  H   LIG d   1       6.448  -1.615  -5.284  0.00  0.00     0.063 H 
ATOM     13  H   LIG d   1       7.055  -0.577  -7.427  0.00  0.00     0.066 H 
ATOM     14  H   LIG d   1       2.351  -0.469  -5.898  0.00  0.00     0.066 H 
ATOM     15  H   LIG d   1       3.237   2.532  -7.363  0.00  0.00     0.070 H 
ATOM     16  H   LIG d   1       1.912   2.537  -8.548  0.00  0.00     0.070 H 
ATOM     17  H   LIG d   1       3.857   3.588  -9.535  0.00  0.00     0.033 H 
ATOM     18  H   LIG d   1       3.561   2.039 -10.342  0.00  0.00     0.033 H 
ATOM     19  H   LIG d   1       5.589   2.479  -8.125  0.00  0.00     0.070 H 
ATOM     20  H   LIG d   1       5.967   2.448  -9.862  0.00  0.00     0.070 H 
ENDROOT
BRANCH   1  21
ATOM     21  C   LIG d   1       3.995  -1.744  -4.172  0.00  0.00     0.168 C 
ATOM     22  O   LIG d   1       4.217  -2.922  -3.989  0.00  0.00    -0.292 OA
BRANCH  21  23
ATOM     23  C   LIG d   1       3.350  -0.921  -3.087  0.00  0.00     0.051 C 
ATOM     24  H   LIG d   1       2.985  -0.077  -3.481  0.00  0.00     0.040 H 
ATOM     25  H   LIG d   1       2.540  -1.490  -2.632  0.00  0.00     0.040 H 
BRANCH  23  26
ATOM     26  C   LIG d   1       4.393  -0.575  -2.021  0.00  0.00    -0.025 C 
ATOM     27  H   LIG d   1       4.002  -0.828  -1.035  0.00  0.00     0.082 H 
ATOM     28  H   LIG d   1       5.304  -1.144  -2.207  0.00  0.00     0.082 H 
BRANCH  26  29
ATOM     29  N   LIG d   1       4.698   0.868  -2.103  0.00  0.00     0.231 N 
ATOM     30  H   LIG d   1       4.863   1.228  -1.155  0.00  0.00     0.203 HD
BRANCH  29  31
ATOM     31  C   LIG d   1       5.914   1.082  -2.916  0.00  0.00    -0.043 C 
ATOM     32  H   LIG d   1       5.740   1.849  -3.669  0.00  0.00     0.078 H 
ATOM     33  H   LIG d   1       6.728   1.394  -2.260  0.00  0.00     0.078 H 
ATOM     34  H   LIG d   1       6.181   0.145  -3.405  0.00  0.00     0.078 H 
ENDBRANCH  29  31
BRANCH  29  35
ATOM     35  C   LIG d   1       3.557   1.594  -2.700  0.00  0.00    -0.043 C 
ATOM     36  H   LIG d   1       3.710   2.665  -2.565  0.00  0.00     0.078 H 
ATOM     37  H   LIG d   1       3.510   1.366  -3.765  0.00  0.00     0.078 H 
ATOM     38  H   LIG d   1       2.624   1.297  -2.222  0.00  0.00     0.078 H 
ENDBRANCH  29  35
ENDBRANCH  26  29
ENDBRANCH  23  26
ENDBRANCH  21  23
ENDBRANCH   1  21
TORSDOF 6
ENDMDL
MODEL 4
REMARK VINA RESULT:      -5.1      2.529      6.064
REMARK  6 active torsions:
REMARK  status: ('A' for Active; 'I' for Inactive)
REMARK    1  A    between atoms: C_1  and  N_37 
REMARK    2  A    between atoms: C_2  and  N_37 
REMARK    3  A    between atoms: C_3  and  C_4 
REMARK    4  A    between atoms: C_3  and  N_37 
REMARK    5  A    between atoms: C_4  and  C_5 
REMARK    6  A    between atoms: C_5  and  C_7 
ROOT
ATOM      1  C   LIG d   1       3.242   0.014  -6.278  0.00  0.00     0.021 A 
ATOM      2  C   LIG d   1       4.177  -1.028  -6.277  0.00  0.00    -0.048 A 
ATOM      3  C   LIG d   1       4.622  -1.556  -7.468  0.00  0.00    -0.016 A 
ATOM      4  C   LIG d   1       4.151  -1.046  -8.671  0.00  0.00     0.162 A 
ATOM      5  C   LIG d   1       3.226  -0.008  -8.681  0.00  0.00     0.163 A 
ATOM      6  C   LIG d   1       2.769   0.526  -7.494  0.00  0.00    -0.006 A 
ATOM      7  O   LIG d   1       2.772   0.481  -9.872  0.00  0.00    -0.488 OA
ATOM      8  C   LIG d   1       3.730   1.187 -10.664  0.00  0.00     0.093 C 
ATOM      9  C   LIG d   1       4.556   0.221 -11.500  0.00  0.00     0.016 C 
ATOM     10  C   LIG d   1       5.412  -0.700 -10.645  0.00  0.00     0.093 C 
ATOM     11  O   LIG d   1       4.594  -1.562  -9.853  0.00  0.00    -0.488 OA
ATOM     12  H   LIG d   1       4.547  -1.420  -5.342  0.00  0.00     0.063 H 
ATOM     13  H   LIG d   1       5.340  -2.363  -7.467  0.00  0.00     0.066 H 
ATOM     14  H   LIG d   1       2.051   1.333  -7.501  0.00  0.00     0.066 H 
ATOM     15  H   LIG d   1       4.394   1.749 -10.006  0.00  0.00     0.070 H 
ATOM     16  H   LIG d   1       3.208   1.878 -11.324  0.00  0.00     0.070 H 
ATOM     17  H   LIG d   1       5.204   0.794 -12.162  0.00  0.00     0.033 H 
ATOM     18  H   LIG d   1       3.882  -0.385 -12.106  0.00  0.00     0.033 H 
ATOM     19  H   LIG d   1       6.039  -0.097  -9.988  0.00  0.00     0.070 H 
ATOM     20  H   LIG d   1       6.047  -1.303 -11.294  0.00  0.00     0.070 H 
ENDROOT
BRANCH   1  21
ATOM     21  C   LIG d   1       2.762   0.573  -5.007  0.00  0.00     0.168 C 
ATOM     22  O   LIG d   1       2.516   1.758  -4.921  0.00  0.00    -0.292 OA
BRANCH  21  23
ATOM     23  C   LIG d   1       2.569  -0.325  -3.814  0.00  0.00     0.051 C 
ATOM     24  H   LIG d   1       1.594  -0.400  -3.606  0.00  0.00     0.040 H 
ATOM     25  H   LIG d   1       2.970  -1.314  -4.034  0.00  0.00     0.040 H 
BRANCH  23  26
ATOM     26  C   LIG d   1       3.302   0.265  -2.606  0.00  0.00    -0.025 C 
ATOM     27  H   LIG d   1       3.762   1.212  -2.888  0.00  0.00     0.082 H 
ATOM     28  H   LIG d   1       2.591   0.433  -1.797  0.00  0.00     0.082 H 
BRANCH  26  29
ATOM     29  N   LIG d   1       4.329  -0.696  -2.155  0.00  0.00     0.231 N 
ATOM     30  H   LIG d   1       4.454  -0.598  -1.140  0.00  0.00     0.203 HD
BRANCH  29  31
ATOM     31  C   LIG d   1       3.896  -2.077  -2.455  0.00  0.00    -0.043 C 
ATOM     32  H   LIG d   1       4.424  -2.462  -3.326  0.00  0.00     0.078 H 
ATOM     33  H   LIG d   1       4.108  -2.710  -1.592  0.00  0.00     0.078 H 
ATOM     34  H   LIG d   1       2.824  -2.076  -2.649  0.00  0.00     0.078 H 
ENDBRANCH  29  31
BRANCH  29  35
ATOM     35  C   LIG d   1       5.616  -0.413  -2.826  0.00  0.00    -0.043 C 
ATOM     36  H   LIG d   1       6.429  -0.605  -2.125  0.00  0.00     0.078 H 
ATOM     37  H   LIG d   1       5.718  -1.070  -3.689  0.00  0.00     0.078 H 
ATOM     38  H   LIG d   1       5.656   0.626  -3.153  0.00  0.00     0.078 H 
ENDBRANCH  29  35
ENDBRANCH  26  29
ENDBRANCH  23  26
ENDBRANCH  21  23
ENDBRANCH   1  21
TORSDOF 6
ENDMDL
MODEL 5
REMARK VINA RESULT:      -5.1      1.186      2.076
REMARK  6 active torsions:
REMARK  status: ('A' for Active; 'I' for Inactive)
REMARK    1  A    between atoms: C_1  and  N_37 
REMARK    2  A    between atoms: C_2  and  N_37 
REMARK    3  A    between atoms: C_3  and  C_4 
REMARK    4  A    between atoms: C_3  and  N_37 
REMARK    5  A    between atoms: C_4  and  C_5 
REMARK    6  A    between atoms: C_5  and  C_7 
ROOT
ATOM      1  C   LIG d   1       3.111   0.182  -6.936  0.00  0.00     0.021 A 
ATOM      2  C   LIG d   1       2.433   0.627  -5.795  0.00  0.00    -0.048 A 
ATOM      3  C   LIG d   1       2.790   0.153  -4.553  0.00  0.00    -0.016 A 
ATOM      4  C   LIG d   1       3.830  -0.758  -4.430  0.00  0.00     0.162 A 
ATOM      5  C   LIG d   1       4.512  -1.202  -5.558  0.00  0.00     0.163 A 
ATOM      6  C   LIG d   1       4.161  -0.738  -6.809  0.00  0.00    -0.006 A 
ATOM      7  O   LIG d   1       5.531  -2.100  -5.420  0.00  0.00    -0.488 OA
ATOM      8  C   LIG d   1       6.709  -1.614  -4.771  0.00  0.00     0.093 C 
ATOM      9  C   LIG d   1       6.568  -1.708  -3.259  0.00  0.00     0.016 C 
ATOM     10  C   LIG d   1       5.469  -0.806  -2.722  0.00  0.00     0.093 C 
ATOM     11  O   LIG d   1       4.190  -1.225  -3.201  0.00  0.00    -0.488 OA
ATOM     12  H   LIG d   1       1.628   1.340  -5.890  0.00  0.00     0.063 H 
ATOM     13  H   LIG d   1       2.264   0.494  -3.673  0.00  0.00     0.066 H 
ATOM     14  H   LIG d   1       4.691  -1.083  -7.685  0.00  0.00     0.066 H 
ATOM     15  H   LIG d   1       6.869  -0.573  -5.051  0.00  0.00     0.070 H 
ATOM     16  H   LIG d   1       7.564  -2.208  -5.090  0.00  0.00     0.070 H 
ATOM     17  H   LIG d   1       7.515  -1.425  -2.799  0.00  0.00     0.033 H 
ATOM     18  H   LIG d   1       6.341  -2.740  -2.990  0.00  0.00     0.033 H 
ATOM     19  H   LIG d   1       5.656   0.218  -3.047  0.00  0.00     0.070 H 
ATOM     20  H   LIG d   1       5.475  -0.844  -1.633  0.00  0.00     0.070 H 
ENDROOT
BRANCH   1  21
ATOM     21  C   LIG d   1       2.727   0.681  -8.263  0.00  0.00     0.168 C 
ATOM     22  O   LIG d   1       2.030   0.003  -8.988  0.00  0.00    -0.292 OA
BRANCH  21  23
ATOM     23  C   LIG d   1       3.195   2.038  -8.721  0.00  0.00     0.051 C 
ATOM     24  H   LIG d   1       2.421   2.672  -8.732  0.00  0.00     0.040 H 
ATOM     25  H   LIG d   1       3.958   2.410  -8.037  0.00  0.00     0.040 H 
BRANCH  23  26
ATOM     26  C   LIG d   1       3.781   1.928 -10.130  0.00  0.00    -0.025 C 
ATOM     27  H   LIG d   1       2.973   1.939 -10.862  0.00  0.00     0.082 H 
ATOM     28  H   LIG d   1       4.449   2.771 -10.313  0.00  0.00     0.082 H 
BRANCH  26  29
ATOM     29  N   LIG d   1       4.552   0.671 -10.229  0.00  0.00     0.231 N 
ATOM     30  H   LIG d   1       4.140  -0.023  -9.594  0.00  0.00     0.203 HD
BRANCH  29  31
ATOM     31  C   LIG d   1       4.496   0.152 -11.611  0.00  0.00    -0.043 C 
ATOM     32  H   LIG d   1       4.156   0.927 -12.297  0.00  0.00     0.078 H 
ATOM     33  H   LIG d   1       5.492  -0.183 -11.905  0.00  0.00     0.078 H 
ATOM     34  H   LIG d   1       3.806  -0.691 -11.644  0.00  0.00     0.078 H 
ENDBRANCH  29  31
BRANCH  29  35
ATOM     35  C   LIG d   1       5.957   0.907  -9.834  0.00  0.00    -0.043 C 
ATOM     36  H   LIG d   1       6.235   0.181  -9.069  0.00  0.00     0.078 H 
ATOM     37  H   LIG d   1       6.597   0.779 -10.706  0.00  0.00     0.078 H 
ATOM     38  H   LIG d   1       6.078   1.915  -9.438  0.00  0.00     0.078 H 
ENDBRANCH  29  35
ENDBRANCH  26  29
ENDBRANCH  23  26
ENDBRANCH  21  23
ENDBRANCH   1  21
TORSDOF 6
ENDMDL
MODEL 6
REMARK VINA RESULT:      -5.1      1.214      1.507
REMARK  6 active torsions:
REMARK  status: ('A' for Active; 'I' for Inactive)
REMARK    1  A    between atoms: C_1  and  N_37 
REMARK    2  A    between atoms: C_2  and  N_37 
REMARK    3  A    between atoms: C_3  and  C_4 
REMARK    4  A    between atoms: C_3  and  N_37 
REMARK    5  A    between atoms: C_4  and  C_5 
REMARK    6  A    between atoms: C_5  and  C_7 
ROOT
ATOM      1  C   LIG d   1       3.309  -0.120  -7.553  0.00  0.00     0.021 A 
ATOM      2  C   LIG d   1       4.461  -0.906  -7.683  0.00  0.00    -0.048 A 
ATOM      3  C   LIG d   1       5.162  -1.293  -6.563  0.00  0.00    -0.016 A 
ATOM      4  C   LIG d   1       4.719  -0.914  -5.302  0.00  0.00     0.162 A 
ATOM      5  C   LIG d   1       3.572  -0.138  -5.164  0.00  0.00     0.163 A 
ATOM      6  C   LIG d   1       2.865   0.260  -6.279  0.00  0.00    -0.006 A 
ATOM      7  O   LIG d   1       3.151   0.228  -3.918  0.00  0.00    -0.488 OA
ATOM      8  C   LIG d   1       2.663  -0.829  -3.088  0.00  0.00     0.093 C 
ATOM      9  C   LIG d   1       3.809  -1.529  -2.375  0.00  0.00     0.016 C 
ATOM     10  C   LIG d   1       4.745  -2.239  -3.340  0.00  0.00     0.093 C 
ATOM     11  O   LIG d   1       5.406  -1.300  -4.191  0.00  0.00    -0.488 OA
ATOM     12  H   LIG d   1       4.802  -1.205  -8.663  0.00  0.00     0.063 H 
ATOM     13  H   LIG d   1       6.052  -1.895  -6.663  0.00  0.00     0.066 H 
ATOM     14  H   LIG d   1       1.975   0.863  -6.172  0.00  0.00     0.066 H 
ATOM     15  H   LIG d   1       2.130  -1.552  -3.706  0.00  0.00     0.070 H 
ATOM     16  H   LIG d   1       1.979  -0.415  -2.348  0.00  0.00     0.070 H 
ATOM     17  H   LIG d   1       3.399  -2.259  -1.679  0.00  0.00     0.033 H 
ATOM     18  H   LIG d   1       4.379  -0.788  -1.813  0.00  0.00     0.033 H 
ATOM     19  H   LIG d   1       4.167  -2.933  -3.953  0.00  0.00     0.070 H 
ATOM     20  H   LIG d   1       5.489  -2.797  -2.773  0.00  0.00     0.070 H 
ENDROOT
BRANCH   1  21
ATOM     21  C   LIG d   1       2.565   0.299  -8.748  0.00  0.00     0.168 C 
ATOM     22  O   LIG d   1       2.614   1.453  -9.119  0.00  0.00    -0.292 OA
BRANCH  21  23
ATOM     23  C   LIG d   1       1.747  -0.706  -9.517  0.00  0.00     0.051 C 
ATOM     24  H   LIG d   1       1.911  -1.621  -9.148  0.00  0.00     0.040 H 
ATOM     25  H   LIG d   1       0.690  -0.461  -9.424  0.00  0.00     0.040 H 
BRANCH  23  26
ATOM     26  C   LIG d   1       2.151  -0.671 -10.992  0.00  0.00    -0.025 C 
ATOM     27  H   LIG d   1       1.631  -1.464 -11.530  0.00  0.00     0.082 H 
ATOM     28  H   LIG d   1       1.882   0.295 -11.420  0.00  0.00     0.082 H 
BRANCH  26  29
ATOM     29  N   LIG d   1       3.614  -0.853 -11.091  0.00  0.00     0.231 N 
ATOM     30  H   LIG d   1       4.056  -0.459 -10.252  0.00  0.00     0.203 HD
BRANCH  29  31
ATOM     31  C   LIG d   1       3.940  -2.292 -11.175  0.00  0.00    -0.043 C 
ATOM     32  H   LIG d   1       4.031  -2.721 -10.178  0.00  0.00     0.078 H 
ATOM     33  H   LIG d   1       3.148  -2.804 -11.721  0.00  0.00     0.078 H 
ATOM     34  H   LIG d   1       4.884  -2.409 -11.709  0.00  0.00     0.078 H 
ENDBRANCH  29  31
BRANCH  29  35
ATOM     35  C   LIG d   1       4.132  -0.148 -12.282  0.00  0.00    -0.043 C 
ATOM     36  H   LIG d   1       3.541   0.754 -12.444  0.00  0.00     0.078 H 
ATOM     37  H   LIG d   1       5.172   0.126 -12.108  0.00  0.00     0.078 H 
ATOM     38  H   LIG d   1       4.067  -0.787 -13.163  0.00  0.00     0.078 H 
ENDBRANCH  29  35
ENDBRANCH  26  29
ENDBRANCH  23  26
ENDBRANCH  21  23
ENDBRANCH   1  21
TORSDOF 6
ENDMDL
MODEL 7
REMARK VINA RESULT:      -5.1      0.955      1.248
REMARK  6 active torsions:
REMARK  status: ('A' for Active; 'I' for Inactive)
REMARK    1  A    between atoms: C_1  and  N_37 
REMARK    2  A    between atoms: C_2  and  N_37 
REMARK    3  A    between atoms: C_3  and  C_4 
REMARK    4  A    between atoms: C_3  and  N_37 
REMARK    5  A    between atoms: C_4  and  C_5 
REMARK    6  A    between atoms: C_5  and  C_7 
ROOT
ATOM      1  C   LIG d   1       3.431  -0.914  -7.435  0.00  0.00     0.021 A 
ATOM      2  C   LIG d   1       4.353  -1.959  -7.291  0.00  0.00    -0.048 A 
ATOM      3  C   LIG d   1       5.064  -2.094  -6.120  0.00  0.00    -0.016 A 
ATOM      4  C   LIG d   1       4.859  -1.201  -5.077  0.00  0.00     0.162 A 
ATOM      5  C   LIG d   1       3.942  -0.163  -5.210  0.00  0.00     0.163 A 
ATOM      6  C   LIG d   1       3.227  -0.014  -6.380  0.00  0.00    -0.006 A 
ATOM      7  O   LIG d   1       3.754   0.708  -4.175  0.00  0.00    -0.488 OA
ATOM      8  C   LIG d   1       3.131   0.166  -3.008  0.00  0.00     0.093 C 
ATOM      9  C   LIG d   1       4.159  -0.506  -2.111  0.00  0.00     0.016 C 
ATOM     10  C   LIG d   1       4.796  -1.720  -2.768  0.00  0.00     0.093 C 
ATOM     11  O   LIG d   1       5.557  -1.335  -3.914  0.00  0.00    -0.488 OA
ATOM     12  H   LIG d   1       4.507  -2.656  -8.101  0.00  0.00     0.063 H 
ATOM     13  H   LIG d   1       5.778  -2.897  -6.011  0.00  0.00     0.066 H 
ATOM     14  H   LIG d   1       2.514   0.791  -6.482  0.00  0.00     0.066 H 
ATOM     15  H   LIG d   1       2.384  -0.568  -3.309  0.00  0.00     0.070 H 
ATOM     16  H   LIG d   1       2.644   0.970  -2.457  0.00  0.00     0.070 H 
ATOM     17  H   LIG d   1       3.671  -0.819  -1.188  0.00  0.00     0.033 H 
ATOM     18  H   LIG d   1       4.940   0.215  -1.868  0.00  0.00     0.033 H 
ATOM     19  H   LIG d   1       4.013  -2.414  -3.074  0.00  0.00     0.070 H 
ATOM     20  H   LIG d   1       5.452  -2.212  -2.050  0.00  0.00     0.070 H 
ENDROOT
BRANCH   1  21
ATOM     21  C   LIG d   1       2.676  -0.765  -8.686  0.00  0.00     0.168 C 
ATOM     22  O   LIG d   1       2.174  -1.737  -9.210  0.00  0.00    -0.292 OA
BRANCH  21  23
ATOM     23  C   LIG d   1       2.521   0.595  -9.314  0.00  0.00     0.051 C 
ATOM     24  H   LIG d   1       1.570   0.727  -9.594  0.00  0.00     0.040 H 
ATOM     25  H   LIG d   1       2.796   1.363  -8.592  0.00  0.00     0.040 H 
BRANCH  23  26
ATOM     26  C   LIG d   1       3.431   0.698 -10.541  0.00  0.00    -0.025 C 
ATOM     27  H   LIG d   1       3.841  -0.286 -10.772  0.00  0.00     0.082 H 
ATOM     28  H   LIG d   1       2.853   1.059 -11.392  0.00  0.00     0.082 H 
BRANCH  26  29
ATOM     29  N   LIG d   1       4.516   1.657 -10.251  0.00  0.00     0.231 N 
ATOM     30  H   LIG d   1       4.765   2.150 -11.117  0.00  0.00     0.203 HD
BRANCH  29  31
ATOM     31  C   LIG d   1       4.063   2.646  -9.250  0.00  0.00    -0.043 C 
ATOM     32  H   LIG d   1       4.901   2.984  -8.642  0.00  0.00     0.078 H 
ATOM     33  H   LIG d   1       3.621   3.498  -9.768  0.00  0.00     0.078 H 
ATOM     34  H   LIG d   1       3.313   2.181  -8.610  0.00  0.00     0.078 H 
ENDBRANCH  29  31
BRANCH  29  35
ATOM     35  C   LIG d   1       5.706   0.938  -9.749  0.00  0.00    -0.043 C 
ATOM     36  H   LIG d   1       6.545   1.633  -9.704  0.00  0.00     0.078 H 
ATOM     37  H   LIG d   1       5.496   0.558  -8.750  0.00  0.00     0.078 H 
ATOM     38  H   LIG d   1       5.957   0.108 -10.409  0.00  0.00     0.078 H 
ENDBRANCH  29  35
ENDBRANCH  26  29
ENDBRANCH  23  26
ENDBRANCH  21  23
ENDBRANCH   1  21
TORSDOF 6
ENDMDL
MODEL 8
REMARK VINA RESULT:      -5.0      4.369      6.253
REMARK  6 active torsions:
REMARK  status: ('A' for Active; 'I' for Inactive)
REMARK    1  A    between atoms: C_1  and  N_37 
REMARK    2  A    between atoms: C_2  and  N_37 
REMARK    3  A    between atoms: C_3  and  C_4 
REMARK    4  A    between atoms: C_3  and  N_37 
REMARK    5  A    between atoms: C_4  and  C_5 
REMARK    6  A    between atoms: C_5  and  C_7 
ROOT
ATOM      1  C   LIG d   1       5.059  -3.475  -5.063  0.00  0.00     0.021 A 
ATOM      2  C   LIG d   1       5.834  -2.625  -5.861  0.00  0.00    -0.048 A 
ATOM      3  C   LIG d   1       5.852  -1.271  -5.611  0.00  0.00    -0.016 A 
ATOM      4  C   LIG d   1       5.110  -0.750  -4.560  0.00  0.00     0.162 A 
ATOM      5  C   LIG d   1       4.341  -1.589  -3.759  0.00  0.00     0.163 A 
ATOM      6  C   LIG d   1       4.311  -2.946  -4.003  0.00  0.00    -0.006 A 
ATOM      7  O   LIG d   1       3.615  -1.060  -2.730  0.00  0.00    -0.488 OA
ATOM      8  C   LIG d   1       4.372  -0.536  -1.637  0.00  0.00     0.093 C 
ATOM      9  C   LIG d   1       4.807   0.894  -1.918  0.00  0.00     0.016 C 
ATOM     10  C   LIG d   1       5.770   0.986  -3.091  0.00  0.00     0.093 C 
ATOM     11  O   LIG d   1       5.129   0.589  -4.306  0.00  0.00    -0.488 OA
ATOM     12  H   LIG d   1       6.415  -3.031  -6.675  0.00  0.00     0.063 H 
ATOM     13  H   LIG d   1       6.447  -0.615  -6.230  0.00  0.00     0.066 H 
ATOM     14  H   LIG d   1       3.714  -3.597  -3.380  0.00  0.00     0.066 H 
ATOM     15  H   LIG d   1       5.255  -1.156  -1.483  0.00  0.00     0.070 H 
ATOM     16  H   LIG d   1       3.759  -0.554  -0.736  0.00  0.00     0.070 H 
ATOM     17  H   LIG d   1       5.293   1.296  -1.030  0.00  0.00     0.033 H 
ATOM     18  H   LIG d   1       3.924   1.494  -2.138  0.00  0.00     0.033 H 
ATOM     19  H   LIG d   1       6.623   0.334  -2.906  0.00  0.00     0.070 H 
ATOM     20  H   LIG d   1       6.118   2.014  -3.189  0.00  0.00     0.070 H 
ENDROOT
BRANCH   1  21
ATOM     21  C   LIG d   1       5.034  -4.919  -5.333  0.00  0.00     0.168 C 
ATOM     22  O   LIG d   1       3.989  -5.530  -5.265  0.00  0.00    -0.292 OA
BRANCH  21  23
ATOM     23  C   LIG d   1       6.306  -5.638  -5.702  0.00  0.00     0.051 C 
ATOM     24  H   LIG d   1       6.786  -5.124  -6.413  0.00  0.00     0.040 H 
ATOM     25  H   LIG d   1       6.944  -5.722  -4.823  0.00  0.00     0.040 H 
BRANCH  23  26
ATOM     26  C   LIG d   1       5.969  -7.036  -6.224  0.00  0.00    -0.025 C 
ATOM     27  H   LIG d   1       5.068  -6.987  -6.837  0.00  0.00     0.082 H 
ATOM     28  H   LIG d   1       6.798  -7.409  -6.826  0.00  0.00     0.082 H 
BRANCH  26  29
ATOM     29  N   LIG d   1       5.763  -7.939  -5.073  0.00  0.00     0.231 N 
ATOM     30  H   LIG d   1       5.379  -7.397  -4.289  0.00  0.00     0.203 HD
BRANCH  29  31
ATOM     31  C   LIG d   1       4.807  -9.007  -5.432  0.00  0.00    -0.043 C 
ATOM     32  H   LIG d   1       4.009  -9.070  -4.693  0.00  0.00     0.078 H 
ATOM     33  H   LIG d   1       4.379  -8.786  -6.411  0.00  0.00     0.078 H 
ATOM     34  H   LIG d   1       5.339  -9.957  -5.475  0.00  0.00     0.078 H 
ENDBRANCH  29  31
BRANCH  29  35
ATOM     35  C   LIG d   1       7.051  -8.533  -4.659  0.00  0.00    -0.043 C 
ATOM     36  H   LIG d   1       7.842  -8.145  -5.301  0.00  0.00     0.078 H 
ATOM     37  H   LIG d   1       7.254  -8.255  -3.625  0.00  0.00     0.078 H 
ATOM     38  H   LIG d   1       7.016  -9.619  -4.743  0.00  0.00     0.078 H 
ENDBRANCH  29  35
ENDBRANCH  26  29
ENDBRANCH  23  26
ENDBRANCH  21  23
ENDBRANCH   1  21
TORSDOF 6
ENDMDL
MODEL 9
REMARK VINA RESULT:      -4.9      5.005      7.198
REMARK  6 active torsions:
REMARK  status: ('A' for Active; 'I' for Inactive)
REMARK    1  A    between atoms: C_1  and  N_37 
REMARK    2  A    between atoms: C_2  and  N_37 
REMARK    3  A    between atoms: C_3  and  C_4 
REMARK    4  A    between atoms: C_3  and  N_37 
REMARK    5  A    between atoms: C_4  and  C_5 
REMARK    6  A    between atoms: C_5  and  C_7 
ROOT
ATOM      1  C   LIG d   1       7.055  -2.657  -4.073  0.00  0.00     0.021 A 
ATOM      2  C   LIG d   1       5.942  -3.318  -4.607  0.00  0.00    -0.048 A 
ATOM      3  C   LIG d   1       4.672  -2.874  -4.317  0.00  0.00    -0.016 A 
ATOM      4  C   LIG d   1       4.494  -1.763  -3.504  0.00  0.00     0.162 A 
ATOM      5  C   LIG d   1       5.594  -1.097  -2.974  0.00  0.00     0.163 A 
ATOM      6  C   LIG d   1       6.872  -1.535  -3.252  0.00  0.00    -0.006 A 
ATOM      7  O   LIG d   1       5.402  -0.007  -2.174  0.00  0.00    -0.488 OA
ATOM      8  C   LIG d   1       4.877   1.156  -2.820  0.00  0.00     0.093 C 
ATOM      9  C   LIG d   1       3.360   1.088  -2.904  0.00  0.00     0.016 C 
ATOM     10  C   LIG d   1       2.879  -0.054  -3.785  0.00  0.00     0.093 C 
ATOM     11  O   LIG d   1       3.238  -1.317  -3.220  0.00  0.00    -0.488 OA
ATOM     12  H   LIG d   1       6.081  -4.179  -5.243  0.00  0.00     0.063 H 
ATOM     13  H   LIG d   1       3.814  -3.387  -4.726  0.00  0.00     0.066 H 
ATOM     14  H   LIG d   1       7.726  -1.018  -2.840  0.00  0.00     0.066 H 
ATOM     15  H   LIG d   1       5.289   1.224  -3.826  0.00  0.00     0.070 H 
ATOM     16  H   LIG d   1       5.166   2.040  -2.253  0.00  0.00     0.070 H 
ATOM     17  H   LIG d   1       2.986   2.028  -3.308  0.00  0.00     0.033 H 
ATOM     18  H   LIG d   1       2.957   0.952  -1.899  0.00  0.00     0.033 H 
ATOM     19  H   LIG d   1       3.334   0.040  -4.771  0.00  0.00     0.070 H 
ATOM     20  H   LIG d   1       1.795   0.001  -3.883  0.00  0.00     0.070 H 
ENDROOT
BRANCH   1  21
ATOM     21  C   LIG d   1       8.411  -3.134  -4.376  0.00  0.00     0.168 C 
ATOM     22  O   LIG d   1       9.141  -2.474  -5.085  0.00  0.00    -0.292 OA
BRANCH  21  23
ATOM     23  C   LIG d   1       8.896  -4.439  -3.800  0.00  0.00     0.051 C 
ATOM     24  H   LIG d   1       8.115  -5.041  -3.633  0.00  0.00     0.040 H 
ATOM     25  H   LIG d   1       9.577  -4.916  -4.504  0.00  0.00     0.040 H 
BRANCH  23  26
ATOM     26  C   LIG d   1       9.627  -4.175  -2.482  0.00  0.00    -0.025 C 
ATOM     27  H   LIG d   1      10.044  -3.168  -2.493  0.00  0.00     0.082 H 
ATOM     28  H   LIG d   1       8.925  -4.267  -1.653  0.00  0.00     0.082 H 
BRANCH  26  29
ATOM     29  N   LIG d   1      10.699  -5.178  -2.321  0.00  0.00     0.231 N 
ATOM     30  H   LIG d   1      11.389  -4.824  -1.649  0.00  0.00     0.203 HD
BRANCH  29  31
ATOM     31  C   LIG d   1      10.134  -6.444  -1.807  0.00  0.00    -0.043 C 
ATOM     32  H   LIG d   1      10.024  -7.168  -2.613  0.00  0.00     0.078 H 
ATOM     33  H   LIG d   1      10.801  -6.846  -1.044  0.00  0.00     0.078 H 
ATOM     34  H   LIG d   1       9.158  -6.241  -1.365  0.00  0.00     0.078 H 
ENDBRANCH  29  31
BRANCH  29  35
ATOM     35  C   LIG d   1      11.369  -5.414  -3.617  0.00  0.00    -0.043 C 
ATOM     36  H   LIG d   1      11.260  -4.526  -4.239  0.00  0.00     0.078 H 
ATOM     37  H   LIG d   1      12.427  -5.605  -3.439  0.00  0.00     0.078 H 
ATOM     38  H   LIG d   1      10.926  -6.271  -4.126  0.00  0.00     0.078 H 
ENDBRANCH  29  35
ENDBRANCH  26  29
ENDBRANCH  23  26
ENDBRANCH  21  23
ENDBRANCH   1  21
TORSDOF 6
ENDMDL
