MODEL 1
REMARK VINA RESULT:      -6.0      0.000      0.000
REMARK  4 active torsions:
REMARK  status: ('A' for Active; 'I' for Inactive)
REMARK    1  A    between atoms: C_1  and  C_2 
REMARK    2  A    between atoms: C_20  and  C_30 
REMARK    3  A    between atoms: C_22  and  O_29 
REMARK    4  A    between atoms: C_24  and  C_27 
ROOT
ATOM      1  C   LIG d   1       6.178  -6.563  -8.739  0.00  0.00    -0.100 C 
ATOM      2  C   LIG d   1       6.394  -7.591  -9.263  0.00  0.00    -0.119 C 
ATOM      3  H   LIG d   1       6.586  -8.511  -9.731  0.00  0.00     0.123 H 
ENDROOT
BRANCH   1   4
ATOM      4  C   LIG d   1       5.908  -5.273  -8.083  0.00  0.00     0.047 C 
ATOM      5  C   LIG d   1       4.405  -5.133  -7.832  0.00  0.00     0.069 C 
ATOM      6  C   LIG d   1       4.130  -3.785  -7.163  0.00  0.00    -0.020 C 
ATOM      7  H   LIG d   1       3.871  -5.184  -8.780  0.00  0.00     0.060 H 
ATOM      8  C   LIG d   1       4.875  -3.710  -5.826  0.00  0.00    -0.023 C 
ATOM      9  H   LIG d   1       4.470  -2.981  -7.814  0.00  0.00     0.030 H 
ATOM     10  H   LIG d   1       3.059  -3.680  -6.986  0.00  0.00     0.030 H 
ATOM     11  C   LIG d   1       4.533  -2.413  -5.127  0.00  0.00    -0.025 C 
ATOM     12  C   LIG d   1       6.373  -3.861  -6.059  0.00  0.00    -0.027 C 
ATOM     13  C   LIG d   1       4.645  -1.226  -6.084  0.00  0.00    -0.048 C 
ATOM     14  H   LIG d   1       3.486  -2.481  -4.831  0.00  0.00     0.031 H 
ATOM     15  C   LIG d   1       5.321  -2.159  -3.852  0.00  0.00     0.025 C 
ATOM     16  C   LIG d   1       3.864  -0.030  -5.514  0.00  0.00    -0.040 C 
ATOM     17  H   LIG d   1       5.693  -0.952  -6.202  0.00  0.00     0.027 H 
ATOM     18  H   LIG d   1       4.230  -1.501  -7.054  0.00  0.00     0.027 H 
ATOM     19  C   LIG d   1       3.867  -0.151  -4.000  0.00  0.00     0.030 C 
ATOM     20  H   LIG d   1       4.347   0.901  -5.811  0.00  0.00     0.028 H 
ATOM     21  H   LIG d   1       2.839  -0.048  -5.885  0.00  0.00     0.028 H 
ATOM     22  C   LIG d   1       5.258  -0.665  -3.551  0.00  0.00    -0.019 C 
ATOM     23  C   LIG d   1       3.706   1.152  -3.265  0.00  0.00     0.140 C 
ATOM     24  H   LIG d   1       6.060  -0.123  -4.052  0.00  0.00     0.032 H 
ATOM     25  C   LIG d   1       5.234  -0.349  -2.045  0.00  0.00    -0.042 C 
ATOM     26  C   LIG d   1       4.532   1.033  -1.993  0.00  0.00     0.007 C 
ATOM     27  H   LIG d   1       6.247  -0.282  -1.649  0.00  0.00     0.027 H 
ATOM     28  H   LIG d   1       4.657  -1.095  -1.500  0.00  0.00     0.027 H 
ATOM     29  H   LIG d   1       5.222   1.755  -1.940  0.00  0.00     0.034 H 
ATOM     30  H   LIG d   1       3.882   1.087  -1.119  0.00  0.00     0.034 H 
ATOM     31  O   LIG d   1       3.051   2.105  -3.615  0.00  0.00    -0.297 OA
ATOM     32  H   LIG d   1       4.914  -2.676  -3.100  0.00  0.00     0.038 H 
ATOM     33  C   LIG d   1       6.755  -2.584  -3.990  0.00  0.00     0.137 C 
ATOM     34  O   LIG d   1       7.634  -1.900  -3.522  0.00  0.00    -0.297 OA
ATOM     35  C   LIG d   1       7.101  -3.863  -4.708  0.00  0.00     0.009 C 
ATOM     36  H   LIG d   1       8.090  -3.908  -4.851  0.00  0.00     0.035 H 
ATOM     37  H   LIG d   1       6.784  -4.716  -4.109  0.00  0.00     0.035 H 
ATOM     38  H   LIG d   1       6.732  -3.037  -6.676  0.00  0.00     0.031 H 
ATOM     39  C   LIG d   1       6.662  -5.195  -6.754  0.00  0.00    -0.033 C 
ATOM     40  H   LIG d   1       7.733  -5.287  -6.931  0.00  0.00     0.028 H 
ATOM     41  H   LIG d   1       6.327  -6.015  -6.120  0.00  0.00     0.028 H 
ATOM     42  H   LIG d   1       6.248  -4.459  -8.723  0.00  0.00     0.046 H 
BRANCH   5  43
ATOM     43  O   LIG d   1       3.962  -6.189  -6.977  0.00  0.00    -0.391 OA
ATOM     44  H   LIG d   1       4.467  -6.268  -6.156  0.00  0.00     0.210 HD
ENDBRANCH   5  43
BRANCH   8  45
ATOM     45  C   LIG d   1       4.404  -4.870  -4.948  0.00  0.00    -0.059 C 
ATOM     46  H   LIG d   1       3.384  -4.682  -4.613  0.00  0.00     0.024 H 
ATOM     47  H   LIG d   1       4.433  -5.796  -5.522  0.00  0.00     0.024 H 
ATOM     48  H   LIG d   1       5.060  -4.959  -4.082  0.00  0.00     0.024 H 
ENDBRANCH   8  45
BRANCH  19  49
ATOM     49  C   LIG d   1       2.781  -1.133  -3.557  0.00  0.00    -0.053 C 
ATOM     50  H   LIG d   1       2.783  -1.211  -2.471  0.00  0.00     0.024 H 
ATOM     51  H   LIG d   1       1.808  -0.774  -3.894  0.00  0.00     0.024 H 
ATOM     52  H   LIG d   1       2.977  -2.113  -3.993  0.00  0.00     0.024 H 
ENDBRANCH  19  49
ENDBRANCH   1   4
TORSDOF 4
ENDMDL
MODEL 2
REMARK VINA RESULT:      -6.0      3.119      4.067
REMARK  4 active torsions:
REMARK  status: ('A' for Active; 'I' for Inactive)
REMARK    1  A    between atoms: C_1  and  C_2 
REMARK    2  A    between atoms: C_20  and  C_30 
REMARK    3  A    between atoms: C_22  and  O_29 
REMARK    4  A    between atoms: C_24  and  C_27 
ROOT
ATOM      1  C   LIG d   1       2.960  -1.145 -12.213  0.00  0.00    -0.100 C 
ATOM      2  C   LIG d   1       2.889  -1.539 -13.316  0.00  0.00    -0.119 C 
ATOM      3  H   LIG d   1       2.823  -1.893 -14.302  0.00  0.00     0.123 H 
ENDROOT
BRANCH   1   4
ATOM      4  C   LIG d   1       3.051  -0.650 -10.829  0.00  0.00     0.047 C 
ATOM      5  C   LIG d   1       2.140  -1.485  -9.927  0.00  0.00     0.069 C 
ATOM      6  C   LIG d   1       2.227  -0.957  -8.495  0.00  0.00    -0.020 C 
ATOM      7  H   LIG d   1       1.111  -1.412 -10.280  0.00  0.00     0.060 H 
ATOM      8  C   LIG d   1       3.671  -1.062  -7.993  0.00  0.00    -0.023 C 
ATOM      9  H   LIG d   1       1.911   0.086  -8.473  0.00  0.00     0.030 H 
ATOM     10  H   LIG d   1       1.576  -1.547  -7.850  0.00  0.00     0.030 H 
ATOM     11  C   LIG d   1       3.739  -0.620  -6.548  0.00  0.00    -0.025 C 
ATOM     12  C   LIG d   1       4.593  -0.245  -8.889  0.00  0.00    -0.027 C 
ATOM     13  C   LIG d   1       2.997   0.701  -6.341  0.00  0.00    -0.048 C 
ATOM     14  H   LIG d   1       3.211  -1.372  -5.963  0.00  0.00     0.031 H 
ATOM     15  C   LIG d   1       5.146  -0.547  -5.977  0.00  0.00     0.025 C 
ATOM     16  C   LIG d   1       2.678   0.884  -4.848  0.00  0.00    -0.040 C 
ATOM     17  H   LIG d   1       3.623   1.526  -6.683  0.00  0.00     0.027 H 
ATOM     18  H   LIG d   1       2.068   0.689  -6.912  0.00  0.00     0.027 H 
ATOM     19  C   LIG d   1       3.745   0.153  -4.051  0.00  0.00     0.030 C 
ATOM     20  H   LIG d   1       2.691   1.945  -4.596  0.00  0.00     0.028 H 
ATOM     21  H   LIG d   1       1.697   0.464  -4.627  0.00  0.00     0.028 H 
ATOM     22  C   LIG d   1       5.110   0.361  -4.752  0.00  0.00    -0.019 C 
ATOM     23  C   LIG d   1       3.965   0.685  -2.661  0.00  0.00     0.140 C 
ATOM     24  H   LIG d   1       5.260   1.405  -5.025  0.00  0.00     0.032 H 
ATOM     25  C   LIG d   1       6.094  -0.068  -3.649  0.00  0.00    -0.042 C 
ATOM     26  C   LIG d   1       5.448   0.512  -2.365  0.00  0.00     0.007 C 
ATOM     27  H   LIG d   1       7.077   0.369  -3.817  0.00  0.00     0.027 H 
ATOM     28  H   LIG d   1       6.161  -1.154  -3.589  0.00  0.00     0.027 H 
ATOM     29  H   LIG d   1       5.876   1.387  -2.143  0.00  0.00     0.034 H 
ATOM     30  H   LIG d   1       5.584  -0.181  -1.534  0.00  0.00     0.034 H 
ATOM     31  O   LIG d   1       3.131   1.155  -1.925  0.00  0.00    -0.297 OA
ATOM     32  H   LIG d   1       5.448  -1.463  -5.715  0.00  0.00     0.038 H 
ATOM     33  C   LIG d   1       6.125  -0.002  -6.979  0.00  0.00     0.137 C 
ATOM     34  O   LIG d   1       6.980   0.774  -6.624  0.00  0.00    -0.297 OA
ATOM     35  C   LIG d   1       6.044  -0.421  -8.424  0.00  0.00     0.009 C 
ATOM     36  H   LIG d   1       6.652   0.153  -8.972  0.00  0.00     0.035 H 
ATOM     37  H   LIG d   1       6.348  -1.463  -8.520  0.00  0.00     0.035 H 
ATOM     38  H   LIG d   1       4.309   0.807  -8.842  0.00  0.00     0.031 H 
ATOM     39  C   LIG d   1       4.494  -0.744 -10.333  0.00  0.00    -0.033 C 
ATOM     40  H   LIG d   1       5.145  -0.144 -10.969  0.00  0.00     0.028 H 
ATOM     41  H   LIG d   1       4.806  -1.788 -10.379  0.00  0.00     0.028 H 
ATOM     42  H   LIG d   1       2.740   0.394 -10.794  0.00  0.00     0.046 H 
BRANCH   5  43
ATOM     43  O   LIG d   1       2.559  -2.852  -9.958  0.00  0.00    -0.391 OA
ATOM     44  H   LIG d   1       2.853  -3.152 -10.829  0.00  0.00     0.210 HD
ENDBRANCH   5  43
BRANCH   8  45
ATOM     45  C   LIG d   1       4.101  -2.528  -8.069  0.00  0.00    -0.059 C 
ATOM     46  H   LIG d   1       5.128  -2.587  -8.428  0.00  0.00     0.024 H 
ATOM     47  H   LIG d   1       4.036  -2.978  -7.077  0.00  0.00     0.024 H 
ATOM     48  H   LIG d   1       3.445  -3.064  -8.754  0.00  0.00     0.024 H 
ENDBRANCH   8  45
BRANCH  19  49
ATOM     49  C   LIG d   1       3.412  -1.339  -3.989  0.00  0.00    -0.053 C 
ATOM     50  H   LIG d   1       4.186  -1.905  -4.506  0.00  0.00     0.024 H 
ATOM     51  H   LIG d   1       3.363  -1.657  -2.947  0.00  0.00     0.024 H 
ATOM     52  H   LIG d   1       2.449  -1.517  -4.468  0.00  0.00     0.024 H 
ENDBRANCH  19  49
ENDBRANCH   1   4
TORSDOF 4
ENDMDL
MODEL 3
REMARK VINA RESULT:      -5.9      2.729      3.435
REMARK  4 active torsions:
REMARK  status: ('A' for Active; 'I' for Inactive)
REMARK    1  A    between atoms: C_1  and  C_2 
REMARK    2  A    between atoms: C_20  and  C_30 
REMARK    3  A    between atoms: C_22  and  O_29 
REMARK    4  A    between atoms: C_24  and  C_27 
ROOT
ATOM      1  C   LIG d   1      10.561  -5.088  -6.749  0.00  0.00    -0.100 C 
ATOM      2  C   LIG d   1      11.529  -5.685  -7.038  0.00  0.00    -0.119 C 
ATOM      3  H   LIG d   1      12.395  -6.219  -7.298  0.00  0.00     0.123 H 
ENDROOT
BRANCH   1   4
ATOM      4  C   LIG d   1       9.346  -4.338  -6.386  0.00  0.00     0.047 C 
ATOM      5  C   LIG d   1       8.605  -5.079  -5.271  0.00  0.00     0.069 C 
ATOM      6  C   LIG d   1       7.337  -4.304  -4.909  0.00  0.00    -0.020 C 
ATOM      7  H   LIG d   1       8.335  -6.077  -5.613  0.00  0.00     0.060 H 
ATOM      8  C   LIG d   1       7.711  -2.900  -4.423  0.00  0.00    -0.023 C 
ATOM      9  H   LIG d   1       6.696  -4.225  -5.787  0.00  0.00     0.030 H 
ATOM     10  H   LIG d   1       6.803  -4.830  -4.117  0.00  0.00     0.030 H 
ATOM     11  C   LIG d   1       6.464  -2.166  -3.983  0.00  0.00    -0.025 C 
ATOM     12  C   LIG d   1       8.462  -2.154  -5.519  0.00  0.00    -0.027 C 
ATOM     13  C   LIG d   1       5.353  -2.296  -5.025  0.00  0.00    -0.048 C 
ATOM     14  H   LIG d   1       6.107  -2.661  -3.081  0.00  0.00     0.031 H 
ATOM     15  C   LIG d   1       6.689  -0.709  -3.610  0.00  0.00     0.025 C 
ATOM     16  C   LIG d   1       3.998  -1.967  -4.378  0.00  0.00    -0.040 C 
ATOM     17  H   LIG d   1       5.541  -1.604  -5.846  0.00  0.00     0.027 H 
ATOM     18  H   LIG d   1       5.333  -3.317  -5.409  0.00  0.00     0.027 H 
ATOM     19  C   LIG d   1       4.250  -0.991  -3.241  0.00  0.00     0.030 C 
ATOM     20  H   LIG d   1       3.337  -1.512  -5.116  0.00  0.00     0.028 H 
ATOM     21  H   LIG d   1       3.544  -2.879  -3.989  0.00  0.00     0.028 H 
ATOM     22  C   LIG d   1       5.345   0.009  -3.687  0.00  0.00    -0.019 C 
ATOM     23  C   LIG d   1       3.077  -0.115  -2.894  0.00  0.00     0.140 C 
ATOM     24  H   LIG d   1       5.151   0.386  -4.691  0.00  0.00     0.032 H 
ATOM     25  C   LIG d   1       5.192   1.124  -2.639  0.00  0.00    -0.042 C 
ATOM     26  C   LIG d   1       3.654   1.225  -2.463  0.00  0.00     0.007 C 
ATOM     27  H   LIG d   1       5.599   2.064  -3.012  0.00  0.00     0.027 H 
ATOM     28  H   LIG d   1       5.669   0.845  -1.700  0.00  0.00     0.027 H 
ATOM     29  H   LIG d   1       3.302   1.969  -3.029  0.00  0.00     0.034 H 
ATOM     30  H   LIG d   1       3.411   1.417  -1.417  0.00  0.00     0.034 H 
ATOM     31  O   LIG d   1       1.908  -0.415  -2.946  0.00  0.00    -0.297 OA
ATOM     32  H   LIG d   1       7.052  -0.655  -2.681  0.00  0.00     0.038 H 
ATOM     33  C   LIG d   1       7.669  -0.043  -4.534  0.00  0.00     0.137 C 
ATOM     34  O   LIG d   1       7.470   1.088  -4.909  0.00  0.00    -0.297 OA
ATOM     35  C   LIG d   1       8.899  -0.780  -4.994  0.00  0.00     0.009 C 
ATOM     36  H   LIG d   1       9.347  -0.261  -5.722  0.00  0.00     0.035 H 
ATOM     37  H   LIG d   1       9.589  -0.898  -4.158  0.00  0.00     0.035 H 
ATOM     38  H   LIG d   1       7.815  -2.034  -6.388  0.00  0.00     0.031 H 
ATOM     39  C   LIG d   1       9.720  -2.934  -5.912  0.00  0.00    -0.033 C 
ATOM     40  H   LIG d   1      10.242  -2.401  -6.707  0.00  0.00     0.028 H 
ATOM     41  H   LIG d   1      10.376  -3.026  -5.047  0.00  0.00     0.028 H 
ATOM     42  H   LIG d   1       8.698  -4.250  -7.258  0.00  0.00     0.046 H 
BRANCH   5  43
ATOM     43  O   LIG d   1       9.447  -5.179  -4.121  0.00  0.00    -0.391 OA
ATOM     44  H   LIG d   1       9.334  -4.458  -3.486  0.00  0.00     0.210 HD
ENDBRANCH   5  43
BRANCH   8  45
ATOM     45  C   LIG d   1       8.638  -3.040  -3.214  0.00  0.00    -0.059 C 
ATOM     46  H   LIG d   1       8.163  -3.673  -2.464  0.00  0.00     0.024 H 
ATOM     47  H   LIG d   1       9.578  -3.493  -3.528  0.00  0.00     0.024 H 
ATOM     48  H   LIG d   1       8.833  -2.056  -2.789  0.00  0.00     0.024 H 
ENDBRANCH   8  45
BRANCH  19  49
ATOM     49  C   LIG d   1       4.714  -1.753  -1.999  0.00  0.00    -0.053 C 
ATOM     50  H   LIG d   1       5.178  -1.059  -1.300  0.00  0.00     0.024 H 
ATOM     51  H   LIG d   1       3.855  -2.229  -1.523  0.00  0.00     0.024 H 
ATOM     52  H   LIG d   1       5.437  -2.516  -2.288  0.00  0.00     0.024 H 
ENDBRANCH  19  49
ENDBRANCH   1   4
TORSDOF 4
ENDMDL
MODEL 4
REMARK VINA RESULT:      -5.8     10.369     11.925
REMARK  4 active torsions:
REMARK  status: ('A' for Active; 'I' for Inactive)
REMARK    1  A    between atoms: C_1  and  C_2 
REMARK    2  A    between atoms: C_20  and  C_30 
REMARK    3  A    between atoms: C_22  and  O_29 
REMARK    4  A    between atoms: C_24  and  C_27 
ROOT
ATOM      1  C   LIG d   1       9.119   6.378 -10.554  0.00  0.00    -0.100 C 
ATOM      2  C   LIG d   1       9.152   6.287 -11.724  0.00  0.00    -0.119 C 
ATOM      3  H   LIG d   1       9.181   6.204 -12.770  0.00  0.00     0.123 H 
ENDROOT
BRANCH   1   4
ATOM      4  C   LIG d   1       9.079   6.494  -9.087  0.00  0.00     0.047 C 
ATOM      5  C   LIG d   1      10.133   5.570  -8.473  0.00  0.00     0.069 C 
ATOM      6  C   LIG d   1      10.075   5.684  -6.949  0.00  0.00    -0.020 C 
ATOM      7  H   LIG d   1       9.932   4.541  -8.768  0.00  0.00     0.060 H 
ATOM      8  C   LIG d   1      10.361   7.129  -6.527  0.00  0.00    -0.023 C 
ATOM      9  H   LIG d   1       9.085   5.394  -6.601  0.00  0.00     0.030 H 
ATOM     10  H   LIG d   1      10.823   5.024  -6.507  0.00  0.00     0.030 H 
ATOM     11  C   LIG d   1      10.390   7.221  -5.018  0.00  0.00    -0.025 C 
ATOM     12  C   LIG d   1       9.326   8.063  -7.142  0.00  0.00    -0.027 C 
ATOM     13  C   LIG d   1       9.182   6.514  -4.401  0.00  0.00    -0.048 C 
ATOM     14  H   LIG d   1      11.274   6.679  -4.685  0.00  0.00     0.031 H 
ATOM     15  C   LIG d   1      10.526   8.634  -4.476  0.00  0.00     0.025 C 
ATOM     16  C   LIG d   1       9.463   6.214  -2.920  0.00  0.00    -0.040 C 
ATOM     17  H   LIG d   1       8.306   7.157  -4.481  0.00  0.00     0.027 H 
ATOM     18  H   LIG d   1       8.998   5.580  -4.933  0.00  0.00     0.027 H 
ATOM     19  C   LIG d   1      10.428   7.268  -2.405  0.00  0.00     0.030 C 
ATOM     20  H   LIG d   1       8.534   6.255  -2.352  0.00  0.00     0.028 H 
ATOM     21  H   LIG d   1       9.911   5.224  -2.823  0.00  0.00     0.028 H 
ATOM     22  C   LIG d   1      10.042   8.632  -3.030  0.00  0.00    -0.019 C 
ATOM     23  C   LIG d   1      10.357   7.515  -0.922  0.00  0.00     0.140 C 
ATOM     24  H   LIG d   1       8.968   8.805  -2.969  0.00  0.00     0.032 H 
ATOM     25  C   LIG d   1      10.812   9.614  -2.130  0.00  0.00    -0.042 C 
ATOM     26  C   LIG d   1      10.644   8.995  -0.718  0.00  0.00     0.007 C 
ATOM     27  H   LIG d   1      10.365  10.607  -2.170  0.00  0.00     0.027 H 
ATOM     28  H   LIG d   1      11.864   9.655  -2.410  0.00  0.00     0.027 H 
ATOM     29  H   LIG d   1       9.890   9.447  -0.243  0.00  0.00     0.034 H 
ATOM     30  H   LIG d   1      11.563   9.121  -0.144  0.00  0.00     0.034 H 
ATOM     31  O   LIG d   1      10.120   6.699  -0.063  0.00  0.00    -0.297 OA
ATOM     32  H   LIG d   1      11.485   8.915  -4.515  0.00  0.00     0.038 H 
ATOM     33  C   LIG d   1       9.719   9.618  -5.276  0.00  0.00     0.137 C 
ATOM     34  O   LIG d   1       9.110  10.495  -4.712  0.00  0.00    -0.297 OA
ATOM     35  C   LIG d   1       9.668   9.513  -6.778  0.00  0.00     0.009 C 
ATOM     36  H   LIG d   1       8.966  10.131  -7.131  0.00  0.00     0.035 H 
ATOM     37  H   LIG d   1      10.636   9.790  -7.197  0.00  0.00     0.035 H 
ATOM     38  H   LIG d   1       8.335   7.806  -6.767  0.00  0.00     0.031 H 
ATOM     39  C   LIG d   1       9.352   7.939  -8.669  0.00  0.00    -0.033 C 
ATOM     40  H   LIG d   1       8.599   8.598  -9.098  0.00  0.00     0.028 H 
ATOM     41  H   LIG d   1      10.337   8.224  -9.039  0.00  0.00     0.028 H 
ATOM     42  H   LIG d   1       8.090   6.210  -8.726  0.00  0.00     0.046 H 
BRANCH   5  43
ATOM     43  O   LIG d   1      11.431   5.954  -8.932  0.00  0.00    -0.391 OA
ATOM     44  H   LIG d   1      11.611   5.712  -9.850  0.00  0.00     0.210 HD
ENDBRANCH   5  43
BRANCH   8  45
ATOM     45  C   LIG d   1      11.741   7.521  -7.060  0.00  0.00    -0.059 C 
ATOM     46  H   LIG d   1      11.793   8.604  -7.168  0.00  0.00     0.024 H 
ATOM     47  H   LIG d   1      12.508   7.188  -6.361  0.00  0.00     0.024 H 
ATOM     48  H   LIG d   1      11.904   7.051  -8.029  0.00  0.00     0.024 H 
ENDBRANCH   8  45
BRANCH  19  49
ATOM     49  C   LIG d   1      11.858   6.899  -2.802  0.00  0.00    -0.053 C 
ATOM     50  H   LIG d   1      12.095   7.348  -3.765  0.00  0.00     0.024 H 
ATOM     51  H   LIG d   1      12.552   7.270  -2.047  0.00  0.00     0.024 H 
ATOM     52  H   LIG d   1      11.947   5.815  -2.874  0.00  0.00     0.024 H 
ENDBRANCH  19  49
ENDBRANCH   1   4
TORSDOF 4
ENDMDL
MODEL 5
REMARK VINA RESULT:      -5.6      2.813      4.961
REMARK  4 active torsions:
REMARK  status: ('A' for Active; 'I' for Inactive)
REMARK    1  A    between atoms: C_1  and  C_2 
REMARK    2  A    between atoms: C_20  and  C_30 
REMARK    3  A    between atoms: C_22  and  O_29 
REMARK    4  A    between atoms: C_24  and  C_27 
ROOT
ATOM      1  C   LIG d   1       9.182  -3.873  -3.014  0.00  0.00    -0.100 C 
ATOM      2  C   LIG d   1       9.710  -4.539  -2.204  0.00  0.00    -0.119 C 
ATOM      3  H   LIG d   1      10.184  -5.133  -1.480  0.00  0.00     0.123 H 
ENDROOT
BRANCH   1   4
ATOM      4  C   LIG d   1       8.519  -3.039  -4.029  0.00  0.00     0.047 C 
ATOM      5  C   LIG d   1       8.405  -3.823  -5.339  0.00  0.00     0.069 C 
ATOM      6  C   LIG d   1       7.729  -2.946  -6.394  0.00  0.00    -0.020 C 
ATOM      7  H   LIG d   1       9.400  -4.104  -5.683  0.00  0.00     0.060 H 
ATOM      8  C   LIG d   1       6.328  -2.551  -5.917  0.00  0.00    -0.023 C 
ATOM      9  H   LIG d   1       8.324  -2.047  -6.554  0.00  0.00     0.030 H 
ATOM     10  H   LIG d   1       7.650  -3.500  -7.330  0.00  0.00     0.030 H 
ATOM     11  C   LIG d   1       5.629  -1.757  -6.997  0.00  0.00    -0.025 C 
ATOM     12  C   LIG d   1       6.424  -1.780  -4.606  0.00  0.00    -0.027 C 
ATOM     13  C   LIG d   1       6.539  -0.659  -7.550  0.00  0.00    -0.048 C 
ATOM     14  H   LIG d   1       5.434  -2.445  -7.819  0.00  0.00     0.031 H 
ATOM     15  C   LIG d   1       4.280  -1.187  -6.588  0.00  0.00     0.025 C 
ATOM     16  C   LIG d   1       6.013  -0.193  -8.917  0.00  0.00    -0.040 C 
ATOM     17  H   LIG d   1       6.552   0.184  -6.859  0.00  0.00     0.027 H 
ATOM     18  H   LIG d   1       7.551  -1.051  -7.664  0.00  0.00     0.027 H 
ATOM     19  C   LIG d   1       4.509  -0.404  -8.933  0.00  0.00     0.030 C 
ATOM     20  H   LIG d   1       6.239   0.865  -9.058  0.00  0.00     0.028 H 
ATOM     21  H   LIG d   1       6.478  -0.778  -9.710  0.00  0.00     0.028 H 
ATOM     22  C   LIG d   1       3.947  -0.040  -7.536  0.00  0.00    -0.019 C 
ATOM     23  C   LIG d   1       3.757   0.500  -9.874  0.00  0.00     0.140 C 
ATOM     24  H   LIG d   1       4.357   0.905  -7.179  0.00  0.00     0.032 H 
ATOM     25  C   LIG d   1       2.442   0.087  -7.831  0.00  0.00    -0.042 C 
ATOM     26  C   LIG d   1       2.418   0.789  -9.213  0.00  0.00     0.007 C 
ATOM     27  H   LIG d   1       1.952   0.703  -7.077  0.00  0.00     0.027 H 
ATOM     28  H   LIG d   1       1.973  -0.895  -7.889  0.00  0.00     0.027 H 
ATOM     29  H   LIG d   1       2.283   1.771  -9.086  0.00  0.00     0.034 H 
ATOM     30  H   LIG d   1       1.607   0.386  -9.821  0.00  0.00     0.034 H 
ATOM     31  O   LIG d   1       4.142   0.913 -10.942  0.00  0.00    -0.297 OA
ATOM     32  H   LIG d   1       3.583  -1.900  -6.656  0.00  0.00     0.038 H 
ATOM     33  C   LIG d   1       4.295  -0.682  -5.173  0.00  0.00     0.137 C 
ATOM     34  O   LIG d   1       3.730   0.348  -4.896  0.00  0.00    -0.297 OA
ATOM     35  C   LIG d   1       5.012  -1.458  -4.099  0.00  0.00     0.009 C 
ATOM     36  H   LIG d   1       5.064  -0.906  -3.267  0.00  0.00     0.035 H 
ATOM     37  H   LIG d   1       4.468  -2.379  -3.887  0.00  0.00     0.035 H 
ATOM     38  H   LIG d   1       6.984  -0.858  -4.766  0.00  0.00     0.031 H 
ATOM     39  C   LIG d   1       7.125  -2.636  -3.547  0.00  0.00    -0.033 C 
ATOM     40  H   LIG d   1       7.203  -2.071  -2.619  0.00  0.00     0.028 H 
ATOM     41  H   LIG d   1       6.546  -3.542  -3.372  0.00  0.00     0.028 H 
ATOM     42  H   LIG d   1       9.103  -2.134  -4.197  0.00  0.00     0.046 H 
BRANCH   5  43
ATOM     43  O   LIG d   1       7.623  -5.000  -5.125  0.00  0.00    -0.391 OA
ATOM     44  H   LIG d   1       7.989  -5.795  -5.538  0.00  0.00     0.210 HD
ENDBRANCH   5  43
BRANCH   8  45
ATOM     45  C   LIG d   1       5.527  -3.830  -5.666  0.00  0.00    -0.059 C 
ATOM     46  H   LIG d   1       4.753  -3.929  -6.426  0.00  0.00     0.024 H 
ATOM     47  H   LIG d   1       6.194  -4.691  -5.712  0.00  0.00     0.024 H 
ATOM     48  H   LIG d   1       5.065  -3.782  -4.680  0.00  0.00     0.024 H 
ENDBRANCH   8  45
BRANCH  19  49
ATOM     49  C   LIG d   1       4.195  -1.866  -9.257  0.00  0.00    -0.053 C 
ATOM     50  H   LIG d   1       3.185  -1.940  -9.657  0.00  0.00     0.024 H 
ATOM     51  H   LIG d   1       4.907  -2.235  -9.996  0.00  0.00     0.024 H 
ATOM     52  H   LIG d   1       4.272  -2.464  -8.349  0.00  0.00     0.024 H 
ENDBRANCH  19  49
ENDBRANCH   1   4
TORSDOF 4
ENDMDL
MODEL 6
REMARK VINA RESULT:      -5.5      8.836     11.399
REMARK  4 active torsions:
REMARK  status: ('A' for Active; 'I' for Inactive)
REMARK    1  A    between atoms: C_1  and  C_2 
REMARK    2  A    between atoms: C_20  and  C_30 
REMARK    3  A    between atoms: C_22  and  O_29 
REMARK    4  A    between atoms: C_24  and  C_27 
ROOT
ATOM      1  C   LIG d   1       9.200   1.864  -4.771  0.00  0.00    -0.100 C 
ATOM      2  C   LIG d   1       9.232   0.805  -5.276  0.00  0.00    -0.119 C 
ATOM      3  H   LIG d   1       9.260  -0.143  -5.727  0.00  0.00     0.123 H 
ENDROOT
BRANCH   1   4
ATOM      4  C   LIG d   1       9.160   3.192  -4.137  0.00  0.00     0.047 C 
ATOM      5  C   LIG d   1      10.197   3.253  -3.014  0.00  0.00     0.069 C 
ATOM      6  C   LIG d   1      10.141   4.630  -2.350  0.00  0.00    -0.020 C 
ATOM      7  H   LIG d   1       9.979   2.484  -2.274  0.00  0.00     0.060 H 
ATOM      8  C   LIG d   1      10.452   5.716  -3.385  0.00  0.00    -0.023 C 
ATOM      9  H   LIG d   1       9.145   4.794  -1.940  0.00  0.00     0.030 H 
ATOM     10  H   LIG d   1      10.876   4.676  -1.546  0.00  0.00     0.030 H 
ATOM     11  C   LIG d   1      10.480   7.068  -2.709  0.00  0.00    -0.025 C 
ATOM     12  C   LIG d   1       9.434   5.659  -4.518  0.00  0.00    -0.027 C 
ATOM     13  C   LIG d   1       9.260   7.259  -1.808  0.00  0.00    -0.048 C 
ATOM     14  H   LIG d   1      11.355   7.078  -2.060  0.00  0.00     0.031 H 
ATOM     15  C   LIG d   1      10.641   8.244  -3.659  0.00  0.00     0.025 C 
ATOM     16  C   LIG d   1       9.535   8.388  -0.801  0.00  0.00    -0.040 C 
ATOM     17  H   LIG d   1       8.395   7.518  -2.417  0.00  0.00     0.027 H 
ATOM     18  H   LIG d   1       9.060   6.332  -1.268  0.00  0.00     0.027 H 
ATOM     19  C   LIG d   1      10.517   9.354  -1.442  0.00  0.00     0.030 C 
ATOM     20  H   LIG d   1       8.605   8.908  -0.568  0.00  0.00     0.028 H 
ATOM     21  H   LIG d   1       9.965   7.973   0.111  0.00  0.00     0.028 H 
ATOM     22  C   LIG d   1      10.156   9.499  -2.941  0.00  0.00    -0.019 C 
ATOM     23  C   LIG d   1      10.450  10.762  -0.914  0.00  0.00     0.140 C 
ATOM     24  H   LIG d   1       9.085   9.647  -3.077  0.00  0.00     0.032 H 
ATOM     25  C   LIG d   1      10.942  10.763  -3.328  0.00  0.00    -0.042 C 
ATOM     26  C   LIG d   1      10.762  11.676  -2.088  0.00  0.00     0.007 C 
ATOM     27  H   LIG d   1      10.512  11.229  -4.215  0.00  0.00     0.027 H 
ATOM     28  H   LIG d   1      11.995  10.533  -3.488  0.00  0.00     0.027 H 
ATOM     29  H   LIG d   1      10.015  12.320  -2.254  0.00  0.00     0.034 H 
ATOM     30  H   LIG d   1      11.682  12.229  -1.896  0.00  0.00     0.034 H 
ATOM     31  O   LIG d   1      10.197  11.098   0.219  0.00  0.00    -0.297 OA
ATOM     32  H   LIG d   1      11.605   8.343  -3.907  0.00  0.00     0.038 H 
ATOM     33  C   LIG d   1       9.852   8.050  -4.923  0.00  0.00     0.137 C 
ATOM     34  O   LIG d   1       9.258   8.982  -5.410  0.00  0.00    -0.297 OA
ATOM     35  C   LIG d   1       9.801   6.698  -5.585  0.00  0.00     0.009 C 
ATOM     36  H   LIG d   1       9.109   6.707  -6.308  0.00  0.00     0.035 H 
ATOM     37  H   LIG d   1      10.773   6.466  -6.020  0.00  0.00     0.035 H 
ATOM     38  H   LIG d   1       8.438   5.863  -4.123  0.00  0.00     0.031 H 
ATOM     39  C   LIG d   1       9.459   4.276  -5.174  0.00  0.00    -0.033 C 
ATOM     40  H   LIG d   1       8.717   4.240  -5.971  0.00  0.00     0.028 H 
ATOM     41  H   LIG d   1      10.448   4.090  -5.591  0.00  0.00     0.028 H 
ATOM     42  H   LIG d   1       8.167   3.371  -3.725  0.00  0.00     0.046 H 
BRANCH   5  43
ATOM     43  O   LIG d   1      11.503   3.038  -3.555  0.00  0.00    -0.391 OA
ATOM     44  H   LIG d   1      11.809   3.749  -4.135  0.00  0.00     0.210 HD
ENDBRANCH   5  43
BRANCH   8  45
ATOM     45  C   LIG d   1      11.838   5.440  -3.970  0.00  0.00    -0.059 C 
ATOM     46  H   LIG d   1      12.275   6.374  -4.323  0.00  0.00     0.024 H 
ATOM     47  H   LIG d   1      12.478   5.008  -3.200  0.00  0.00     0.024 H 
ATOM     48  H   LIG d   1      11.750   4.742  -4.802  0.00  0.00     0.024 H 
ENDBRANCH   8  45
BRANCH  19  49
ATOM     49  C   LIG d   1      11.941   8.814  -1.298  0.00  0.00    -0.053 C 
ATOM     50  H   LIG d   1      12.031   8.273  -0.357  0.00  0.00     0.024 H 
ATOM     51  H   LIG d   1      12.159   8.140  -2.127  0.00  0.00     0.024 H 
ATOM     52  H   LIG d   1      12.648   9.644  -1.310  0.00  0.00     0.024 H 
ENDBRANCH  19  49
ENDBRANCH   1   4
TORSDOF 4
ENDMDL
MODEL 7
REMARK VINA RESULT:      -5.5      3.875      5.386
REMARK  4 active torsions:
REMARK  status: ('A' for Active; 'I' for Inactive)
REMARK    1  A    between atoms: C_1  and  C_2 
REMARK    2  A    between atoms: C_20  and  C_30 
REMARK    3  A    between atoms: C_22  and  O_29 
REMARK    4  A    between atoms: C_24  and  C_27 
ROOT
ATOM      1  C   LIG d   1      12.171   1.029  -7.447  0.00  0.00    -0.100 C 
ATOM      2  C   LIG d   1      13.084   1.113  -8.180  0.00  0.00    -0.119 C 
ATOM      3  H   LIG d   1      13.901   1.186  -8.835  0.00  0.00     0.123 H 
ENDROOT
BRANCH   1   4
ATOM      4  C   LIG d   1      11.025   0.925  -6.528  0.00  0.00     0.047 C 
ATOM      5  C   LIG d   1       9.811   1.623  -7.145  0.00  0.00     0.069 C 
ATOM      6  C   LIG d   1       8.629   1.524  -6.180  0.00  0.00    -0.020 C 
ATOM      7  H   LIG d   1      10.045   2.671  -7.326  0.00  0.00     0.060 H 
ATOM      8  C   LIG d   1       8.291   0.052  -5.925  0.00  0.00    -0.023 C 
ATOM      9  H   LIG d   1       8.889   2.005  -5.237  0.00  0.00     0.030 H 
ATOM     10  H   LIG d   1       7.762   2.024  -6.614  0.00  0.00     0.030 H 
ATOM     11  C   LIG d   1       7.069  -0.043  -5.039  0.00  0.00    -0.025 C 
ATOM     12  C   LIG d   1       9.496  -0.660  -5.322  0.00  0.00    -0.027 C 
ATOM     13  C   LIG d   1       7.190   0.889  -3.833  0.00  0.00    -0.048 C 
ATOM     14  H   LIG d   1       6.224   0.314  -5.628  0.00  0.00     0.031 H 
ATOM     15  C   LIG d   1       6.717  -1.455  -4.600  0.00  0.00     0.025 C 
ATOM     16  C   LIG d   1       5.798   1.129  -3.226  0.00  0.00    -0.040 C 
ATOM     17  H   LIG d   1       7.838   0.432  -3.085  0.00  0.00     0.027 H 
ATOM     18  H   LIG d   1       7.617   1.840  -4.151  0.00  0.00     0.027 H 
ATOM     19  C   LIG d   1       4.946  -0.095  -3.515  0.00  0.00     0.030 C 
ATOM     20  H   LIG d   1       5.885   1.273  -2.149  0.00  0.00     0.028 H 
ATOM     21  H   LIG d   1       5.345   2.011  -3.680  0.00  0.00     0.028 H 
ATOM     22  C   LIG d   1       5.833  -1.356  -3.362  0.00  0.00    -0.019 C 
ATOM     23  C   LIG d   1       3.821  -0.321  -2.542  0.00  0.00     0.140 C 
ATOM     24  H   LIG d   1       6.427  -1.313  -2.450  0.00  0.00     0.032 H 
ATOM     25  C   LIG d   1       4.774  -2.470  -3.281  0.00  0.00    -0.042 C 
ATOM     26  C   LIG d   1       3.662  -1.828  -2.411  0.00  0.00     0.007 C 
ATOM     27  H   LIG d   1       5.182  -3.355  -2.793  0.00  0.00     0.027 H 
ATOM     28  H   LIG d   1       4.394  -2.719  -4.271  0.00  0.00     0.027 H 
ATOM     29  H   LIG d   1       3.770  -2.122  -1.462  0.00  0.00     0.034 H 
ATOM     30  H   LIG d   1       2.681  -2.134  -2.777  0.00  0.00     0.034 H 
ATOM     31  O   LIG d   1       3.171   0.526  -1.977  0.00  0.00    -0.297 OA
ATOM     32  H   LIG d   1       6.225  -1.920  -5.336  0.00  0.00     0.038 H 
ATOM     33  C   LIG d   1       7.944  -2.261  -4.279  0.00  0.00     0.137 C 
ATOM     34  O   LIG d   1       7.946  -3.000  -3.324  0.00  0.00    -0.297 OA
ATOM     35  C   LIG d   1       9.172  -2.149  -5.144  0.00  0.00     0.009 C 
ATOM     36  H   LIG d   1       9.937  -2.616  -4.700  0.00  0.00     0.035 H 
ATOM     37  H   LIG d   1       8.981  -2.612  -6.113  0.00  0.00     0.035 H 
ATOM     38  H   LIG d   1       9.739  -0.212  -4.358  0.00  0.00     0.031 H 
ATOM     39  C   LIG d   1      10.697  -0.545  -6.266  0.00  0.00    -0.033 C 
ATOM     40  H   LIG d   1      11.557  -1.043  -5.819  0.00  0.00     0.028 H 
ATOM     41  H   LIG d   1      10.457  -1.019  -7.217  0.00  0.00     0.028 H 
ATOM     42  H   LIG d   1      11.274   1.400  -5.579  0.00  0.00     0.046 H 
BRANCH   5  43
ATOM     43  O   LIG d   1       9.471   0.989  -8.381  0.00  0.00    -0.391 OA
ATOM     44  H   LIG d   1       8.990   1.560  -8.996  0.00  0.00     0.210 HD
ENDBRANCH   5  43
BRANCH   8  45
ATOM     45  C   LIG d   1       7.965  -0.606  -7.267  0.00  0.00    -0.059 C 
ATOM     46  H   LIG d   1       7.481   0.120  -7.919  0.00  0.00     0.024 H 
ATOM     47  H   LIG d   1       8.887  -0.956  -7.733  0.00  0.00     0.024 H 
ATOM     48  H   LIG d   1       7.297  -1.451  -7.105  0.00  0.00     0.024 H 
ENDBRANCH   8  45
BRANCH  19  49
ATOM     49  C   LIG d   1       4.393  -0.016  -4.939  0.00  0.00    -0.053 C 
ATOM     50  H   LIG d   1       3.341  -0.298  -4.935  0.00  0.00     0.024 H 
ATOM     51  H   LIG d   1       4.495   1.004  -5.312  0.00  0.00     0.024 H 
ATOM     52  H   LIG d   1       4.949  -0.696  -5.584  0.00  0.00     0.024 H 
ENDBRANCH  19  49
ENDBRANCH   1   4
TORSDOF 4
ENDMDL
MODEL 8
REMARK VINA RESULT:      -5.5      9.260     12.188
REMARK  4 active torsions:
REMARK  status: ('A' for Active; 'I' for Inactive)
REMARK    1  A    between atoms: C_1  and  C_2 
REMARK    2  A    between atoms: C_20  and  C_30 
REMARK    3  A    between atoms: C_22  and  O_29 
REMARK    4  A    between atoms: C_24  and  C_27 
ROOT
ATOM      1  C   LIG d   1      10.788   6.133   0.604  0.00  0.00    -0.100 C 
ATOM      2  C   LIG d   1      11.087   5.894   1.714  0.00  0.00    -0.119 C 
ATOM      3  H   LIG d   1      11.355   5.682   2.706  0.00  0.00     0.123 H 
ENDROOT
BRANCH   1   4
ATOM      4  C   LIG d   1      10.413   6.432  -0.788  0.00  0.00     0.047 C 
ATOM      5  C   LIG d   1      11.335   7.520  -1.343  0.00  0.00     0.069 C 
ATOM      6  C   LIG d   1      10.932   7.836  -2.784  0.00  0.00    -0.020 C 
ATOM      7  H   LIG d   1      11.246   8.419  -0.735  0.00  0.00     0.060 H 
ATOM      8  C   LIG d   1      11.060   6.575  -3.645  0.00  0.00    -0.023 C 
ATOM      9  H   LIG d   1       9.899   8.184  -2.803  0.00  0.00     0.030 H 
ATOM     10  H   LIG d   1      11.585   8.614  -3.182  0.00  0.00     0.030 H 
ATOM     11  C   LIG d   1      10.744   6.910  -5.086  0.00  0.00    -0.025 C 
ATOM     12  C   LIG d   1      10.157   5.478  -3.097  0.00  0.00    -0.027 C 
ATOM     13  C   LIG d   1       9.456   7.727  -5.191  0.00  0.00    -0.048 C 
ATOM     14  H   LIG d   1      11.551   7.548  -5.446  0.00  0.00     0.031 H 
ATOM     15  C   LIG d   1      10.702   5.709  -6.017  0.00  0.00     0.025 C 
ATOM     16  C   LIG d   1       9.407   8.438  -6.553  0.00  0.00    -0.040 C 
ATOM     17  H   LIG d   1       8.597   7.064  -5.096  0.00  0.00     0.027 H 
ATOM     18  H   LIG d   1       9.431   8.470  -4.392  0.00  0.00     0.027 H 
ATOM     19  C   LIG d   1      10.190   7.597  -7.546  0.00  0.00     0.030 C 
ATOM     20  H   LIG d   1       8.372   8.532  -6.883  0.00  0.00     0.028 H 
ATOM     21  H   LIG d   1       9.858   9.427  -6.469  0.00  0.00     0.028 H 
ATOM     22  C   LIG d   1       9.904   6.102  -7.256  0.00  0.00    -0.019 C 
ATOM     23  C   LIG d   1       9.777   7.774  -8.982  0.00  0.00     0.140 C 
ATOM     24  H   LIG d   1       8.838   5.924  -7.117  0.00  0.00     0.032 H 
ATOM     25  C   LIG d   1      10.414   5.434  -8.544  0.00  0.00    -0.042 C 
ATOM     26  C   LIG d   1       9.955   6.419  -9.650  0.00  0.00     0.007 C 
ATOM     27  H   LIG d   1       9.950   4.457  -8.682  0.00  0.00     0.027 H 
ATOM     28  H   LIG d   1      11.500   5.345  -8.533  0.00  0.00     0.027 H 
ATOM     29  H   LIG d   1       9.096   6.097 -10.048  0.00  0.00     0.034 H 
ATOM     30  H   LIG d   1      10.715   6.484 -10.430  0.00  0.00     0.034 H 
ATOM     31  O   LIG d   1       9.383   8.791  -9.502  0.00  0.00    -0.297 OA
ATOM     32  H   LIG d   1      11.633   5.455  -6.277  0.00  0.00     0.038 H 
ATOM     33  C   LIG d   1      10.059   4.519  -5.362  0.00  0.00     0.137 C 
ATOM     34  O   LIG d   1       9.306   3.818  -5.994  0.00  0.00    -0.297 OA
ATOM     35  C   LIG d   1      10.352   4.198  -3.919  0.00  0.00     0.009 C 
ATOM     36  H   LIG d   1       9.725   3.487  -3.602  0.00  0.00     0.035 H 
ATOM     37  H   LIG d   1      11.379   3.842  -3.825  0.00  0.00     0.035 H 
ATOM     38  H   LIG d   1       9.116   5.802  -3.150  0.00  0.00     0.031 H 
ATOM     39  C   LIG d   1      10.531   5.170  -1.644  0.00  0.00    -0.033 C 
ATOM     40  H   LIG d   1       9.869   4.396  -1.256  0.00  0.00     0.028 H 
ATOM     41  H   LIG d   1      11.562   4.821  -1.601  0.00  0.00     0.028 H 
ATOM     42  H   LIG d   1       9.380   6.779  -0.822  0.00  0.00     0.046 H 
BRANCH   5  43
ATOM     43  O   LIG d   1      12.688   7.059  -1.317  0.00  0.00    -0.391 OA
ATOM     44  H   LIG d   1      12.900   6.423  -2.015  0.00  0.00     0.210 HD
ENDBRANCH   5  43
BRANCH   8  45
ATOM     45  C   LIG d   1      12.509   6.088  -3.571  0.00  0.00    -0.059 C 
ATOM     46  H   LIG d   1      13.180   6.900  -3.852  0.00  0.00     0.024 H 
ATOM     47  H   LIG d   1      12.732   5.767  -2.553  0.00  0.00     0.024 H 
ATOM     48  H   LIG d   1      12.646   5.250  -4.254  0.00  0.00     0.024 H 
ENDBRANCH   8  45
BRANCH  19  49
ATOM     49  C   LIG d   1      11.686   7.880  -7.397  0.00  0.00    -0.053 C 
ATOM     50  H   LIG d   1      12.146   7.927  -8.384  0.00  0.00     0.024 H 
ATOM     51  H   LIG d   1      11.826   8.833  -6.885  0.00  0.00     0.024 H 
ATOM     52  H   LIG d   1      12.151   7.084  -6.816  0.00  0.00     0.024 H 
ENDBRANCH  19  49
ENDBRANCH   1   4
TORSDOF 4
ENDMDL
MODEL 9
REMARK VINA RESULT:      -5.4      2.131      4.094
REMARK  4 active torsions:
REMARK  status: ('A' for Active; 'I' for Inactive)
REMARK    1  A    between atoms: C_1  and  C_2 
REMARK    2  A    between atoms: C_20  and  C_30 
REMARK    3  A    between atoms: C_22  and  O_29 
REMARK    4  A    between atoms: C_24  and  C_27 
ROOT
ATOM      1  C   LIG d   1      10.263  -6.325  -4.282  0.00  0.00    -0.100 C 
ATOM      2  C   LIG d   1      11.162  -7.040  -4.525  0.00  0.00    -0.119 C 
ATOM      3  H   LIG d   1      11.965  -7.680  -4.742  0.00  0.00     0.123 H 
ENDROOT
BRANCH   1   4
ATOM      4  C   LIG d   1       9.137  -5.427  -3.977  0.00  0.00     0.047 C 
ATOM      5  C   LIG d   1       9.673  -4.108  -3.415  0.00  0.00     0.069 C 
ATOM      6  C   LIG d   1       8.498  -3.186  -3.086  0.00  0.00    -0.020 C 
ATOM      7  H   LIG d   1      10.245  -4.304  -2.509  0.00  0.00     0.060 H 
ATOM      8  C   LIG d   1       7.691  -2.904  -4.358  0.00  0.00    -0.023 C 
ATOM      9  H   LIG d   1       7.855  -3.666  -2.349  0.00  0.00     0.030 H 
ATOM     10  H   LIG d   1       8.876  -2.247  -2.682  0.00  0.00     0.030 H 
ATOM     11  C   LIG d   1       6.582  -1.924  -4.049  0.00  0.00    -0.025 C 
ATOM     12  C   LIG d   1       7.161  -4.210  -4.937  0.00  0.00    -0.027 C 
ATOM     13  C   LIG d   1       5.821  -2.335  -2.788  0.00  0.00    -0.048 C 
ATOM     14  H   LIG d   1       7.056  -0.968  -3.831  0.00  0.00     0.031 H 
ATOM     15  C   LIG d   1       5.624  -1.672  -5.202  0.00  0.00     0.025 C 
ATOM     16  C   LIG d   1       5.043  -1.128  -2.239  0.00  0.00    -0.040 C 
ATOM     17  H   LIG d   1       5.123  -3.137  -3.030  0.00  0.00     0.027 H 
ATOM     18  H   LIG d   1       6.528  -2.684  -2.034  0.00  0.00     0.027 H 
ATOM     19  C   LIG d   1       4.705  -0.220  -3.409  0.00  0.00     0.030 C 
ATOM     20  H   LIG d   1       4.125  -1.468  -1.759  0.00  0.00     0.028 H 
ATOM     21  H   LIG d   1       5.658  -0.589  -1.518  0.00  0.00     0.028 H 
ATOM     22  C   LIG d   1       4.331  -1.105  -4.624  0.00  0.00    -0.019 C 
ATOM     23  C   LIG d   1       3.492   0.647  -3.203  0.00  0.00     0.140 C 
ATOM     24  H   LIG d   1       3.641  -1.898  -4.338  0.00  0.00     0.032 H 
ATOM     25  C   LIG d   1       3.647  -0.085  -5.552  0.00  0.00    -0.042 C 
ATOM     26  C   LIG d   1       2.827   0.785  -4.564  0.00  0.00     0.007 C 
ATOM     27  H   LIG d   1       2.990  -0.588  -6.260  0.00  0.00     0.027 H 
ATOM     28  H   LIG d   1       4.386   0.520  -6.076  0.00  0.00     0.027 H 
ATOM     29  H   LIG d   1       1.882   0.459  -4.539  0.00  0.00     0.034 H 
ATOM     30  H   LIG d   1       2.844   1.827  -4.884  0.00  0.00     0.034 H 
ATOM     31  O   LIG d   1       3.121   1.136  -2.163  0.00  0.00    -0.297 OA
ATOM     32  H   LIG d   1       6.031  -1.016  -5.836  0.00  0.00     0.038 H 
ATOM     33  C   LIG d   1       5.325  -2.933  -5.963  0.00  0.00     0.137 C 
ATOM     34  O   LIG d   1       4.200  -3.153  -6.345  0.00  0.00    -0.297 OA
ATOM     35  C   LIG d   1       6.423  -3.923  -6.251  0.00  0.00     0.009 C 
ATOM     36  H   LIG d   1       6.025  -4.766  -6.612  0.00  0.00     0.035 H 
ATOM     37  H   LIG d   1       7.110  -3.504  -6.986  0.00  0.00     0.035 H 
ATOM     38  H   LIG d   1       6.484  -4.678  -4.221  0.00  0.00     0.031 H 
ATOM     39  C   LIG d   1       8.326  -5.156  -5.245  0.00  0.00    -0.033 C 
ATOM     40  H   LIG d   1       7.937  -6.092  -5.643  0.00  0.00     0.028 H 
ATOM     41  H   LIG d   1       8.984  -4.694  -5.981  0.00  0.00     0.028 H 
ATOM     42  H   LIG d   1       8.484  -5.898  -3.242  0.00  0.00     0.046 H 
BRANCH   5  43
ATOM     43  O   LIG d   1      10.514  -3.481  -4.385  0.00  0.00    -0.391 OA
ATOM     44  H   LIG d   1      11.402  -3.276  -4.061  0.00  0.00     0.210 HD
ENDBRANCH   5  43
BRANCH   8  45
ATOM     45  C   LIG d   1       8.625  -2.265  -5.387  0.00  0.00    -0.059 C 
ATOM     46  H   LIG d   1       9.034  -1.340  -4.981  0.00  0.00     0.024 H 
ATOM     47  H   LIG d   1       9.439  -2.953  -5.616  0.00  0.00     0.024 H 
ATOM     48  H   LIG d   1       8.067  -2.047  -6.298  0.00  0.00     0.024 H 
ENDBRANCH   8  45
BRANCH  19  49
ATOM     49  C   LIG d   1       5.914   0.653  -3.752  0.00  0.00    -0.053 C 
ATOM     50  H   LIG d   1       5.821   1.615  -3.250  0.00  0.00     0.024 H 
ATOM     51  H   LIG d   1       6.826   0.156  -3.420  0.00  0.00     0.024 H 
ATOM     52  H   LIG d   1       5.957   0.807  -4.830  0.00  0.00     0.024 H 
ENDBRANCH  19  49
ENDBRANCH   1   4
TORSDOF 4
ENDMDL
MODEL 10
REMARK VINA RESULT:      -5.4     10.680     12.400
REMARK  4 active torsions:
REMARK  status: ('A' for Active; 'I' for Inactive)
REMARK    1  A    between atoms: C_1  and  C_2 
REMARK    2  A    between atoms: C_20  and  C_30 
REMARK    3  A    between atoms: C_22  and  O_29 
REMARK    4  A    between atoms: C_24  and  C_27 
ROOT
ATOM      1  C   LIG d   1       9.568   6.286  -8.091  0.00  0.00    -0.100 C 
ATOM      2  C   LIG d   1       9.529   6.211  -9.262  0.00  0.00    -0.119 C 
ATOM      3  H   LIG d   1       9.492   6.144 -10.309  0.00  0.00     0.123 H 
ENDROOT
BRANCH   1   4
ATOM      4  C   LIG d   1       9.619   6.380  -6.623  0.00  0.00     0.047 C 
ATOM      5  C   LIG d   1      10.793   5.550  -6.099  0.00  0.00     0.069 C 
ATOM      6  C   LIG d   1      10.832   5.639  -4.573  0.00  0.00    -0.020 C 
ATOM      7  H   LIG d   1      10.667   4.510  -6.399  0.00  0.00     0.060 H 
ATOM      8  C   LIG d   1      11.014   7.099  -4.145  0.00  0.00    -0.023 C 
ATOM      9  H   LIG d   1       9.898   5.255  -4.163  0.00  0.00     0.030 H 
ATOM     10  H   LIG d   1      11.665   5.045  -4.195  0.00  0.00     0.030 H 
ATOM     11  C   LIG d   1      11.138   7.175  -2.640  0.00  0.00    -0.025 C 
ATOM     12  C   LIG d   1       9.858   7.942  -4.671  0.00  0.00    -0.027 C 
ATOM     13  C   LIG d   1      10.046   6.353  -1.955  0.00  0.00    -0.048 C 
ATOM     14  H   LIG d   1      12.089   6.713  -2.378  0.00  0.00     0.031 H 
ATOM     15  C   LIG d   1      11.183   8.589  -2.082  0.00  0.00     0.025 C 
ATOM     16  C   LIG d   1      10.455   6.062  -0.502  0.00  0.00    -0.040 C 
ATOM     17  H   LIG d   1       9.111   6.914  -1.963  0.00  0.00     0.027 H 
ATOM     18  H   LIG d   1       9.910   5.413  -2.490  0.00  0.00     0.027 H 
ATOM     19  C   LIG d   1      11.353   7.195  -0.035  0.00  0.00     0.030 C 
ATOM     20  H   LIG d   1       9.567   6.011   0.128  0.00  0.00     0.028 H 
ATOM     21  H   LIG d   1      10.996   5.117  -0.454  0.00  0.00     0.028 H 
ATOM     22  C   LIG d   1      10.802   8.525  -0.607  0.00  0.00    -0.019 C 
ATOM     23  C   LIG d   1      11.363   7.416   1.454  0.00  0.00     0.140 C 
ATOM     24  H   LIG d   1       9.724   8.597  -0.470  0.00  0.00     0.032 H 
ATOM     25  C   LIG d   1      11.541   9.562   0.257  0.00  0.00    -0.042 C 
ATOM     26  C   LIG d   1      11.528   8.913   1.665  0.00  0.00     0.007 C 
ATOM     27  H   LIG d   1      11.003  10.511   0.265  0.00  0.00     0.027 H 
ATOM     28  H   LIG d   1      12.563   9.703  -0.093  0.00  0.00     0.027 H 
ATOM     29  H   LIG d   1      10.770   9.288   2.198  0.00  0.00     0.034 H 
ATOM     30  H   LIG d   1      12.469   9.117   2.177  0.00  0.00     0.034 H 
ATOM     31  O   LIG d   1      11.261   6.571   2.311  0.00  0.00    -0.297 OA
ATOM     32  H   LIG d   1      12.107   8.957  -2.181  0.00  0.00     0.038 H 
ATOM     33  C   LIG d   1      10.236   9.504  -2.807  0.00  0.00     0.137 C 
ATOM     34  O   LIG d   1       9.590  10.314  -2.187  0.00  0.00    -0.297 OA
ATOM     35  C   LIG d   1      10.091   9.413  -4.304  0.00  0.00     0.009 C 
ATOM     36  H   LIG d   1       9.313   9.967  -4.597  0.00  0.00     0.035 H 
ATOM     37  H   LIG d   1      10.998   9.782  -4.782  0.00  0.00     0.035 H 
ATOM     38  H   LIG d   1       8.922   7.590  -4.234  0.00  0.00     0.031 H 
ATOM     39  C   LIG d   1       9.789   7.839  -6.197  0.00  0.00    -0.033 C 
ATOM     40  H   LIG d   1       8.951   8.431  -6.562  0.00  0.00     0.028 H 
ATOM     41  H   LIG d   1      10.716   8.217  -6.629  0.00  0.00     0.028 H 
ATOM     42  H   LIG d   1       8.688   6.002  -6.201  0.00  0.00     0.046 H 
BRANCH   5  43
ATOM     43  O   LIG d   1      12.016   6.057  -6.637  0.00  0.00    -0.391 OA
ATOM     44  H   LIG d   1      12.721   6.158  -5.983  0.00  0.00     0.210 HD
ENDBRANCH   5  43
BRANCH   8  45
ATOM     45  C   LIG d   1      12.311   7.623  -4.763  0.00  0.00    -0.059 C 
ATOM     46  H   LIG d   1      13.163   7.224  -4.211  0.00  0.00     0.024 H 
ATOM     47  H   LIG d   1      12.372   7.306  -5.804  0.00  0.00     0.024 H 
ATOM     48  H   LIG d   1      12.324   8.711  -4.714  0.00  0.00     0.024 H 
ENDBRANCH   8  45
BRANCH  19  49
ATOM     49  C   LIG d   1      12.780   6.963  -0.535  0.00  0.00    -0.053 C 
ATOM     50  H   LIG d   1      13.312   7.913  -0.565  0.00  0.00     0.024 H 
ATOM     51  H   LIG d   1      13.295   6.279   0.141  0.00  0.00     0.024 H 
ATOM     52  H   LIG d   1      12.750   6.530  -1.535  0.00  0.00     0.024 H 
ENDBRANCH  19  49
ENDBRANCH   1   4
TORSDOF 4
ENDMDL
