MODEL 1
REMARK VINA RESULT:      -7.2      0.000      0.000
REMARK  8 active torsions:
REMARK  status: ('A' for Active; 'I' for Inactive)
REMARK    1  A    between atoms: C_1  and  C_2 
REMARK    2  A    between atoms: C_2  and  C_3 
REMARK    3  A    between atoms: C_3  and  C_5 
REMARK    4  A    between atoms: C_3  and  N_6 
REMARK       I    between atoms: N_6  and  C_7 
REMARK    5  A    between atoms: C_7  and  C_9 
REMARK    6  A    between atoms: C_12  and  N_15 
REMARK    7  A    between atoms: C_31  and  C_36 
REMARK    8  A    between atoms: C_39  and  C_42 
ROOT
ATOM      1  N   LIG d   1       9.007   1.514  -5.833  0.00  0.00    -0.193 N 
ATOM      2  C   LIG d   1       9.134   1.706  -7.162  0.00  0.00     0.248 A 
ATOM      3  O   LIG d   1       9.750   2.590  -7.717  0.00  0.00    -0.273 OA
ATOM      4  C   LIG d   1       8.347   0.590  -7.819  0.00  0.00     0.110 A 
ATOM      5  H   LIG d   1       8.973  -0.061  -8.428  0.00  0.00     0.060 H 
ATOM      6  C   LIG d   1       7.190   1.184  -8.631  0.00  0.00     0.002 C 
ATOM      7  C   LIG d   1       6.083   0.167  -8.744  0.00  0.00    -0.015 A 
ATOM      8  C   LIG d   1       5.000   0.145  -9.711  0.00  0.00     0.003 A 
ATOM      9  C   LIG d   1       4.662   0.994 -10.769  0.00  0.00    -0.052 A 
ATOM     10  C   LIG d   1       3.543   0.664 -11.493  0.00  0.00    -0.061 A 
ATOM     11  C   LIG d   1       2.777  -0.452 -11.199  0.00  0.00    -0.060 A 
ATOM     12  C   LIG d   1       3.088  -1.308 -10.157  0.00  0.00    -0.038 A 
ATOM     13  C   LIG d   1       4.221  -0.999  -9.404  0.00  0.00     0.047 A 
ATOM     14  N   LIG d   1       4.803  -1.612  -8.332  0.00  0.00    -0.356 N 
ATOM     15  H   LIG d   1       4.479  -2.421  -7.908  0.00  0.00     0.166 HD
ATOM     16  C   LIG d   1       5.914  -0.910  -7.948  0.00  0.00     0.046 A 
ATOM     17  C   LIG d   1       6.843  -1.261  -6.801  0.00  0.00     0.094 C 
ATOM     18  H   LIG d   1       7.395  -2.172  -7.031  0.00  0.00     0.062 H 
ATOM     19  N   LIG d   1       7.769  -0.131  -6.663  0.00  0.00    -0.261 N 
ATOM     20  C   LIG d   1       8.241   0.450  -5.557  0.00  0.00     0.317 A 
ATOM     21  O   LIG d   1       8.003   0.058  -4.432  0.00  0.00    -0.252 OA
ATOM     22  H   LIG d   1       6.814   2.076  -8.130  0.00  0.00     0.034 H 
ATOM     23  H   LIG d   1       7.544   1.449  -9.627  0.00  0.00     0.034 H 
ATOM     24  H   LIG d   1       5.253   1.866 -11.006  0.00  0.00     0.062 H 
ATOM     25  H   LIG d   1       3.250   1.296 -12.319  0.00  0.00     0.062 H 
ATOM     26  H   LIG d   1       1.907  -0.661 -11.804  0.00  0.00     0.062 H 
ATOM     27  H   LIG d   1       2.483  -2.175  -9.937  0.00  0.00     0.064 H 
ENDROOT
BRANCH   1  28
ATOM     28  C   LIG d   1       9.603   2.326  -4.863  0.00  0.00     0.045 A 
ATOM     29  C   LIG d   1       8.958   3.480  -4.434  0.00  0.00    -0.039 A 
ATOM     30  C   LIG d   1       9.543   4.282  -3.478  0.00  0.00    -0.048 A 
ATOM     31  H   LIG d   1       7.999   3.749  -4.850  0.00  0.00     0.064 H 
ATOM     32  C   LIG d   1      10.784   3.933  -2.940  0.00  0.00     0.037 A 
ATOM     33  H   LIG d   1       9.042   5.179  -3.146  0.00  0.00     0.063 H 
ATOM     34  C   LIG d   1      11.429   2.772  -3.374  0.00  0.00    -0.048 A 
ATOM     35  C   LIG d   1      10.836   1.972  -4.326  0.00  0.00    -0.039 A 
ATOM     36  H   LIG d   1      12.389   2.499  -2.960  0.00  0.00     0.063 H 
ATOM     37  H   LIG d   1      11.331   1.073  -4.659  0.00  0.00     0.064 H 
BRANCH  32  38
ATOM     38  C   LIG d   1      11.413   4.790  -1.916  0.00  0.00     0.244 C 
ATOM     39  N   LIG d   1      10.656   5.370  -0.964  0.00  0.00    -0.309 N 
ATOM     40  H   LIG d   1       9.697   5.224  -0.952  0.00  0.00     0.149 HD
ATOM     41  O   LIG d   1      12.615   4.973  -1.931  0.00  0.00    -0.270 OA
BRANCH  39  42
ATOM     42  C   LIG d   1      11.281   6.221   0.053  0.00  0.00     0.020 C 
ATOM     43  H   LIG d   1      12.353   6.285  -0.136  0.00  0.00     0.050 H 
BRANCH  42  44
ATOM     44  C   LIG d   1      10.668   7.621  -0.007  0.00  0.00    -0.038 C 
ATOM     45  H   LIG d   1      10.243   7.872   0.965  0.00  0.00     0.028 H 
ATOM     46  H   LIG d   1      11.441   8.345  -0.264  0.00  0.00     0.028 H 
BRANCH  44  47
ATOM     47  C   LIG d   1       9.565   7.651  -1.068  0.00  0.00    -0.064 C 
ATOM     48  H   LIG d   1       8.861   8.451  -0.835  0.00  0.00     0.023 H 
ATOM     49  H   LIG d   1      10.009   7.831  -2.047  0.00  0.00     0.023 H 
ATOM     50  H   LIG d   1       9.042   6.696  -1.075  0.00  0.00     0.023 H 
ENDBRANCH  44  47
ENDBRANCH  42  44
BRANCH  42  51
ATOM     51  C   LIG d   1      11.043   5.617   1.438  0.00  0.00    -0.047 C 
ATOM     52  H   LIG d   1      10.877   4.544   1.344  0.00  0.00     0.025 H 
ATOM     53  H   LIG d   1      11.915   5.795   2.067  0.00  0.00     0.025 H 
ATOM     54  H   LIG d   1      10.167   6.083   1.891  0.00  0.00     0.025 H 
ENDBRANCH  42  51
ENDBRANCH  39  42
ENDBRANCH  32  38
ENDBRANCH   1  28
BRANCH  17  55
ATOM     55  C   LIG d   1       6.052  -1.442  -5.532  0.00  0.00    -0.021 A 
ATOM     56  C   LIG d   1       5.090  -0.514  -5.178  0.00  0.00    -0.056 A 
ATOM     57  C   LIG d   1       4.365  -0.680  -4.013  0.00  0.00    -0.059 A 
ATOM     58  H   LIG d   1       4.905   0.340  -5.813  0.00  0.00     0.062 H 
ATOM     59  C   LIG d   1       4.597  -1.776  -3.204  0.00  0.00    -0.050 A 
ATOM     60  H   LIG d   1       3.613   0.045  -3.737  0.00  0.00     0.062 H 
ATOM     61  C   LIG d   1       5.563  -2.702  -3.555  0.00  0.00    -0.059 A 
ATOM     62  C   LIG d   1       6.289  -2.536  -4.719  0.00  0.00    -0.056 A 
ATOM     63  H   LIG d   1       5.747  -3.557  -2.921  0.00  0.00     0.062 H 
ATOM     64  H   LIG d   1       7.039  -3.261  -4.997  0.00  0.00     0.062 H 
BRANCH  59  65
ATOM     65  C   LIG d   1       3.802  -1.960  -1.937  0.00  0.00    -0.040 C 
ATOM     66  H   LIG d   1       4.147  -1.250  -1.186  0.00  0.00     0.028 H 
ATOM     67  H   LIG d   1       2.746  -1.788  -2.143  0.00  0.00     0.028 H 
ATOM     68  H   LIG d   1       3.939  -2.976  -1.567  0.00  0.00     0.028 H 
ENDBRANCH  59  65
ENDBRANCH  17  55
TORSDOF 8
ENDMDL
MODEL 2
REMARK VINA RESULT:      -6.8      4.510      9.140
REMARK  8 active torsions:
REMARK  status: ('A' for Active; 'I' for Inactive)
REMARK    1  A    between atoms: C_1  and  C_2 
REMARK    2  A    between atoms: C_2  and  C_3 
REMARK    3  A    between atoms: C_3  and  C_5 
REMARK    4  A    between atoms: C_3  and  N_6 
REMARK       I    between atoms: N_6  and  C_7 
REMARK    5  A    between atoms: C_7  and  C_9 
REMARK    6  A    between atoms: C_12  and  N_15 
REMARK    7  A    between atoms: C_31  and  C_36 
REMARK    8  A    between atoms: C_39  and  C_42 
ROOT
ATOM      1  N   LIG d   1       9.564  -3.066  -4.453  0.00  0.00    -0.193 N 
ATOM      2  C   LIG d   1      10.692  -2.482  -4.909  0.00  0.00     0.248 A 
ATOM      3  O   LIG d   1      11.822  -2.911  -4.824  0.00  0.00    -0.273 OA
ATOM      4  C   LIG d   1      10.254  -1.180  -5.548  0.00  0.00     0.110 A 
ATOM      5  H   LIG d   1      10.481  -1.140  -6.613  0.00  0.00     0.060 H 
ATOM      6  C   LIG d   1      10.877  -0.000  -4.792  0.00  0.00     0.002 C 
ATOM      7  C   LIG d   1      10.010   1.221  -4.966  0.00  0.00    -0.015 A 
ATOM      8  C   LIG d   1      10.389   2.608  -4.763  0.00  0.00     0.003 A 
ATOM      9  C   LIG d   1      11.588   3.212  -4.374  0.00  0.00    -0.052 A 
ATOM     10  C   LIG d   1      11.589   4.582  -4.280  0.00  0.00    -0.061 A 
ATOM     11  C   LIG d   1      10.462   5.340  -4.555  0.00  0.00    -0.060 A 
ATOM     12  C   LIG d   1       9.262   4.767  -4.941  0.00  0.00    -0.038 A 
ATOM     13  C   LIG d   1       9.232   3.377  -5.046  0.00  0.00     0.047 A 
ATOM     14  N   LIG d   1       8.240   2.507  -5.393  0.00  0.00    -0.356 N 
ATOM     15  H   LIG d   1       7.336   2.759  -5.637  0.00  0.00     0.166 HD
ATOM     16  C   LIG d   1       8.715   1.224  -5.344  0.00  0.00     0.046 A 
ATOM     17  C   LIG d   1       7.930  -0.035  -5.664  0.00  0.00     0.094 C 
ATOM     18  H   LIG d   1       7.697  -0.072  -6.728  0.00  0.00     0.062 H 
ATOM     19  N   LIG d   1       8.796  -1.162  -5.296  0.00  0.00    -0.261 N 
ATOM     20  C   LIG d   1       8.483  -2.313  -4.696  0.00  0.00     0.317 A 
ATOM     21  O   LIG d   1       7.349  -2.638  -4.405  0.00  0.00    -0.252 OA
ATOM     22  H   LIG d   1      10.952  -0.246  -3.733  0.00  0.00     0.034 H 
ATOM     23  H   LIG d   1      11.873   0.200  -5.190  0.00  0.00     0.034 H 
ATOM     24  H   LIG d   1      12.471   2.629  -4.158  0.00  0.00     0.062 H 
ATOM     25  H   LIG d   1      12.497   5.085  -3.982  0.00  0.00     0.062 H 
ATOM     26  H   LIG d   1      10.522   6.414  -4.464  0.00  0.00     0.062 H 
ATOM     27  H   LIG d   1       8.391   5.369  -5.152  0.00  0.00     0.064 H 
ENDROOT
BRANCH   1  28
ATOM     28  C   LIG d   1       9.529  -4.305  -3.806  0.00  0.00     0.045 A 
ATOM     29  C   LIG d   1       9.279  -5.462  -4.536  0.00  0.00    -0.039 A 
ATOM     30  C   LIG d   1       9.244  -6.684  -3.901  0.00  0.00    -0.048 A 
ATOM     31  H   LIG d   1       9.113  -5.402  -5.602  0.00  0.00     0.064 H 
ATOM     32  C   LIG d   1       9.459  -6.760  -2.523  0.00  0.00     0.037 A 
ATOM     33  H   LIG d   1       9.050  -7.581  -4.469  0.00  0.00     0.063 H 
ATOM     34  C   LIG d   1       9.710  -5.595  -1.793  0.00  0.00    -0.048 A 
ATOM     35  C   LIG d   1       9.749  -4.377  -2.435  0.00  0.00    -0.039 A 
ATOM     36  H   LIG d   1       9.876  -5.650  -0.727  0.00  0.00     0.063 H 
ATOM     37  H   LIG d   1       9.946  -3.477  -1.872  0.00  0.00     0.064 H 
BRANCH  32  38
ATOM     38  C   LIG d   1       9.422  -8.068  -1.840  0.00  0.00     0.244 C 
ATOM     39  N   LIG d   1       8.394  -8.912  -2.054  0.00  0.00    -0.309 N 
ATOM     40  H   LIG d   1       7.678  -8.660  -2.659  0.00  0.00     0.149 HD
ATOM     41  O   LIG d   1      10.318  -8.383  -1.082  0.00  0.00    -0.270 OA
BRANCH  39  42
ATOM     42  C   LIG d   1       8.356 -10.210  -1.375  0.00  0.00     0.020 C 
ATOM     43  H   LIG d   1       8.963 -10.164  -0.470  0.00  0.00     0.050 H 
BRANCH  42  44
ATOM     44  C   LIG d   1       6.912 -10.550  -1.004  0.00  0.00    -0.038 C 
ATOM     45  H   LIG d   1       6.838 -11.613  -0.773  0.00  0.00     0.028 H 
ATOM     46  H   LIG d   1       6.613  -9.967  -0.134  0.00  0.00     0.028 H 
BRANCH  44  47
ATOM     47  C   LIG d   1       5.991 -10.220  -2.181  0.00  0.00    -0.064 C 
ATOM     48  H   LIG d   1       5.858 -11.109  -2.798  0.00  0.00     0.023 H 
ATOM     49  H   LIG d   1       5.023  -9.891  -1.804  0.00  0.00     0.023 H 
ATOM     50  H   LIG d   1       6.437  -9.426  -2.779  0.00  0.00     0.023 H 
ENDBRANCH  44  47
ENDBRANCH  42  44
BRANCH  42  51
ATOM     51  C   LIG d   1       8.912 -11.288  -2.307  0.00  0.00    -0.047 C 
ATOM     52  H   LIG d   1       8.413 -11.226  -3.273  0.00  0.00     0.025 H 
ATOM     53  H   LIG d   1       9.983 -11.136  -2.441  0.00  0.00     0.025 H 
ATOM     54  H   LIG d   1       8.737 -12.271  -1.869  0.00  0.00     0.025 H 
ENDBRANCH  42  51
ENDBRANCH  39  42
ENDBRANCH  32  38
ENDBRANCH   1  28
BRANCH  17  55
ATOM     55  C   LIG d   1       6.660  -0.072  -4.854  0.00  0.00    -0.021 A 
ATOM     56  C   LIG d   1       6.682   0.276  -3.516  0.00  0.00    -0.056 A 
ATOM     57  C   LIG d   1       5.518   0.242  -2.773  0.00  0.00    -0.059 A 
ATOM     58  H   LIG d   1       7.611   0.573  -3.051  0.00  0.00     0.062 H 
ATOM     59  C   LIG d   1       4.328  -0.134  -3.370  0.00  0.00    -0.050 A 
ATOM     60  H   LIG d   1       5.535   0.513  -1.728  0.00  0.00     0.062 H 
ATOM     61  C   LIG d   1       4.307  -0.486  -4.707  0.00  0.00    -0.059 A 
ATOM     62  C   LIG d   1       5.471  -0.453  -5.449  0.00  0.00    -0.056 A 
ATOM     63  H   LIG d   1       3.378  -0.782  -5.172  0.00  0.00     0.062 H 
ATOM     64  H   LIG d   1       5.454  -0.722  -6.495  0.00  0.00     0.062 H 
BRANCH  59  65
ATOM     65  C   LIG d   1       3.057  -0.165  -2.561  0.00  0.00    -0.040 C 
ATOM     66  H   LIG d   1       3.194  -0.809  -1.693  0.00  0.00     0.028 H 
ATOM     67  H   LIG d   1       2.812   0.844  -2.230  0.00  0.00     0.028 H 
ATOM     68  H   LIG d   1       2.245  -0.552  -3.177  0.00  0.00     0.028 H 
ENDBRANCH  59  65
ENDBRANCH  17  55
TORSDOF 8
ENDMDL
MODEL 3
REMARK VINA RESULT:      -6.8      4.513     10.377
REMARK  8 active torsions:
REMARK  status: ('A' for Active; 'I' for Inactive)
REMARK    1  A    between atoms: C_1  and  C_2 
REMARK    2  A    between atoms: C_2  and  C_3 
REMARK    3  A    between atoms: C_3  and  C_5 
REMARK    4  A    between atoms: C_3  and  N_6 
REMARK       I    between atoms: N_6  and  C_7 
REMARK    5  A    between atoms: C_7  and  C_9 
REMARK    6  A    between atoms: C_12  and  N_15 
REMARK    7  A    between atoms: C_31  and  C_36 
REMARK    8  A    between atoms: C_39  and  C_42 
ROOT
ATOM      1  N   LIG d   1       6.168  -2.688  -7.978  0.00  0.00    -0.193 N 
ATOM      2  C   LIG d   1       7.069  -3.670  -8.189  0.00  0.00     0.248 A 
ATOM      3  O   LIG d   1       7.069  -4.480  -9.090  0.00  0.00    -0.273 OA
ATOM      4  C   LIG d   1       8.080  -3.553  -7.066  0.00  0.00     0.110 A 
ATOM      5  H   LIG d   1       9.083  -3.333  -7.428  0.00  0.00     0.060 H 
ATOM      6  C   LIG d   1       8.053  -4.826  -6.213  0.00  0.00     0.002 C 
ATOM      7  C   LIG d   1       8.524  -4.506  -4.817  0.00  0.00    -0.015 A 
ATOM      8  C   LIG d   1       9.014  -5.435  -3.816  0.00  0.00     0.003 A 
ATOM      9  C   LIG d   1       9.197  -6.821  -3.824  0.00  0.00    -0.052 A 
ATOM     10  C   LIG d   1       9.691  -7.387  -2.674  0.00  0.00    -0.061 A 
ATOM     11  C   LIG d   1       9.997  -6.631  -1.554  0.00  0.00    -0.060 A 
ATOM     12  C   LIG d   1       9.825  -5.258  -1.519  0.00  0.00    -0.038 A 
ATOM     13  C   LIG d   1       9.326  -4.656  -2.674  0.00  0.00     0.047 A 
ATOM     14  N   LIG d   1       9.040  -3.356  -2.978  0.00  0.00    -0.356 N 
ATOM     15  H   LIG d   1       9.157  -2.603  -2.378  0.00  0.00     0.166 HD
ATOM     16  C   LIG d   1       8.565  -3.277  -4.260  0.00  0.00     0.046 A 
ATOM     17  C   LIG d   1       8.139  -2.013  -4.980  0.00  0.00     0.094 C 
ATOM     18  H   LIG d   1       9.005  -1.380  -5.174  0.00  0.00     0.062 H 
ATOM     19  N   LIG d   1       7.537  -2.446  -6.247  0.00  0.00    -0.261 N 
ATOM     20  C   LIG d   1       6.455  -1.981  -6.876  0.00  0.00     0.317 A 
ATOM     21  O   LIG d   1       5.806  -1.028  -6.493  0.00  0.00    -0.252 OA
ATOM     22  H   LIG d   1       7.036  -5.216  -6.173  0.00  0.00     0.034 H 
ATOM     23  H   LIG d   1       8.711  -5.574  -6.657  0.00  0.00     0.034 H 
ATOM     24  H   LIG d   1       8.961  -7.418  -4.693  0.00  0.00     0.062 H 
ATOM     25  H   LIG d   1       9.846  -8.455  -2.642  0.00  0.00     0.062 H 
ATOM     26  H   LIG d   1      10.383  -7.131  -0.678  0.00  0.00     0.062 H 
ATOM     27  H   LIG d   1      10.067  -4.680  -0.640  0.00  0.00     0.064 H 
ENDROOT
BRANCH   1  28
ATOM     28  C   LIG d   1       5.070  -2.439  -8.807  0.00  0.00     0.045 A 
ATOM     29  C   LIG d   1       3.868  -3.099  -8.583  0.00  0.00    -0.039 A 
ATOM     30  C   LIG d   1       2.784  -2.856  -9.398  0.00  0.00    -0.048 A 
ATOM     31  H   LIG d   1       3.782  -3.804  -7.768  0.00  0.00     0.064 H 
ATOM     32  C   LIG d   1       2.896  -1.945 -10.451  0.00  0.00     0.037 A 
ATOM     33  H   LIG d   1       1.851  -3.370  -9.223  0.00  0.00     0.063 H 
ATOM     34  C   LIG d   1       4.106  -1.283 -10.674  0.00  0.00    -0.048 A 
ATOM     35  C   LIG d   1       5.183  -1.528  -9.851  0.00  0.00    -0.039 A 
ATOM     36  H   LIG d   1       4.196  -0.579 -11.488  0.00  0.00     0.063 H 
ATOM     37  H   LIG d   1       6.118  -1.014 -10.020  0.00  0.00     0.064 H 
BRANCH  32  38
ATOM     38  C   LIG d   1       1.737  -1.682 -11.328  0.00  0.00     0.244 C 
ATOM     39  N   LIG d   1       1.477  -2.500 -12.366  0.00  0.00    -0.309 N 
ATOM     40  H   LIG d   1       2.051  -3.264 -12.537  0.00  0.00     0.149 HD
ATOM     41  O   LIG d   1       1.018  -0.725 -11.114  0.00  0.00    -0.270 OA
BRANCH  39  42
ATOM     42  C   LIG d   1       0.327  -2.239 -13.236  0.00  0.00     0.020 C 
ATOM     43  H   LIG d   1       0.004  -1.206 -13.109  0.00  0.00     0.050 H 
BRANCH  42  44
ATOM     44  C   LIG d   1       0.727  -2.472 -14.694  0.00  0.00    -0.038 C 
ATOM     45  H   LIG d   1       0.537  -3.512 -14.960  0.00  0.00     0.028 H 
ATOM     46  H   LIG d   1       0.142  -1.818 -15.340  0.00  0.00     0.028 H 
BRANCH  44  47
ATOM     47  C   LIG d   1       2.217  -2.166 -14.870  0.00  0.00    -0.064 C 
ATOM     48  H   LIG d   1       2.333  -1.181 -15.323  0.00  0.00     0.023 H 
ATOM     49  H   LIG d   1       2.708  -2.179 -13.898  0.00  0.00     0.023 H 
ATOM     50  H   LIG d   1       2.667  -2.919 -15.516  0.00  0.00     0.023 H 
ENDBRANCH  44  47
ENDBRANCH  42  44
BRANCH  42  51
ATOM     51  C   LIG d   1      -0.818  -3.181 -12.864  0.00  0.00    -0.047 C 
ATOM     52  H   LIG d   1      -0.627  -3.616 -11.883  0.00  0.00     0.025 H 
ATOM     53  H   LIG d   1      -1.754  -2.623 -12.837  0.00  0.00     0.025 H 
ATOM     54  H   LIG d   1      -0.890  -3.976 -13.606  0.00  0.00     0.025 H 
ENDBRANCH  42  51
ENDBRANCH  39  42
ENDBRANCH  32  38
ENDBRANCH   1  28
BRANCH  17  55
ATOM     55  C   LIG d   1       7.125  -1.263  -4.155  0.00  0.00    -0.021 A 
ATOM     56  C   LIG d   1       7.224   0.109  -4.018  0.00  0.00    -0.056 A 
ATOM     57  C   LIG d   1       6.295   0.797  -3.261  0.00  0.00    -0.059 A 
ATOM     58  H   LIG d   1       8.028   0.644  -4.503  0.00  0.00     0.062 H 
ATOM     59  C   LIG d   1       5.263   0.114  -2.645  0.00  0.00    -0.050 A 
ATOM     60  H   LIG d   1       6.372   1.870  -3.154  0.00  0.00     0.062 H 
ATOM     61  C   LIG d   1       5.167  -1.259  -2.778  0.00  0.00    -0.059 A 
ATOM     62  C   LIG d   1       6.097  -1.947  -3.534  0.00  0.00    -0.056 A 
ATOM     63  H   LIG d   1       4.362  -1.793  -2.294  0.00  0.00     0.062 H 
ATOM     64  H   LIG d   1       6.019  -3.019  -3.643  0.00  0.00     0.062 H 
BRANCH  59  65
ATOM     65  C   LIG d   1       4.246   0.865  -1.824  0.00  0.00    -0.040 C 
ATOM     66  H   LIG d   1       3.643   1.493  -2.479  0.00  0.00     0.028 H 
ATOM     67  H   LIG d   1       3.602   0.155  -1.306  0.00  0.00     0.028 H 
ATOM     68  H   LIG d   1       4.760   1.489  -1.093  0.00  0.00     0.028 H 
ENDBRANCH  59  65
ENDBRANCH  17  55
TORSDOF 8
ENDMDL
MODEL 4
REMARK VINA RESULT:      -6.7      4.672      5.354
REMARK  8 active torsions:
REMARK  status: ('A' for Active; 'I' for Inactive)
REMARK    1  A    between atoms: C_1  and  C_2 
REMARK    2  A    between atoms: C_2  and  C_3 
REMARK    3  A    between atoms: C_3  and  C_5 
REMARK    4  A    between atoms: C_3  and  N_6 
REMARK       I    between atoms: N_6  and  C_7 
REMARK    5  A    between atoms: C_7  and  C_9 
REMARK    6  A    between atoms: C_12  and  N_15 
REMARK    7  A    between atoms: C_31  and  C_36 
REMARK    8  A    between atoms: C_39  and  C_42 
ROOT
ATOM      1  N   LIG d   1       8.869  -3.301  -5.793  0.00  0.00    -0.193 N 
ATOM      2  C   LIG d   1       8.685  -3.711  -7.066  0.00  0.00     0.248 A 
ATOM      3  O   LIG d   1       9.542  -4.026  -7.863  0.00  0.00    -0.273 OA
ATOM      4  C   LIG d   1       7.187  -3.696  -7.292  0.00  0.00     0.110 A 
ATOM      5  H   LIG d   1       6.788  -4.685  -7.518  0.00  0.00     0.060 H 
ATOM      6  C   LIG d   1       6.842  -2.684  -8.392  0.00  0.00     0.002 C 
ATOM      7  C   LIG d   1       5.429  -2.195  -8.199  0.00  0.00    -0.015 A 
ATOM      8  C   LIG d   1       4.576  -1.552  -9.182  0.00  0.00     0.003 A 
ATOM      9  C   LIG d   1       4.774  -1.207 -10.522  0.00  0.00    -0.052 A 
ATOM     10  C   LIG d   1       3.727  -0.593 -11.164  0.00  0.00    -0.061 A 
ATOM     11  C   LIG d   1       2.527  -0.324 -10.525  0.00  0.00    -0.060 A 
ATOM     12  C   LIG d   1       2.306  -0.653  -9.199  0.00  0.00    -0.038 A 
ATOM     13  C   LIG d   1       3.352  -1.279  -8.522  0.00  0.00     0.047 A 
ATOM     14  N   LIG d   1       3.471  -1.730  -7.239  0.00  0.00    -0.356 N 
ATOM     15  H   LIG d   1       2.782  -1.672  -6.560  0.00  0.00     0.166 HD
ATOM     16  C   LIG d   1       4.713  -2.277  -7.058  0.00  0.00     0.046 A 
ATOM     17  C   LIG d   1       5.241  -2.894  -5.777  0.00  0.00     0.094 C 
ATOM     18  H   LIG d   1       4.710  -3.821  -5.559  0.00  0.00     0.062 H 
ATOM     19  N   LIG d   1       6.664  -3.172  -6.011  0.00  0.00    -0.261 N 
ATOM     20  C   LIG d   1       7.706  -3.014  -5.192  0.00  0.00     0.317 A 
ATOM     21  O   LIG d   1       7.611  -2.651  -4.036  0.00  0.00    -0.252 OA
ATOM     22  H   LIG d   1       7.529  -1.840  -8.337  0.00  0.00     0.034 H 
ATOM     23  H   LIG d   1       6.933  -3.162  -9.367  0.00  0.00     0.034 H 
ATOM     24  H   LIG d   1       5.706  -1.414 -11.028  0.00  0.00     0.062 H 
ATOM     25  H   LIG d   1       3.842  -0.312 -12.200  0.00  0.00     0.062 H 
ATOM     26  H   LIG d   1       1.739   0.162 -11.081  0.00  0.00     0.062 H 
ATOM     27  H   LIG d   1       1.366  -0.437  -8.712  0.00  0.00     0.064 H 
ENDROOT
BRANCH   1  28
ATOM     28  C   LIG d   1      10.119  -3.191  -5.178  0.00  0.00     0.045 A 
ATOM     29  C   LIG d   1      10.657  -4.278  -4.500  0.00  0.00    -0.039 A 
ATOM     30  C   LIG d   1      11.889  -4.172  -3.892  0.00  0.00    -0.048 A 
ATOM     31  H   LIG d   1      10.109  -5.208  -4.449  0.00  0.00     0.064 H 
ATOM     32  C   LIG d   1      12.598  -2.970  -3.959  0.00  0.00     0.037 A 
ATOM     33  H   LIG d   1      12.306  -5.017  -3.366  0.00  0.00     0.063 H 
ATOM     34  C   LIG d   1      12.054  -1.879  -4.642  0.00  0.00    -0.048 A 
ATOM     35  C   LIG d   1      10.824  -1.994  -5.251  0.00  0.00    -0.039 A 
ATOM     36  H   LIG d   1      12.599  -0.948  -4.695  0.00  0.00     0.063 H 
ATOM     37  H   LIG d   1      10.405  -1.153  -5.782  0.00  0.00     0.064 H 
BRANCH  32  38
ATOM     38  C   LIG d   1      13.918  -2.853  -3.310  0.00  0.00     0.244 C 
ATOM     39  N   LIG d   1      14.518  -1.649  -3.213  0.00  0.00    -0.309 N 
ATOM     40  H   LIG d   1      14.080  -0.860  -3.569  0.00  0.00     0.149 HD
ATOM     41  O   LIG d   1      14.467  -3.841  -2.864  0.00  0.00    -0.270 OA
BRANCH  39  42
ATOM     42  C   LIG d   1      15.828  -1.532  -2.569  0.00  0.00     0.020 C 
ATOM     43  H   LIG d   1      16.242  -2.527  -2.405  0.00  0.00     0.050 H 
BRANCH  42  44
ATOM     44  C   LIG d   1      16.769  -0.730  -3.469  0.00  0.00    -0.038 C 
ATOM     45  H   LIG d   1      17.350  -0.036  -2.861  0.00  0.00     0.028 H 
ATOM     46  H   LIG d   1      17.444  -1.411  -3.988  0.00  0.00     0.028 H 
BRANCH  44  47
ATOM     47  C   LIG d   1      15.949   0.055  -4.495  0.00  0.00    -0.064 C 
ATOM     48  H   LIG d   1      16.170  -0.316  -5.497  0.00  0.00     0.023 H 
ATOM     49  H   LIG d   1      14.887  -0.074  -4.287  0.00  0.00     0.023 H 
ATOM     50  H   LIG d   1      16.206   1.112  -4.433  0.00  0.00     0.023 H 
ENDBRANCH  44  47
ENDBRANCH  42  44
BRANCH  42  51
ATOM     51  C   LIG d   1      15.674  -0.817  -1.226  0.00  0.00    -0.047 C 
ATOM     52  H   LIG d   1      16.659  -0.647  -0.790  0.00  0.00     0.025 H 
ATOM     53  H   LIG d   1      15.174   0.139  -1.378  0.00  0.00     0.025 H 
ATOM     54  H   LIG d   1      15.080  -1.435  -0.551  0.00  0.00     0.025 H 
ENDBRANCH  42  51
ENDBRANCH  39  42
ENDBRANCH  32  38
ENDBRANCH   1  28
BRANCH  17  55
ATOM     55  C   LIG d   1       5.084  -1.926  -4.633  0.00  0.00    -0.021 A 
ATOM     56  C   LIG d   1       5.488  -0.612  -4.778  0.00  0.00    -0.056 A 
ATOM     57  C   LIG d   1       5.344   0.276  -3.729  0.00  0.00    -0.059 A 
ATOM     58  H   LIG d   1       5.917  -0.280  -5.713  0.00  0.00     0.062 H 
ATOM     59  C   LIG d   1       4.791  -0.149  -2.536  0.00  0.00    -0.050 A 
ATOM     60  H   LIG d   1       5.660   1.303  -3.843  0.00  0.00     0.062 H 
ATOM     61  C   LIG d   1       4.391  -1.464  -2.388  0.00  0.00    -0.059 A 
ATOM     62  C   LIG d   1       4.536  -2.352  -3.437  0.00  0.00    -0.056 A 
ATOM     63  H   LIG d   1       3.961  -1.796  -1.454  0.00  0.00     0.062 H 
ATOM     64  H   LIG d   1       4.218  -3.379  -3.324  0.00  0.00     0.062 H 
BRANCH  59  65
ATOM     65  C   LIG d   1       4.628   0.821  -1.393  0.00  0.00    -0.040 C 
ATOM     66  H   LIG d   1       3.598   0.795  -1.039  0.00  0.00     0.028 H 
ATOM     67  H   LIG d   1       5.300   0.542  -0.582  0.00  0.00     0.028 H 
ATOM     68  H   LIG d   1       4.869   1.828  -1.735  0.00  0.00     0.028 H 
ENDBRANCH  59  65
ENDBRANCH  17  55
TORSDOF 8
ENDMDL
MODEL 5
REMARK VINA RESULT:      -6.5      3.078     10.423
REMARK  8 active torsions:
REMARK  status: ('A' for Active; 'I' for Inactive)
REMARK    1  A    between atoms: C_1  and  C_2 
REMARK    2  A    between atoms: C_2  and  C_3 
REMARK    3  A    between atoms: C_3  and  C_5 
REMARK    4  A    between atoms: C_3  and  N_6 
REMARK       I    between atoms: N_6  and  C_7 
REMARK    5  A    between atoms: C_7  and  C_9 
REMARK    6  A    between atoms: C_12  and  N_15 
REMARK    7  A    between atoms: C_31  and  C_36 
REMARK    8  A    between atoms: C_39  and  C_42 
ROOT
ATOM      1  N   LIG d   1      10.698   2.780  -4.555  0.00  0.00    -0.193 N 
ATOM      2  C   LIG d   1      11.913   2.214  -4.713  0.00  0.00     0.248 A 
ATOM      3  O   LIG d   1      12.149   1.054  -4.973  0.00  0.00    -0.273 OA
ATOM      4  C   LIG d   1      12.919   3.326  -4.496  0.00  0.00     0.110 A 
ATOM      5  H   LIG d   1      13.525   3.520  -5.381  0.00  0.00     0.060 H 
ATOM      6  C   LIG d   1      13.789   3.003  -3.276  0.00  0.00     0.002 C 
ATOM      7  C   LIG d   1      14.312   4.285  -2.679  0.00  0.00    -0.015 A 
ATOM      8  C   LIG d   1      15.445   4.444  -1.785  0.00  0.00     0.003 A 
ATOM      9  C   LIG d   1      16.348   3.531  -1.233  0.00  0.00    -0.052 A 
ATOM     10  C   LIG d   1      17.318   4.042  -0.407  0.00  0.00    -0.061 A 
ATOM     11  C   LIG d   1      17.407   5.396  -0.125  0.00  0.00    -0.060 A 
ATOM     12  C   LIG d   1      16.526   6.320  -0.656  0.00  0.00    -0.038 A 
ATOM     13  C   LIG d   1      15.530   5.830  -1.501  0.00  0.00     0.047 A 
ATOM     14  N   LIG d   1      14.520   6.448  -2.180  0.00  0.00    -0.356 N 
ATOM     15  H   LIG d   1      14.340   7.400  -2.169  0.00  0.00     0.166 HD
ATOM     16  C   LIG d   1      13.801   5.517  -2.882  0.00  0.00     0.046 A 
ATOM     17  C   LIG d   1      12.602   5.794  -3.768  0.00  0.00     0.094 C 
ATOM     18  H   LIG d   1      12.910   6.347  -4.655  0.00  0.00     0.062 H 
ATOM     19  N   LIG d   1      12.064   4.483  -4.152  0.00  0.00    -0.261 N 
ATOM     20  C   LIG d   1      10.794   4.083  -4.254  0.00  0.00     0.317 A 
ATOM     21  O   LIG d   1       9.838   4.814  -4.091  0.00  0.00    -0.252 OA
ATOM     22  H   LIG d   1      13.192   2.473  -2.534  0.00  0.00     0.034 H 
ATOM     23  H   LIG d   1      14.626   2.375  -3.582  0.00  0.00     0.034 H 
ATOM     24  H   LIG d   1      16.286   2.474  -1.447  0.00  0.00     0.062 H 
ATOM     25  H   LIG d   1      18.034   3.367   0.038  0.00  0.00     0.062 H 
ATOM     26  H   LIG d   1      18.191   5.740   0.533  0.00  0.00     0.062 H 
ATOM     27  H   LIG d   1      16.606   7.373  -0.429  0.00  0.00     0.064 H 
ENDROOT
BRANCH   1  28
ATOM     28  C   LIG d   1       9.489   2.093  -4.690  0.00  0.00     0.045 A 
ATOM     29  C   LIG d   1       9.022   1.751  -5.954  0.00  0.00    -0.039 A 
ATOM     30  C   LIG d   1       7.831   1.073  -6.090  0.00  0.00    -0.048 A 
ATOM     31  H   LIG d   1       9.595   2.016  -6.831  0.00  0.00     0.064 H 
ATOM     32  C   LIG d   1       7.091   0.730  -4.956  0.00  0.00     0.037 A 
ATOM     33  H   LIG d   1       7.469   0.808  -7.072  0.00  0.00     0.063 H 
ATOM     34  C   LIG d   1       7.563   1.075  -3.686  0.00  0.00    -0.048 A 
ATOM     35  C   LIG d   1       8.758   1.748  -3.558  0.00  0.00    -0.039 A 
ATOM     36  H   LIG d   1       6.993   0.812  -2.807  0.00  0.00     0.063 H 
ATOM     37  H   LIG d   1       9.125   2.012  -2.578  0.00  0.00     0.064 H 
BRANCH  32  38
ATOM     38  C   LIG d   1       5.813   0.004  -5.097  0.00  0.00     0.244 C 
ATOM     39  N   LIG d   1       4.791   0.267  -4.259  0.00  0.00    -0.309 N 
ATOM     40  H   LIG d   1       4.896   0.935  -3.563  0.00  0.00     0.149 HD
ATOM     41  O   LIG d   1       5.683  -0.833  -5.969  0.00  0.00    -0.270 OA
BRANCH  39  42
ATOM     42  C   LIG d   1       3.524  -0.454  -4.399  0.00  0.00     0.020 C 
ATOM     43  H   LIG d   1       3.660  -1.301  -5.071  0.00  0.00     0.050 H 
BRANCH  42  44
ATOM     44  C   LIG d   1       3.070  -0.958  -3.029  0.00  0.00    -0.038 C 
ATOM     45  H   LIG d   1       3.110  -0.140  -2.309  0.00  0.00     0.028 H 
ATOM     46  H   LIG d   1       2.048  -1.331  -3.099  0.00  0.00     0.028 H 
BRANCH  44  47
ATOM     47  C   LIG d   1       3.994  -2.087  -2.567  0.00  0.00    -0.064 C 
ATOM     48  H   LIG d   1       3.676  -2.437  -1.585  0.00  0.00     0.023 H 
ATOM     49  H   LIG d   1       3.945  -2.911  -3.280  0.00  0.00     0.023 H 
ATOM     50  H   LIG d   1       5.017  -1.717  -2.509  0.00  0.00     0.023 H 
ENDBRANCH  44  47
ENDBRANCH  42  44
BRANCH  42  51
ATOM     51  C   LIG d   1       2.463   0.487  -4.974  0.00  0.00    -0.047 C 
ATOM     52  H   LIG d   1       2.038   0.047  -5.877  0.00  0.00     0.025 H 
ATOM     53  H   LIG d   1       1.674   0.638  -4.238  0.00  0.00     0.025 H 
ATOM     54  H   LIG d   1       2.922   1.446  -5.218  0.00  0.00     0.025 H 
ENDBRANCH  42  51
ENDBRANCH  39  42
ENDBRANCH  32  38
ENDBRANCH   1  28
BRANCH  17  55
ATOM     55  C   LIG d   1      11.564   6.576  -3.005  0.00  0.00    -0.021 A 
ATOM     56  C   LIG d   1      11.009   7.714  -3.560  0.00  0.00    -0.056 A 
ATOM     57  C   LIG d   1      10.058   8.432  -2.861  0.00  0.00    -0.059 A 
ATOM     58  H   LIG d   1      11.319   8.042  -4.542  0.00  0.00     0.062 H 
ATOM     59  C   LIG d   1       9.657   8.009  -1.607  0.00  0.00    -0.050 A 
ATOM     60  H   LIG d   1       9.624   9.321  -3.296  0.00  0.00     0.062 H 
ATOM     61  C   LIG d   1      10.216   6.874  -1.049  0.00  0.00    -0.059 A 
ATOM     62  C   LIG d   1      11.167   6.157  -1.748  0.00  0.00    -0.056 A 
ATOM     63  H   LIG d   1       9.904   6.546  -0.068  0.00  0.00     0.062 H 
ATOM     64  H   LIG d   1      11.600   5.267  -1.315  0.00  0.00     0.062 H 
BRANCH  59  65
ATOM     65  C   LIG d   1       8.615   8.788  -0.847  0.00  0.00    -0.040 C 
ATOM     66  H   LIG d   1       8.474   9.761  -1.317  0.00  0.00     0.028 H 
ATOM     67  H   LIG d   1       7.673   8.240  -0.856  0.00  0.00     0.028 H 
ATOM     68  H   LIG d   1       8.945   8.927   0.183  0.00  0.00     0.028 H 
ENDBRANCH  59  65
ENDBRANCH  17  55
TORSDOF 8
ENDMDL
MODEL 6
REMARK VINA RESULT:      -6.5      2.122      2.445
REMARK  8 active torsions:
REMARK  status: ('A' for Active; 'I' for Inactive)
REMARK    1  A    between atoms: C_1  and  C_2 
REMARK    2  A    between atoms: C_2  and  C_3 
REMARK    3  A    between atoms: C_3  and  C_5 
REMARK    4  A    between atoms: C_3  and  N_6 
REMARK       I    between atoms: N_6  and  C_7 
REMARK    5  A    between atoms: C_7  and  C_9 
REMARK    6  A    between atoms: C_12  and  N_15 
REMARK    7  A    between atoms: C_31  and  C_36 
REMARK    8  A    between atoms: C_39  and  C_42 
ROOT
ATOM      1  N   LIG d   1       9.376   1.226  -4.968  0.00  0.00    -0.193 N 
ATOM      2  C   LIG d   1      10.126   0.801  -6.006  0.00  0.00     0.248 A 
ATOM      3  O   LIG d   1      11.041   1.393  -6.537  0.00  0.00    -0.273 OA
ATOM      4  C   LIG d   1       9.587  -0.567  -6.374  0.00  0.00     0.110 A 
ATOM      5  H   LIG d   1      10.329  -1.355  -6.252  0.00  0.00     0.060 H 
ATOM      6  C   LIG d   1       9.026  -0.533  -7.800  0.00  0.00     0.002 C 
ATOM      7  C   LIG d   1       7.969  -1.598  -7.949  0.00  0.00    -0.015 A 
ATOM      8  C   LIG d   1       7.462  -2.172  -9.182  0.00  0.00     0.003 A 
ATOM      9  C   LIG d   1       7.768  -1.941 -10.526  0.00  0.00    -0.052 A 
ATOM     10  C   LIG d   1       7.075  -2.679 -11.454  0.00  0.00    -0.061 A 
ATOM     11  C   LIG d   1       6.117  -3.611 -11.088  0.00  0.00    -0.060 A 
ATOM     12  C   LIG d   1       5.794  -3.857  -9.765  0.00  0.00    -0.038 A 
ATOM     13  C   LIG d   1       6.483  -3.123  -8.801  0.00  0.00     0.047 A 
ATOM     14  N   LIG d   1       6.417  -3.114  -7.437  0.00  0.00    -0.356 N 
ATOM     15  H   LIG d   1       5.828  -3.669  -6.903  0.00  0.00     0.166 HD
ATOM     16  C   LIG d   1       7.309  -2.203  -6.939  0.00  0.00     0.046 A 
ATOM     17  C   LIG d   1       7.549  -1.893  -5.474  0.00  0.00     0.094 C 
ATOM     18  H   LIG d   1       8.016  -2.746  -4.981  0.00  0.00     0.062 H 
ATOM     19  N   LIG d   1       8.450  -0.735  -5.442  0.00  0.00    -0.261 N 
ATOM     20  C   LIG d   1       8.433   0.332  -4.639  0.00  0.00     0.317 A 
ATOM     21  O   LIG d   1       7.653   0.476  -3.719  0.00  0.00    -0.252 OA
ATOM     22  H   LIG d   1       8.586   0.445  -7.995  0.00  0.00     0.034 H 
ATOM     23  H   LIG d   1       9.831  -0.717  -8.512  0.00  0.00     0.034 H 
ATOM     24  H   LIG d   1       8.513  -1.217 -10.821  0.00  0.00     0.062 H 
ATOM     25  H   LIG d   1       7.283  -2.528 -12.503  0.00  0.00     0.062 H 
ATOM     26  H   LIG d   1       5.604  -4.162 -11.862  0.00  0.00     0.062 H 
ATOM     27  H   LIG d   1       5.045  -4.587  -9.493  0.00  0.00     0.064 H 
ENDROOT
BRANCH   1  28
ATOM     28  C   LIG d   1       9.562   2.448  -4.315  0.00  0.00     0.045 A 
ATOM     29  C   LIG d   1      10.336   2.508  -3.162  0.00  0.00    -0.039 A 
ATOM     30  C   LIG d   1      10.520   3.711  -2.516  0.00  0.00    -0.048 A 
ATOM     31  H   LIG d   1      10.793   1.610  -2.771  0.00  0.00     0.064 H 
ATOM     32  C   LIG d   1       9.928   4.870  -3.022  0.00  0.00     0.037 A 
ATOM     33  H   LIG d   1      11.121   3.756  -1.620  0.00  0.00     0.063 H 
ATOM     34  C   LIG d   1       9.151   4.807  -4.181  0.00  0.00    -0.048 A 
ATOM     35  C   LIG d   1       8.976   3.602  -4.824  0.00  0.00    -0.039 A 
ATOM     36  H   LIG d   1       8.692   5.702  -4.575  0.00  0.00     0.063 H 
ATOM     37  H   LIG d   1       8.379   3.552  -5.722  0.00  0.00     0.064 H 
BRANCH  32  38
ATOM     38  C   LIG d   1      10.124   6.162  -2.333  0.00  0.00     0.244 C 
ATOM     39  N   LIG d   1      10.905   6.230  -1.237  0.00  0.00    -0.309 N 
ATOM     40  H   LIG d   1      11.340   5.430  -0.901  0.00  0.00     0.149 HD
ATOM     41  O   LIG d   1       9.578   7.164  -2.753  0.00  0.00    -0.270 OA
BRANCH  39  42
ATOM     42  C   LIG d   1      11.098   7.511  -0.552  0.00  0.00     0.020 C 
ATOM     43  H   LIG d   1      10.297   8.196  -0.831  0.00  0.00     0.050 H 
BRANCH  42  44
ATOM     44  C   LIG d   1      11.077   7.289   0.961  0.00  0.00    -0.038 C 
ATOM     45  H   LIG d   1      11.939   7.781   1.412  0.00  0.00     0.028 H 
ATOM     46  H   LIG d   1      10.161   7.708   1.376  0.00  0.00     0.028 H 
BRANCH  44  47
ATOM     47  C   LIG d   1      11.133   5.789   1.258  0.00  0.00    -0.064 C 
ATOM     48  H   LIG d   1      12.121   5.406   1.001  0.00  0.00     0.023 H 
ATOM     49  H   LIG d   1      10.943   5.621   2.319  0.00  0.00     0.023 H 
ATOM     50  H   LIG d   1      10.378   5.274   0.667  0.00  0.00     0.023 H 
ENDBRANCH  44  47
ENDBRANCH  42  44
BRANCH  42  51
ATOM     51  C   LIG d   1      12.445   8.109  -0.962  0.00  0.00    -0.047 C 
ATOM     52  H   LIG d   1      12.316   9.164  -1.205  0.00  0.00     0.025 H 
ATOM     53  H   LIG d   1      13.153   8.011  -0.138  0.00  0.00     0.025 H 
ATOM     54  H   LIG d   1      12.828   7.579  -1.834  0.00  0.00     0.025 H 
ENDBRANCH  42  51
ENDBRANCH  39  42
ENDBRANCH  32  38
ENDBRANCH   1  28
BRANCH  17  55
ATOM     55  C   LIG d   1       6.246  -1.555  -4.797  0.00  0.00    -0.021 A 
ATOM     56  C   LIG d   1       5.336  -0.724  -5.424  0.00  0.00    -0.056 A 
ATOM     57  C   LIG d   1       4.141  -0.413  -4.803  0.00  0.00    -0.059 A 
ATOM     58  H   LIG d   1       5.560  -0.318  -6.400  0.00  0.00     0.062 H 
ATOM     59  C   LIG d   1       3.853  -0.938  -3.557  0.00  0.00    -0.050 A 
ATOM     60  H   LIG d   1       3.430   0.236  -5.294  0.00  0.00     0.062 H 
ATOM     61  C   LIG d   1       4.765  -1.765  -2.928  0.00  0.00    -0.059 A 
ATOM     62  C   LIG d   1       5.960  -2.075  -3.548  0.00  0.00    -0.056 A 
ATOM     63  H   LIG d   1       4.540  -2.172  -1.952  0.00  0.00     0.062 H 
ATOM     64  H   LIG d   1       6.670  -2.725  -3.059  0.00  0.00     0.062 H 
BRANCH  59  65
ATOM     65  C   LIG d   1       2.547  -0.604  -2.883  0.00  0.00    -0.040 C 
ATOM     66  H   LIG d   1       2.713  -0.474  -1.814  0.00  0.00     0.028 H 
ATOM     67  H   LIG d   1       2.146   0.318  -3.304  0.00  0.00     0.028 H 
ATOM     68  H   LIG d   1       1.837  -1.416  -3.044  0.00  0.00     0.028 H 
ENDBRANCH  59  65
ENDBRANCH  17  55
TORSDOF 8
ENDMDL
MODEL 7
REMARK VINA RESULT:      -6.4      4.906      6.746
REMARK  8 active torsions:
REMARK  status: ('A' for Active; 'I' for Inactive)
REMARK    1  A    between atoms: C_1  and  C_2 
REMARK    2  A    between atoms: C_2  and  C_3 
REMARK    3  A    between atoms: C_3  and  C_5 
REMARK    4  A    between atoms: C_3  and  N_6 
REMARK       I    between atoms: N_6  and  C_7 
REMARK    5  A    between atoms: C_7  and  C_9 
REMARK    6  A    between atoms: C_12  and  N_15 
REMARK    7  A    between atoms: C_31  and  C_36 
REMARK    8  A    between atoms: C_39  and  C_42 
ROOT
ATOM      1  N   LIG d   1      11.447  -0.661  -5.173  0.00  0.00    -0.193 N 
ATOM      2  C   LIG d   1      10.632   0.374  -5.465  0.00  0.00     0.248 A 
ATOM      3  O   LIG d   1      10.954   1.525  -5.662  0.00  0.00    -0.273 OA
ATOM      4  C   LIG d   1       9.229  -0.200  -5.497  0.00  0.00     0.110 A 
ATOM      5  H   LIG d   1       8.761  -0.107  -6.477  0.00  0.00     0.060 H 
ATOM      6  C   LIG d   1       8.381   0.453  -4.400  0.00  0.00     0.002 C 
ATOM      7  C   LIG d   1       7.272  -0.486  -3.998  0.00  0.00    -0.015 A 
ATOM      8  C   LIG d   1       6.042  -0.152  -3.302  0.00  0.00     0.003 A 
ATOM      9  C   LIG d   1       5.527   1.055  -2.821  0.00  0.00    -0.052 A 
ATOM     10  C   LIG d   1       4.306   1.001  -2.196  0.00  0.00    -0.061 A 
ATOM     11  C   LIG d   1       3.607  -0.185  -2.044  0.00  0.00    -0.060 A 
ATOM     12  C   LIG d   1       4.094  -1.394  -2.510  0.00  0.00    -0.038 A 
ATOM     13  C   LIG d   1       5.332  -1.370  -3.150  0.00  0.00     0.047 A 
ATOM     14  N   LIG d   1       6.089  -2.355  -3.717  0.00  0.00    -0.356 N 
ATOM     15  H   LIG d   1       5.846  -3.293  -3.757  0.00  0.00     0.166 HD
ATOM     16  C   LIG d   1       7.242  -1.817  -4.222  0.00  0.00     0.046 A 
ATOM     17  C   LIG d   1       8.346  -2.573  -4.935  0.00  0.00     0.094 C 
ATOM     18  H   LIG d   1       7.992  -2.932  -5.902  0.00  0.00     0.062 H 
ATOM     19  N   LIG d   1       9.444  -1.616  -5.123  0.00  0.00    -0.261 N 
ATOM     20  C   LIG d   1      10.760  -1.799  -4.998  0.00  0.00     0.317 A 
ATOM     21  O   LIG d   1      11.276  -2.871  -4.754  0.00  0.00    -0.252 OA
ATOM     22  H   LIG d   1       9.007   0.668  -3.535  0.00  0.00     0.034 H 
ATOM     23  H   LIG d   1       7.952   1.382  -4.777  0.00  0.00     0.034 H 
ATOM     24  H   LIG d   1       6.065   1.985  -2.934  0.00  0.00     0.062 H 
ATOM     25  H   LIG d   1       3.876   1.914  -1.810  0.00  0.00     0.062 H 
ATOM     26  H   LIG d   1       2.651  -0.166  -1.544  0.00  0.00     0.062 H 
ATOM     27  H   LIG d   1       3.540  -2.313  -2.386  0.00  0.00     0.064 H 
ENDROOT
BRANCH   1  28
ATOM     28  C   LIG d   1      12.837  -0.558  -5.065  0.00  0.00     0.045 A 
ATOM     29  C   LIG d   1      13.635  -0.750  -6.187  0.00  0.00    -0.039 A 
ATOM     30  C   LIG d   1      15.005  -0.649  -6.083  0.00  0.00    -0.048 A 
ATOM     31  H   LIG d   1      13.182  -0.978  -7.140  0.00  0.00     0.064 H 
ATOM     32  C   LIG d   1      15.591  -0.353  -4.851  0.00  0.00     0.037 A 
ATOM     33  H   LIG d   1      15.625  -0.799  -6.955  0.00  0.00     0.063 H 
ATOM     34  C   LIG d   1      14.786  -0.161  -3.725  0.00  0.00    -0.048 A 
ATOM     35  C   LIG d   1      13.416  -0.257  -3.837  0.00  0.00    -0.039 A 
ATOM     36  H   LIG d   1      15.235   0.068  -2.770  0.00  0.00     0.063 H 
ATOM     37  H   LIG d   1      12.792  -0.105  -2.969  0.00  0.00     0.064 H 
BRANCH  32  38
ATOM     38  C   LIG d   1      17.059  -0.244  -4.736  0.00  0.00     0.244 C 
ATOM     39  N   LIG d   1      17.663  -0.481  -3.555  0.00  0.00    -0.309 N 
ATOM     40  H   LIG d   1      17.132  -0.724  -2.780  0.00  0.00     0.149 HD
ATOM     41  O   LIG d   1      17.724   0.061  -5.707  0.00  0.00    -0.270 OA
BRANCH  39  42
ATOM     42  C   LIG d   1      19.120  -0.372  -3.441  0.00  0.00     0.020 C 
ATOM     43  H   LIG d   1      19.516   0.134  -4.321  0.00  0.00     0.050 H 
BRANCH  42  44
ATOM     44  C   LIG d   1      19.475   0.429  -2.187  0.00  0.00    -0.038 C 
ATOM     45  H   LIG d   1      20.312  -0.048  -1.676  0.00  0.00     0.028 H 
ATOM     46  H   LIG d   1      19.754   1.444  -2.472  0.00  0.00     0.028 H 
BRANCH  44  47
ATOM     47  C   LIG d   1      18.266   0.475  -1.250  0.00  0.00    -0.064 C 
ATOM     48  H   LIG d   1      18.469   1.164  -0.430  0.00  0.00     0.023 H 
ATOM     49  H   LIG d   1      17.391   0.817  -1.803  0.00  0.00     0.023 H 
ATOM     50  H   LIG d   1      18.078  -0.521  -0.851  0.00  0.00     0.023 H 
ENDBRANCH  44  47
ENDBRANCH  42  44
BRANCH  42  51
ATOM     51  C   LIG d   1      19.729  -1.772  -3.342  0.00  0.00    -0.047 C 
ATOM     52  H   LIG d   1      20.144  -1.918  -2.344  0.00  0.00     0.025 H 
ATOM     53  H   LIG d   1      18.956  -2.519  -3.526  0.00  0.00     0.025 H 
ATOM     54  H   LIG d   1      20.520  -1.877  -4.084  0.00  0.00     0.025 H 
ENDBRANCH  42  51
ENDBRANCH  39  42
ENDBRANCH  32  38
ENDBRANCH   1  28
BRANCH  17  55
ATOM     55  C   LIG d   1       8.809  -3.732  -4.091  0.00  0.00    -0.021 A 
ATOM     56  C   LIG d   1       9.162  -3.528  -2.770  0.00  0.00    -0.056 A 
ATOM     57  C   LIG d   1       9.587  -4.590  -1.995  0.00  0.00    -0.059 A 
ATOM     58  H   LIG d   1       9.107  -2.536  -2.344  0.00  0.00     0.062 H 
ATOM     59  C   LIG d   1       9.652  -5.860  -2.540  0.00  0.00    -0.050 A 
ATOM     60  H   LIG d   1       9.863  -4.430  -0.963  0.00  0.00     0.062 H 
ATOM     61  C   LIG d   1       9.303  -6.063  -3.862  0.00  0.00    -0.059 A 
ATOM     62  C   LIG d   1       8.880  -5.001  -4.637  0.00  0.00    -0.056 A 
ATOM     63  H   LIG d   1       9.358  -7.055  -4.288  0.00  0.00     0.062 H 
ATOM     64  H   LIG d   1       8.602  -5.160  -5.668  0.00  0.00     0.062 H 
BRANCH  59  65
ATOM     65  C   LIG d   1      10.109  -7.020  -1.693  0.00  0.00    -0.040 C 
ATOM     66  H   LIG d   1      10.437  -6.653  -0.721  0.00  0.00     0.028 H 
ATOM     67  H   LIG d   1       9.283  -7.718  -1.559  0.00  0.00     0.028 H 
ATOM     68  H   LIG d   1      10.937  -7.527  -2.188  0.00  0.00     0.028 H 
ENDBRANCH  59  65
ENDBRANCH  17  55
TORSDOF 8
ENDMDL
MODEL 8
REMARK VINA RESULT:      -6.3      5.446     12.289
REMARK  8 active torsions:
REMARK  status: ('A' for Active; 'I' for Inactive)
REMARK    1  A    between atoms: C_1  and  C_2 
REMARK    2  A    between atoms: C_2  and  C_3 
REMARK    3  A    between atoms: C_3  and  C_5 
REMARK    4  A    between atoms: C_3  and  N_6 
REMARK       I    between atoms: N_6  and  C_7 
REMARK    5  A    between atoms: C_7  and  C_9 
REMARK    6  A    between atoms: C_12  and  N_15 
REMARK    7  A    between atoms: C_31  and  C_36 
REMARK    8  A    between atoms: C_39  and  C_42 
ROOT
ATOM      1  N   LIG d   1       4.458  -5.295  -7.610  0.00  0.00    -0.193 N 
ATOM      2  C   LIG d   1       4.736  -5.548  -6.315  0.00  0.00     0.248 A 
ATOM      3  O   LIG d   1       4.429  -6.533  -5.680  0.00  0.00    -0.273 OA
ATOM      4  C   LIG d   1       5.511  -4.344  -5.816  0.00  0.00     0.110 A 
ATOM      5  H   LIG d   1       6.519  -4.601  -5.493  0.00  0.00     0.060 H 
ATOM      6  C   LIG d   1       4.720  -3.648  -4.703  0.00  0.00     0.002 C 
ATOM      7  C   LIG d   1       5.110  -2.192  -4.646  0.00  0.00    -0.015 A 
ATOM      8  C   LIG d   1       4.917  -1.269  -3.542  0.00  0.00     0.003 A 
ATOM      9  C   LIG d   1       4.353  -1.422  -2.272  0.00  0.00    -0.052 A 
ATOM     10  C   LIG d   1       4.333  -0.310  -1.467  0.00  0.00    -0.061 A 
ATOM     11  C   LIG d   1       4.844   0.910  -1.881  0.00  0.00    -0.060 A 
ATOM     12  C   LIG d   1       5.406   1.088  -3.133  0.00  0.00    -0.038 A 
ATOM     13  C   LIG d   1       5.441  -0.025  -3.973  0.00  0.00     0.047 A 
ATOM     14  N   LIG d   1       5.913  -0.199  -5.242  0.00  0.00    -0.356 N 
ATOM     15  H   LIG d   1       6.327   0.490  -5.784  0.00  0.00     0.166 HD
ATOM     16  C   LIG d   1       5.712  -1.496  -5.633  0.00  0.00     0.046 A 
ATOM     17  C   LIG d   1       6.099  -2.098  -6.971  0.00  0.00     0.094 C 
ATOM     18  H   LIG d   1       7.184  -2.151  -7.059  0.00  0.00     0.062 H 
ATOM     19  N   LIG d   1       5.524  -3.449  -6.994  0.00  0.00    -0.261 N 
ATOM     20  C   LIG d   1       4.929  -4.101  -7.995  0.00  0.00     0.317 A 
ATOM     21  O   LIG d   1       4.827  -3.663  -9.124  0.00  0.00    -0.252 OA
ATOM     22  H   LIG d   1       3.653  -3.730  -4.908  0.00  0.00     0.034 H 
ATOM     23  H   LIG d   1       4.944  -4.122  -3.747  0.00  0.00     0.034 H 
ATOM     24  H   LIG d   1       3.953  -2.368  -1.940  0.00  0.00     0.062 H 
ATOM     25  H   LIG d   1       3.906  -0.388  -0.478  0.00  0.00     0.062 H 
ATOM     26  H   LIG d   1       4.801   1.750  -1.204  0.00  0.00     0.062 H 
ATOM     27  H   LIG d   1       5.801   2.044  -3.445  0.00  0.00     0.064 H 
ENDROOT
BRANCH   1  28
ATOM     28  C   LIG d   1       3.763  -6.172  -8.448  0.00  0.00     0.045 A 
ATOM     29  C   LIG d   1       2.677  -5.713  -9.185  0.00  0.00    -0.039 A 
ATOM     30  C   LIG d   1       1.990  -6.575 -10.012  0.00  0.00    -0.048 A 
ATOM     31  H   LIG d   1       2.371  -4.680  -9.110  0.00  0.00     0.064 H 
ATOM     32  C   LIG d   1       2.386  -7.911 -10.109  0.00  0.00     0.037 A 
ATOM     33  H   LIG d   1       1.147  -6.218 -10.583  0.00  0.00     0.063 H 
ATOM     34  C   LIG d   1       3.478  -8.369  -9.367  0.00  0.00    -0.048 A 
ATOM     35  C   LIG d   1       4.163  -7.500  -8.547  0.00  0.00    -0.039 A 
ATOM     36  H   LIG d   1       3.787  -9.401  -9.439  0.00  0.00     0.063 H 
ATOM     37  H   LIG d   1       5.009  -7.852  -7.976  0.00  0.00     0.064 H 
BRANCH  32  38
ATOM     38  C   LIG d   1       1.653  -8.838 -10.994  0.00  0.00     0.244 C 
ATOM     39  N   LIG d   1       0.338  -9.059 -10.798  0.00  0.00    -0.309 N 
ATOM     40  H   LIG d   1      -0.127  -8.608 -10.076  0.00  0.00     0.149 HD
ATOM     41  O   LIG d   1       2.235  -9.404 -11.899  0.00  0.00    -0.270 OA
BRANCH  39  42
ATOM     42  C   LIG d   1      -0.390  -9.979 -11.676  0.00  0.00     0.020 C 
ATOM     43  H   LIG d   1       0.317 -10.502 -12.320  0.00  0.00     0.050 H 
BRANCH  42  44
ATOM     44  C   LIG d   1      -1.154 -10.996 -10.827  0.00  0.00    -0.038 C 
ATOM     45  H   LIG d   1      -1.305 -11.910 -11.403  0.00  0.00     0.028 H 
ATOM     46  H   LIG d   1      -0.582 -11.223  -9.928  0.00  0.00     0.028 H 
BRANCH  44  47
ATOM     47  C   LIG d   1      -2.514 -10.414 -10.433  0.00  0.00    -0.064 C 
ATOM     48  H   LIG d   1      -3.180 -10.432 -11.297  0.00  0.00     0.023 H 
ATOM     49  H   LIG d   1      -2.946 -11.010  -9.629  0.00  0.00     0.023 H 
ATOM     50  H   LIG d   1      -2.384  -9.386 -10.095  0.00  0.00     0.023 H 
ENDBRANCH  44  47
ENDBRANCH  42  44
BRANCH  42  51
ATOM     51  C   LIG d   1      -1.376  -9.189 -12.537  0.00  0.00    -0.047 C 
ATOM     52  H   LIG d   1      -1.063  -8.146 -12.585  0.00  0.00     0.025 H 
ATOM     53  H   LIG d   1      -1.397  -9.607 -13.544  0.00  0.00     0.025 H 
ATOM     54  H   LIG d   1      -2.372  -9.250 -12.098  0.00  0.00     0.025 H 
ENDBRANCH  42  51
ENDBRANCH  39  42
ENDBRANCH  32  38
ENDBRANCH   1  28
BRANCH  17  55
ATOM     55  C   LIG d   1       5.528  -1.272  -8.094  0.00  0.00    -0.021 A 
ATOM     56  C   LIG d   1       6.324  -0.920  -9.168  0.00  0.00    -0.056 A 
ATOM     57  C   LIG d   1       5.801  -0.163 -10.198  0.00  0.00    -0.059 A 
ATOM     58  H   LIG d   1       7.357  -1.238  -9.201  0.00  0.00     0.062 H 
ATOM     59  C   LIG d   1       4.479   0.238 -10.158  0.00  0.00    -0.050 A 
ATOM     60  H   LIG d   1       6.424   0.111 -11.038  0.00  0.00     0.062 H 
ATOM     61  C   LIG d   1       3.683  -0.109  -9.082  0.00  0.00    -0.059 A 
ATOM     62  C   LIG d   1       4.207  -0.866  -8.051  0.00  0.00    -0.056 A 
ATOM     63  H   LIG d   1       2.651   0.207  -9.050  0.00  0.00     0.062 H 
ATOM     64  H   LIG d   1       3.584  -1.142  -7.213  0.00  0.00     0.062 H 
BRANCH  59  65
ATOM     65  C   LIG d   1       3.906   1.059 -11.285  0.00  0.00    -0.040 C 
ATOM     66  H   LIG d   1       2.845   0.837 -11.394  0.00  0.00     0.028 H 
ATOM     67  H   LIG d   1       4.035   2.119 -11.064  0.00  0.00     0.028 H 
ATOM     68  H   LIG d   1       4.426   0.816 -12.212  0.00  0.00     0.028 H 
ENDBRANCH  59  65
ENDBRANCH  17  55
TORSDOF 8
ENDMDL
MODEL 9
REMARK VINA RESULT:      -6.3      4.781      8.322
REMARK  8 active torsions:
REMARK  status: ('A' for Active; 'I' for Inactive)
REMARK    1  A    between atoms: C_1  and  C_2 
REMARK    2  A    between atoms: C_2  and  C_3 
REMARK    3  A    between atoms: C_3  and  C_5 
REMARK    4  A    between atoms: C_3  and  N_6 
REMARK       I    between atoms: N_6  and  C_7 
REMARK    5  A    between atoms: C_7  and  C_9 
REMARK    6  A    between atoms: C_12  and  N_15 
REMARK    7  A    between atoms: C_31  and  C_36 
REMARK    8  A    between atoms: C_39  and  C_42 
ROOT
ATOM      1  N   LIG d   1       8.524  -3.773  -5.477  0.00  0.00    -0.193 N 
ATOM      2  C   LIG d   1       9.142  -3.654  -6.670  0.00  0.00     0.248 A 
ATOM      3  O   LIG d   1      10.094  -4.291  -7.066  0.00  0.00    -0.273 OA
ATOM      4  C   LIG d   1       8.404  -2.558  -7.412  0.00  0.00     0.110 A 
ATOM      5  H   LIG d   1       7.938  -2.915  -8.330  0.00  0.00     0.060 H 
ATOM      6  C   LIG d   1       9.355  -1.386  -7.679  0.00  0.00     0.002 C 
ATOM      7  C   LIG d   1       8.557  -0.113  -7.811  0.00  0.00    -0.015 A 
ATOM      8  C   LIG d   1       8.978   1.132  -8.427  0.00  0.00     0.003 A 
ATOM      9  C   LIG d   1      10.166   1.522  -9.052  0.00  0.00    -0.052 A 
ATOM     10  C   LIG d   1      10.221   2.808  -9.531  0.00  0.00    -0.061 A 
ATOM     11  C   LIG d   1       9.156   3.686  -9.407  0.00  0.00    -0.060 A 
ATOM     12  C   LIG d   1       7.970   3.326  -8.791  0.00  0.00    -0.038 A 
ATOM     13  C   LIG d   1       7.885   2.026  -8.297  0.00  0.00     0.047 A 
ATOM     14  N   LIG d   1       6.887   1.356  -7.649  0.00  0.00    -0.356 N 
ATOM     15  H   LIG d   1       6.020   1.726  -7.425  0.00  0.00     0.166 HD
ATOM     16  C   LIG d   1       7.298   0.081  -7.366  0.00  0.00     0.046 A 
ATOM     17  C   LIG d   1       6.483  -0.986  -6.660  0.00  0.00     0.094 C 
ATOM     18  H   LIG d   1       5.652  -1.304  -7.290  0.00  0.00     0.062 H 
ATOM     19  N   LIG d   1       7.397  -2.111  -6.424  0.00  0.00    -0.261 N 
ATOM     20  C   LIG d   1       7.514  -2.900  -5.353  0.00  0.00     0.317 A 
ATOM     21  O   LIG d   1       6.790  -2.833  -4.379  0.00  0.00    -0.252 OA
ATOM     22  H   LIG d   1      10.057  -1.291  -6.851  0.00  0.00     0.034 H 
ATOM     23  H   LIG d   1       9.905  -1.568  -8.603  0.00  0.00     0.034 H 
ATOM     24  H   LIG d   1      11.001   0.844  -9.154  0.00  0.00     0.062 H 
ATOM     25  H   LIG d   1      11.122   3.146 -10.020  0.00  0.00     0.062 H 
ATOM     26  H   LIG d   1       9.257   4.686  -9.803  0.00  0.00     0.062 H 
ATOM     27  H   LIG d   1       7.147   4.020  -8.701  0.00  0.00     0.064 H 
ENDROOT
BRANCH   1  28
ATOM     28  C   LIG d   1       8.890  -4.694  -4.492  0.00  0.00     0.045 A 
ATOM     29  C   LIG d   1       9.621  -4.273  -3.386  0.00  0.00    -0.039 A 
ATOM     30  C   LIG d   1       9.984  -5.178  -2.413  0.00  0.00    -0.048 A 
ATOM     31  H   LIG d   1       9.904  -3.235  -3.289  0.00  0.00     0.064 H 
ATOM     32  C   LIG d   1       9.617  -6.520  -2.539  0.00  0.00     0.037 A 
ATOM     33  H   LIG d   1      10.551  -4.850  -1.555  0.00  0.00     0.063 H 
ATOM     34  C   LIG d   1       8.883  -6.940  -3.652  0.00  0.00    -0.048 A 
ATOM     35  C   LIG d   1       8.519  -6.028  -4.617  0.00  0.00    -0.039 A 
ATOM     36  H   LIG d   1       8.598  -7.977  -3.752  0.00  0.00     0.063 H 
ATOM     37  H   LIG d   1       7.949  -6.350  -5.476  0.00  0.00     0.064 H 
BRANCH  32  38
ATOM     38  C   LIG d   1      10.004  -7.494  -1.499  0.00  0.00     0.244 C 
ATOM     39  N   LIG d   1       9.547  -8.760  -1.556  0.00  0.00    -0.309 N 
ATOM     40  H   LIG d   1       8.964  -9.032  -2.283  0.00  0.00     0.149 HD
ATOM     41  O   LIG d   1      10.734  -7.153  -0.588  0.00  0.00    -0.270 OA
BRANCH  39  42
ATOM     42  C   LIG d   1       9.930  -9.726  -0.524  0.00  0.00     0.020 C 
ATOM     43  H   LIG d   1      10.113  -9.202   0.414  0.00  0.00     0.050 H 
BRANCH  42  44
ATOM     44  C   LIG d   1       8.802 -10.740  -0.329  0.00  0.00    -0.038 C 
ATOM     45  H   LIG d   1       9.108 -11.706  -0.731  0.00  0.00     0.028 H 
ATOM     46  H   LIG d   1       8.583 -10.841   0.734  0.00  0.00     0.028 H 
BRANCH  44  47
ATOM     47  C   LIG d   1       7.549 -10.257  -1.064  0.00  0.00    -0.064 C 
ATOM     48  H   LIG d   1       6.955 -11.119  -1.372  0.00  0.00     0.023 H 
ATOM     49  H   LIG d   1       6.958  -9.627  -0.400  0.00  0.00     0.023 H 
ATOM     50  H   LIG d   1       7.842  -9.685  -1.943  0.00  0.00     0.023 H 
ENDBRANCH  44  47
ENDBRANCH  42  44
BRANCH  42  51
ATOM     51  C   LIG d   1      11.203 -10.456  -0.956  0.00  0.00    -0.047 C 
ATOM     52  H   LIG d   1      11.564 -10.033  -1.894  0.00  0.00     0.025 H 
ATOM     53  H   LIG d   1      11.968 -10.340  -0.188  0.00  0.00     0.025 H 
ATOM     54  H   LIG d   1      10.985 -11.515  -1.095  0.00  0.00     0.025 H 
ENDBRANCH  42  51
ENDBRANCH  39  42
ENDBRANCH  32  38
ENDBRANCH   1  28
BRANCH  17  55
ATOM     55  C   LIG d   1       5.964  -0.457  -5.348  0.00  0.00    -0.021 A 
ATOM     56  C   LIG d   1       6.809   0.231  -4.497  0.00  0.00    -0.056 A 
ATOM     57  C   LIG d   1       6.333   0.716  -3.294  0.00  0.00    -0.059 A 
ATOM     58  H   LIG d   1       7.842   0.388  -4.772  0.00  0.00     0.062 H 
ATOM     59  C   LIG d   1       5.010   0.520  -2.944  0.00  0.00    -0.050 A 
ATOM     60  H   LIG d   1       6.994   1.254  -2.629  0.00  0.00     0.062 H 
ATOM     61  C   LIG d   1       4.166  -0.172  -3.793  0.00  0.00    -0.059 A 
ATOM     62  C   LIG d   1       4.642  -0.658  -4.995  0.00  0.00    -0.056 A 
ATOM     63  H   LIG d   1       3.133  -0.328  -3.517  0.00  0.00     0.062 H 
ATOM     64  H   LIG d   1       3.982  -1.194  -5.662  0.00  0.00     0.062 H 
BRANCH  59  65
ATOM     65  C   LIG d   1       4.490   1.055  -1.634  0.00  0.00    -0.040 C 
ATOM     66  H   LIG d   1       4.361   2.134  -1.708  0.00  0.00     0.028 H 
ATOM     67  H   LIG d   1       3.531   0.589  -1.408  0.00  0.00     0.028 H 
ATOM     68  H   LIG d   1       5.201   0.827  -0.841  0.00  0.00     0.028 H 
ENDBRANCH  59  65
ENDBRANCH  17  55
TORSDOF 8
ENDMDL
MODEL 10
REMARK VINA RESULT:      -6.2      3.676      5.912
REMARK  8 active torsions:
REMARK  status: ('A' for Active; 'I' for Inactive)
REMARK    1  A    between atoms: C_1  and  C_2 
REMARK    2  A    between atoms: C_2  and  C_3 
REMARK    3  A    between atoms: C_3  and  C_5 
REMARK    4  A    between atoms: C_3  and  N_6 
REMARK       I    between atoms: N_6  and  C_7 
REMARK    5  A    between atoms: C_7  and  C_9 
REMARK    6  A    between atoms: C_12  and  N_15 
REMARK    7  A    between atoms: C_31  and  C_36 
REMARK    8  A    between atoms: C_39  and  C_42 
ROOT
ATOM      1  N   LIG d   1       8.145   0.367  -6.051  0.00  0.00    -0.193 N 
ATOM      2  C   LIG d   1       8.788  -0.516  -5.259  0.00  0.00     0.248 A 
ATOM      3  O   LIG d   1       9.971  -0.537  -4.998  0.00  0.00    -0.273 OA
ATOM      4  C   LIG d   1       7.725  -1.477  -4.764  0.00  0.00     0.110 A 
ATOM      5  H   LIG d   1       7.612  -1.454  -3.681  0.00  0.00     0.060 H 
ATOM      6  C   LIG d   1       8.034  -2.891  -5.270  0.00  0.00     0.002 C 
ATOM      7  C   LIG d   1       6.755  -3.686  -5.351  0.00  0.00    -0.015 A 
ATOM      8  C   LIG d   1       6.615  -5.129  -5.403  0.00  0.00     0.003 A 
ATOM      9  C   LIG d   1       7.549  -6.170  -5.392  0.00  0.00    -0.052 A 
ATOM     10  C   LIG d   1       7.052  -7.448  -5.458  0.00  0.00    -0.061 A 
ATOM     11  C   LIG d   1       5.693  -7.707  -5.531  0.00  0.00    -0.060 A 
ATOM     12  C   LIG d   1       4.748  -6.696  -5.546  0.00  0.00    -0.038 A 
ATOM     13  C   LIG d   1       5.223  -5.388  -5.479  0.00  0.00     0.047 A 
ATOM     14  N   LIG d   1       4.585  -4.181  -5.471  0.00  0.00    -0.356 N 
ATOM     15  H   LIG d   1       3.624  -4.057  -5.514  0.00  0.00     0.166 HD
ATOM     16  C   LIG d   1       5.508  -3.173  -5.392  0.00  0.00     0.046 A 
ATOM     17  C   LIG d   1       5.209  -1.686  -5.353  0.00  0.00     0.094 C 
ATOM     18  H   LIG d   1       4.720  -1.425  -4.414  0.00  0.00     0.062 H 
ATOM     19  N   LIG d   1       6.505  -1.004  -5.454  0.00  0.00    -0.261 N 
ATOM     20  C   LIG d   1       6.837   0.091  -6.141  0.00  0.00     0.317 A 
ATOM     21  O   LIG d   1       6.044   0.760  -6.775  0.00  0.00    -0.252 OA
ATOM     22  H   LIG d   1       8.490  -2.833  -6.258  0.00  0.00     0.034 H 
ATOM     23  H   LIG d   1       8.723  -3.381  -4.581  0.00  0.00     0.034 H 
ATOM     24  H   LIG d   1       8.610  -5.977  -5.335  0.00  0.00     0.062 H 
ATOM     25  H   LIG d   1       7.742  -8.278  -5.452  0.00  0.00     0.062 H 
ATOM     26  H   LIG d   1       5.360  -8.733  -5.581  0.00  0.00     0.062 H 
ATOM     27  H   LIG d   1       3.690  -6.911  -5.603  0.00  0.00     0.064 H 
ENDROOT
BRANCH   1  28
ATOM     28  C   LIG d   1       8.769   1.437  -6.699  0.00  0.00     0.045 A 
ATOM     29  C   LIG d   1       9.185   1.303  -8.018  0.00  0.00    -0.039 A 
ATOM     30  C   LIG d   1       9.800   2.356  -8.659  0.00  0.00    -0.048 A 
ATOM     31  H   LIG d   1       9.027   0.372  -8.542  0.00  0.00     0.064 H 
ATOM     32  C   LIG d   1      10.004   3.560  -7.981  0.00  0.00     0.037 A 
ATOM     33  H   LIG d   1      10.123   2.251  -9.683  0.00  0.00     0.063 H 
ATOM     34  C   LIG d   1       9.584   3.692  -6.654  0.00  0.00    -0.048 A 
ATOM     35  C   LIG d   1       8.965   2.637  -6.023  0.00  0.00    -0.039 A 
ATOM     36  H   LIG d   1       9.740   4.622  -6.127  0.00  0.00     0.063 H 
ATOM     37  H   LIG d   1       8.637   2.739  -4.999  0.00  0.00     0.064 H 
BRANCH  32  38
ATOM     38  C   LIG d   1      10.662   4.692  -8.664  0.00  0.00     0.244 C 
ATOM     39  N   LIG d   1      10.465   5.951  -8.225  0.00  0.00    -0.309 N 
ATOM     40  H   LIG d   1       9.892   6.113  -7.460  0.00  0.00     0.149 HD
ATOM     41  O   LIG d   1      11.380   4.489  -9.623  0.00  0.00    -0.270 OA
BRANCH  39  42
ATOM     42  C   LIG d   1      11.118   7.074  -8.903  0.00  0.00     0.020 C 
ATOM     43  H   LIG d   1      11.681   6.703  -9.760  0.00  0.00     0.050 H 
BRANCH  42  44
ATOM     44  C   LIG d   1      10.058   8.068  -9.381  0.00  0.00    -0.038 C 
ATOM     45  H   LIG d   1      10.535   9.015  -9.633  0.00  0.00     0.028 H 
ATOM     46  H   LIG d   1       9.555   7.668 -10.261  0.00  0.00     0.028 H 
BRANCH  44  47
ATOM     47  C   LIG d   1       9.032   8.295  -8.267  0.00  0.00    -0.064 C 
ATOM     48  H   LIG d   1       9.260   9.228  -7.750  0.00  0.00     0.023 H 
ATOM     49  H   LIG d   1       8.033   8.354  -8.699  0.00  0.00     0.023 H 
ATOM     50  H   LIG d   1       9.075   7.467  -7.561  0.00  0.00     0.023 H 
ENDBRANCH  44  47
ENDBRANCH  42  44
BRANCH  42  51
ATOM     51  C   LIG d   1      12.071   7.772  -7.931  0.00  0.00    -0.047 C 
ATOM     52  H   LIG d   1      13.007   7.216  -7.878  0.00  0.00     0.025 H 
ATOM     53  H   LIG d   1      12.270   8.785  -8.282  0.00  0.00     0.025 H 
ATOM     54  H   LIG d   1      11.614   7.813  -6.942  0.00  0.00     0.025 H 
ENDBRANCH  42  51
ENDBRANCH  39  42
ENDBRANCH  32  38
ENDBRANCH   1  28
BRANCH  17  55
ATOM     55  C   LIG d   1       4.330  -1.304  -6.516  0.00  0.00    -0.021 A 
ATOM     56  C   LIG d   1       3.370  -0.321  -6.364  0.00  0.00    -0.056 A 
ATOM     57  C   LIG d   1       2.564   0.030  -7.430  0.00  0.00    -0.059 A 
ATOM     58  H   LIG d   1       3.251   0.174  -5.411  0.00  0.00     0.062 H 
ATOM     59  C   LIG d   1       2.721  -0.599  -8.651  0.00  0.00    -0.050 A 
ATOM     60  H   LIG d   1       1.815   0.799  -7.311  0.00  0.00     0.062 H 
ATOM     61  C   LIG d   1       3.678  -1.586  -8.802  0.00  0.00    -0.059 A 
ATOM     62  C   LIG d   1       4.483  -1.937  -7.736  0.00  0.00    -0.056 A 
ATOM     63  H   LIG d   1       3.798  -2.080  -9.756  0.00  0.00     0.062 H 
ATOM     64  H   LIG d   1       5.234  -2.704  -7.855  0.00  0.00     0.062 H 
BRANCH  59  65
ATOM     65  C   LIG d   1       1.846  -0.212  -9.816  0.00  0.00    -0.040 C 
ATOM     66  H   LIG d   1       1.930  -0.966 -10.598  0.00  0.00     0.028 H 
ATOM     67  H   LIG d   1       0.810  -0.145  -9.485  0.00  0.00     0.028 H 
ATOM     68  H   LIG d   1       2.167   0.754 -10.206  0.00  0.00     0.028 H 
ENDBRANCH  59  65
ENDBRANCH  17  55
TORSDOF 8
ENDMDL
