MODEL 1
REMARK VINA RESULT:      -5.8      0.000      0.000
REMARK  17 active torsions:
REMARK  status: ('A' for Active; 'I' for Inactive)
REMARK    1  A    between atoms: C_1  and  C_2 
REMARK    2  A    between atoms: C_2  and  C_33 
REMARK    3  A    between atoms: C_4  and  O_23 
REMARK    4  A    between atoms: C_6  and  C_17 
REMARK    5  A    between atoms: C_8  and  O_16 
REMARK    6  A    between atoms: C_10  and  C_12 
REMARK    7  A    between atoms: C_12  and  C_14 
REMARK    8  A    between atoms: C_14  and  O_15 
REMARK    9  A    between atoms: C_17  and  C_19 
REMARK   10  A    between atoms: C_19  and  O_21 
REMARK   11  A    between atoms: O_21  and  C_22 
REMARK   12  A    between atoms: O_23  and  C_24 
REMARK   13  A    between atoms: C_24  and  C_26 
REMARK   14  A    between atoms: C_26  and  C_28 
REMARK   15  A    between atoms: C_28  and  C_30 
REMARK   16  A    between atoms: C_28  and  O_32 
REMARK   17  A    between atoms: C_30  and  O_31 
ROOT
ATOM      1  C   LIG d   1       3.558   0.048  -8.504  0.00  0.00    -0.002 C 
ATOM      2  C   LIG d   1       3.472  -0.347  -7.029  0.00  0.00    -0.005 C 
ATOM      3  C   LIG d   1       4.320  -1.597  -6.786  0.00  0.00     0.114 C 
ATOM      4  H   LIG d   1       5.358  -1.390  -7.047  0.00  0.00     0.074 H 
ATOM      5  C   LIG d   1       3.795  -2.745  -7.651  0.00  0.00     0.054 C 
ATOM      6  H   LIG d   1       2.758  -2.952  -7.389  0.00  0.00     0.041 H 
ATOM      7  C   LIG d   1       3.880  -2.350  -9.127  0.00  0.00     0.073 C 
ATOM      8  H   LIG d   1       3.507  -3.168  -9.744  0.00  0.00     0.061 H 
ATOM      9  C   LIG d   1       3.033  -1.099  -9.370  0.00  0.00     0.018 C 
ATOM     10  H   LIG d   1       1.996  -1.306  -9.109  0.00  0.00     0.038 H 
ATOM     11  H   LIG d   1       3.846   0.470  -6.412  0.00  0.00     0.031 H 
ATOM     12  H   LIG d   1       2.435  -0.554  -6.768  0.00  0.00     0.031 H 
ENDROOT
BRANCH   3  13
ATOM     13  O   LIG d   1       4.240  -1.966  -5.407  0.00  0.00    -0.457 OA
BRANCH  13  14
ATOM     14  C   LIG d   1       4.698  -1.072  -4.507  0.00  0.00     0.337 C 
ATOM     15  O   LIG d   1       5.667  -0.387  -4.771  0.00  0.00    -0.245 OA
BRANCH  14  16
ATOM     16  C   LIG d   1       4.026  -0.928  -3.209  0.00  0.00     0.060 C 
ATOM     17  C   LIG d   1       3.863  -1.989  -2.422  0.00  0.00    -0.086 C 
ATOM     18  H   LIG d   1       3.368  -1.883  -1.469  0.00  0.00     0.054 H 
ATOM     19  H   LIG d   1       4.224  -2.957  -2.738  0.00  0.00     0.054 H 
BRANCH  16  20
ATOM     20  C   LIG d   1       3.521   0.421  -2.767  0.00  0.00     0.109 C 
ATOM     21  H   LIG d   1       2.535   0.311  -2.317  0.00  0.00     0.067 H 
BRANCH  20  22
ATOM     22  C   LIG d   1       4.487   1.016  -1.740  0.00  0.00     0.074 C 
ATOM     23  H   LIG d   1       4.015   1.867  -1.249  0.00  0.00     0.059 H 
ATOM     24  H   LIG d   1       4.738   0.260  -0.996  0.00  0.00     0.059 H 
BRANCH  22  25
ATOM     25  O   LIG d   1       5.678   1.448  -2.400  0.00  0.00    -0.392 OA
ATOM     26  H   LIG d   1       5.521   1.902  -3.239  0.00  0.00     0.209 HD
ENDBRANCH  22  25
ENDBRANCH  20  22
BRANCH  20  27
ATOM     27  O   LIG d   1       3.435   1.291  -3.898  0.00  0.00    -0.385 OA
ATOM     28  H   LIG d   1       2.631   1.828  -3.921  0.00  0.00     0.210 HD
ENDBRANCH  20  27
ENDBRANCH  16  20
ENDBRANCH  14  16
ENDBRANCH  13  14
ENDBRANCH   3  13
BRANCH   5  29
ATOM     29  C   LIG d   1       4.629  -3.977  -7.412  0.00  0.00     0.038 C 
ATOM     30  C   LIG d   1       5.954  -3.917  -7.532  0.00  0.00    -0.088 C 
ATOM     31  H   LIG d   1       6.551  -4.801  -7.361  0.00  0.00     0.054 H 
ATOM     32  H   LIG d   1       6.430  -2.986  -7.801  0.00  0.00     0.054 H 
BRANCH  29  33
ATOM     33  C   LIG d   1       3.981  -5.244  -7.047  0.00  0.00     0.335 C 
ATOM     34  O   LIG d   1       3.421  -5.907  -7.898  0.00  0.00    -0.245 OA
BRANCH  33  35
ATOM     35  O   LIG d   1       4.006  -5.670  -5.769  0.00  0.00    -0.465 OA
BRANCH  35  36
ATOM     36  C   LIG d   1       4.820  -6.809  -5.481  0.00  0.00     0.082 C 
ATOM     37  H   LIG d   1       5.871  -6.541  -5.591  0.00  0.00     0.066 H 
ATOM     38  H   LIG d   1       4.634  -7.140  -4.460  0.00  0.00     0.066 H 
ATOM     39  H   LIG d   1       4.576  -7.614  -6.175  0.00  0.00     0.066 H 
ENDBRANCH  35  36
ENDBRANCH  33  35
ENDBRANCH  29  33
ENDBRANCH   5  29
BRANCH   1  40
ATOM     40  C   LIG d   1       5.014   0.339  -8.871  0.00  0.00    -0.055 C 
ATOM     41  H   LIG d   1       5.663  -0.399  -8.401  0.00  0.00     0.024 H 
ATOM     42  H   LIG d   1       5.133   0.288  -9.954  0.00  0.00     0.024 H 
ATOM     43  H   LIG d   1       5.284   1.336  -8.522  0.00  0.00     0.024 H 
ENDBRANCH   1  40
BRANCH   1  44
ATOM     44  C   LIG d   1       2.723   1.280  -8.744  0.00  0.00    -0.084 C 
ATOM     45  C   LIG d   1       3.300   2.453  -8.839  0.00  0.00    -0.102 C 
ATOM     46  H   LIG d   1       4.372   2.537  -8.746  0.00  0.00     0.053 H 
ATOM     47  H   LIG d   1       2.702   3.336  -9.010  0.00  0.00     0.053 H 
ATOM     48  H   LIG d   1       1.651   1.196  -8.837  0.00  0.00     0.057 H 
ENDBRANCH   1  44
BRANCH   7  49
ATOM     49  O   LIG d   1       5.240  -2.078  -9.470  0.00  0.00    -0.390 OA
ATOM     50  H   LIG d   1       5.878  -2.347  -8.794  0.00  0.00     0.210 HD
ENDBRANCH   7  49
BRANCH   9  51
ATOM     51  C   LIG d   1       3.117  -0.711 -10.824  0.00  0.00    -0.045 C 
ATOM     52  C   LIG d   1       4.224  -0.199 -11.303  0.00  0.00    -0.097 C 
ATOM     53  H   LIG d   1       4.255   0.165 -12.319  0.00  0.00     0.053 H 
ATOM     54  H   LIG d   1       5.105  -0.141 -10.681  0.00  0.00     0.053 H 
BRANCH  51  55
ATOM     55  C   LIG d   1       1.927  -0.911 -11.727  0.00  0.00     0.065 C 
ATOM     56  H   LIG d   1       1.884  -0.102 -12.456  0.00  0.00     0.060 H 
ATOM     57  H   LIG d   1       2.023  -1.864 -12.247  0.00  0.00     0.060 H 
BRANCH  55  58
ATOM     58  O   LIG d   1       0.730  -0.911 -10.946  0.00  0.00    -0.391 OA
ATOM     59  H   LIG d   1       0.756  -0.312 -10.188  0.00  0.00     0.210 HD
ENDBRANCH  55  58
ENDBRANCH  51  55
ENDBRANCH   9  51
TORSDOF 17
ENDMDL
MODEL 2
REMARK VINA RESULT:      -5.6      1.487      1.870
REMARK  17 active torsions:
REMARK  status: ('A' for Active; 'I' for Inactive)
REMARK    1  A    between atoms: C_1  and  C_2 
REMARK    2  A    between atoms: C_2  and  C_33 
REMARK    3  A    between atoms: C_4  and  O_23 
REMARK    4  A    between atoms: C_6  and  C_17 
REMARK    5  A    between atoms: C_8  and  O_16 
REMARK    6  A    between atoms: C_10  and  C_12 
REMARK    7  A    between atoms: C_12  and  C_14 
REMARK    8  A    between atoms: C_14  and  O_15 
REMARK    9  A    between atoms: C_17  and  C_19 
REMARK   10  A    between atoms: C_19  and  O_21 
REMARK   11  A    between atoms: O_21  and  C_22 
REMARK   12  A    between atoms: O_23  and  C_24 
REMARK   13  A    between atoms: C_24  and  C_26 
REMARK   14  A    between atoms: C_26  and  C_28 
REMARK   15  A    between atoms: C_28  and  C_30 
REMARK   16  A    between atoms: C_28  and  O_32 
REMARK   17  A    between atoms: C_30  and  O_31 
ROOT
ATOM      1  C   LIG d   1       3.534   0.149  -8.572  0.00  0.00    -0.002 C 
ATOM      2  C   LIG d   1       3.423  -0.335  -7.126  0.00  0.00    -0.005 C 
ATOM      3  C   LIG d   1       4.396  -1.494  -6.900  0.00  0.00     0.114 C 
ATOM      4  H   LIG d   1       5.415  -1.157  -7.093  0.00  0.00     0.074 H 
ATOM      5  C   LIG d   1       4.050  -2.642  -7.849  0.00  0.00     0.054 C 
ATOM      6  H   LIG d   1       3.031  -2.979  -7.655  0.00  0.00     0.041 H 
ATOM      7  C   LIG d   1       4.160  -2.159  -9.296  0.00  0.00     0.073 C 
ATOM      8  H   LIG d   1       3.913  -2.977  -9.973  0.00  0.00     0.061 H 
ATOM      9  C   LIG d   1       3.187  -1.000  -9.522  0.00  0.00     0.018 C 
ATOM     10  H   LIG d   1       2.169  -1.336  -9.328  0.00  0.00     0.038 H 
ATOM     11  H   LIG d   1       3.670   0.483  -6.449  0.00  0.00     0.031 H 
ATOM     12  H   LIG d   1       2.405  -0.671  -6.932  0.00  0.00     0.031 H 
ENDROOT
BRANCH   3  13
ATOM     13  O   LIG d   1       4.293  -1.946  -5.547  0.00  0.00    -0.457 OA
BRANCH  13  14
ATOM     14  C   LIG d   1       4.760  -1.120  -4.589  0.00  0.00     0.337 C 
ATOM     15  O   LIG d   1       5.760  -0.460  -4.791  0.00  0.00    -0.245 OA
BRANCH  14  16
ATOM     16  C   LIG d   1       4.058  -1.018  -3.303  0.00  0.00     0.060 C 
ATOM     17  C   LIG d   1       3.895  -2.101  -2.546  0.00  0.00    -0.086 C 
ATOM     18  H   LIG d   1       3.379  -2.027  -1.601  0.00  0.00     0.054 H 
ATOM     19  H   LIG d   1       4.279  -3.055  -2.878  0.00  0.00     0.054 H 
BRANCH  16  20
ATOM     20  C   LIG d   1       3.522   0.311  -2.839  0.00  0.00     0.109 C 
ATOM     21  H   LIG d   1       2.531   0.173  -2.405  0.00  0.00     0.067 H 
BRANCH  20  22
ATOM     22  C   LIG d   1       4.462   0.901  -1.785  0.00  0.00     0.074 C 
ATOM     23  H   LIG d   1       3.945   1.691  -1.240  0.00  0.00     0.059 H 
ATOM     24  H   LIG d   1       4.765   0.118  -1.089  0.00  0.00     0.059 H 
BRANCH  22  25
ATOM     25  O   LIG d   1       5.618   1.441  -2.426  0.00  0.00    -0.392 OA
ATOM     26  H   LIG d   1       6.021   0.849  -3.076  0.00  0.00     0.209 HD
ENDBRANCH  22  25
ENDBRANCH  20  22
BRANCH  20  27
ATOM     27  O   LIG d   1       3.435   1.204  -3.952  0.00  0.00    -0.385 OA
ATOM     28  H   LIG d   1       2.550   1.271  -4.335  0.00  0.00     0.210 HD
ENDBRANCH  20  27
ENDBRANCH  16  20
ENDBRANCH  14  16
ENDBRANCH  13  14
ENDBRANCH   3  13
BRANCH   5  29
ATOM     29  C   LIG d   1       5.007  -3.785  -7.627  0.00  0.00     0.038 C 
ATOM     30  C   LIG d   1       4.644  -5.027  -7.939  0.00  0.00    -0.088 C 
ATOM     31  H   LIG d   1       5.331  -5.846  -7.780  0.00  0.00     0.054 H 
ATOM     32  H   LIG d   1       3.664  -5.215  -8.351  0.00  0.00     0.054 H 
BRANCH  29  33
ATOM     33  C   LIG d   1       6.341  -3.528  -7.066  0.00  0.00     0.335 C 
ATOM     34  O   LIG d   1       7.162  -2.906  -7.712  0.00  0.00    -0.245 OA
BRANCH  33  35
ATOM     35  O   LIG d   1       6.653  -3.982  -5.836  0.00  0.00    -0.465 OA
BRANCH  35  36
ATOM     36  C   LIG d   1       7.757  -3.359  -5.176  0.00  0.00     0.082 C 
ATOM     37  H   LIG d   1       8.342  -4.117  -4.654  0.00  0.00     0.066 H 
ATOM     38  H   LIG d   1       8.386  -2.859  -5.912  0.00  0.00     0.066 H 
ATOM     39  H   LIG d   1       7.387  -2.628  -4.457  0.00  0.00     0.066 H 
ENDBRANCH  35  36
ENDBRANCH  33  35
ENDBRANCH  29  33
ENDBRANCH   5  29
BRANCH   1  40
ATOM     40  C   LIG d   1       4.963   0.622  -8.845  0.00  0.00    -0.055 C 
ATOM     41  H   LIG d   1       5.313   1.225  -8.007  0.00  0.00     0.024 H 
ATOM     42  H   LIG d   1       5.615  -0.243  -8.966  0.00  0.00     0.024 H 
ATOM     43  H   LIG d   1       4.980   1.221  -9.756  0.00  0.00     0.024 H 
ENDBRANCH   1  40
BRANCH   1  44
ATOM     44  C   LIG d   1       2.576   1.291  -8.795  0.00  0.00    -0.084 C 
ATOM     45  C   LIG d   1       2.960   2.523  -8.566  0.00  0.00    -0.102 C 
ATOM     46  H   LIG d   1       3.963   2.719  -8.219  0.00  0.00     0.053 H 
ATOM     47  H   LIG d   1       2.273   3.341  -8.726  0.00  0.00     0.053 H 
ATOM     48  H   LIG d   1       1.572   1.094  -9.143  0.00  0.00     0.057 H 
ENDBRANCH   1  44
BRANCH   7  49
ATOM     49  O   LIG d   1       5.494  -1.717  -9.551  0.00  0.00    -0.390 OA
ATOM     50  H   LIG d   1       5.766  -1.798 -10.476  0.00  0.00     0.210 HD
ENDBRANCH   7  49
BRANCH   9  51
ATOM     51  C   LIG d   1       3.296  -0.523 -10.948  0.00  0.00    -0.045 C 
ATOM     52  C   LIG d   1       2.424  -0.922 -11.840  0.00  0.00    -0.097 C 
ATOM     53  H   LIG d   1       2.554  -0.657 -12.879  0.00  0.00     0.053 H 
ATOM     54  H   LIG d   1       1.575  -1.517 -11.538  0.00  0.00     0.053 H 
BRANCH  51  55
ATOM     55  C   LIG d   1       4.409   0.412 -11.347  0.00  0.00     0.065 C 
ATOM     56  H   LIG d   1       3.985   1.309 -11.798  0.00  0.00     0.060 H 
ATOM     57  H   LIG d   1       4.985   0.687 -10.464  0.00  0.00     0.060 H 
BRANCH  55  58
ATOM     58  O   LIG d   1       5.262  -0.238 -12.290  0.00  0.00    -0.391 OA
ATOM     59  H   LIG d   1       5.980   0.319 -12.620  0.00  0.00     0.210 HD
ENDBRANCH  55  58
ENDBRANCH  51  55
ENDBRANCH   9  51
TORSDOF 17
ENDMDL
MODEL 3
REMARK VINA RESULT:      -5.5      9.086     12.689
REMARK  17 active torsions:
REMARK  status: ('A' for Active; 'I' for Inactive)
REMARK    1  A    between atoms: C_1  and  C_2 
REMARK    2  A    between atoms: C_2  and  C_33 
REMARK    3  A    between atoms: C_4  and  O_23 
REMARK    4  A    between atoms: C_6  and  C_17 
REMARK    5  A    between atoms: C_8  and  O_16 
REMARK    6  A    between atoms: C_10  and  C_12 
REMARK    7  A    between atoms: C_12  and  C_14 
REMARK    8  A    between atoms: C_14  and  O_15 
REMARK    9  A    between atoms: C_17  and  C_19 
REMARK   10  A    between atoms: C_19  and  O_21 
REMARK   11  A    between atoms: O_21  and  C_22 
REMARK   12  A    between atoms: O_23  and  C_24 
REMARK   13  A    between atoms: C_24  and  C_26 
REMARK   14  A    between atoms: C_26  and  C_28 
REMARK   15  A    between atoms: C_28  and  C_30 
REMARK   16  A    between atoms: C_28  and  O_32 
REMARK   17  A    between atoms: C_30  and  O_31 
ROOT
ATOM      1  C   LIG d   1      10.352   5.461  -3.973  0.00  0.00    -0.002 C 
ATOM      2  C   LIG d   1      10.148   6.854  -3.378  0.00  0.00    -0.005 C 
ATOM      3  C   LIG d   1      11.020   7.009  -2.130  0.00  0.00     0.114 C 
ATOM      4  H   LIG d   1      12.068   6.879  -2.400  0.00  0.00     0.074 H 
ATOM      5  C   LIG d   1      10.624   5.951  -1.098  0.00  0.00     0.054 C 
ATOM      6  H   LIG d   1       9.576   6.081  -0.828  0.00  0.00     0.041 H 
ATOM      7  C   LIG d   1      10.828   4.556  -1.693  0.00  0.00     0.073 C 
ATOM      8  H   LIG d   1      10.547   3.802  -0.958  0.00  0.00     0.061 H 
ATOM      9  C   LIG d   1       9.956   4.402  -2.941  0.00  0.00     0.018 C 
ATOM     10  H   LIG d   1       8.909   4.532  -2.671  0.00  0.00     0.038 H 
ATOM     11  H   LIG d   1      10.429   7.609  -4.112  0.00  0.00     0.031 H 
ATOM     12  H   LIG d   1       9.100   6.984  -3.108  0.00  0.00     0.031 H 
ENDROOT
BRANCH   3  13
ATOM     13  O   LIG d   1      10.829   8.312  -1.573  0.00  0.00    -0.457 OA
BRANCH  13  14
ATOM     14  C   LIG d   1      11.400   9.345  -2.225  0.00  0.00     0.337 C 
ATOM     15  O   LIG d   1      12.610   9.464  -2.233  0.00  0.00    -0.245 OA
BRANCH  14  16
ATOM     16  C   LIG d   1      10.560  10.325  -2.925  0.00  0.00     0.060 C 
ATOM     17  C   LIG d   1      10.702  10.507  -4.236  0.00  0.00    -0.086 C 
ATOM     18  H   LIG d   1      10.085  11.228  -4.751  0.00  0.00     0.054 H 
ATOM     19  H   LIG d   1      11.436   9.935  -4.785  0.00  0.00     0.054 H 
BRANCH  16  20
ATOM     20  C   LIG d   1       9.536  11.124  -2.162  0.00  0.00     0.109 C 
ATOM     21  H   LIG d   1      10.038  11.741  -1.416  0.00  0.00     0.067 H 
BRANCH  20  22
ATOM     22  C   LIG d   1       8.762  12.021  -3.130  0.00  0.00     0.074 C 
ATOM     23  H   LIG d   1       8.875  13.062  -2.828  0.00  0.00     0.059 H 
ATOM     24  H   LIG d   1       9.155  11.890  -4.139  0.00  0.00     0.059 H 
BRANCH  22  25
ATOM     25  O   LIG d   1       7.379  11.665  -3.108  0.00  0.00    -0.392 OA
ATOM     26  H   LIG d   1       6.783  12.413  -2.964  0.00  0.00     0.209 HD
ENDBRANCH  22  25
ENDBRANCH  20  22
BRANCH  20  27
ATOM     27  O   LIG d   1       8.628  10.234  -1.509  0.00  0.00    -0.385 OA
ATOM     28  H   LIG d   1       8.076   9.720  -2.116  0.00  0.00     0.210 HD
ENDBRANCH  20  27
ENDBRANCH  16  20
ENDBRANCH  14  16
ENDBRANCH  13  14
ENDBRANCH   3  13
BRANCH   5  29
ATOM     29  C   LIG d   1      11.482   6.102   0.132  0.00  0.00     0.038 C 
ATOM     30  C   LIG d   1      11.023   5.703   1.316  0.00  0.00    -0.088 C 
ATOM     31  H   LIG d   1      11.638   5.812   2.198  0.00  0.00     0.054 H 
ATOM     32  H   LIG d   1      10.037   5.272   1.395  0.00  0.00     0.054 H 
BRANCH  29  33
ATOM     33  C   LIG d   1      12.825   6.690   0.024  0.00  0.00     0.335 C 
ATOM     34  O   LIG d   1      13.054   7.777   0.519  0.00  0.00    -0.245 OA
BRANCH  33  35
ATOM     35  O   LIG d   1      13.802   6.025  -0.624  0.00  0.00    -0.465 OA
BRANCH  35  36
ATOM     36  C   LIG d   1      14.787   6.812  -1.295  0.00  0.00     0.082 C 
ATOM     37  H   LIG d   1      14.741   6.615  -2.367  0.00  0.00     0.066 H 
ATOM     38  H   LIG d   1      14.595   7.869  -1.112  0.00  0.00     0.066 H 
ATOM     39  H   LIG d   1      15.777   6.552  -0.921  0.00  0.00     0.066 H 
ENDBRANCH  35  36
ENDBRANCH  33  35
ENDBRANCH  29  33
ENDBRANCH   5  29
BRANCH   1  40
ATOM     40  C   LIG d   1      11.823   5.278  -4.353  0.00  0.00    -0.055 C 
ATOM     41  H   LIG d   1      12.061   5.915  -5.204  0.00  0.00     0.024 H 
ATOM     42  H   LIG d   1      12.453   5.552  -3.507  0.00  0.00     0.024 H 
ATOM     43  H   LIG d   1      12.003   4.236  -4.618  0.00  0.00     0.024 H 
ENDBRANCH   1  40
BRANCH   1  44
ATOM     44  C   LIG d   1       9.494   5.308  -5.202  0.00  0.00    -0.084 C 
ATOM     45  C   LIG d   1       9.789   5.970  -6.294  0.00  0.00    -0.102 C 
ATOM     46  H   LIG d   1      10.648   6.623  -6.313  0.00  0.00     0.053 H 
ATOM     47  H   LIG d   1       9.174   5.860  -7.175  0.00  0.00     0.053 H 
ATOM     48  H   LIG d   1       8.634   4.654  -5.183  0.00  0.00     0.057 H 
ENDBRANCH   1  44
BRANCH   7  49
ATOM     49  O   LIG d   1      12.202   4.386  -2.048  0.00  0.00    -0.390 OA
ATOM     50  H   LIG d   1      12.533   3.485  -1.918  0.00  0.00     0.210 HD
ENDBRANCH   7  49
BRANCH   9  51
ATOM     51  C   LIG d   1      10.158   3.029  -3.527  0.00  0.00    -0.045 C 
ATOM     52  C   LIG d   1       9.154   2.188  -3.589  0.00  0.00    -0.097 C 
ATOM     53  H   LIG d   1       9.319   1.174  -3.922  0.00  0.00     0.053 H 
ATOM     54  H   LIG d   1       8.163   2.509  -3.305  0.00  0.00     0.053 H 
BRANCH  51  55
ATOM     55  C   LIG d   1      11.514   2.621  -4.044  0.00  0.00     0.065 C 
ATOM     56  H   LIG d   1      11.404   2.147  -5.019  0.00  0.00     0.060 H 
ATOM     57  H   LIG d   1      12.146   3.503  -4.137  0.00  0.00     0.060 H 
BRANCH  55  58
ATOM     58  O   LIG d   1      12.114   1.698  -3.132  0.00  0.00    -0.391 OA
ATOM     59  H   LIG d   1      11.912   0.772  -3.321  0.00  0.00     0.210 HD
ENDBRANCH  55  58
ENDBRANCH  51  55
ENDBRANCH   9  51
TORSDOF 17
ENDMDL
MODEL 4
REMARK VINA RESULT:      -5.4      2.192      4.002
REMARK  17 active torsions:
REMARK  status: ('A' for Active; 'I' for Inactive)
REMARK    1  A    between atoms: C_1  and  C_2 
REMARK    2  A    between atoms: C_2  and  C_33 
REMARK    3  A    between atoms: C_4  and  O_23 
REMARK    4  A    between atoms: C_6  and  C_17 
REMARK    5  A    between atoms: C_8  and  O_16 
REMARK    6  A    between atoms: C_10  and  C_12 
REMARK    7  A    between atoms: C_12  and  C_14 
REMARK    8  A    between atoms: C_14  and  O_15 
REMARK    9  A    between atoms: C_17  and  C_19 
REMARK   10  A    between atoms: C_19  and  O_21 
REMARK   11  A    between atoms: O_21  and  C_22 
REMARK   12  A    between atoms: O_23  and  C_24 
REMARK   13  A    between atoms: C_24  and  C_26 
REMARK   14  A    between atoms: C_26  and  C_28 
REMARK   15  A    between atoms: C_28  and  C_30 
REMARK   16  A    between atoms: C_28  and  O_32 
REMARK   17  A    between atoms: C_30  and  O_31 
ROOT
ATOM      1  C   LIG d   1       3.571  -0.754  -8.359  0.00  0.00    -0.002 C 
ATOM      2  C   LIG d   1       4.043  -1.917  -7.485  0.00  0.00    -0.005 C 
ATOM      3  C   LIG d   1       5.262  -1.481  -6.671  0.00  0.00     0.114 C 
ATOM      4  H   LIG d   1       4.993  -0.636  -6.036  0.00  0.00     0.074 H 
ATOM      5  C   LIG d   1       6.388  -1.067  -7.620  0.00  0.00     0.054 C 
ATOM      6  H   LIG d   1       6.658  -1.913  -8.254  0.00  0.00     0.041 H 
ATOM      7  C   LIG d   1       5.917   0.096  -8.495  0.00  0.00     0.073 C 
ATOM      8  H   LIG d   1       6.719   0.390  -9.171  0.00  0.00     0.061 H 
ATOM      9  C   LIG d   1       4.697  -0.341  -9.310  0.00  0.00     0.018 C 
ATOM     10  H   LIG d   1       4.966  -1.185  -9.943  0.00  0.00     0.038 H 
ATOM     11  H   LIG d   1       3.241  -2.212  -6.808  0.00  0.00     0.031 H 
ATOM     12  H   LIG d   1       4.312  -2.762  -8.119  0.00  0.00     0.031 H 
ENDROOT
BRANCH   3  13
ATOM     13  O   LIG d   1       5.703  -2.568  -5.854  0.00  0.00    -0.457 OA
BRANCH  13  14
ATOM     14  C   LIG d   1       5.020  -2.792  -4.713  0.00  0.00     0.337 C 
ATOM     15  O   LIG d   1       4.344  -3.796  -4.597  0.00  0.00    -0.245 OA
BRANCH  14  16
ATOM     16  C   LIG d   1       5.093  -1.823  -3.612  0.00  0.00     0.060 C 
ATOM     17  C   LIG d   1       6.258  -1.579  -3.016  0.00  0.00    -0.086 C 
ATOM     18  H   LIG d   1       6.311  -0.867  -2.206  0.00  0.00     0.054 H 
ATOM     19  H   LIG d   1       7.150  -2.094  -3.342  0.00  0.00     0.054 H 
BRANCH  16  20
ATOM     20  C   LIG d   1       3.850  -1.104  -3.156  0.00  0.00     0.109 C 
ATOM     21  H   LIG d   1       3.616  -1.394  -2.131  0.00  0.00     0.067 H 
BRANCH  20  22
ATOM     22  C   LIG d   1       4.082   0.407  -3.218  0.00  0.00     0.074 C 
ATOM     23  H   LIG d   1       5.153   0.610  -3.183  0.00  0.00     0.059 H 
ATOM     24  H   LIG d   1       3.668   0.801  -4.147  0.00  0.00     0.059 H 
BRANCH  22  25
ATOM     25  O   LIG d   1       3.441   1.034  -2.107  0.00  0.00    -0.392 OA
ATOM     26  H   LIG d   1       2.476   0.962  -2.117  0.00  0.00     0.209 HD
ENDBRANCH  22  25
ENDBRANCH  20  22
BRANCH  20  27
ATOM     27  O   LIG d   1       2.758  -1.453  -4.010  0.00  0.00    -0.385 OA
ATOM     28  H   LIG d   1       2.029  -1.898  -3.557  0.00  0.00     0.210 HD
ENDBRANCH  20  27
ENDBRANCH  16  20
ENDBRANCH  14  16
ENDBRANCH  13  14
ENDBRANCH   3  13
BRANCH   5  29
ATOM     29  C   LIG d   1       7.590  -0.638  -6.819  0.00  0.00     0.038 C 
ATOM     30  C   LIG d   1       8.588  -1.494  -6.607  0.00  0.00    -0.088 C 
ATOM     31  H   LIG d   1       9.450  -1.186  -6.032  0.00  0.00     0.054 H 
ATOM     32  H   LIG d   1       8.536  -2.494  -7.009  0.00  0.00     0.054 H 
BRANCH  29  33
ATOM     33  C   LIG d   1       7.661   0.724  -6.271  0.00  0.00     0.335 C 
ATOM     34  O   LIG d   1       8.344   1.565  -6.822  0.00  0.00    -0.245 OA
BRANCH  33  35
ATOM     35  O   LIG d   1       6.968   1.040  -5.159  0.00  0.00    -0.465 OA
BRANCH  35  36
ATOM     36  C   LIG d   1       7.702   1.625  -4.083  0.00  0.00     0.082 C 
ATOM     37  H   LIG d   1       8.053   2.615  -4.379  0.00  0.00     0.066 H 
ATOM     38  H   LIG d   1       7.057   1.715  -3.209  0.00  0.00     0.066 H 
ATOM     39  H   LIG d   1       8.557   0.994  -3.840  0.00  0.00     0.066 H 
ENDBRANCH  35  36
ENDBRANCH  33  35
ENDBRANCH  29  33
ENDBRANCH   5  29
BRANCH   1  40
ATOM     40  C   LIG d   1       3.193   0.432  -7.470  0.00  0.00    -0.055 C 
ATOM     41  H   LIG d   1       2.820   1.247  -8.090  0.00  0.00     0.024 H 
ATOM     42  H   LIG d   1       2.417   0.127  -6.768  0.00  0.00     0.024 H 
ATOM     43  H   LIG d   1       4.072   0.767  -6.919  0.00  0.00     0.024 H 
ENDBRANCH   1  40
BRANCH   1  44
ATOM     44  C   LIG d   1       2.370  -1.183  -9.162  0.00  0.00    -0.084 C 
ATOM     45  C   LIG d   1       2.333  -2.379  -9.697  0.00  0.00    -0.102 C 
ATOM     46  H   LIG d   1       3.162  -3.056  -9.562  0.00  0.00     0.053 H 
ATOM     47  H   LIG d   1       1.472  -2.686 -10.273  0.00  0.00     0.053 H 
ATOM     48  H   LIG d   1       1.540  -0.505  -9.297  0.00  0.00     0.057 H 
ENDBRANCH   1  44
BRANCH   7  49
ATOM     49  O   LIG d   1       5.563   1.204  -7.665  0.00  0.00    -0.390 OA
ATOM     50  H   LIG d   1       5.003   0.968  -6.911  0.00  0.00     0.210 HD
ENDBRANCH   7  49
BRANCH   9  51
ATOM     51  C   LIG d   1       4.232   0.805 -10.171  0.00  0.00    -0.045 C 
ATOM     52  C   LIG d   1       4.096   2.001  -9.653  0.00  0.00    -0.097 C 
ATOM     53  H   LIG d   1       3.675   2.801 -10.244  0.00  0.00     0.053 H 
ATOM     54  H   LIG d   1       4.403   2.187  -8.634  0.00  0.00     0.053 H 
BRANCH  51  55
ATOM     55  C   LIG d   1       3.925   0.576 -11.629  0.00  0.00     0.065 C 
ATOM     56  H   LIG d   1       3.060  -0.080 -11.718  0.00  0.00     0.060 H 
ATOM     57  H   LIG d   1       3.709   1.531 -12.108  0.00  0.00     0.060 H 
BRANCH  55  58
ATOM     58  O   LIG d   1       5.052  -0.032 -12.263  0.00  0.00    -0.391 OA
ATOM     59  H   LIG d   1       5.869   0.024 -11.750  0.00  0.00     0.210 HD
ENDBRANCH  55  58
ENDBRANCH  51  55
ENDBRANCH   9  51
TORSDOF 17
ENDMDL
MODEL 5
REMARK VINA RESULT:      -5.4      4.477      6.807
REMARK  17 active torsions:
REMARK  status: ('A' for Active; 'I' for Inactive)
REMARK    1  A    between atoms: C_1  and  C_2 
REMARK    2  A    between atoms: C_2  and  C_33 
REMARK    3  A    between atoms: C_4  and  O_23 
REMARK    4  A    between atoms: C_6  and  C_17 
REMARK    5  A    between atoms: C_8  and  O_16 
REMARK    6  A    between atoms: C_10  and  C_12 
REMARK    7  A    between atoms: C_12  and  C_14 
REMARK    8  A    between atoms: C_14  and  O_15 
REMARK    9  A    between atoms: C_17  and  C_19 
REMARK   10  A    between atoms: C_19  and  O_21 
REMARK   11  A    between atoms: O_21  and  C_22 
REMARK   12  A    between atoms: O_23  and  C_24 
REMARK   13  A    between atoms: C_24  and  C_26 
REMARK   14  A    between atoms: C_26  and  C_28 
REMARK   15  A    between atoms: C_28  and  C_30 
REMARK   16  A    between atoms: C_28  and  O_32 
REMARK   17  A    between atoms: C_30  and  O_31 
ROOT
ATOM      1  C   LIG d   1       5.462  -0.146  -3.347  0.00  0.00    -0.002 C 
ATOM      2  C   LIG d   1       6.647   0.815  -3.239  0.00  0.00    -0.005 C 
ATOM      3  C   LIG d   1       7.629   0.542  -4.381  0.00  0.00     0.114 C 
ATOM      4  H   LIG d   1       7.126   0.691  -5.337  0.00  0.00     0.074 H 
ATOM      5  C   LIG d   1       8.132  -0.900  -4.287  0.00  0.00     0.054 C 
ATOM      6  H   LIG d   1       8.635  -1.047  -3.332  0.00  0.00     0.041 H 
ATOM      7  C   LIG d   1       6.947  -1.861  -4.394  0.00  0.00     0.073 C 
ATOM      8  H   LIG d   1       7.305  -2.888  -4.328  0.00  0.00     0.061 H 
ATOM      9  C   LIG d   1       5.964  -1.588  -3.253  0.00  0.00     0.018 C 
ATOM     10  H   LIG d   1       6.467  -1.736  -2.298  0.00  0.00     0.038 H 
ATOM     11  H   LIG d   1       6.290   1.842  -3.306  0.00  0.00     0.031 H 
ATOM     12  H   LIG d   1       7.150   0.667  -2.284  0.00  0.00     0.031 H 
ENDROOT
BRANCH   3  13
ATOM     13  O   LIG d   1       8.737   1.440  -4.281  0.00  0.00    -0.457 OA
BRANCH  13  14
ATOM     14  C   LIG d   1       8.818   2.417  -5.207  0.00  0.00     0.337 C 
ATOM     15  O   LIG d   1       8.045   2.430  -6.145  0.00  0.00    -0.245 OA
BRANCH  14  16
ATOM     16  C   LIG d   1       9.840   3.465  -5.080  0.00  0.00     0.060 C 
ATOM     17  C   LIG d   1       9.474   4.734  -4.914  0.00  0.00    -0.086 C 
ATOM     18  H   LIG d   1      10.225   5.504  -4.821  0.00  0.00     0.054 H 
ATOM     19  H   LIG d   1       8.427   4.994  -4.873  0.00  0.00     0.054 H 
BRANCH  16  20
ATOM     20  C   LIG d   1      11.301   3.104  -5.138  0.00  0.00     0.109 C 
ATOM     21  H   LIG d   1      11.844   3.872  -5.690  0.00  0.00     0.067 H 
BRANCH  20  22
ATOM     22  C   LIG d   1      11.860   3.007  -3.717  0.00  0.00     0.074 C 
ATOM     23  H   LIG d   1      12.944   3.118  -3.745  0.00  0.00     0.059 H 
ATOM     24  H   LIG d   1      11.429   3.798  -3.102  0.00  0.00     0.059 H 
BRANCH  22  25
ATOM     25  O   LIG d   1      11.525   1.736  -3.159  0.00  0.00    -0.392 OA
ATOM     26  H   LIG d   1      10.646   1.417  -3.405  0.00  0.00     0.209 HD
ENDBRANCH  22  25
ENDBRANCH  20  22
BRANCH  20  27
ATOM     27  O   LIG d   1      11.455   1.845  -5.797  0.00  0.00    -0.385 OA
ATOM     28  H   LIG d   1      12.275   1.763  -6.303  0.00  0.00     0.210 HD
ENDBRANCH  20  27
ENDBRANCH  16  20
ENDBRANCH  14  16
ENDBRANCH  13  14
ENDBRANCH   3  13
BRANCH   5  29
ATOM     29  C   LIG d   1       9.100  -1.169  -5.411  0.00  0.00     0.038 C 
ATOM     30  C   LIG d   1       8.717  -0.993  -6.674  0.00  0.00    -0.088 C 
ATOM     31  H   LIG d   1       9.411  -1.186  -7.480  0.00  0.00     0.054 H 
ATOM     32  H   LIG d   1       7.714  -0.658  -6.893  0.00  0.00     0.054 H 
BRANCH  29  33
ATOM     33  C   LIG d   1      10.464  -1.625  -5.112  0.00  0.00     0.335 C 
ATOM     34  O   LIG d   1      11.337  -0.813  -4.874  0.00  0.00    -0.245 OA
BRANCH  33  35
ATOM     35  O   LIG d   1      10.748  -2.942  -5.104  0.00  0.00    -0.465 OA
BRANCH  35  36
ATOM     36  C   LIG d   1      11.048  -3.533  -3.838  0.00  0.00     0.082 C 
ATOM     37  H   LIG d   1      11.059  -4.619  -3.937  0.00  0.00     0.066 H 
ATOM     38  H   LIG d   1      12.024  -3.189  -3.498  0.00  0.00     0.066 H 
ATOM     39  H   LIG d   1      10.287  -3.243  -3.112  0.00  0.00     0.066 H 
ENDBRANCH  35  36
ENDBRANCH  33  35
ENDBRANCH  29  33
ENDBRANCH   5  29
BRANCH   1  40
ATOM     40  C   LIG d   1       4.756   0.062  -4.688  0.00  0.00    -0.055 C 
ATOM     41  H   LIG d   1       5.497   0.122  -5.484  0.00  0.00     0.024 H 
ATOM     42  H   LIG d   1       4.085  -0.776  -4.879  0.00  0.00     0.024 H 
ATOM     43  H   LIG d   1       4.181   0.988  -4.656  0.00  0.00     0.024 H 
ENDBRANCH   1  40
BRANCH   1  44
ATOM     44  C   LIG d   1       4.494   0.122  -2.223  0.00  0.00    -0.084 C 
ATOM     45  C   LIG d   1       4.025   1.332  -2.037  0.00  0.00    -0.102 C 
ATOM     46  H   LIG d   1       4.331   2.135  -2.689  0.00  0.00     0.053 H 
ATOM     47  H   LIG d   1       3.332   1.524  -1.231  0.00  0.00     0.053 H 
ATOM     48  H   LIG d   1       4.188  -0.682  -1.570  0.00  0.00     0.057 H 
ENDBRANCH   1  44
BRANCH   7  49
ATOM     49  O   LIG d   1       6.287  -1.667  -5.647  0.00  0.00    -0.390 OA
ATOM     50  H   LIG d   1       6.890  -1.542  -6.394  0.00  0.00     0.210 HD
ENDBRANCH   7  49
BRANCH   9  51
ATOM     51  C   LIG d   1       4.797  -2.535  -3.358  0.00  0.00    -0.045 C 
ATOM     52  C   LIG d   1       3.782  -2.419  -2.538  0.00  0.00    -0.097 C 
ATOM     53  H   LIG d   1       2.989  -3.152  -2.552  0.00  0.00     0.053 H 
ATOM     54  H   LIG d   1       3.738  -1.590  -1.847  0.00  0.00     0.053 H 
BRANCH  51  55
ATOM     55  C   LIG d   1       4.796  -3.616  -4.409  0.00  0.00     0.065 C 
ATOM     56  H   LIG d   1       5.802  -3.730  -4.813  0.00  0.00     0.060 H 
ATOM     57  H   LIG d   1       4.476  -4.556  -3.961  0.00  0.00     0.060 H 
BRANCH  55  58
ATOM     58  O   LIG d   1       3.898  -3.258  -5.461  0.00  0.00    -0.391 OA
ATOM     59  H   LIG d   1       4.305  -3.245  -6.338  0.00  0.00     0.210 HD
ENDBRANCH  55  58
ENDBRANCH  51  55
ENDBRANCH   9  51
TORSDOF 17
ENDMDL
MODEL 6
REMARK VINA RESULT:      -5.3      8.080     10.374
REMARK  17 active torsions:
REMARK  status: ('A' for Active; 'I' for Inactive)
REMARK    1  A    between atoms: C_1  and  C_2 
REMARK    2  A    between atoms: C_2  and  C_33 
REMARK    3  A    between atoms: C_4  and  O_23 
REMARK    4  A    between atoms: C_6  and  C_17 
REMARK    5  A    between atoms: C_8  and  O_16 
REMARK    6  A    between atoms: C_10  and  C_12 
REMARK    7  A    between atoms: C_12  and  C_14 
REMARK    8  A    between atoms: C_14  and  O_15 
REMARK    9  A    between atoms: C_17  and  C_19 
REMARK   10  A    between atoms: C_19  and  O_21 
REMARK   11  A    between atoms: O_21  and  C_22 
REMARK   12  A    between atoms: O_23  and  C_24 
REMARK   13  A    between atoms: C_24  and  C_26 
REMARK   14  A    between atoms: C_26  and  C_28 
REMARK   15  A    between atoms: C_28  and  C_30 
REMARK   16  A    between atoms: C_28  and  O_32 
REMARK   17  A    between atoms: C_30  and  O_31 
ROOT
ATOM      1  C   LIG d   1      10.176   8.085  -5.408  0.00  0.00    -0.002 C 
ATOM      2  C   LIG d   1       9.695   7.725  -4.002  0.00  0.00    -0.005 C 
ATOM      3  C   LIG d   1      10.034   6.262  -3.707  0.00  0.00     0.114 C 
ATOM      4  H   LIG d   1      11.113   6.119  -3.769  0.00  0.00     0.074 H 
ATOM      5  C   LIG d   1       9.339   5.361  -4.729  0.00  0.00     0.054 C 
ATOM      6  H   LIG d   1       8.260   5.505  -4.666  0.00  0.00     0.041 H 
ATOM      7  C   LIG d   1       9.820   5.721  -6.136  0.00  0.00     0.073 C 
ATOM      8  H   LIG d   1       9.325   5.080  -6.865  0.00  0.00     0.061 H 
ATOM      9  C   LIG d   1       9.481   7.185  -6.432  0.00  0.00     0.018 C 
ATOM     10  H   LIG d   1       8.403   7.328  -6.369  0.00  0.00     0.038 H 
ATOM     11  H   LIG d   1      10.190   8.366  -3.273  0.00  0.00     0.031 H 
ATOM     12  H   LIG d   1       8.617   7.868  -3.939  0.00  0.00     0.031 H 
ENDROOT
BRANCH   3  13
ATOM     13  O   LIG d   1       9.584   5.925  -2.392  0.00  0.00    -0.457 OA
BRANCH  13  14
ATOM     14  C   LIG d   1       9.874   6.796  -1.404  0.00  0.00     0.337 C 
ATOM     15  O   LIG d   1       8.999   7.498  -0.937  0.00  0.00    -0.245 OA
BRANCH  14  16
ATOM     16  C   LIG d   1      11.248   6.895  -0.894  0.00  0.00     0.060 C 
ATOM     17  C   LIG d   1      12.037   7.889  -1.296  0.00  0.00    -0.086 C 
ATOM     18  H   LIG d   1      13.047   7.961  -0.921  0.00  0.00     0.054 H 
ATOM     19  H   LIG d   1      11.668   8.622  -1.998  0.00  0.00     0.054 H 
BRANCH  16  20
ATOM     20  C   LIG d   1      11.765   5.873   0.085  0.00  0.00     0.109 C 
ATOM     21  H   LIG d   1      12.851   5.940   0.142  0.00  0.00     0.067 H 
BRANCH  20  22
ATOM     22  C   LIG d   1      11.164   6.140   1.467  0.00  0.00     0.074 C 
ATOM     23  H   LIG d   1      11.961   6.397   2.165  0.00  0.00     0.059 H 
ATOM     24  H   LIG d   1      10.457   6.968   1.402  0.00  0.00     0.059 H 
BRANCH  22  25
ATOM     25  O   LIG d   1      10.486   4.971   1.927  0.00  0.00    -0.392 OA
ATOM     26  H   LIG d   1       9.758   5.151   2.538  0.00  0.00     0.209 HD
ENDBRANCH  22  25
ENDBRANCH  20  22
BRANCH  20  27
ATOM     27  O   LIG d   1      11.390   4.564  -0.351  0.00  0.00    -0.385 OA
ATOM     28  H   LIG d   1      10.509   4.290  -0.062  0.00  0.00     0.210 HD
ENDBRANCH  20  27
ENDBRANCH  16  20
ENDBRANCH  14  16
ENDBRANCH  13  14
ENDBRANCH   3  13
BRANCH   5  29
ATOM     29  C   LIG d   1       9.672   3.920  -4.439  0.00  0.00     0.038 C 
ATOM     30  C   LIG d   1      10.698   3.622  -3.645  0.00  0.00    -0.088 C 
ATOM     31  H   LIG d   1      10.937   2.589  -3.436  0.00  0.00     0.054 H 
ATOM     32  H   LIG d   1      11.291   4.413  -3.210  0.00  0.00     0.054 H 
BRANCH  29  33
ATOM     33  C   LIG d   1       8.864   2.845  -5.031  0.00  0.00     0.335 C 
ATOM     34  O   LIG d   1       9.265   2.256  -6.016  0.00  0.00    -0.245 OA
BRANCH  33  35
ATOM     35  O   LIG d   1       7.678   2.513  -4.483  0.00  0.00    -0.465 OA
BRANCH  35  36
ATOM     36  C   LIG d   1       7.594   1.237  -3.846  0.00  0.00     0.082 C 
ATOM     37  H   LIG d   1       6.613   1.128  -3.381  0.00  0.00     0.066 H 
ATOM     38  H   LIG d   1       7.734   0.451  -4.587  0.00  0.00     0.066 H 
ATOM     39  H   LIG d   1       8.368   1.160  -3.082  0.00  0.00     0.066 H 
ENDBRANCH  35  36
ENDBRANCH  33  35
ENDBRANCH  29  33
ENDBRANCH   5  29
BRANCH   1  40
ATOM     40  C   LIG d   1      11.691   7.884  -5.497  0.00  0.00    -0.055 C 
ATOM     41  H   LIG d   1      12.007   7.955  -6.538  0.00  0.00     0.024 H 
ATOM     42  H   LIG d   1      12.194   8.654  -4.912  0.00  0.00     0.024 H 
ATOM     43  H   LIG d   1      11.950   6.901  -5.105  0.00  0.00     0.024 H 
ENDBRANCH   1  40
BRANCH   1  44
ATOM     44  C   LIG d   1       9.843   9.526  -5.700  0.00  0.00    -0.084 C 
ATOM     45  C   LIG d   1       9.456  10.318  -4.730  0.00  0.00    -0.102 C 
ATOM     46  H   LIG d   1       9.376   9.939  -3.723  0.00  0.00     0.053 H 
ATOM     47  H   LIG d   1       9.216  11.350  -4.940  0.00  0.00     0.053 H 
ATOM     48  H   LIG d   1       9.922   9.905  -6.708  0.00  0.00     0.057 H 
ENDBRANCH   1  44
BRANCH   7  49
ATOM     49  O   LIG d   1      11.234   5.534  -6.219  0.00  0.00    -0.390 OA
ATOM     50  H   LIG d   1      11.510   4.607  -6.190  0.00  0.00     0.210 HD
ENDBRANCH   7  49
BRANCH   9  51
ATOM     51  C   LIG d   1       9.955   7.539  -7.817  0.00  0.00    -0.045 C 
ATOM     52  C   LIG d   1      10.619   6.661  -8.528  0.00  0.00    -0.097 C 
ATOM     53  H   LIG d   1      11.039   6.944  -9.482  0.00  0.00     0.053 H 
ATOM     54  H   LIG d   1      10.747   5.654  -8.160  0.00  0.00     0.053 H 
BRANCH  51  55
ATOM     55  C   LIG d   1       9.666   8.905  -8.386  0.00  0.00     0.065 C 
ATOM     56  H   LIG d   1       9.884   9.665  -7.635  0.00  0.00     0.060 H 
ATOM     57  H   LIG d   1      10.291   9.072  -9.263  0.00  0.00     0.060 H 
BRANCH  55  58
ATOM     58  O   LIG d   1       8.289   8.984  -8.759  0.00  0.00    -0.391 OA
ATOM     59  H   LIG d   1       7.824   9.745  -8.385  0.00  0.00     0.210 HD
ENDBRANCH  55  58
ENDBRANCH  51  55
ENDBRANCH   9  51
TORSDOF 17
ENDMDL
MODEL 7
REMARK VINA RESULT:      -5.2      3.538      5.843
REMARK  17 active torsions:
REMARK  status: ('A' for Active; 'I' for Inactive)
REMARK    1  A    between atoms: C_1  and  C_2 
REMARK    2  A    between atoms: C_2  and  C_33 
REMARK    3  A    between atoms: C_4  and  O_23 
REMARK    4  A    between atoms: C_6  and  C_17 
REMARK    5  A    between atoms: C_8  and  O_16 
REMARK    6  A    between atoms: C_10  and  C_12 
REMARK    7  A    between atoms: C_12  and  C_14 
REMARK    8  A    between atoms: C_14  and  O_15 
REMARK    9  A    between atoms: C_17  and  C_19 
REMARK   10  A    between atoms: C_19  and  O_21 
REMARK   11  A    between atoms: O_21  and  C_22 
REMARK   12  A    between atoms: O_23  and  C_24 
REMARK   13  A    between atoms: C_24  and  C_26 
REMARK   14  A    between atoms: C_26  and  C_28 
REMARK   15  A    between atoms: C_28  and  C_30 
REMARK   16  A    between atoms: C_28  and  O_32 
REMARK   17  A    between atoms: C_30  and  O_31 
ROOT
ATOM      1  C   LIG d   1       6.571  -0.888  -4.331  0.00  0.00    -0.002 C 
ATOM      2  C   LIG d   1       7.725  -1.770  -4.809  0.00  0.00    -0.005 C 
ATOM      3  C   LIG d   1       7.188  -2.840  -5.762  0.00  0.00     0.114 C 
ATOM      4  H   LIG d   1       6.718  -2.360  -6.621  0.00  0.00     0.074 H 
ATOM      5  C   LIG d   1       6.157  -3.702  -5.032  0.00  0.00     0.054 C 
ATOM      6  H   LIG d   1       6.627  -4.183  -4.174  0.00  0.00     0.041 H 
ATOM      7  C   LIG d   1       5.002  -2.820  -4.553  0.00  0.00     0.073 C 
ATOM      8  H   LIG d   1       4.267  -3.434  -4.033  0.00  0.00     0.061 H 
ATOM      9  C   LIG d   1       5.539  -1.750  -3.600  0.00  0.00     0.018 C 
ATOM     10  H   LIG d   1       6.009  -2.230  -2.743  0.00  0.00     0.038 H 
ATOM     11  H   LIG d   1       8.461  -1.157  -5.330  0.00  0.00     0.031 H 
ATOM     12  H   LIG d   1       8.195  -2.250  -3.952  0.00  0.00     0.031 H 
ENDROOT
BRANCH   3  13
ATOM     13  O   LIG d   1       8.267  -3.665  -6.210  0.00  0.00    -0.457 OA
BRANCH  13  14
ATOM     14  C   LIG d   1       9.301  -3.833  -5.360  0.00  0.00     0.337 C 
ATOM     15  O   LIG d   1      10.287  -3.129  -5.456  0.00  0.00    -0.245 OA
BRANCH  14  16
ATOM     16  C   LIG d   1       9.234  -4.868  -4.320  0.00  0.00     0.060 C 
ATOM     17  C   LIG d   1       8.973  -6.130  -4.653  0.00  0.00    -0.086 C 
ATOM     18  H   LIG d   1       8.923  -6.891  -3.888  0.00  0.00     0.054 H 
ATOM     19  H   LIG d   1       8.809  -6.393  -5.687  0.00  0.00     0.054 H 
BRANCH  16  20
ATOM     20  C   LIG d   1       9.462  -4.503  -2.877  0.00  0.00     0.109 C 
ATOM     21  H   LIG d   1       8.547  -4.082  -2.458  0.00  0.00     0.067 H 
BRANCH  20  22
ATOM     22  C   LIG d   1       9.854  -5.755  -2.089  0.00  0.00     0.074 C 
ATOM     23  H   LIG d   1       9.387  -6.629  -2.542  0.00  0.00     0.059 H 
ATOM     24  H   LIG d   1      10.938  -5.871  -2.108  0.00  0.00     0.059 H 
BRANCH  22  25
ATOM     25  O   LIG d   1       9.414  -5.625  -0.737  0.00  0.00    -0.392 OA
ATOM     26  H   LIG d   1       9.772  -4.853  -0.278  0.00  0.00     0.209 HD
ENDBRANCH  22  25
ENDBRANCH  20  22
BRANCH  20  27
ATOM     27  O   LIG d   1      10.513  -3.538  -2.790  0.00  0.00    -0.385 OA
ATOM     28  H   LIG d   1      10.522  -2.899  -3.516  0.00  0.00     0.210 HD
ENDBRANCH  20  27
ENDBRANCH  16  20
ENDBRANCH  14  16
ENDBRANCH  13  14
ENDBRANCH   3  13
BRANCH   5  29
ATOM     29  C   LIG d   1       5.628  -4.756  -5.970  0.00  0.00     0.038 C 
ATOM     30  C   LIG d   1       5.709  -4.576  -7.287  0.00  0.00    -0.088 C 
ATOM     31  H   LIG d   1       5.330  -5.332  -7.959  0.00  0.00     0.054 H 
ATOM     32  H   LIG d   1       6.154  -3.674  -7.682  0.00  0.00     0.054 H 
BRANCH  29  33
ATOM     33  C   LIG d   1       5.023  -5.983  -5.432  0.00  0.00     0.335 C 
ATOM     34  O   LIG d   1       3.903  -5.951  -4.960  0.00  0.00    -0.245 OA
BRANCH  33  35
ATOM     35  O   LIG d   1       5.709  -7.142  -5.462  0.00  0.00    -0.465 OA
BRANCH  35  36
ATOM     36  C   LIG d   1       4.957  -8.345  -5.300  0.00  0.00     0.082 C 
ATOM     37  H   LIG d   1       4.150  -8.371  -6.033  0.00  0.00     0.066 H 
ATOM     38  H   LIG d   1       5.609  -9.205  -5.448  0.00  0.00     0.066 H 
ATOM     39  H   LIG d   1       4.534  -8.377  -4.295  0.00  0.00     0.066 H 
ENDBRANCH  35  36
ENDBRANCH  33  35
ENDBRANCH  29  33
ENDBRANCH   5  29
BRANCH   1  40
ATOM     40  C   LIG d   1       5.911  -0.213  -5.535  0.00  0.00    -0.055 C 
ATOM     41  H   LIG d   1       5.151  -0.875  -5.951  0.00  0.00     0.024 H 
ATOM     42  H   LIG d   1       5.445   0.720  -5.219  0.00  0.00     0.024 H 
ATOM     43  H   LIG d   1       6.666  -0.005  -6.293  0.00  0.00     0.024 H 
ENDBRANCH   1  40
BRANCH   1  44
ATOM     44  C   LIG d   1       7.099   0.166  -3.392  0.00  0.00    -0.084 C 
ATOM     45  C   LIG d   1       7.408   1.355  -3.849  0.00  0.00    -0.102 C 
ATOM     46  H   LIG d   1       7.283   1.580  -4.897  0.00  0.00     0.053 H 
ATOM     47  H   LIG d   1       7.787   2.110  -3.176  0.00  0.00     0.053 H 
ATOM     48  H   LIG d   1       7.225  -0.059  -2.343  0.00  0.00     0.057 H 
ENDBRANCH   1  44
BRANCH   7  49
ATOM     49  O   LIG d   1       4.386  -2.190  -5.678  0.00  0.00    -0.390 OA
ATOM     50  H   LIG d   1       3.782  -2.765  -6.169  0.00  0.00     0.210 HD
ENDBRANCH   7  49
BRANCH   9  51
ATOM     51  C   LIG d   1       4.402  -0.881  -3.129  0.00  0.00    -0.045 C 
ATOM     52  C   LIG d   1       4.171  -0.741  -1.847  0.00  0.00    -0.097 C 
ATOM     53  H   LIG d   1       3.302  -0.196  -1.510  0.00  0.00     0.053 H 
ATOM     54  H   LIG d   1       4.850  -1.173  -1.126  0.00  0.00     0.053 H 
BRANCH  51  55
ATOM     55  C   LIG d   1       3.529  -0.172  -4.133  0.00  0.00     0.065 C 
ATOM     56  H   LIG d   1       3.473   0.887  -3.881  0.00  0.00     0.060 H 
ATOM     57  H   LIG d   1       3.956  -0.287  -5.129  0.00  0.00     0.060 H 
BRANCH  55  58
ATOM     58  O   LIG d   1       2.217  -0.738  -4.107  0.00  0.00    -0.391 OA
ATOM     59  H   LIG d   1       1.696  -0.486  -3.333  0.00  0.00     0.210 HD
ENDBRANCH  55  58
ENDBRANCH  51  55
ENDBRANCH   9  51
TORSDOF 17
ENDMDL
MODEL 8
REMARK VINA RESULT:      -5.2      1.952      4.936
REMARK  17 active torsions:
REMARK  status: ('A' for Active; 'I' for Inactive)
REMARK    1  A    between atoms: C_1  and  C_2 
REMARK    2  A    between atoms: C_2  and  C_33 
REMARK    3  A    between atoms: C_4  and  O_23 
REMARK    4  A    between atoms: C_6  and  C_17 
REMARK    5  A    between atoms: C_8  and  O_16 
REMARK    6  A    between atoms: C_10  and  C_12 
REMARK    7  A    between atoms: C_12  and  C_14 
REMARK    8  A    between atoms: C_14  and  O_15 
REMARK    9  A    between atoms: C_17  and  C_19 
REMARK   10  A    between atoms: C_19  and  O_21 
REMARK   11  A    between atoms: O_21  and  C_22 
REMARK   12  A    between atoms: O_23  and  C_24 
REMARK   13  A    between atoms: C_24  and  C_26 
REMARK   14  A    between atoms: C_26  and  C_28 
REMARK   15  A    between atoms: C_28  and  C_30 
REMARK   16  A    between atoms: C_28  and  O_32 
REMARK   17  A    between atoms: C_30  and  O_31 
ROOT
ATOM      1  C   LIG d   1       5.683  -3.000  -6.429  0.00  0.00    -0.002 C 
ATOM      2  C   LIG d   1       5.346  -1.721  -5.662  0.00  0.00    -0.005 C 
ATOM      3  C   LIG d   1       4.220  -0.976  -6.381  0.00  0.00     0.114 C 
ATOM      4  H   LIG d   1       3.336  -1.613  -6.432  0.00  0.00     0.074 H 
ATOM      5  C   LIG d   1       4.671  -0.615  -7.798  0.00  0.00     0.054 C 
ATOM      6  H   LIG d   1       5.554   0.022  -7.747  0.00  0.00     0.041 H 
ATOM      7  C   LIG d   1       5.009  -1.894  -8.567  0.00  0.00     0.073 C 
ATOM      8  H   LIG d   1       5.330  -1.638  -9.576  0.00  0.00     0.061 H 
ATOM      9  C   LIG d   1       6.135  -2.640  -7.846  0.00  0.00     0.018 C 
ATOM     10  H   LIG d   1       7.017  -2.003  -7.795  0.00  0.00     0.038 H 
ATOM     11  H   LIG d   1       5.024  -1.976  -4.652  0.00  0.00     0.031 H 
ATOM     12  H   LIG d   1       6.229  -1.084  -5.611  0.00  0.00     0.031 H 
ENDROOT
BRANCH   3  13
ATOM     13  O   LIG d   1       3.905   0.220  -5.663  0.00  0.00    -0.457 OA
BRANCH  13  14
ATOM     14  C   LIG d   1       2.885   0.154  -4.783  0.00  0.00     0.337 C 
ATOM     15  O   LIG d   1       1.738   0.244  -5.174  0.00  0.00    -0.245 OA
BRANCH  14  16
ATOM     16  C   LIG d   1       3.163  -0.028  -3.352  0.00  0.00     0.060 C 
ATOM     17  C   LIG d   1       3.114  -1.245  -2.814  0.00  0.00    -0.086 C 
ATOM     18  H   LIG d   1       3.317  -1.379  -1.762  0.00  0.00     0.054 H 
ATOM     19  H   LIG d   1       2.869  -2.098  -3.429  0.00  0.00     0.054 H 
BRANCH  16  20
ATOM     20  C   LIG d   1       3.503   1.161  -2.493  0.00  0.00     0.109 C 
ATOM     21  H   LIG d   1       2.724   1.305  -1.744  0.00  0.00     0.067 H 
BRANCH  20  22
ATOM     22  C   LIG d   1       4.843   0.919  -1.794  0.00  0.00     0.074 C 
ATOM     23  H   LIG d   1       4.871   1.480  -0.860  0.00  0.00     0.059 H 
ATOM     24  H   LIG d   1       4.956  -0.145  -1.582  0.00  0.00     0.059 H 
BRANCH  22  25
ATOM     25  O   LIG d   1       5.908   1.350  -2.641  0.00  0.00    -0.392 OA
ATOM     26  H   LIG d   1       6.673   0.758  -2.646  0.00  0.00     0.209 HD
ENDBRANCH  22  25
ENDBRANCH  20  22
BRANCH  20  27
ATOM     27  O   LIG d   1       3.599   2.329  -3.312  0.00  0.00    -0.385 OA
ATOM     28  H   LIG d   1       3.677   2.141  -4.257  0.00  0.00     0.210 HD
ENDBRANCH  20  27
ENDBRANCH  16  20
ENDBRANCH  14  16
ENDBRANCH  13  14
ENDBRANCH   3  13
BRANCH   5  29
ATOM     29  C   LIG d   1       3.563   0.119  -8.507  0.00  0.00     0.038 C 
ATOM     30  C   LIG d   1       2.319  -0.356  -8.469  0.00  0.00    -0.088 C 
ATOM     31  H   LIG d   1       1.525   0.170  -8.978  0.00  0.00     0.054 H 
ATOM     32  H   LIG d   1       2.106  -1.268  -7.930  0.00  0.00     0.054 H 
BRANCH  29  33
ATOM     33  C   LIG d   1       3.853   1.359  -9.241  0.00  0.00     0.335 C 
ATOM     34  O   LIG d   1       4.295   2.325  -8.649  0.00  0.00    -0.245 OA
BRANCH  33  35
ATOM     35  O   LIG d   1       3.630   1.424 -10.568  0.00  0.00    -0.465 OA
BRANCH  35  36
ATOM     36  C   LIG d   1       4.294   0.458 -11.385  0.00  0.00     0.082 C 
ATOM     37  H   LIG d   1       3.796  -0.507 -11.283  0.00  0.00     0.066 H 
ATOM     38  H   LIG d   1       4.258   0.776 -12.427  0.00  0.00     0.066 H 
ATOM     39  H   LIG d   1       5.333   0.366 -11.068  0.00  0.00     0.066 H 
ENDBRANCH  35  36
ENDBRANCH  33  35
ENDBRANCH  29  33
ENDBRANCH   5  29
BRANCH   1  40
ATOM     40  C   LIG d   1       4.444  -3.894  -6.501  0.00  0.00    -0.055 C 
ATOM     41  H   LIG d   1       4.721  -4.868  -6.905  0.00  0.00     0.024 H 
ATOM     42  H   LIG d   1       4.029  -4.021  -5.501  0.00  0.00     0.024 H 
ATOM     43  H   LIG d   1       3.699  -3.431  -7.148  0.00  0.00     0.024 H 
ENDBRANCH   1  40
BRANCH   1  44
ATOM     44  C   LIG d   1       6.793  -3.734  -5.721  0.00  0.00    -0.084 C 
ATOM     45  C   LIG d   1       7.152  -3.371  -4.514  0.00  0.00    -0.102 C 
ATOM     46  H   LIG d   1       6.653  -2.547  -4.027  0.00  0.00     0.053 H 
ATOM     47  H   LIG d   1       7.947  -3.897  -4.007  0.00  0.00     0.053 H 
ATOM     48  H   LIG d   1       7.292  -4.558  -6.208  0.00  0.00     0.057 H 
ENDBRANCH   1  44
BRANCH   7  49
ATOM     49  O   LIG d   1       3.852  -2.730  -8.633  0.00  0.00    -0.390 OA
ATOM     50  H   LIG d   1       3.046  -2.266  -8.902  0.00  0.00     0.210 HD
ENDBRANCH   7  49
BRANCH   9  51
ATOM     51  C   LIG d   1       6.467  -3.899  -8.603  0.00  0.00    -0.045 C 
ATOM     52  C   LIG d   1       6.464  -5.055  -7.986  0.00  0.00    -0.097 C 
ATOM     53  H   LIG d   1       6.792  -5.945  -8.504  0.00  0.00     0.053 H 
ATOM     54  H   LIG d   1       6.135  -5.118  -6.960  0.00  0.00     0.053 H 
BRANCH  51  55
ATOM     55  C   LIG d   1       6.803  -3.830 -10.071  0.00  0.00     0.065 C 
ATOM     56  H   LIG d   1       5.989  -3.343 -10.608  0.00  0.00     0.060 H 
ATOM     57  H   LIG d   1       7.721  -3.259 -10.207  0.00  0.00     0.060 H 
BRANCH  55  58
ATOM     58  O   LIG d   1       6.984  -5.153 -10.582  0.00  0.00    -0.391 OA
ATOM     59  H   LIG d   1       6.176  -5.554 -10.928  0.00  0.00     0.210 HD
ENDBRANCH  55  58
ENDBRANCH  51  55
ENDBRANCH   9  51
TORSDOF 17
ENDMDL
MODEL 9
REMARK VINA RESULT:      -5.2      9.827     13.459
REMARK  17 active torsions:
REMARK  status: ('A' for Active; 'I' for Inactive)
REMARK    1  A    between atoms: C_1  and  C_2 
REMARK    2  A    between atoms: C_2  and  C_33 
REMARK    3  A    between atoms: C_4  and  O_23 
REMARK    4  A    between atoms: C_6  and  C_17 
REMARK    5  A    between atoms: C_8  and  O_16 
REMARK    6  A    between atoms: C_10  and  C_12 
REMARK    7  A    between atoms: C_12  and  C_14 
REMARK    8  A    between atoms: C_14  and  O_15 
REMARK    9  A    between atoms: C_17  and  C_19 
REMARK   10  A    between atoms: C_19  and  O_21 
REMARK   11  A    between atoms: O_21  and  C_22 
REMARK   12  A    between atoms: O_23  and  C_24 
REMARK   13  A    between atoms: C_24  and  C_26 
REMARK   14  A    between atoms: C_26  and  C_28 
REMARK   15  A    between atoms: C_28  and  C_30 
REMARK   16  A    between atoms: C_28  and  O_32 
REMARK   17  A    between atoms: C_30  and  O_31 
ROOT
ATOM      1  C   LIG d   1      11.147   9.877  -4.362  0.00  0.00    -0.002 C 
ATOM      2  C   LIG d   1      12.102   8.698  -4.170  0.00  0.00    -0.005 C 
ATOM      3  C   LIG d   1      11.547   7.761  -3.096  0.00  0.00     0.114 C 
ATOM      4  H   LIG d   1      10.569   7.390  -3.406  0.00  0.00     0.074 H 
ATOM      5  C   LIG d   1      11.408   8.523  -1.777  0.00  0.00     0.054 C 
ATOM      6  H   LIG d   1      12.386   8.893  -1.467  0.00  0.00     0.041 H 
ATOM      7  C   LIG d   1      10.453   9.703  -1.967  0.00  0.00     0.073 C 
ATOM      8  H   LIG d   1      10.354  10.246  -1.027  0.00  0.00     0.061 H 
ATOM      9  C   LIG d   1      11.009  10.640  -3.042  0.00  0.00     0.018 C 
ATOM     10  H   LIG d   1      11.985  11.010  -2.732  0.00  0.00     0.038 H 
ATOM     11  H   LIG d   1      12.201   8.154  -5.110  0.00  0.00     0.031 H 
ATOM     12  H   LIG d   1      13.079   9.068  -3.860  0.00  0.00     0.031 H 
ENDROOT
BRANCH   3  13
ATOM     13  O   LIG d   1      12.439   6.658  -2.918  0.00  0.00    -0.457 OA
BRANCH  13  14
ATOM     14  C   LIG d   1      12.180   5.541  -3.626  0.00  0.00     0.337 C 
ATOM     15  O   LIG d   1      13.055   5.032  -4.299  0.00  0.00    -0.245 OA
BRANCH  14  16
ATOM     16  C   LIG d   1      10.841   4.940  -3.585  0.00  0.00     0.060 C 
ATOM     17  C   LIG d   1       9.937   5.264  -4.506  0.00  0.00    -0.086 C 
ATOM     18  H   LIG d   1       8.952   4.823  -4.476  0.00  0.00     0.054 H 
ATOM     19  H   LIG d   1      10.188   5.970  -5.285  0.00  0.00     0.054 H 
BRANCH  16  20
ATOM     20  C   LIG d   1      10.489   3.956  -2.500  0.00  0.00     0.109 C 
ATOM     21  H   LIG d   1       9.451   4.102  -2.198  0.00  0.00     0.067 H 
BRANCH  20  22
ATOM     22  C   LIG d   1      10.672   2.530  -3.024  0.00  0.00     0.074 C 
ATOM     23  H   LIG d   1      10.157   1.833  -2.364  0.00  0.00     0.059 H 
ATOM     24  H   LIG d   1      10.255   2.456  -4.029  0.00  0.00     0.059 H 
BRANCH  22  25
ATOM     25  O   LIG d   1      12.063   2.211  -3.062  0.00  0.00    -0.392 OA
ATOM     26  H   LIG d   1      12.603   2.858  -3.537  0.00  0.00     0.209 HD
ENDBRANCH  22  25
ENDBRANCH  20  22
BRANCH  20  27
ATOM     27  O   LIG d   1      11.345   4.162  -1.374  0.00  0.00    -0.385 OA
ATOM     28  H   LIG d   1      12.273   3.945  -1.540  0.00  0.00     0.210 HD
ENDBRANCH  20  27
ENDBRANCH  16  20
ENDBRANCH  14  16
ENDBRANCH  13  14
ENDBRANCH   3  13
BRANCH   5  29
ATOM     29  C   LIG d   1      10.862   7.600  -0.718  0.00  0.00     0.038 C 
ATOM     30  C   LIG d   1       9.626   7.117  -0.831  0.00  0.00    -0.088 C 
ATOM     31  H   LIG d   1       9.234   6.456  -0.071  0.00  0.00     0.054 H 
ATOM     32  H   LIG d   1       9.016   7.387  -1.680  0.00  0.00     0.054 H 
BRANCH  29  33
ATOM     33  C   LIG d   1      11.692   7.234   0.438  0.00  0.00     0.335 C 
ATOM     34  O   LIG d   1      12.587   6.422   0.310  0.00  0.00    -0.245 OA
BRANCH  33  35
ATOM     35  O   LIG d   1      11.459   7.798   1.640  0.00  0.00    -0.465 OA
BRANCH  35  36
ATOM     36  C   LIG d   1      11.846   9.164   1.800  0.00  0.00     0.082 C 
ATOM     37  H   LIG d   1      12.810   9.328   1.316  0.00  0.00     0.066 H 
ATOM     38  H   LIG d   1      11.097   9.810   1.345  0.00  0.00     0.066 H 
ATOM     39  H   LIG d   1      11.930   9.396   2.862  0.00  0.00     0.066 H 
ENDBRANCH  35  36
ENDBRANCH  33  35
ENDBRANCH  29  33
ENDBRANCH   5  29
BRANCH   1  40
ATOM     40  C   LIG d   1       9.775   9.358  -4.797  0.00  0.00    -0.055 C 
ATOM     41  H   LIG d   1       9.782   9.167  -5.870  0.00  0.00     0.024 H 
ATOM     42  H   LIG d   1       9.551   8.434  -4.265  0.00  0.00     0.024 H 
ATOM     43  H   LIG d   1       9.015  10.105  -4.566  0.00  0.00     0.024 H 
ENDBRANCH   1  40
BRANCH   1  44
ATOM     44  C   LIG d   1      11.694  10.801  -5.419  0.00  0.00    -0.084 C 
ATOM     45  C   LIG d   1      11.293  10.683  -6.662  0.00  0.00    -0.102 C 
ATOM     46  H   LIG d   1      10.572   9.926  -6.927  0.00  0.00     0.053 H 
ATOM     47  H   LIG d   1      11.685  11.345  -7.420  0.00  0.00     0.053 H 
ATOM     48  H   LIG d   1      12.416  11.559  -5.154  0.00  0.00     0.057 H 
ENDBRANCH   1  44
BRANCH   7  49
ATOM     49  O   LIG d   1       9.172   9.218  -2.374  0.00  0.00    -0.390 OA
ATOM     50  H   LIG d   1       9.193   8.677  -3.177  0.00  0.00     0.210 HD
ENDBRANCH   7  49
BRANCH   9  51
ATOM     51  C   LIG d   1      10.067  11.802  -3.230  0.00  0.00    -0.045 C 
ATOM     52  C   LIG d   1      10.377  12.981  -2.749  0.00  0.00    -0.097 C 
ATOM     53  H   LIG d   1       9.664  13.790  -2.801  0.00  0.00     0.053 H 
ATOM     54  H   LIG d   1      11.345  13.143  -2.299  0.00  0.00     0.053 H 
BRANCH  51  55
ATOM     55  C   LIG d   1       8.769  11.608  -3.971  0.00  0.00     0.065 C 
ATOM     56  H   LIG d   1       8.643  12.410  -4.698  0.00  0.00     0.060 H 
ATOM     57  H   LIG d   1       8.786  10.649  -4.487  0.00  0.00     0.060 H 
BRANCH  55  58
ATOM     58  O   LIG d   1       7.683  11.632  -3.043  0.00  0.00    -0.391 OA
ATOM     59  H   LIG d   1       7.118  12.412  -3.120  0.00  0.00     0.210 HD
ENDBRANCH  55  58
ENDBRANCH  51  55
ENDBRANCH   9  51
TORSDOF 17
ENDMDL
MODEL 10
REMARK VINA RESULT:      -5.2      2.502      5.828
REMARK  17 active torsions:
REMARK  status: ('A' for Active; 'I' for Inactive)
REMARK    1  A    between atoms: C_1  and  C_2 
REMARK    2  A    between atoms: C_2  and  C_33 
REMARK    3  A    between atoms: C_4  and  O_23 
REMARK    4  A    between atoms: C_6  and  C_17 
REMARK    5  A    between atoms: C_8  and  O_16 
REMARK    6  A    between atoms: C_10  and  C_12 
REMARK    7  A    between atoms: C_12  and  C_14 
REMARK    8  A    between atoms: C_14  and  O_15 
REMARK    9  A    between atoms: C_17  and  C_19 
REMARK   10  A    between atoms: C_19  and  O_21 
REMARK   11  A    between atoms: O_21  and  C_22 
REMARK   12  A    between atoms: O_23  and  C_24 
REMARK   13  A    between atoms: C_24  and  C_26 
REMARK   14  A    between atoms: C_26  and  C_28 
REMARK   15  A    between atoms: C_28  and  C_30 
REMARK   16  A    between atoms: C_28  and  O_32 
REMARK   17  A    between atoms: C_30  and  O_31 
ROOT
ATOM      1  C   LIG d   1       6.152  -0.707  -4.270  0.00  0.00    -0.002 C 
ATOM      2  C   LIG d   1       7.318  -1.397  -4.980  0.00  0.00    -0.005 C 
ATOM      3  C   LIG d   1       6.795  -2.603  -5.764  0.00  0.00     0.114 C 
ATOM      4  H   LIG d   1       6.066  -2.268  -6.503  0.00  0.00     0.074 H 
ATOM      5  C   LIG d   1       6.130  -3.588  -4.801  0.00  0.00     0.054 C 
ATOM      6  H   LIG d   1       6.859  -3.922  -4.063  0.00  0.00     0.041 H 
ATOM      7  C   LIG d   1       4.964  -2.898  -4.090  0.00  0.00     0.073 C 
ATOM      8  H   LIG d   1       4.490  -3.600  -3.404  0.00  0.00     0.061 H 
ATOM      9  C   LIG d   1       5.487  -1.692  -3.306  0.00  0.00     0.018 C 
ATOM     10  H   LIG d   1       6.215  -2.026  -2.568  0.00  0.00     0.038 H 
ATOM     11  H   LIG d   1       7.792  -0.696  -5.666  0.00  0.00     0.031 H 
ATOM     12  H   LIG d   1       8.046  -1.731  -4.242  0.00  0.00     0.031 H 
ENDROOT
BRANCH   3  13
ATOM     13  O   LIG d   1       7.885  -3.248  -6.428  0.00  0.00    -0.457 OA
BRANCH  13  14
ATOM     14  C   LIG d   1       8.331  -2.678  -7.565  0.00  0.00     0.337 C 
ATOM     15  O   LIG d   1       9.427  -2.153  -7.592  0.00  0.00    -0.245 OA
BRANCH  14  16
ATOM     16  C   LIG d   1       7.493  -2.693  -8.771  0.00  0.00     0.060 C 
ATOM     17  C   LIG d   1       7.182  -3.850  -9.351  0.00  0.00    -0.086 C 
ATOM     18  H   LIG d   1       6.566  -3.862 -10.238  0.00  0.00     0.054 H 
ATOM     19  H   LIG d   1       7.546  -4.778  -8.935  0.00  0.00     0.054 H 
BRANCH  16  20
ATOM     20  C   LIG d   1       6.985  -1.400  -9.353  0.00  0.00     0.109 C 
ATOM     21  H   LIG d   1       7.586  -1.130 -10.221  0.00  0.00     0.067 H 
BRANCH  20  22
ATOM     22  C   LIG d   1       5.524  -1.570  -9.777  0.00  0.00     0.074 C 
ATOM     23  H   LIG d   1       5.342  -0.998 -10.687  0.00  0.00     0.059 H 
ATOM     24  H   LIG d   1       5.320  -2.625  -9.964  0.00  0.00     0.059 H 
BRANCH  22  25
ATOM     25  O   LIG d   1       4.667  -1.098  -8.738  0.00  0.00    -0.392 OA
ATOM     26  H   LIG d   1       5.125  -0.605  -8.043  0.00  0.00     0.209 HD
ENDBRANCH  22  25
ENDBRANCH  20  22
BRANCH  20  27
ATOM     27  O   LIG d   1       7.077  -0.367  -8.369  0.00  0.00    -0.385 OA
ATOM     28  H   LIG d   1       6.881  -0.662  -7.469  0.00  0.00     0.210 HD
ENDBRANCH  20  27
ENDBRANCH  16  20
ENDBRANCH  14  16
ENDBRANCH  13  14
ENDBRANCH   3  13
BRANCH   5  29
ATOM     29  C   LIG d   1       5.616  -4.776  -5.572  0.00  0.00     0.038 C 
ATOM     30  C   LIG d   1       6.302  -5.917  -5.571  0.00  0.00    -0.088 C 
ATOM     31  H   LIG d   1       5.933  -6.769  -6.124  0.00  0.00     0.054 H 
ATOM     32  H   LIG d   1       7.226  -5.991  -5.017  0.00  0.00     0.054 H 
BRANCH  29  33
ATOM     33  C   LIG d   1       4.358  -4.675  -6.326  0.00  0.00     0.335 C 
ATOM     34  O   LIG d   1       3.370  -5.268  -5.940  0.00  0.00    -0.245 OA
BRANCH  33  35
ATOM     35  O   LIG d   1       4.301  -3.925  -7.444  0.00  0.00    -0.465 OA
BRANCH  35  36
ATOM     36  C   LIG d   1       3.569  -4.461  -8.547  0.00  0.00     0.082 C 
ATOM     37  H   LIG d   1       4.088  -5.338  -8.936  0.00  0.00     0.066 H 
ATOM     38  H   LIG d   1       2.571  -4.747  -8.217  0.00  0.00     0.066 H 
ATOM     39  H   LIG d   1       3.490  -3.709  -9.332  0.00  0.00     0.066 H 
ENDBRANCH  35  36
ENDBRANCH  33  35
ENDBRANCH  29  33
ENDBRANCH   5  29
BRANCH   1  40
ATOM     40  C   LIG d   1       5.129  -0.237  -5.306  0.00  0.00    -0.055 C 
ATOM     41  H   LIG d   1       5.005  -1.005  -6.069  0.00  0.00     0.024 H 
ATOM     42  H   LIG d   1       4.172  -0.056  -4.816  0.00  0.00     0.024 H 
ATOM     43  H   LIG d   1       5.480   0.684  -5.771  0.00  0.00     0.024 H 
ENDBRANCH   1  40
BRANCH   1  44
ATOM     44  C   LIG d   1       6.666   0.480  -3.497  0.00  0.00    -0.084 C 
ATOM     45  C   LIG d   1       7.688   1.165  -3.951  0.00  0.00    -0.102 C 
ATOM     46  H   LIG d   1       8.160   0.878  -4.877  0.00  0.00     0.053 H 
ATOM     47  H   LIG d   1       8.056   2.015  -3.397  0.00  0.00     0.053 H 
ATOM     48  H   LIG d   1       6.193   0.767  -2.570  0.00  0.00     0.057 H 
ENDBRANCH   1  44
BRANCH   7  49
ATOM     49  O   LIG d   1       4.009  -2.459  -5.057  0.00  0.00    -0.390 OA
ATOM     50  H   LIG d   1       4.166  -2.802  -5.949  0.00  0.00     0.210 HD
ENDBRANCH   7  49
BRANCH   9  51
ATOM     51  C   LIG d   1       4.338  -1.013  -2.606  0.00  0.00    -0.045 C 
ATOM     52  C   LIG d   1       4.563   0.006  -1.814  0.00  0.00    -0.097 C 
ATOM     53  H   LIG d   1       3.754   0.434  -1.241  0.00  0.00     0.053 H 
ATOM     54  H   LIG d   1       5.558   0.418  -1.733  0.00  0.00     0.053 H 
BRANCH  51  55
ATOM     55  C   LIG d   1       2.929  -1.505  -2.818  0.00  0.00     0.065 C 
ATOM     56  H   LIG d   1       2.955  -2.517  -3.223  0.00  0.00     0.060 H 
ATOM     57  H   LIG d   1       2.399  -1.508  -1.866  0.00  0.00     0.060 H 
BRANCH  55  58
ATOM     58  O   LIG d   1       2.256  -0.642  -3.737  0.00  0.00    -0.391 OA
ATOM     59  H   LIG d   1       2.776  -0.420  -4.520  0.00  0.00     0.210 HD
ENDBRANCH  55  58
ENDBRANCH  51  55
ENDBRANCH   9  51
TORSDOF 17
ENDMDL
