MODEL 1
REMARK VINA RESULT:      -8.1      0.000      0.000
REMARK  3 active torsions:
REMARK  status: ('A' for Active; 'I' for Inactive)
REMARK    1  A    between atoms: C_3  and  C_11 
REMARK    2  A    between atoms: C_5  and  C_7 
REMARK       I    between atoms: N_25  and  C_27 
REMARK    3  A    between atoms: C_27  and  C_29 
ROOT
ATOM      1  C   LIG d   1       7.739   2.168  -8.546  0.00  0.00     0.037 A 
ATOM      2  C   LIG d   1       7.950   1.723  -7.239  0.00  0.00    -0.048 A 
ATOM      3  C   LIG d   1       8.914   2.319  -6.456  0.00  0.00    -0.044 A 
ATOM      4  C   LIG d   1       9.671   3.377  -6.965  0.00  0.00     0.052 A 
ATOM      5  C   LIG d   1       9.456   3.825  -8.270  0.00  0.00    -0.044 A 
ATOM      6  C   LIG d   1       8.496   3.225  -9.055  0.00  0.00    -0.048 A 
ATOM      7  C   LIG d   1      10.668   4.002  -6.149  0.00  0.00     0.099 C 
ATOM      8  N   LIG d   1      11.459   4.497  -5.501  0.00  0.00    -0.191 NA
ATOM      9  H   LIG d   1       7.362   0.909  -6.844  0.00  0.00     0.062 H 
ATOM     10  H   LIG d   1       9.081   1.973  -5.448  0.00  0.00     0.063 H 
ATOM     11  H   LIG d   1      10.040   4.644  -8.664  0.00  0.00     0.063 H 
ATOM     12  H   LIG d   1       8.329   3.572 -10.064  0.00  0.00     0.062 H 
ENDROOT
BRANCH   1  13
ATOM     13  C   LIG d   1       6.708   1.523  -9.389  0.00  0.00     0.247 C 
ATOM     14  N   LIG d   1       7.019   0.430 -10.113  0.00  0.00    -0.297 N 
ATOM     15  C   LIG d   1       5.986  -0.274 -10.892  0.00  0.00     0.023 C 
ATOM     16  C   LIG d   1       8.392  -0.087 -10.141  0.00  0.00     0.019 C 
ATOM     17  C   LIG d   1       5.998  -1.746 -10.446  0.00  0.00     0.016 C 
ATOM     18  H   LIG d   1       6.216  -0.207 -11.956  0.00  0.00     0.047 H 
ATOM     19  H   LIG d   1       5.009   0.165 -10.696  0.00  0.00     0.047 H 
ATOM     20  C   LIG d   1       5.716  -1.778  -8.962  0.00  0.00     0.027 A 
ATOM     21  C   LIG d   1       7.390  -2.321 -10.720  0.00  0.00    -0.037 C 
ATOM     22  H   LIG d   1       5.244  -2.310 -10.995  0.00  0.00     0.038 H 
ATOM     23  C   LIG d   1       4.410  -1.825  -8.579  0.00  0.00    -0.041 A 
ATOM     24  N   LIG d   1       6.706  -1.733  -8.039  0.00  0.00    -0.311 N 
ATOM     25  C   LIG d   1       4.057  -1.742  -7.231  0.00  0.00    -0.047 A 
ATOM     26  H   LIG d   1       3.638  -1.923  -9.328  0.00  0.00     0.064 H 
ATOM     27  C   LIG d   1       5.063  -1.611  -6.287  0.00  0.00     0.047 A 
ATOM     28  H   LIG d   1       3.020  -1.784  -6.930  0.00  0.00     0.063 H 
ATOM     29  C   LIG d   1       6.405  -1.590  -6.726  0.00  0.00     0.259 A 
ATOM     30  O   LIG d   1       7.303  -1.441  -5.913  0.00  0.00    -0.267 OA
ATOM     31  C   LIG d   1       8.123  -1.870  -8.380  0.00  0.00     0.031 C 
ATOM     32  C   LIG d   1       8.399  -1.580  -9.843  0.00  0.00    -0.006 C 
ATOM     33  H   LIG d   1       8.702  -1.178  -7.768  0.00  0.00     0.050 H 
ATOM     34  H   LIG d   1       8.443  -2.887  -8.156  0.00  0.00     0.050 H 
ATOM     35  H   LIG d   1       9.394  -1.957 -10.081  0.00  0.00     0.033 H 
ATOM     36  H   LIG d   1       7.644  -2.182 -11.771  0.00  0.00     0.028 H 
ATOM     37  H   LIG d   1       7.403  -3.384 -10.477  0.00  0.00     0.028 H 
ATOM     38  H   LIG d   1       8.989   0.434  -9.393  0.00  0.00     0.047 H 
ATOM     39  H   LIG d   1       8.822   0.086 -11.129  0.00  0.00     0.047 H 
ATOM     40  O   LIG d   1       5.583   1.979  -9.429  0.00  0.00    -0.270 OA
BRANCH  27  41
ATOM     41  C   LIG d   1       4.737  -1.497  -4.847  0.00  0.00    -0.012 A 
ATOM     42  C   LIG d   1       4.436  -2.638  -4.104  0.00  0.00    -0.054 A 
ATOM     43  C   LIG d   1       4.134  -2.525  -2.762  0.00  0.00    -0.061 A 
ATOM     44  H   LIG d   1       4.441  -3.609  -4.577  0.00  0.00     0.062 H 
ATOM     45  C   LIG d   1       4.128  -1.283  -2.154  0.00  0.00    -0.050 A 
ATOM     46  H   LIG d   1       3.901  -3.409  -2.186  0.00  0.00     0.062 H 
ATOM     47  C   LIG d   1       4.425  -0.147  -2.885  0.00  0.00     0.055 A 
ATOM     48  H   LIG d   1       3.890  -1.200  -1.104  0.00  0.00     0.062 H 
ATOM     49  C   LIG d   1       4.734  -0.248  -4.226  0.00  0.00    -0.042 A 
ATOM     50  H   LIG d   1       4.971   0.639  -4.796  0.00  0.00     0.063 H 
BRANCH  47  51
ATOM     51  C   LIG d   1       4.417   1.203  -2.215  0.00  0.00     0.417 C 
ATOM     52  F   LIG d   1       4.778   1.058  -0.871  0.00  0.00    -0.166 F 
ATOM     53  F   LIG d   1       5.331   2.047  -2.855  0.00  0.00    -0.166 F 
ATOM     54  F   LIG d   1       3.135   1.757  -2.296  0.00  0.00    -0.166 F 
ENDBRANCH  47  51
ENDBRANCH  27  41
ENDBRANCH   1  13
TORSDOF 3
ENDMDL
MODEL 2
REMARK VINA RESULT:      -8.0      3.759      6.200
REMARK  3 active torsions:
REMARK  status: ('A' for Active; 'I' for Inactive)
REMARK    1  A    between atoms: C_3  and  C_11 
REMARK    2  A    between atoms: C_5  and  C_7 
REMARK       I    between atoms: N_25  and  C_27 
REMARK    3  A    between atoms: C_27  and  C_29 
ROOT
ATOM      1  C   LIG d   1      10.169   6.070  -3.175  0.00  0.00     0.037 A 
ATOM      2  C   LIG d   1      10.483   4.864  -2.545  0.00  0.00    -0.048 A 
ATOM      3  C   LIG d   1      10.738   4.841  -1.191  0.00  0.00    -0.044 A 
ATOM      4  C   LIG d   1      10.671   6.022  -0.448  0.00  0.00     0.052 A 
ATOM      5  C   LIG d   1      10.352   7.227  -1.078  0.00  0.00    -0.044 A 
ATOM      6  C   LIG d   1      10.102   7.250  -2.433  0.00  0.00    -0.048 A 
ATOM      7  C   LIG d   1      10.929   5.997   0.960  0.00  0.00     0.099 C 
ATOM      8  N   LIG d   1      11.134   5.978   2.077  0.00  0.00    -0.191 NA
ATOM      9  H   LIG d   1      10.530   3.951  -3.118  0.00  0.00     0.062 H 
ATOM     10  H   LIG d   1      10.985   3.910  -0.704  0.00  0.00     0.063 H 
ATOM     11  H   LIG d   1      10.298   8.140  -0.504  0.00  0.00     0.063 H 
ATOM     12  H   LIG d   1       9.855   8.182  -2.921  0.00  0.00     0.062 H 
ENDROOT
BRANCH   1  13
ATOM     13  C   LIG d   1       9.901   6.095  -4.630  0.00  0.00     0.247 C 
ATOM     14  N   LIG d   1      10.878   5.772  -5.500  0.00  0.00    -0.297 N 
ATOM     15  C   LIG d   1      10.607   5.711  -6.946  0.00  0.00     0.023 C 
ATOM     16  C   LIG d   1      12.234   5.471  -5.028  0.00  0.00     0.019 C 
ATOM     17  C   LIG d   1      11.031   4.315  -7.434  0.00  0.00     0.016 C 
ATOM     18  H   LIG d   1      11.186   6.476  -7.464  0.00  0.00     0.047 H 
ATOM     19  H   LIG d   1       9.544   5.861  -7.132  0.00  0.00     0.047 H 
ATOM     20  C   LIG d   1      10.231   3.295  -6.658  0.00  0.00     0.027 A 
ATOM     21  C   LIG d   1      12.522   4.134  -7.140  0.00  0.00    -0.037 C 
ATOM     22  H   LIG d   1      10.846   4.219  -8.504  0.00  0.00     0.038 H 
ATOM     23  C   LIG d   1       9.017   2.942  -7.166  0.00  0.00    -0.041 A 
ATOM     24  N   LIG d   1      10.674   2.766  -5.493  0.00  0.00    -0.311 N 
ATOM     25  C   LIG d   1       8.165   2.094  -6.456  0.00  0.00    -0.047 A 
ATOM     26  H   LIG d   1       8.709   3.327  -8.126  0.00  0.00     0.064 H 
ATOM     27  C   LIG d   1       8.578   1.617  -5.222  0.00  0.00     0.047 A 
ATOM     28  H   LIG d   1       7.204   1.813  -6.862  0.00  0.00     0.063 H 
ATOM     29  C   LIG d   1       9.854   1.989  -4.744  0.00  0.00     0.259 A 
ATOM     30  O   LIG d   1      10.222   1.606  -3.646  0.00  0.00    -0.267 OA
ATOM     31  C   LIG d   1      12.037   2.958  -4.995  0.00  0.00     0.031 C 
ATOM     32  C   LIG d   1      12.721   4.158  -5.624  0.00  0.00    -0.006 C 
ATOM     33  H   LIG d   1      12.001   3.099  -3.915  0.00  0.00     0.050 H 
ATOM     34  H   LIG d   1      12.621   2.065  -5.213  0.00  0.00     0.050 H 
ATOM     35  H   LIG d   1      13.789   4.081  -5.422  0.00  0.00     0.033 H 
ATOM     36  H   LIG d   1      13.088   4.946  -7.597  0.00  0.00     0.028 H 
ATOM     37  H   LIG d   1      12.863   3.179  -7.540  0.00  0.00     0.028 H 
ATOM     38  H   LIG d   1      12.229   5.394  -3.941  0.00  0.00     0.047 H 
ATOM     39  H   LIG d   1      12.907   6.275  -5.328  0.00  0.00     0.047 H 
ATOM     40  O   LIG d   1       8.800   6.407  -5.040  0.00  0.00    -0.270 OA
BRANCH  27  41
ATOM     41  C   LIG d   1       7.700   0.733  -4.422  0.00  0.00    -0.012 A 
ATOM     42  C   LIG d   1       7.970  -0.633  -4.337  0.00  0.00    -0.054 A 
ATOM     43  C   LIG d   1       7.148  -1.451  -3.589  0.00  0.00    -0.061 A 
ATOM     44  H   LIG d   1       8.821  -1.049  -4.855  0.00  0.00     0.062 H 
ATOM     45  C   LIG d   1       6.058  -0.919  -2.924  0.00  0.00    -0.050 A 
ATOM     46  H   LIG d   1       7.357  -2.509  -3.522  0.00  0.00     0.062 H 
ATOM     47  C   LIG d   1       5.785   0.434  -3.004  0.00  0.00     0.055 A 
ATOM     48  H   LIG d   1       5.418  -1.564  -2.340  0.00  0.00     0.062 H 
ATOM     49  C   LIG d   1       6.602   1.263  -3.745  0.00  0.00    -0.042 A 
ATOM     50  H   LIG d   1       6.391   2.321  -3.803  0.00  0.00     0.063 H 
BRANCH  47  51
ATOM     51  C   LIG d   1       4.595   1.006  -2.276  0.00  0.00     0.417 C 
ATOM     52  F   LIG d   1       4.947   1.277  -0.949  0.00  0.00    -0.166 F 
ATOM     53  F   LIG d   1       4.189   2.189  -2.902  0.00  0.00    -0.166 F 
ATOM     54  F   LIG d   1       3.545   0.082  -2.300  0.00  0.00    -0.166 F 
ENDBRANCH  47  51
ENDBRANCH  27  41
ENDBRANCH   1  13
TORSDOF 3
ENDMDL
MODEL 3
REMARK VINA RESULT:      -7.7      4.437      7.737
REMARK  3 active torsions:
REMARK  status: ('A' for Active; 'I' for Inactive)
REMARK    1  A    between atoms: C_3  and  C_11 
REMARK    2  A    between atoms: C_5  and  C_7 
REMARK       I    between atoms: N_25  and  C_27 
REMARK    3  A    between atoms: C_27  and  C_29 
ROOT
ATOM      1  C   LIG d   1       7.738  -7.354  -4.651  0.00  0.00     0.037 A 
ATOM      2  C   LIG d   1       6.537  -6.955  -5.242  0.00  0.00    -0.048 A 
ATOM      3  C   LIG d   1       5.477  -7.832  -5.306  0.00  0.00    -0.044 A 
ATOM      4  C   LIG d   1       5.599  -9.116  -4.768  0.00  0.00     0.052 A 
ATOM      5  C   LIG d   1       6.799  -9.512  -4.172  0.00  0.00    -0.044 A 
ATOM      6  C   LIG d   1       7.861  -8.636  -4.114  0.00  0.00    -0.048 A 
ATOM      7  C   LIG d   1       4.495 -10.025  -4.828  0.00  0.00     0.099 C 
ATOM      8  N   LIG d   1       3.619 -10.747  -4.875  0.00  0.00    -0.191 NA
ATOM      9  H   LIG d   1       6.441  -5.962  -5.654  0.00  0.00     0.062 H 
ATOM     10  H   LIG d   1       4.551  -7.527  -5.767  0.00  0.00     0.063 H 
ATOM     11  H   LIG d   1       6.893 -10.504  -3.754  0.00  0.00     0.063 H 
ATOM     12  H   LIG d   1       8.788  -8.942  -3.652  0.00  0.00     0.062 H 
ENDROOT
BRANCH   1  13
ATOM     13  C   LIG d   1       8.879  -6.414  -4.588  0.00  0.00     0.247 C 
ATOM     14  N   LIG d   1       9.464  -5.988  -5.725  0.00  0.00    -0.297 N 
ATOM     15  C   LIG d   1      10.545  -4.990  -5.686  0.00  0.00     0.023 C 
ATOM     16  C   LIG d   1       9.037  -6.509  -7.029  0.00  0.00     0.019 C 
ATOM     17  C   LIG d   1      10.127  -3.825  -6.601  0.00  0.00     0.016 C 
ATOM     18  H   LIG d   1      11.472  -5.433  -6.051  0.00  0.00     0.047 H 
ATOM     19  H   LIG d   1      10.683  -4.630  -4.667  0.00  0.00     0.047 H 
ATOM     20  C   LIG d   1       8.821  -3.275  -6.076  0.00  0.00     0.027 A 
ATOM     21  C   LIG d   1       9.926  -4.372  -8.016  0.00  0.00    -0.037 C 
ATOM     22  H   LIG d   1      10.898  -3.055  -6.602  0.00  0.00     0.038 H 
ATOM     23  C   LIG d   1       8.895  -2.306  -5.121  0.00  0.00    -0.041 A 
ATOM     24  N   LIG d   1       7.622  -3.735  -6.504  0.00  0.00    -0.311 N 
ATOM     25  C   LIG d   1       7.741  -1.826  -4.501  0.00  0.00    -0.047 A 
ATOM     26  H   LIG d   1       9.858  -1.909  -4.838  0.00  0.00     0.064 H 
ATOM     27  C   LIG d   1       6.515  -2.353  -4.876  0.00  0.00     0.047 A 
ATOM     28  H   LIG d   1       7.801  -1.054  -3.747  0.00  0.00     0.063 H 
ATOM     29  C   LIG d   1       6.482  -3.340  -5.887  0.00  0.00     0.259 A 
ATOM     30  O   LIG d   1       5.417  -3.841  -6.207  0.00  0.00    -0.267 OA
ATOM     31  C   LIG d   1       7.473  -4.632  -7.651  0.00  0.00     0.031 C 
ATOM     32  C   LIG d   1       8.761  -5.361  -7.990  0.00  0.00    -0.006 C 
ATOM     33  H   LIG d   1       6.700  -5.367  -7.427  0.00  0.00     0.050 H 
ATOM     34  H   LIG d   1       7.161  -4.048  -8.517  0.00  0.00     0.050 H 
ATOM     35  H   LIG d   1       8.655  -5.786  -8.988  0.00  0.00     0.033 H 
ATOM     36  H   LIG d   1      10.832  -4.882  -8.345  0.00  0.00     0.028 H 
ATOM     37  H   LIG d   1       9.698  -3.552  -8.698  0.00  0.00     0.028 H 
ATOM     38  H   LIG d   1       8.130  -7.100  -6.902  0.00  0.00     0.047 H 
ATOM     39  H   LIG d   1       9.824  -7.142  -7.440  0.00  0.00     0.047 H 
ATOM     40  O   LIG d   1       9.288  -6.025  -3.512  0.00  0.00    -0.270 OA
BRANCH  27  41
ATOM     41  C   LIG d   1       5.265  -1.892  -4.231  0.00  0.00    -0.012 A 
ATOM     42  C   LIG d   1       4.895  -2.390  -2.983  0.00  0.00    -0.054 A 
ATOM     43  C   LIG d   1       3.729  -1.955  -2.386  0.00  0.00    -0.061 A 
ATOM     44  H   LIG d   1       5.520  -3.115  -2.483  0.00  0.00     0.062 H 
ATOM     45  C   LIG d   1       2.927  -1.027  -3.024  0.00  0.00    -0.050 A 
ATOM     46  H   LIG d   1       3.442  -2.342  -1.419  0.00  0.00     0.062 H 
ATOM     47  C   LIG d   1       3.288  -0.528  -4.263  0.00  0.00     0.055 A 
ATOM     48  H   LIG d   1       2.015  -0.690  -2.554  0.00  0.00     0.062 H 
ATOM     49  C   LIG d   1       4.454  -0.951  -4.867  0.00  0.00    -0.042 A 
ATOM     50  H   LIG d   1       4.737  -0.558  -5.832  0.00  0.00     0.063 H 
BRANCH  47  51
ATOM     51  C   LIG d   1       2.409   0.485  -4.951  0.00  0.00     0.417 C 
ATOM     52  F   LIG d   1       2.734   0.537  -6.311  0.00  0.00    -0.166 F 
ATOM     53  F   LIG d   1       1.068   0.113  -4.807  0.00  0.00    -0.166 F 
ATOM     54  F   LIG d   1       2.608   1.744  -4.376  0.00  0.00    -0.166 F 
ENDBRANCH  47  51
ENDBRANCH  27  41
ENDBRANCH   1  13
TORSDOF 3
ENDMDL
MODEL 4
REMARK VINA RESULT:      -7.5      1.662      2.176
REMARK  3 active torsions:
REMARK  status: ('A' for Active; 'I' for Inactive)
REMARK    1  A    between atoms: C_3  and  C_11 
REMARK    2  A    between atoms: C_5  and  C_7 
REMARK       I    between atoms: N_25  and  C_27 
REMARK    3  A    between atoms: C_27  and  C_29 
ROOT
ATOM      1  C   LIG d   1       7.745   1.214  -9.104  0.00  0.00     0.037 A 
ATOM      2  C   LIG d   1       8.834   1.758  -9.788  0.00  0.00    -0.048 A 
ATOM      3  C   LIG d   1      10.110   1.584  -9.299  0.00  0.00    -0.044 A 
ATOM      4  C   LIG d   1      10.315   0.852  -8.127  0.00  0.00     0.052 A 
ATOM      5  C   LIG d   1       9.225   0.304  -7.446  0.00  0.00    -0.044 A 
ATOM      6  C   LIG d   1       7.949   0.484  -7.932  0.00  0.00    -0.048 A 
ATOM      7  C   LIG d   1      11.642   0.664  -7.623  0.00  0.00     0.099 C 
ATOM      8  N   LIG d   1      12.695   0.516  -7.223  0.00  0.00    -0.191 NA
ATOM      9  H   LIG d   1       8.676   2.319 -10.696  0.00  0.00     0.062 H 
ATOM     10  H   LIG d   1      10.952   2.008  -9.825  0.00  0.00     0.063 H 
ATOM     11  H   LIG d   1       9.384  -0.262  -6.540  0.00  0.00     0.063 H 
ATOM     12  H   LIG d   1       7.106   0.060  -7.406  0.00  0.00     0.062 H 
ENDROOT
BRANCH   1  13
ATOM     13  C   LIG d   1       6.374   1.408  -9.625  0.00  0.00     0.247 C 
ATOM     14  N   LIG d   1       5.852   0.519 -10.494  0.00  0.00    -0.297 N 
ATOM     15  C   LIG d   1       4.461   0.649 -10.958  0.00  0.00     0.023 C 
ATOM     16  C   LIG d   1       6.657  -0.601 -10.996  0.00  0.00     0.019 C 
ATOM     17  C   LIG d   1       3.750  -0.681 -10.656  0.00  0.00     0.016 C 
ATOM     18  H   LIG d   1       4.446   0.842 -12.031  0.00  0.00     0.047 H 
ATOM     19  H   LIG d   1       3.967   1.463 -10.429  0.00  0.00     0.047 H 
ATOM     20  C   LIG d   1       3.836  -0.920  -9.167  0.00  0.00     0.027 A 
ATOM     21  C   LIG d   1       4.483  -1.800 -11.402  0.00  0.00    -0.037 C 
ATOM     22  H   LIG d   1       2.711  -0.633 -10.980  0.00  0.00     0.038 H 
ATOM     23  C   LIG d   1       2.849  -0.386  -8.394  0.00  0.00    -0.041 A 
ATOM     24  N   LIG d   1       4.858  -1.607  -8.605  0.00  0.00    -0.311 N 
ATOM     25  C   LIG d   1       2.912  -0.460  -7.002  0.00  0.00    -0.047 A 
ATOM     26  H   LIG d   1       2.010   0.106  -8.866  0.00  0.00     0.064 H 
ATOM     27  C   LIG d   1       4.000  -1.090  -6.418  0.00  0.00     0.047 A 
ATOM     28  H   LIG d   1       2.126  -0.039  -6.392  0.00  0.00     0.063 H 
ATOM     29  C   LIG d   1       4.989  -1.650  -7.256  0.00  0.00     0.259 A 
ATOM     30  O   LIG d   1       5.971  -2.178  -6.761  0.00  0.00    -0.267 OA
ATOM     31  C   LIG d   1       5.840  -2.360  -9.386  0.00  0.00     0.031 C 
ATOM     32  C   LIG d   1       5.898  -1.910 -10.835  0.00  0.00    -0.006 C 
ATOM     33  H   LIG d   1       6.825  -2.229  -8.937  0.00  0.00     0.050 H 
ATOM     34  H   LIG d   1       5.579  -3.417  -9.356  0.00  0.00     0.050 H 
ATOM     35  H   LIG d   1       6.432  -2.671 -11.404  0.00  0.00     0.033 H 
ATOM     36  H   LIG d   1       4.531  -1.563 -12.465  0.00  0.00     0.028 H 
ATOM     37  H   LIG d   1       3.955  -2.743 -11.259  0.00  0.00     0.028 H 
ATOM     38  H   LIG d   1       7.591  -0.653 -10.437  0.00  0.00     0.047 H 
ATOM     39  H   LIG d   1       6.879  -0.440 -12.052  0.00  0.00     0.047 H 
ATOM     40  O   LIG d   1       5.718   2.367  -9.270  0.00  0.00    -0.270 OA
BRANCH  27  41
ATOM     41  C   LIG d   1       4.122  -1.174  -4.945  0.00  0.00    -0.012 A 
ATOM     42  C   LIG d   1       4.143  -2.417  -4.313  0.00  0.00    -0.054 A 
ATOM     43  C   LIG d   1       4.258  -2.489  -2.940  0.00  0.00    -0.061 A 
ATOM     44  H   LIG d   1       4.071  -3.322  -4.898  0.00  0.00     0.062 H 
ATOM     45  C   LIG d   1       4.352  -1.331  -2.190  0.00  0.00    -0.050 A 
ATOM     46  H   LIG d   1       4.275  -3.452  -2.450  0.00  0.00     0.062 H 
ATOM     47  C   LIG d   1       4.331  -0.095  -2.809  0.00  0.00     0.055 A 
ATOM     48  H   LIG d   1       4.441  -1.393  -1.115  0.00  0.00     0.062 H 
ATOM     49  C   LIG d   1       4.222  -0.010  -4.182  0.00  0.00    -0.042 A 
ATOM     50  H   LIG d   1       4.210   0.956  -4.666  0.00  0.00     0.063 H 
BRANCH  47  51
ATOM     51  C   LIG d   1       4.434   1.162  -1.984  0.00  0.00     0.417 C 
ATOM     52  F   LIG d   1       3.183   1.785  -1.925  0.00  0.00    -0.166 F 
ATOM     53  F   LIG d   1       4.856   0.838  -0.691  0.00  0.00    -0.166 F 
ATOM     54  F   LIG d   1       5.360   2.032  -2.572  0.00  0.00    -0.166 F 
ENDBRANCH  47  51
ENDBRANCH  27  41
ENDBRANCH   1  13
TORSDOF 3
ENDMDL
MODEL 5
REMARK VINA RESULT:      -7.5      4.537      7.404
REMARK  3 active torsions:
REMARK  status: ('A' for Active; 'I' for Inactive)
REMARK    1  A    between atoms: C_3  and  C_11 
REMARK    2  A    between atoms: C_5  and  C_7 
REMARK       I    between atoms: N_25  and  C_27 
REMARK    3  A    between atoms: C_27  and  C_29 
ROOT
ATOM      1  C   LIG d   1       6.475  -3.706  -5.317  0.00  0.00     0.037 A 
ATOM      2  C   LIG d   1       6.825  -2.916  -6.414  0.00  0.00    -0.048 A 
ATOM      3  C   LIG d   1       7.974  -3.192  -7.122  0.00  0.00    -0.044 A 
ATOM      4  C   LIG d   1       8.782  -4.269  -6.751  0.00  0.00     0.052 A 
ATOM      5  C   LIG d   1       8.428  -5.062  -5.656  0.00  0.00    -0.044 A 
ATOM      6  C   LIG d   1       7.283  -4.783  -4.944  0.00  0.00    -0.048 A 
ATOM      7  C   LIG d   1       9.972  -4.560  -7.492  0.00  0.00     0.099 C 
ATOM      8  N   LIG d   1      10.916  -4.791  -8.079  0.00  0.00    -0.191 NA
ATOM      9  H   LIG d   1       6.198  -2.087  -6.704  0.00  0.00     0.062 H 
ATOM     10  H   LIG d   1       8.247  -2.579  -7.967  0.00  0.00     0.063 H 
ATOM     11  H   LIG d   1       9.052  -5.896  -5.370  0.00  0.00     0.063 H 
ATOM     12  H   LIG d   1       7.009  -5.396  -4.099  0.00  0.00     0.062 H 
ENDROOT
BRANCH   1  13
ATOM     13  C   LIG d   1       5.245  -3.406  -4.552  0.00  0.00     0.247 C 
ATOM     14  N   LIG d   1       5.285  -2.529  -3.530  0.00  0.00    -0.297 N 
ATOM     15  C   LIG d   1       4.055  -2.155  -2.812  0.00  0.00     0.023 C 
ATOM     16  C   LIG d   1       6.554  -1.923  -3.110  0.00  0.00     0.019 C 
ATOM     17  C   LIG d   1       3.943  -0.621  -2.861  0.00  0.00     0.016 C 
ATOM     18  H   LIG d   1       4.116  -2.489  -1.776  0.00  0.00     0.047 H 
ATOM     19  H   LIG d   1       3.190  -2.606  -3.296  0.00  0.00     0.047 H 
ATOM     20  C   LIG d   1       3.904  -0.211  -4.315  0.00  0.00     0.027 A 
ATOM     21  C   LIG d   1       5.182  -0.026  -2.189  0.00  0.00    -0.037 C 
ATOM     22  H   LIG d   1       3.041  -0.295  -2.343  0.00  0.00     0.038 H 
ATOM     23  C   LIG d   1       2.682  -0.173  -4.916  0.00  0.00    -0.041 A 
ATOM     24  N   LIG d   1       5.027   0.082  -5.011  0.00  0.00    -0.311 N 
ATOM     25  C   LIG d   1       2.566   0.084  -6.283  0.00  0.00    -0.047 A 
ATOM     26  H   LIG d   1       1.793  -0.349  -4.329  0.00  0.00     0.064 H 
ATOM     27  C   LIG d   1       3.721   0.302  -7.019  0.00  0.00     0.047 A 
ATOM     28  H   LIG d   1       1.596   0.118  -6.758  0.00  0.00     0.063 H 
ATOM     29  C   LIG d   1       4.965   0.277  -6.351  0.00  0.00     0.259 A 
ATOM     30  O   LIG d   1       5.995   0.432  -6.987  0.00  0.00    -0.267 OA
ATOM     31  C   LIG d   1       6.338   0.242  -4.382  0.00  0.00     0.031 C 
ATOM     32  C   LIG d   1       6.410  -0.411  -3.014  0.00  0.00    -0.006 C 
ATOM     33  H   LIG d   1       7.096  -0.205  -5.026  0.00  0.00     0.050 H 
ATOM     34  H   LIG d   1       6.552   1.305  -4.276  0.00  0.00     0.050 H 
ATOM     35  H   LIG d   1       7.294  -0.029  -2.503  0.00  0.00     0.033 H 
ATOM     36  H   LIG d   1       5.279  -0.423  -1.179  0.00  0.00     0.028 H 
ATOM     37  H   LIG d   1       5.092   1.060  -2.149  0.00  0.00     0.028 H 
ATOM     38  H   LIG d   1       7.328  -2.168  -3.836  0.00  0.00     0.047 H 
ATOM     39  H   LIG d   1       6.837  -2.322  -2.134  0.00  0.00     0.047 H 
ATOM     40  O   LIG d   1       4.198  -3.950  -4.846  0.00  0.00    -0.270 OA
BRANCH  27  41
ATOM     41  C   LIG d   1       3.651   0.557  -8.476  0.00  0.00    -0.012 A 
ATOM     42  C   LIG d   1       4.022   1.799  -8.989  0.00  0.00    -0.054 A 
ATOM     43  C   LIG d   1       3.956   2.030 -10.348  0.00  0.00    -0.061 A 
ATOM     44  H   LIG d   1       4.363   2.579  -8.324  0.00  0.00     0.062 H 
ATOM     45  C   LIG d   1       3.521   1.032 -11.201  0.00  0.00    -0.050 A 
ATOM     46  H   LIG d   1       4.244   2.992 -10.746  0.00  0.00     0.062 H 
ATOM     47  C   LIG d   1       3.151  -0.202 -10.699  0.00  0.00     0.055 A 
ATOM     48  H   LIG d   1       3.470   1.218 -12.264  0.00  0.00     0.062 H 
ATOM     49  C   LIG d   1       3.218  -0.447  -9.343  0.00  0.00    -0.042 A 
ATOM     50  H   LIG d   1       2.933  -1.413  -8.952  0.00  0.00     0.063 H 
BRANCH  47  51
ATOM     51  C   LIG d   1       2.679  -1.285 -11.636  0.00  0.00     0.417 C 
ATOM     52  F   LIG d   1       3.157  -2.523 -11.196  0.00  0.00    -0.166 F 
ATOM     53  F   LIG d   1       1.280  -1.305 -11.658  0.00  0.00    -0.166 F 
ATOM     54  F   LIG d   1       3.161  -1.030 -12.924  0.00  0.00    -0.166 F 
ENDBRANCH  47  51
ENDBRANCH  27  41
ENDBRANCH   1  13
TORSDOF 3
ENDMDL
MODEL 6
REMARK VINA RESULT:      -7.5      1.580      2.108
REMARK  3 active torsions:
REMARK  status: ('A' for Active; 'I' for Inactive)
REMARK    1  A    between atoms: C_3  and  C_11 
REMARK    2  A    between atoms: C_5  and  C_7 
REMARK       I    between atoms: N_25  and  C_27 
REMARK    3  A    between atoms: C_27  and  C_29 
ROOT
ATOM      1  C   LIG d   1       8.992   2.899  -7.165  0.00  0.00     0.037 A 
ATOM      2  C   LIG d   1       8.766   2.478  -5.853  0.00  0.00    -0.048 A 
ATOM      3  C   LIG d   1       9.210   3.246  -4.799  0.00  0.00    -0.044 A 
ATOM      4  C   LIG d   1       9.874   4.450  -5.042  0.00  0.00     0.052 A 
ATOM      5  C   LIG d   1      10.095   4.873  -6.355  0.00  0.00    -0.044 A 
ATOM      6  C   LIG d   1       9.657   4.102  -7.410  0.00  0.00    -0.048 A 
ATOM      7  C   LIG d   1      10.328   5.252  -3.946  0.00  0.00     0.099 C 
ATOM      8  N   LIG d   1      10.689   5.887  -3.077  0.00  0.00    -0.191 NA
ATOM      9  H   LIG d   1       8.248   1.550  -5.665  0.00  0.00     0.062 H 
ATOM     10  H   LIG d   1       9.040   2.919  -3.784  0.00  0.00     0.063 H 
ATOM     11  H   LIG d   1      10.608   5.804  -6.544  0.00  0.00     0.063 H 
ATOM     12  H   LIG d   1       9.827   4.429  -8.425  0.00  0.00     0.062 H 
ENDROOT
BRANCH   1  13
ATOM     13  C   LIG d   1       8.521   2.071  -8.298  0.00  0.00     0.247 C 
ATOM     14  N   LIG d   1       9.306   1.091  -8.787  0.00  0.00    -0.297 N 
ATOM     15  C   LIG d   1       8.822   0.204  -9.857  0.00  0.00     0.023 C 
ATOM     16  C   LIG d   1      10.661   0.882  -8.263  0.00  0.00     0.019 C 
ATOM     17  C   LIG d   1       8.969  -1.244  -9.357  0.00  0.00     0.016 C 
ATOM     18  H   LIG d   1       9.421   0.347 -10.757  0.00  0.00     0.047 H 
ATOM     19  H   LIG d   1       7.775   0.417 -10.072  0.00  0.00     0.047 H 
ATOM     20  C   LIG d   1       8.155  -1.377  -8.091  0.00  0.00     0.027 A 
ATOM     21  C   LIG d   1      10.447  -1.499  -9.050  0.00  0.00    -0.037 C 
ATOM     22  H   LIG d   1       8.619  -1.941 -10.117  0.00  0.00     0.038 H 
ATOM     23  C   LIG d   1       6.842  -1.714  -8.230  0.00  0.00    -0.041 A 
ATOM     24  N   LIG d   1       8.684  -1.146  -6.866  0.00  0.00    -0.311 N 
ATOM     25  C   LIG d   1       5.992  -1.747  -7.124  0.00  0.00    -0.047 A 
ATOM     26  H   LIG d   1       6.455  -1.955  -9.209  0.00  0.00     0.064 H 
ATOM     27  C   LIG d   1       6.510  -1.429  -5.878  0.00  0.00     0.047 A 
ATOM     28  H   LIG d   1       4.952  -2.019  -7.236  0.00  0.00     0.063 H 
ATOM     29  C   LIG d   1       7.881  -1.107  -5.775  0.00  0.00     0.259 A 
ATOM     30  O   LIG d   1       8.348  -0.791  -4.693  0.00  0.00    -0.267 OA
ATOM     31  C   LIG d   1      10.118  -0.966  -6.636  0.00  0.00     0.031 C 
ATOM     32  C   LIG d   1      10.866  -0.582  -7.900  0.00  0.00    -0.006 C 
ATOM     33  H   LIG d   1      10.260  -0.183  -5.891  0.00  0.00     0.050 H 
ATOM     34  H   LIG d   1      10.533  -1.896  -6.250  0.00  0.00     0.050 H 
ATOM     35  H   LIG d   1      11.931  -0.730  -7.720  0.00  0.00     0.033 H 
ATOM     36  H   LIG d   1      11.049  -1.279  -9.932  0.00  0.00     0.028 H 
ATOM     37  H   LIG d   1      10.588  -2.540  -8.760  0.00  0.00     0.028 H 
ATOM     38  H   LIG d   1      10.803   1.498  -7.375  0.00  0.00     0.047 H 
ATOM     39  H   LIG d   1      11.389   1.171  -9.022  0.00  0.00     0.047 H 
ATOM     40  O   LIG d   1       7.428   2.276  -8.787  0.00  0.00    -0.270 OA
BRANCH  27  41
ATOM     41  C   LIG d   1       5.642  -1.427  -4.678  0.00  0.00    -0.012 A 
ATOM     42  C   LIG d   1       5.089  -2.620  -4.211  0.00  0.00    -0.054 A 
ATOM     43  C   LIG d   1       4.282  -2.612  -3.092  0.00  0.00    -0.061 A 
ATOM     44  H   LIG d   1       5.293  -3.548  -4.724  0.00  0.00     0.062 H 
ATOM     45  C   LIG d   1       4.020  -1.424  -2.433  0.00  0.00    -0.050 A 
ATOM     46  H   LIG d   1       3.853  -3.536  -2.730  0.00  0.00     0.062 H 
ATOM     47  C   LIG d   1       4.565  -0.238  -2.890  0.00  0.00     0.055 A 
ATOM     48  H   LIG d   1       3.387  -1.424  -1.558  0.00  0.00     0.062 H 
ATOM     49  C   LIG d   1       5.377  -0.234  -4.005  0.00  0.00    -0.042 A 
ATOM     50  H   LIG d   1       5.807   0.692  -4.359  0.00  0.00     0.063 H 
BRANCH  47  51
ATOM     51  C   LIG d   1       4.275   1.051  -2.166  0.00  0.00     0.417 C 
ATOM     52  F   LIG d   1       4.802   0.988  -0.872  0.00  0.00    -0.166 F 
ATOM     53  F   LIG d   1       4.862   2.117  -2.858  0.00  0.00    -0.166 F 
ATOM     54  F   LIG d   1       2.891   1.247  -2.097  0.00  0.00    -0.166 F 
ENDBRANCH  47  51
ENDBRANCH  27  41
ENDBRANCH   1  13
TORSDOF 3
ENDMDL
MODEL 7
REMARK VINA RESULT:      -7.5      3.409      4.926
REMARK  3 active torsions:
REMARK  status: ('A' for Active; 'I' for Inactive)
REMARK    1  A    between atoms: C_3  and  C_11 
REMARK    2  A    between atoms: C_5  and  C_7 
REMARK       I    between atoms: N_25  and  C_27 
REMARK    3  A    between atoms: C_27  and  C_29 
ROOT
ATOM      1  C   LIG d   1       6.316  -2.070 -11.262  0.00  0.00     0.037 A 
ATOM      2  C   LIG d   1       6.723  -2.440  -9.979  0.00  0.00    -0.048 A 
ATOM      3  C   LIG d   1       7.802  -3.281  -9.814  0.00  0.00    -0.044 A 
ATOM      4  C   LIG d   1       8.496  -3.753 -10.931  0.00  0.00     0.052 A 
ATOM      5  C   LIG d   1       8.090  -3.379 -12.215  0.00  0.00    -0.044 A 
ATOM      6  C   LIG d   1       7.008  -2.543 -12.379  0.00  0.00    -0.048 A 
ATOM      7  C   LIG d   1       9.622  -4.621 -10.760  0.00  0.00     0.099 C 
ATOM      8  N   LIG d   1      10.514  -5.310 -10.625  0.00  0.00    -0.191 NA
ATOM      9  H   LIG d   1       6.191  -2.071  -9.115  0.00  0.00     0.062 H 
ATOM     10  H   LIG d   1       8.115  -3.570  -8.823  0.00  0.00     0.063 H 
ATOM     11  H   LIG d   1       8.627  -3.743 -13.078  0.00  0.00     0.063 H 
ATOM     12  H   LIG d   1       6.695  -2.253 -13.371  0.00  0.00     0.062 H 
ENDROOT
BRANCH   1  13
ATOM     13  C   LIG d   1       5.153  -1.172 -11.439  0.00  0.00     0.247 C 
ATOM     14  N   LIG d   1       3.915  -1.691 -11.557  0.00  0.00    -0.297 N 
ATOM     15  C   LIG d   1       2.738  -0.811 -11.650  0.00  0.00     0.023 C 
ATOM     16  C   LIG d   1       3.709  -3.143 -11.595  0.00  0.00     0.019 C 
ATOM     17  C   LIG d   1       1.763  -1.229 -10.535  0.00  0.00     0.016 C 
ATOM     18  H   LIG d   1       2.261  -0.932 -12.623  0.00  0.00     0.047 H 
ATOM     19  H   LIG d   1       3.037   0.227 -11.511  0.00  0.00     0.047 H 
ATOM     20  C   LIG d   1       2.485  -1.082  -9.216  0.00  0.00     0.027 A 
ATOM     21  C   LIG d   1       1.380  -2.695 -10.754  0.00  0.00    -0.037 C 
ATOM     22  H   LIG d   1       0.873  -0.601 -10.560  0.00  0.00     0.038 H 
ATOM     23  C   LIG d   1       2.427   0.136  -8.608  0.00  0.00    -0.041 A 
ATOM     24  N   LIG d   1       3.188  -2.098  -8.662  0.00  0.00    -0.311 N 
ATOM     25  C   LIG d   1       3.158   0.391  -7.448  0.00  0.00    -0.047 A 
ATOM     26  H   LIG d   1       1.811   0.914  -9.034  0.00  0.00     0.064 H 
ATOM     27  C   LIG d   1       3.947  -0.620  -6.922  0.00  0.00     0.047 A 
ATOM     28  H   LIG d   1       3.107   1.357  -6.965  0.00  0.00     0.063 H 
ATOM     29  C   LIG d   1       3.960  -1.875  -7.571  0.00  0.00     0.259 A 
ATOM     30  O   LIG d   1       4.674  -2.768  -7.143  0.00  0.00    -0.267 OA
ATOM     31  C   LIG d   1       3.136  -3.472  -9.163  0.00  0.00     0.031 C 
ATOM     32  C   LIG d   1       2.637  -3.550 -10.594  0.00  0.00    -0.006 C 
ATOM     33  H   LIG d   1       4.136  -3.904  -9.114  0.00  0.00     0.050 H 
ATOM     34  H   LIG d   1       2.471  -4.055  -8.526  0.00  0.00     0.050 H 
ATOM     35  H   LIG d   1       2.370  -4.586 -10.802  0.00  0.00     0.033 H 
ATOM     36  H   LIG d   1       0.975  -2.823 -11.758  0.00  0.00     0.028 H 
ATOM     37  H   LIG d   1       0.636  -2.994 -10.016  0.00  0.00     0.028 H 
ATOM     38  H   LIG d   1       4.643  -3.646 -11.349  0.00  0.00     0.047 H 
ATOM     39  H   LIG d   1       3.396  -3.437 -12.598  0.00  0.00     0.047 H 
ATOM     40  O   LIG d   1       5.314   0.032 -11.476  0.00  0.00    -0.270 OA
BRANCH  27  41
ATOM     41  C   LIG d   1       4.758  -0.390  -5.705  0.00  0.00    -0.012 A 
ATOM     42  C   LIG d   1       6.146  -0.296  -5.796  0.00  0.00    -0.054 A 
ATOM     43  C   LIG d   1       6.897  -0.081  -4.659  0.00  0.00    -0.061 A 
ATOM     44  H   LIG d   1       6.634  -0.391  -6.755  0.00  0.00     0.062 H 
ATOM     45  C   LIG d   1       6.275   0.041  -3.429  0.00  0.00    -0.050 A 
ATOM     46  H   LIG d   1       7.973  -0.008  -4.728  0.00  0.00     0.062 H 
ATOM     47  C   LIG d   1       4.899  -0.051  -3.331  0.00  0.00     0.055 A 
ATOM     48  H   LIG d   1       6.867   0.209  -2.541  0.00  0.00     0.062 H 
ATOM     49  C   LIG d   1       4.137  -0.261  -4.463  0.00  0.00    -0.042 A 
ATOM     50  H   LIG d   1       3.061  -0.329  -4.387  0.00  0.00     0.063 H 
BRANCH  47  51
ATOM     51  C   LIG d   1       4.229   0.083  -1.988  0.00  0.00     0.417 C 
ATOM     52  F   LIG d   1       2.860   0.303  -2.170  0.00  0.00    -0.166 F 
ATOM     53  F   LIG d   1       4.419  -1.091  -1.252  0.00  0.00    -0.166 F 
ATOM     54  F   LIG d   1       4.786   1.163  -1.295  0.00  0.00    -0.166 F 
ENDBRANCH  47  51
ENDBRANCH  27  41
ENDBRANCH   1  13
TORSDOF 3
ENDMDL
MODEL 8
REMARK VINA RESULT:      -7.3      2.634      3.800
REMARK  3 active torsions:
REMARK  status: ('A' for Active; 'I' for Inactive)
REMARK    1  A    between atoms: C_3  and  C_11 
REMARK    2  A    between atoms: C_5  and  C_7 
REMARK       I    between atoms: N_25  and  C_27 
REMARK    3  A    between atoms: C_27  and  C_29 
ROOT
ATOM      1  C   LIG d   1       8.540  -0.434  -8.843  0.00  0.00     0.037 A 
ATOM      2  C   LIG d   1       7.959   0.372  -7.862  0.00  0.00    -0.048 A 
ATOM      3  C   LIG d   1       7.951   1.741  -8.013  0.00  0.00    -0.044 A 
ATOM      4  C   LIG d   1       8.513   2.322  -9.152  0.00  0.00     0.052 A 
ATOM      5  C   LIG d   1       9.090   1.514 -10.135  0.00  0.00    -0.044 A 
ATOM      6  C   LIG d   1       9.104   0.145  -9.981  0.00  0.00    -0.048 A 
ATOM      7  C   LIG d   1       8.498   3.744  -9.313  0.00  0.00     0.099 C 
ATOM      8  N   LIG d   1       8.486   4.873  -9.439  0.00  0.00    -0.191 NA
ATOM      9  H   LIG d   1       7.520  -0.077  -6.984  0.00  0.00     0.062 H 
ATOM     10  H   LIG d   1       7.505   2.365  -7.253  0.00  0.00     0.063 H 
ATOM     11  H   LIG d   1       9.524   1.963 -11.017  0.00  0.00     0.063 H 
ATOM     12  H   LIG d   1       9.549  -0.480 -10.741  0.00  0.00     0.062 H 
ENDROOT
BRANCH   1  13
ATOM     13  C   LIG d   1       8.555  -1.905  -8.678  0.00  0.00     0.247 C 
ATOM     14  N   LIG d   1       9.598  -2.503  -8.069  0.00  0.00    -0.297 N 
ATOM     15  C   LIG d   1       9.592  -3.955  -7.821  0.00  0.00     0.023 C 
ATOM     16  C   LIG d   1      10.763  -1.724  -7.636  0.00  0.00     0.019 C 
ATOM     17  C   LIG d   1       9.830  -4.165  -6.316  0.00  0.00     0.016 C 
ATOM     18  H   LIG d   1      10.389  -4.431  -8.392  0.00  0.00     0.047 H 
ATOM     19  H   LIG d   1       8.629  -4.377  -8.107  0.00  0.00     0.047 H 
ATOM     20  C   LIG d   1       8.724  -3.453  -5.573  0.00  0.00     0.027 A 
ATOM     21  C   LIG d   1      11.180  -3.545  -5.951  0.00  0.00    -0.037 C 
ATOM     22  H   LIG d   1       9.830  -5.229  -6.081  0.00  0.00     0.038 H 
ATOM     23  C   LIG d   1       7.579  -4.155  -5.340  0.00  0.00    -0.041 A 
ATOM     24  N   LIG d   1       8.837  -2.164  -5.173  0.00  0.00    -0.311 N 
ATOM     25  C   LIG d   1       6.468  -3.540  -4.763  0.00  0.00    -0.047 A 
ATOM     26  H   LIG d   1       7.531  -5.200  -5.611  0.00  0.00     0.064 H 
ATOM     27  C   LIG d   1       6.550  -2.197  -4.429  0.00  0.00     0.047 A 
ATOM     28  H   LIG d   1       5.563  -4.100  -4.576  0.00  0.00     0.063 H 
ATOM     29  C   LIG d   1       7.763  -1.513  -4.666  0.00  0.00     0.259 A 
ATOM     30  O   LIG d   1       7.844  -0.322  -4.410  0.00  0.00    -0.267 OA
ATOM     31  C   LIG d   1      10.096  -1.420  -5.224  0.00  0.00     0.031 C 
ATOM     32  C   LIG d   1      11.097  -2.036  -6.184  0.00  0.00    -0.006 C 
ATOM     33  H   LIG d   1       9.889  -0.397  -5.540  0.00  0.00     0.050 H 
ATOM     34  H   LIG d   1      10.533  -1.397  -4.226  0.00  0.00     0.050 H 
ATOM     35  H   LIG d   1      12.076  -1.606  -5.973  0.00  0.00     0.033 H 
ATOM     36  H   LIG d   1      11.962  -3.970  -6.579  0.00  0.00     0.028 H 
ATOM     37  H   LIG d   1      11.404  -3.742  -4.902  0.00  0.00     0.028 H 
ATOM     38  H   LIG d   1      10.543  -0.661  -7.736  0.00  0.00     0.047 H 
ATOM     39  H   LIG d   1      11.618  -1.974  -8.265  0.00  0.00     0.047 H 
ATOM     40  O   LIG d   1       7.627  -2.572  -9.091  0.00  0.00    -0.270 OA
BRANCH  27  41
ATOM     41  C   LIG d   1       5.390  -1.495  -3.835  0.00  0.00    -0.012 A 
ATOM     42  C   LIG d   1       5.241  -1.435  -2.450  0.00  0.00    -0.054 A 
ATOM     43  C   LIG d   1       4.158  -0.778  -1.902  0.00  0.00    -0.061 A 
ATOM     44  H   LIG d   1       5.972  -1.901  -1.806  0.00  0.00     0.062 H 
ATOM     45  C   LIG d   1       3.220  -0.180  -2.725  0.00  0.00    -0.050 A 
ATOM     46  H   LIG d   1       4.042  -0.731  -0.829  0.00  0.00     0.062 H 
ATOM     47  C   LIG d   1       3.362  -0.235  -4.099  0.00  0.00     0.055 A 
ATOM     48  H   LIG d   1       2.374   0.333  -2.291  0.00  0.00     0.062 H 
ATOM     49  C   LIG d   1       4.443  -0.885  -4.658  0.00  0.00    -0.042 A 
ATOM     50  H   LIG d   1       4.556  -0.924  -5.732  0.00  0.00     0.063 H 
BRANCH  47  51
ATOM     51  C   LIG d   1       2.336   0.420  -4.988  0.00  0.00     0.417 C 
ATOM     52  F   LIG d   1       2.636   0.146  -6.327  0.00  0.00    -0.166 F 
ATOM     53  F   LIG d   1       1.066  -0.080  -4.683  0.00  0.00    -0.166 F 
ATOM     54  F   LIG d   1       2.354   1.804  -4.780  0.00  0.00    -0.166 F 
ENDBRANCH  47  51
ENDBRANCH  27  41
ENDBRANCH   1  13
TORSDOF 3
ENDMDL
MODEL 9
REMARK VINA RESULT:      -7.2      3.248      6.837
REMARK  3 active torsions:
REMARK  status: ('A' for Active; 'I' for Inactive)
REMARK    1  A    between atoms: C_3  and  C_11 
REMARK    2  A    between atoms: C_5  and  C_7 
REMARK       I    between atoms: N_25  and  C_27 
REMARK    3  A    between atoms: C_27  and  C_29 
ROOT
ATOM      1  C   LIG d   1       4.486  -1.065  -7.251  0.00  0.00     0.037 A 
ATOM      2  C   LIG d   1       3.787  -1.757  -8.243  0.00  0.00    -0.048 A 
ATOM      3  C   LIG d   1       4.468  -2.309  -9.306  0.00  0.00    -0.044 A 
ATOM      4  C   LIG d   1       5.857  -2.188  -9.384  0.00  0.00     0.052 A 
ATOM      5  C   LIG d   1       6.556  -1.501  -8.388  0.00  0.00    -0.044 A 
ATOM      6  C   LIG d   1       5.874  -0.943  -7.329  0.00  0.00    -0.048 A 
ATOM      7  C   LIG d   1       6.566  -2.769 -10.484  0.00  0.00     0.099 C 
ATOM      8  N   LIG d   1       7.127  -3.229 -11.358  0.00  0.00    -0.191 NA
ATOM      9  H   LIG d   1       2.714  -1.855  -8.180  0.00  0.00     0.062 H 
ATOM     10  H   LIG d   1       3.928  -2.840 -10.075  0.00  0.00     0.063 H 
ATOM     11  H   LIG d   1       7.630  -1.408  -8.448  0.00  0.00     0.063 H 
ATOM     12  H   LIG d   1       6.414  -0.412  -6.559  0.00  0.00     0.062 H 
ENDROOT
BRANCH   1  13
ATOM     13  C   LIG d   1       3.754  -0.466  -6.113  0.00  0.00     0.247 C 
ATOM     14  N   LIG d   1       3.574  -1.174  -4.981  0.00  0.00    -0.297 N 
ATOM     15  C   LIG d   1       2.922  -0.566  -3.809  0.00  0.00     0.023 C 
ATOM     16  C   LIG d   1       4.024  -2.568  -4.887  0.00  0.00     0.019 C 
ATOM     17  C   LIG d   1       3.880  -0.725  -2.616  0.00  0.00     0.016 C 
ATOM     18  H   LIG d   1       1.982  -1.079  -3.601  0.00  0.00     0.047 H 
ATOM     19  H   LIG d   1       2.733   0.491  -3.995  0.00  0.00     0.047 H 
ATOM     20  C   LIG d   1       5.176  -0.034  -2.973  0.00  0.00     0.027 A 
ATOM     21  C   LIG d   1       4.134  -2.219  -2.398  0.00  0.00    -0.037 C 
ATOM     22  H   LIG d   1       3.441  -0.284  -1.722  0.00  0.00     0.038 H 
ATOM     23  C   LIG d   1       5.271   1.294  -2.684  0.00  0.00    -0.041 A 
ATOM     24  N   LIG d   1       6.196  -0.685  -3.580  0.00  0.00    -0.311 N 
ATOM     25  C   LIG d   1       6.386   2.033  -3.083  0.00  0.00    -0.047 A 
ATOM     26  H   LIG d   1       4.472   1.780  -2.145  0.00  0.00     0.064 H 
ATOM     27  C   LIG d   1       7.397   1.389  -3.779  0.00  0.00     0.047 A 
ATOM     28  H   LIG d   1       6.461   3.085  -2.849  0.00  0.00     0.063 H 
ATOM     29  C   LIG d   1       7.268   0.006  -4.037  0.00  0.00     0.259 A 
ATOM     30  O   LIG d   1       8.130  -0.571  -4.679  0.00  0.00    -0.267 OA
ATOM     31  C   LIG d   1       6.230  -2.139  -3.745  0.00  0.00     0.031 C 
ATOM     32  C   LIG d   1       4.855  -2.770  -3.628  0.00  0.00    -0.006 C 
ATOM     33  H   LIG d   1       6.642  -2.373  -4.728  0.00  0.00     0.050 H 
ATOM     34  H   LIG d   1       6.880  -2.566  -2.982  0.00  0.00     0.050 H 
ATOM     35  H   LIG d   1       4.986  -3.843  -3.490  0.00  0.00     0.033 H 
ATOM     36  H   LIG d   1       3.184  -2.737  -2.266  0.00  0.00     0.028 H 
ATOM     37  H   LIG d   1       4.755  -2.360  -1.513  0.00  0.00     0.028 H 
ATOM     38  H   LIG d   1       4.627  -2.812  -5.761  0.00  0.00     0.047 H 
ATOM     39  H   LIG d   1       3.155  -3.227  -4.856  0.00  0.00     0.047 H 
ATOM     40  O   LIG d   1       3.316   0.664  -6.199  0.00  0.00    -0.270 OA
BRANCH  27  41
ATOM     41  C   LIG d   1       8.588   2.136  -4.243  0.00  0.00    -0.012 A 
ATOM     42  C   LIG d   1       9.690   2.290  -3.402  0.00  0.00    -0.054 A 
ATOM     43  C   LIG d   1      10.798   2.986  -3.839  0.00  0.00    -0.061 A 
ATOM     44  H   LIG d   1       9.676   1.864  -2.409  0.00  0.00     0.062 H 
ATOM     45  C   LIG d   1      10.817   3.532  -5.111  0.00  0.00    -0.050 A 
ATOM     46  H   LIG d   1      11.651   3.106  -3.188  0.00  0.00     0.062 H 
ATOM     47  C   LIG d   1       9.728   3.383  -5.950  0.00  0.00     0.055 A 
ATOM     48  H   LIG d   1      11.686   4.076  -5.449  0.00  0.00     0.062 H 
ATOM     49  C   LIG d   1       8.617   2.684  -5.525  0.00  0.00    -0.042 A 
ATOM     50  H   LIG d   1       7.768   2.564  -6.183  0.00  0.00     0.063 H 
BRANCH  47  51
ATOM     51  C   LIG d   1       9.758   3.979  -7.334  0.00  0.00     0.417 C 
ATOM     52  F   LIG d   1       9.467   5.345  -7.259  0.00  0.00    -0.166 F 
ATOM     53  F   LIG d   1      11.029   3.803  -7.891  0.00  0.00    -0.166 F 
ATOM     54  F   LIG d   1       8.805   3.343  -8.137  0.00  0.00    -0.166 F 
ENDBRANCH  47  51
ENDBRANCH  27  41
ENDBRANCH   1  13
TORSDOF 3
ENDMDL
