MODEL 1
REMARK VINA RESULT:      -6.1      0.000      0.000
REMARK  13 active torsions:
REMARK  status: ('A' for Active; 'I' for Inactive)
REMARK    1  A    between atoms: C_1  and  C_2 
REMARK       I    between atoms: C_2  and  N_4 
REMARK    2  A    between atoms: N_4  and  C_5 
REMARK    3  A    between atoms: C_5  and  C_6 
REMARK    4  A    between atoms: C_6  and  N_7 
REMARK       I    between atoms: N_7  and  C_8 
REMARK    5  A    between atoms: C_8  and  C_10 
REMARK    6  A    between atoms: C_10  and  C_11 
REMARK    7  A    between atoms: C_16  and  N_18 
REMARK    8  A    between atoms: N_18  and  C_19 
REMARK    9  A    between atoms: C_28  and  C_38 
REMARK   10  A    between atoms: C_31  and  O_37 
REMARK   11  A    between atoms: C_33  and  C_34 
REMARK   12  A    between atoms: C_33  and  C_35 
REMARK   13  A    between atoms: C_35  and  O_36 
ROOT
ATOM      1  C   LIG d   1       3.828  -0.192  -7.017  0.00  0.00     0.016 C 
ATOM      2  H   LIG d   1       3.454  -1.128  -6.602  0.00  0.00     0.037 H 
ATOM      3  C   LIG d   1       5.329  -0.101  -6.787  0.00  0.00     0.058 A 
ATOM      4  C   LIG d   1       6.191  -0.379  -7.799  0.00  0.00     0.015 A 
ATOM      5  S   LIG d   1       7.774  -0.143  -7.037  0.00  0.00    -0.057 SA
ATOM      6  C   LIG d   1       7.189   0.303  -5.462  0.00  0.00     0.163 A 
ATOM      7  N   LIG d   1       5.883   0.241  -5.625  0.00  0.00    -0.229 NA
ATOM      8  C   LIG d   1       5.858  -0.780  -9.192  0.00  0.00    -0.016 C 
ATOM      9  C   LIG d   1       4.374  -1.193  -9.256  0.00  0.00    -0.021 C 
ATOM     10  H   LIG d   1       4.240  -2.171  -8.792  0.00  0.00     0.032 H 
ATOM     11  C   LIG d   1       3.535  -0.145  -8.522  0.00  0.00    -0.019 C 
ATOM     12  C   LIG d   1       2.043  -0.441  -8.708  0.00  0.00    -0.044 C 
ATOM     13  C   LIG d   1       1.686  -0.459 -10.194  0.00  0.00    -0.026 C 
ATOM     14  C   LIG d   1       2.496  -1.562 -10.881  0.00  0.00     0.063 C 
ATOM     15  H   LIG d   1       2.278  -2.523 -10.412  0.00  0.00     0.060 H 
ATOM     16  C   LIG d   1       3.983  -1.244 -10.736  0.00  0.00     0.021 C 
ATOM     17  H   LIG d   1       6.484  -1.622  -9.488  0.00  0.00     0.032 H 
ATOM     18  H   LIG d   1       6.032   0.058  -9.866  0.00  0.00     0.032 H 
ATOM     19  H   LIG d   1       1.457   0.329  -8.207  0.00  0.00     0.027 H 
ATOM     20  H   LIG d   1       1.812  -1.412  -8.270  0.00  0.00     0.027 H 
ATOM     21  H   LIG d   1       1.930   0.505 -10.639  0.00  0.00     0.029 H 
ATOM     22  H   LIG d   1       0.621  -0.659 -10.313  0.00  0.00     0.029 H 
ENDROOT
BRANCH   1  23
ATOM     23  C   LIG d   1       3.134   0.984  -6.325  0.00  0.00     0.033 C 
ATOM     24  H   LIG d   1       3.801   1.846  -6.320  0.00  0.00     0.036 H 
ATOM     25  H   LIG d   1       2.221   1.234  -6.865  0.00  0.00     0.036 H 
BRANCH  23  26
ATOM     26  C   LIG d   1       2.793   0.603  -4.908  0.00  0.00     0.214 C 
ATOM     27  N   LIG d   1       3.566   1.032  -3.890  0.00  0.00    -0.314 N 
ATOM     28  H   LIG d   1       4.341   1.587  -4.070  0.00  0.00     0.149 HD
ATOM     29  O   LIG d   1       1.825  -0.091  -4.683  0.00  0.00    -0.276 OA
BRANCH  27  30
ATOM     30  C   LIG d   1       3.234   0.662  -2.513  0.00  0.00     0.027 C 
ATOM     31  H   LIG d   1       3.126   1.562  -1.909  0.00  0.00     0.048 H 
ATOM     32  H   LIG d   1       2.297   0.103  -2.503  0.00  0.00     0.048 H 
BRANCH  30  33
ATOM     33  C   LIG d   1       4.352  -0.210  -1.936  0.00  0.00     0.027 C 
ATOM     34  H   LIG d   1       5.127   0.428  -1.510  0.00  0.00     0.048 H 
ATOM     35  H   LIG d   1       3.944  -0.854  -1.157  0.00  0.00     0.048 H 
BRANCH  33  36
ATOM     36  N   LIG d   1       4.927  -1.035  -3.001  0.00  0.00    -0.314 N 
ATOM     37  C   LIG d   1       4.449  -2.276  -3.223  0.00  0.00     0.210 C 
ATOM     38  O   LIG d   1       3.543  -2.709  -2.542  0.00  0.00    -0.276 OA
ATOM     39  H   LIG d   1       5.651  -0.690  -3.545  0.00  0.00     0.149 HD
BRANCH  37  40
ATOM     40  C   LIG d   1       5.041  -3.126  -4.318  0.00  0.00     0.012 C 
ATOM     41  H   LIG d   1       5.714  -3.863  -3.881  0.00  0.00     0.032 H 
ATOM     42  H   LIG d   1       4.241  -3.636  -4.854  0.00  0.00     0.032 H 
ATOM     43  H   LIG d   1       5.596  -2.492  -5.010  0.00  0.00     0.032 H 
ENDBRANCH  37  40
ENDBRANCH  33  36
ENDBRANCH  30  33
ENDBRANCH  27  30
ENDBRANCH  23  26
ENDBRANCH   1  23
BRANCH  11  44
ATOM     44  C   LIG d   1       3.856   1.246  -9.072  0.00  0.00    -0.059 C 
ATOM     45  H   LIG d   1       4.840   1.234  -9.538  0.00  0.00     0.024 H 
ATOM     46  H   LIG d   1       3.106   1.526  -9.812  0.00  0.00     0.024 H 
ATOM     47  H   LIG d   1       3.849   1.969  -8.255  0.00  0.00     0.024 H 
ENDBRANCH  11  44
BRANCH  16  48
ATOM     48  C   LIG d   1       4.803  -2.326 -11.440  0.00  0.00    -0.055 C 
ATOM     49  H   LIG d   1       4.441  -3.310 -11.141  0.00  0.00     0.024 H 
ATOM     50  H   LIG d   1       4.700  -2.214 -12.520  0.00  0.00     0.024 H 
ATOM     51  H   LIG d   1       5.852  -2.225 -11.163  0.00  0.00     0.024 H 
ENDBRANCH  16  48
BRANCH  16  52
ATOM     52  C   LIG d   1       4.275   0.111 -11.384  0.00  0.00     0.052 C 
ATOM     53  H   LIG d   1       3.383   0.736 -11.338  0.00  0.00     0.056 H 
ATOM     54  H   LIG d   1       5.089   0.601 -10.850  0.00  0.00     0.056 H 
BRANCH  52  55
ATOM     55  O   LIG d   1       4.649  -0.084 -12.749  0.00  0.00    -0.394 OA
ATOM     56  H   LIG d   1       4.392   0.641 -13.335  0.00  0.00     0.209 HD
ENDBRANCH  52  55
ENDBRANCH  16  52
BRANCH   6  57
ATOM     57  N   LIG d   1       7.911   0.638  -4.327  0.00  0.00    -0.292 N 
ATOM     58  H   LIG d   1       7.770   0.150  -3.501  0.00  0.00     0.154 HD
BRANCH  57  59
ATOM     59  C   LIG d   1       8.843   1.680  -4.373  0.00  0.00     0.051 A 
ATOM     60  C   LIG d   1      10.201   1.416  -4.258  0.00  0.00     0.049 A 
ATOM     61  N   LIG d   1      11.082   2.395  -4.307  0.00  0.00    -0.261 NA
ATOM     62  H   LIG d   1      10.539   0.398  -4.131  0.00  0.00     0.085 H 
ATOM     63  C   LIG d   1      10.716   3.653  -4.454  0.00  0.00     0.028 A 
ATOM     64  C   LIG d   1       9.382   3.996  -4.570  0.00  0.00    -0.042 A 
ATOM     65  H   LIG d   1      11.469   4.427  -4.485  0.00  0.00     0.083 H 
ATOM     66  C   LIG d   1       8.421   2.998  -4.530  0.00  0.00    -0.038 A 
ATOM     67  H   LIG d   1       9.092   5.028  -4.691  0.00  0.00     0.063 H 
ATOM     68  H   LIG d   1       7.371   3.237  -4.619  0.00  0.00     0.064 H 
ENDBRANCH  57  59
ENDBRANCH   6  57
BRANCH  14  69
ATOM     69  O   LIG d   1       2.150  -1.618 -12.266  0.00  0.00    -0.391 OA
ATOM     70  H   LIG d   1       1.206  -1.505 -12.441  0.00  0.00     0.210 HD
ENDBRANCH  14  69
TORSDOF 13
ENDMDL
MODEL 2
REMARK VINA RESULT:      -6.1      3.674      7.012
REMARK  13 active torsions:
REMARK  status: ('A' for Active; 'I' for Inactive)
REMARK    1  A    between atoms: C_1  and  C_2 
REMARK       I    between atoms: C_2  and  N_4 
REMARK    2  A    between atoms: N_4  and  C_5 
REMARK    3  A    between atoms: C_5  and  C_6 
REMARK    4  A    between atoms: C_6  and  N_7 
REMARK       I    between atoms: N_7  and  C_8 
REMARK    5  A    between atoms: C_8  and  C_10 
REMARK    6  A    between atoms: C_10  and  C_11 
REMARK    7  A    between atoms: C_16  and  N_18 
REMARK    8  A    between atoms: N_18  and  C_19 
REMARK    9  A    between atoms: C_28  and  C_38 
REMARK   10  A    between atoms: C_31  and  O_37 
REMARK   11  A    between atoms: C_33  and  C_34 
REMARK   12  A    between atoms: C_33  and  C_35 
REMARK   13  A    between atoms: C_35  and  O_36 
ROOT
ATOM      1  C   LIG d   1       6.745  -2.559  -4.796  0.00  0.00     0.016 C 
ATOM      2  H   LIG d   1       6.847  -1.596  -4.296  0.00  0.00     0.037 H 
ATOM      3  C   LIG d   1       6.566  -2.337  -6.291  0.00  0.00     0.058 A 
ATOM      4  C   LIG d   1       7.616  -2.509  -7.134  0.00  0.00     0.015 A 
ATOM      5  S   LIG d   1       6.909  -2.131  -8.716  0.00  0.00    -0.057 SA
ATOM      6  C   LIG d   1       5.302  -1.781  -8.153  0.00  0.00     0.163 A 
ATOM      7  N   LIG d   1       5.417  -1.970  -6.855  0.00  0.00    -0.229 NA
ATOM      8  C   LIG d   1       9.004  -2.916  -6.788  0.00  0.00    -0.016 C 
ATOM      9  C   LIG d   1       9.204  -2.778  -5.266  0.00  0.00    -0.021 C 
ATOM     10  H   LIG d   1       9.295  -1.725  -4.997  0.00  0.00     0.032 H 
ATOM     11  C   LIG d   1       8.004  -3.400  -4.548  0.00  0.00    -0.019 C 
ATOM     12  C   LIG d   1       8.250  -3.425  -3.037  0.00  0.00    -0.044 C 
ATOM     13  C   LIG d   1       9.522  -4.209  -2.717  0.00  0.00    -0.026 C 
ATOM     14  C   LIG d   1      10.708  -3.519  -3.397  0.00  0.00     0.063 C 
ATOM     15  H   LIG d   1      10.782  -2.488  -3.047  0.00  0.00     0.060 H 
ATOM     16  C   LIG d   1      10.486  -3.535  -4.908  0.00  0.00     0.021 C 
ATOM     17  H   LIG d   1       9.713  -2.273  -7.310  0.00  0.00     0.032 H 
ATOM     18  H   LIG d   1       9.167  -3.953  -7.084  0.00  0.00     0.032 H 
ATOM     19  H   LIG d   1       7.402  -3.899  -2.541  0.00  0.00     0.027 H 
ATOM     20  H   LIG d   1       8.355  -2.403  -2.673  0.00  0.00     0.027 H 
ATOM     21  H   LIG d   1       9.427  -5.227  -3.093  0.00  0.00     0.029 H 
ATOM     22  H   LIG d   1       9.680  -4.229  -1.639  0.00  0.00     0.029 H 
ENDROOT
BRANCH   1  23
ATOM     23  C   LIG d   1       5.523  -3.295  -4.241  0.00  0.00     0.033 C 
ATOM     24  H   LIG d   1       4.956  -3.729  -5.064  0.00  0.00     0.036 H 
ATOM     25  H   LIG d   1       5.852  -4.087  -3.568  0.00  0.00     0.036 H 
BRANCH  23  26
ATOM     26  C   LIG d   1       4.653  -2.324  -3.486  0.00  0.00     0.214 C 
ATOM     27  N   LIG d   1       3.626  -1.713  -4.112  0.00  0.00    -0.314 N 
ATOM     28  H   LIG d   1       3.448  -1.900  -5.047  0.00  0.00     0.149 HD
ATOM     29  O   LIG d   1       4.876  -2.090  -2.318  0.00  0.00    -0.276 OA
BRANCH  27  30
ATOM     30  C   LIG d   1       2.780  -0.769  -3.379  0.00  0.00     0.027 C 
ATOM     31  H   LIG d   1       1.743  -0.893  -3.689  0.00  0.00     0.048 H 
ATOM     32  H   LIG d   1       2.865  -0.960  -2.309  0.00  0.00     0.048 H 
BRANCH  30  33
ATOM     33  C   LIG d   1       3.235   0.661  -3.678  0.00  0.00     0.027 C 
ATOM     34  H   LIG d   1       2.635   1.071  -4.490  0.00  0.00     0.048 H 
ATOM     35  H   LIG d   1       3.108   1.276  -2.786  0.00  0.00     0.048 H 
BRANCH  33  36
ATOM     36  N   LIG d   1       4.647   0.653  -4.067  0.00  0.00    -0.314 N 
ATOM     37  C   LIG d   1       5.590   1.050  -3.189  0.00  0.00     0.210 C 
ATOM     38  O   LIG d   1       5.270   1.414  -2.078  0.00  0.00    -0.276 OA
ATOM     39  H   LIG d   1       4.904   0.363  -4.956  0.00  0.00     0.149 HD
BRANCH  37  40
ATOM     40  C   LIG d   1       7.043   1.043  -3.591  0.00  0.00     0.012 C 
ATOM     41  H   LIG d   1       7.531   0.164  -3.169  0.00  0.00     0.032 H 
ATOM     42  H   LIG d   1       7.119   1.014  -4.677  0.00  0.00     0.032 H 
ATOM     43  H   LIG d   1       7.529   1.943  -3.215  0.00  0.00     0.032 H 
ENDBRANCH  37  40
ENDBRANCH  33  36
ENDBRANCH  30  33
ENDBRANCH  27  30
ENDBRANCH  23  26
ENDBRANCH   1  23
BRANCH  11  44
ATOM     44  C   LIG d   1       7.786  -4.827  -5.057  0.00  0.00    -0.059 C 
ATOM     45  H   LIG d   1       6.753  -4.941  -5.384  0.00  0.00     0.024 H 
ATOM     46  H   LIG d   1       8.456  -5.021  -5.894  0.00  0.00     0.024 H 
ATOM     47  H   LIG d   1       7.993  -5.534  -4.254  0.00  0.00     0.024 H 
ENDBRANCH  11  44
BRANCH  16  48
ATOM     48  C   LIG d   1      11.677  -2.871  -5.602  0.00  0.00    -0.055 C 
ATOM     49  H   LIG d   1      12.276  -3.631  -6.104  0.00  0.00     0.024 H 
ATOM     50  H   LIG d   1      11.315  -2.151  -6.336  0.00  0.00     0.024 H 
ATOM     51  H   LIG d   1      12.290  -2.358  -4.861  0.00  0.00     0.024 H 
ENDBRANCH  16  48
BRANCH  16  52
ATOM     52  C   LIG d   1      10.369  -4.984  -5.386  0.00  0.00     0.052 C 
ATOM     53  H   LIG d   1       9.922  -5.591  -4.600  0.00  0.00     0.056 H 
ATOM     54  H   LIG d   1       9.742  -5.023  -6.277  0.00  0.00     0.056 H 
BRANCH  52  55
ATOM     55  O   LIG d   1      11.670  -5.490  -5.697  0.00  0.00    -0.394 OA
ATOM     56  H   LIG d   1      12.392  -4.987  -5.298  0.00  0.00     0.209 HD
ENDBRANCH  52  55
ENDBRANCH  16  52
BRANCH   6  57
ATOM     57  N   LIG d   1       4.187  -1.401  -8.883  0.00  0.00    -0.292 N 
ATOM     58  H   LIG d   1       3.576  -2.075  -9.221  0.00  0.00     0.154 HD
BRANCH  57  59
ATOM     59  C   LIG d   1       3.940  -0.048  -9.132  0.00  0.00     0.051 A 
ATOM     60  C   LIG d   1       4.526   0.587 -10.219  0.00  0.00     0.049 A 
ATOM     61  N   LIG d   1       4.290   1.862 -10.460  0.00  0.00    -0.261 NA
ATOM     62  H   LIG d   1       5.176   0.030 -10.877  0.00  0.00     0.085 H 
ATOM     63  C   LIG d   1       3.509   2.583  -9.681  0.00  0.00     0.028 A 
ATOM     64  C   LIG d   1       2.894   2.024  -8.576  0.00  0.00    -0.042 A 
ATOM     65  H   LIG d   1       3.345   3.626  -9.910  0.00  0.00     0.083 H 
ATOM     66  C   LIG d   1       3.108   0.685  -8.289  0.00  0.00    -0.038 A 
ATOM     67  H   LIG d   1       2.256   2.623  -7.945  0.00  0.00     0.063 H 
ATOM     68  H   LIG d   1       2.641   0.222  -7.432  0.00  0.00     0.064 H 
ENDBRANCH  57  59
ENDBRANCH   6  57
BRANCH  14  69
ATOM     69  O   LIG d   1      11.914  -4.218  -3.082  0.00  0.00    -0.391 OA
ATOM     70  H   LIG d   1      12.589  -3.668  -2.660  0.00  0.00     0.210 HD
ENDBRANCH  14  69
TORSDOF 13
ENDMDL
MODEL 3
REMARK VINA RESULT:      -6.0      4.076      7.738
REMARK  13 active torsions:
REMARK  status: ('A' for Active; 'I' for Inactive)
REMARK    1  A    between atoms: C_1  and  C_2 
REMARK       I    between atoms: C_2  and  N_4 
REMARK    2  A    between atoms: N_4  and  C_5 
REMARK    3  A    between atoms: C_5  and  C_6 
REMARK    4  A    between atoms: C_6  and  N_7 
REMARK       I    between atoms: N_7  and  C_8 
REMARK    5  A    between atoms: C_8  and  C_10 
REMARK    6  A    between atoms: C_10  and  C_11 
REMARK    7  A    between atoms: C_16  and  N_18 
REMARK    8  A    between atoms: N_18  and  C_19 
REMARK    9  A    between atoms: C_28  and  C_38 
REMARK   10  A    between atoms: C_31  and  O_37 
REMARK   11  A    between atoms: C_33  and  C_34 
REMARK   12  A    between atoms: C_33  and  C_35 
REMARK   13  A    between atoms: C_35  and  O_36 
ROOT
ATOM      1  C   LIG d   1       5.348  -3.107  -5.157  0.00  0.00     0.016 C 
ATOM      2  H   LIG d   1       5.430  -2.770  -6.191  0.00  0.00     0.037 H 
ATOM      3  C   LIG d   1       6.718  -3.531  -4.652  0.00  0.00     0.058 A 
ATOM      4  C   LIG d   1       7.438  -2.698  -3.857  0.00  0.00     0.015 A 
ATOM      5  S   LIG d   1       8.918  -3.627  -3.560  0.00  0.00    -0.057 SA
ATOM      6  C   LIG d   1       8.482  -5.028  -4.493  0.00  0.00     0.163 A 
ATOM      7  N   LIG d   1       7.289  -4.698  -4.943  0.00  0.00    -0.229 NA
ATOM      8  C   LIG d   1       7.052  -1.346  -3.372  0.00  0.00    -0.016 C 
ATOM      9  C   LIG d   1       5.847  -0.842  -4.189  0.00  0.00    -0.021 C 
ATOM     10  H   LIG d   1       6.171  -0.546  -5.187  0.00  0.00     0.032 H 
ATOM     11  C   LIG d   1       4.810  -1.963  -4.287  0.00  0.00    -0.019 C 
ATOM     12  C   LIG d   1       3.532  -1.442  -4.952  0.00  0.00    -0.044 C 
ATOM     13  C   LIG d   1       2.964  -0.264  -4.162  0.00  0.00    -0.026 C 
ATOM     14  C   LIG d   1       4.003   0.861  -4.143  0.00  0.00     0.063 C 
ATOM     15  H   LIG d   1       4.246   1.153  -5.165  0.00  0.00     0.060 H 
ATOM     16  C   LIG d   1       5.261   0.357  -3.439  0.00  0.00     0.021 C 
ATOM     17  H   LIG d   1       7.891  -0.661  -3.498  0.00  0.00     0.032 H 
ATOM     18  H   LIG d   1       6.781  -1.399  -2.317  0.00  0.00     0.032 H 
ATOM     19  H   LIG d   1       2.792  -2.241  -4.987  0.00  0.00     0.027 H 
ATOM     20  H   LIG d   1       3.762  -1.118  -5.967  0.00  0.00     0.027 H 
ATOM     21  H   LIG d   1       2.748  -0.579  -3.142  0.00  0.00     0.029 H 
ATOM     22  H   LIG d   1       2.050   0.091  -4.638  0.00  0.00     0.029 H 
ENDROOT
BRANCH   1  23
ATOM     23  C   LIG d   1       4.388  -4.297  -5.085  0.00  0.00     0.033 C 
ATOM     24  H   LIG d   1       4.894  -5.145  -4.624  0.00  0.00     0.036 H 
ATOM     25  H   LIG d   1       3.518  -4.025  -4.488  0.00  0.00     0.036 H 
BRANCH  23  26
ATOM     26  C   LIG d   1       3.946  -4.671  -6.477  0.00  0.00     0.214 C 
ATOM     27  N   LIG d   1       3.941  -3.742  -7.454  0.00  0.00    -0.314 N 
ATOM     28  H   LIG d   1       4.223  -2.834  -7.261  0.00  0.00     0.149 HD
ATOM     29  O   LIG d   1       3.594  -5.805  -6.717  0.00  0.00    -0.276 OA
BRANCH  27  30
ATOM     30  C   LIG d   1       3.512  -4.105  -8.806  0.00  0.00     0.027 C 
ATOM     31  H   LIG d   1       4.368  -4.470  -9.374  0.00  0.00     0.048 H 
ATOM     32  H   LIG d   1       2.753  -4.885  -8.749  0.00  0.00     0.048 H 
BRANCH  30  33
ATOM     33  C   LIG d   1       2.925  -2.874  -9.502  0.00  0.00     0.027 C 
ATOM     34  H   LIG d   1       3.334  -2.797 -10.510  0.00  0.00     0.048 H 
ATOM     35  H   LIG d   1       1.841  -2.972  -9.557  0.00  0.00     0.048 H 
BRANCH  33  36
ATOM     36  N   LIG d   1       3.270  -1.671  -8.740  0.00  0.00    -0.314 N 
ATOM     37  C   LIG d   1       2.472  -0.586  -8.799  0.00  0.00     0.210 C 
ATOM     38  O   LIG d   1       1.470  -0.605  -9.482  0.00  0.00    -0.276 OA
ATOM     39  H   LIG d   1       4.071  -1.656  -8.194  0.00  0.00     0.149 HD
BRANCH  37  40
ATOM     40  C   LIG d   1       2.827   0.652  -8.015  0.00  0.00     0.012 C 
ATOM     41  H   LIG d   1       1.927   1.242  -7.842  0.00  0.00     0.032 H 
ATOM     42  H   LIG d   1       3.262   0.363  -7.059  0.00  0.00     0.032 H 
ATOM     43  H   LIG d   1       3.547   1.245  -8.579  0.00  0.00     0.032 H 
ENDBRANCH  37  40
ENDBRANCH  33  36
ENDBRANCH  30  33
ENDBRANCH  27  30
ENDBRANCH  23  26
ENDBRANCH   1  23
BRANCH  11  44
ATOM     44  C   LIG d   1       4.484  -2.485  -2.886  0.00  0.00    -0.059 C 
ATOM     45  H   LIG d   1       5.364  -2.972  -2.466  0.00  0.00     0.024 H 
ATOM     46  H   LIG d   1       4.190  -1.652  -2.247  0.00  0.00     0.024 H 
ATOM     47  H   LIG d   1       3.665  -3.203  -2.947  0.00  0.00     0.024 H 
ENDBRANCH  11  44
BRANCH  16  48
ATOM     48  C   LIG d   1       6.298   1.480  -3.389  0.00  0.00    -0.055 C 
ATOM     49  H   LIG d   1       7.022   1.343  -4.193  0.00  0.00     0.024 H 
ATOM     50  H   LIG d   1       5.799   2.442  -3.511  0.00  0.00     0.024 H 
ATOM     51  H   LIG d   1       6.814   1.457  -2.429  0.00  0.00     0.024 H 
ENDBRANCH  16  48
BRANCH  16  52
ATOM     52  C   LIG d   1       4.907  -0.063  -2.010  0.00  0.00     0.052 C 
ATOM     53  H   LIG d   1       3.950  -0.586  -2.012  0.00  0.00     0.056 H 
ATOM     54  H   LIG d   1       5.682  -0.725  -1.624  0.00  0.00     0.056 H 
BRANCH  52  55
ATOM     55  O   LIG d   1       4.813   1.097  -1.181  0.00  0.00    -0.394 OA
ATOM     56  H   LIG d   1       5.629   1.308  -0.707  0.00  0.00     0.209 HD
ENDBRANCH  52  55
ENDBRANCH  16  52
BRANCH   6  57
ATOM     57  N   LIG d   1       9.203  -6.192  -4.705  0.00  0.00    -0.292 N 
ATOM     58  H   LIG d   1       9.832  -6.245  -5.442  0.00  0.00     0.154 HD
BRANCH  57  59
ATOM     59  C   LIG d   1       9.025  -7.290  -3.858  0.00  0.00     0.051 A 
ATOM     60  C   LIG d   1       9.816  -7.444  -2.728  0.00  0.00     0.049 A 
ATOM     61  N   LIG d   1       9.647  -8.475  -1.924  0.00  0.00    -0.261 NA
ATOM     62  H   LIG d   1      10.575  -6.709  -2.502  0.00  0.00     0.085 H 
ATOM     63  C   LIG d   1       8.738  -9.400  -2.162  0.00  0.00     0.028 A 
ATOM     64  C   LIG d   1       7.915  -9.319  -3.270  0.00  0.00    -0.042 A 
ATOM     65  H   LIG d   1       8.633 -10.231  -1.481  0.00  0.00     0.083 H 
ATOM     66  C   LIG d   1       8.054  -8.249  -4.139  0.00  0.00    -0.038 A 
ATOM     67  H   LIG d   1       7.174 -10.081  -3.456  0.00  0.00     0.063 H 
ATOM     68  H   LIG d   1       7.425  -8.161  -5.013  0.00  0.00     0.064 H 
ENDBRANCH  57  59
ENDBRANCH   6  57
BRANCH  14  69
ATOM     69  O   LIG d   1       3.477   1.987  -3.437  0.00  0.00    -0.391 OA
ATOM     70  H   LIG d   1       2.636   2.313  -3.786  0.00  0.00     0.210 HD
ENDBRANCH  14  69
TORSDOF 13
ENDMDL
MODEL 4
REMARK VINA RESULT:      -6.0      3.766      8.021
REMARK  13 active torsions:
REMARK  status: ('A' for Active; 'I' for Inactive)
REMARK    1  A    between atoms: C_1  and  C_2 
REMARK       I    between atoms: C_2  and  N_4 
REMARK    2  A    between atoms: N_4  and  C_5 
REMARK    3  A    between atoms: C_5  and  C_6 
REMARK    4  A    between atoms: C_6  and  N_7 
REMARK       I    between atoms: N_7  and  C_8 
REMARK    5  A    between atoms: C_8  and  C_10 
REMARK    6  A    between atoms: C_10  and  C_11 
REMARK    7  A    between atoms: C_16  and  N_18 
REMARK    8  A    between atoms: N_18  and  C_19 
REMARK    9  A    between atoms: C_28  and  C_38 
REMARK   10  A    between atoms: C_31  and  O_37 
REMARK   11  A    between atoms: C_33  and  C_34 
REMARK   12  A    between atoms: C_33  and  C_35 
REMARK   13  A    between atoms: C_35  and  O_36 
ROOT
ATOM      1  C   LIG d   1       8.648   2.515  -4.985  0.00  0.00     0.016 C 
ATOM      2  H   LIG d   1       7.801   3.021  -4.521  0.00  0.00     0.037 H 
ATOM      3  C   LIG d   1       8.496   2.557  -6.498  0.00  0.00     0.058 A 
ATOM      4  C   LIG d   1       9.202   3.458  -7.228  0.00  0.00     0.015 A 
ATOM      5  S   LIG d   1       8.677   3.112  -8.885  0.00  0.00    -0.057 SA
ATOM      6  C   LIG d   1       7.580   1.821  -8.497  0.00  0.00     0.163 A 
ATOM      7  N   LIG d   1       7.691   1.750  -7.186  0.00  0.00    -0.229 NA
ATOM      8  C   LIG d   1      10.172   4.470  -6.731  0.00  0.00    -0.016 C 
ATOM      9  C   LIG d   1      10.012   4.614  -5.205  0.00  0.00    -0.021 C 
ATOM     10  H   LIG d   1       9.101   5.167  -4.976  0.00  0.00     0.032 H 
ATOM     11  C   LIG d   1       9.950   3.219  -4.579  0.00  0.00    -0.019 C 
ATOM     12  C   LIG d   1       9.956   3.326  -3.051  0.00  0.00    -0.044 C 
ATOM     13  C   LIG d   1      11.207   4.064  -2.575  0.00  0.00    -0.026 C 
ATOM     14  C   LIG d   1      11.201   5.475  -3.168  0.00  0.00     0.063 C 
ATOM     15  H   LIG d   1      10.295   5.998  -2.859  0.00  0.00     0.060 H 
ATOM     16  C   LIG d   1      11.241   5.370  -4.691  0.00  0.00     0.021 C 
ATOM     17  H   LIG d   1       9.974   5.429  -7.210  0.00  0.00     0.032 H 
ATOM     18  H   LIG d   1      11.187   4.151  -6.963  0.00  0.00     0.032 H 
ATOM     19  H   LIG d   1       9.942   2.326  -2.619  0.00  0.00     0.027 H 
ATOM     20  H   LIG d   1       9.071   3.872  -2.725  0.00  0.00     0.027 H 
ATOM     21  H   LIG d   1      12.095   3.529  -2.912  0.00  0.00     0.029 H 
ATOM     22  H   LIG d   1      11.206   4.124  -1.487  0.00  0.00     0.029 H 
ENDROOT
BRANCH   1  23
ATOM     23  C   LIG d   1       8.688   1.058  -4.517  0.00  0.00     0.033 C 
ATOM     24  H   LIG d   1       8.781   0.402  -5.382  0.00  0.00     0.036 H 
ATOM     25  H   LIG d   1       9.544   0.913  -3.858  0.00  0.00     0.036 H 
BRANCH  23  26
ATOM     26  C   LIG d   1       7.419   0.734  -3.772  0.00  0.00     0.214 C 
ATOM     27  N   LIG d   1       7.124  -0.546  -3.470  0.00  0.00    -0.314 N 
ATOM     28  H   LIG d   1       7.729  -1.258  -3.731  0.00  0.00     0.149 HD
ATOM     29  O   LIG d   1       6.663   1.624  -3.446  0.00  0.00    -0.276 OA
BRANCH  27  30
ATOM     30  C   LIG d   1       5.890  -0.861  -2.746  0.00  0.00     0.027 C 
ATOM     31  H   LIG d   1       6.133  -1.391  -1.826  0.00  0.00     0.048 H 
ATOM     32  H   LIG d   1       5.364   0.063  -2.506  0.00  0.00     0.048 H 
BRANCH  30  33
ATOM     33  C   LIG d   1       4.996  -1.742  -3.622  0.00  0.00     0.027 C 
ATOM     34  H   LIG d   1       5.513  -1.971  -4.554  0.00  0.00     0.048 H 
ATOM     35  H   LIG d   1       4.771  -2.668  -3.093  0.00  0.00     0.048 H 
BRANCH  33  36
ATOM     36  N   LIG d   1       3.748  -1.032  -3.916  0.00  0.00    -0.314 N 
ATOM     37  C   LIG d   1       3.688  -0.179  -4.958  0.00  0.00     0.210 C 
ATOM     38  O   LIG d   1       4.666   0.000  -5.653  0.00  0.00    -0.276 OA
ATOM     39  H   LIG d   1       2.966  -1.175  -3.360  0.00  0.00     0.149 HD
BRANCH  37  40
ATOM     40  C   LIG d   1       2.405   0.552  -5.259  0.00  0.00     0.012 C 
ATOM     41  H   LIG d   1       1.791   0.593  -4.359  0.00  0.00     0.032 H 
ATOM     42  H   LIG d   1       2.634   1.564  -5.590  0.00  0.00     0.032 H 
ATOM     43  H   LIG d   1       1.862   0.026  -6.044  0.00  0.00     0.032 H 
ENDBRANCH  37  40
ENDBRANCH  33  36
ENDBRANCH  30  33
ENDBRANCH  27  30
ENDBRANCH  23  26
ENDBRANCH   1  23
BRANCH  11  44
ATOM     44  C   LIG d   1      11.153   2.394  -5.042  0.00  0.00    -0.059 C 
ATOM     45  H   LIG d   1      11.990   2.562  -4.365  0.00  0.00     0.024 H 
ATOM     46  H   LIG d   1      10.891   1.336  -5.040  0.00  0.00     0.024 H 
ATOM     47  H   LIG d   1      11.434   2.698  -6.051  0.00  0.00     0.024 H 
ENDBRANCH  11  44
BRANCH  16  48
ATOM     48  C   LIG d   1      11.261   6.775  -5.296  0.00  0.00    -0.055 C 
ATOM     49  H   LIG d   1      12.281   7.033  -5.581  0.00  0.00     0.024 H 
ATOM     50  H   LIG d   1      10.620   6.800  -6.177  0.00  0.00     0.024 H 
ATOM     51  H   LIG d   1      10.897   7.492  -4.561  0.00  0.00     0.024 H 
ENDBRANCH  16  48
BRANCH  16  52
ATOM     52  C   LIG d   1      12.509   4.622  -5.113  0.00  0.00     0.052 C 
ATOM     53  H   LIG d   1      12.772   3.893  -4.346  0.00  0.00     0.056 H 
ATOM     54  H   LIG d   1      12.330   4.108  -6.057  0.00  0.00     0.056 H 
BRANCH  52  55
ATOM     55  O   LIG d   1      13.580   5.554  -5.272  0.00  0.00    -0.394 OA
ATOM     56  H   LIG d   1      14.455   5.178  -5.108  0.00  0.00     0.209 HD
ENDBRANCH  52  55
ENDBRANCH  16  52
BRANCH   6  57
ATOM     57  N   LIG d   1       6.793   1.060  -9.348  0.00  0.00    -0.292 N 
ATOM     58  H   LIG d   1       7.209   0.509 -10.030  0.00  0.00     0.154 HD
BRANCH  57  59
ATOM     59  C   LIG d   1       5.401   1.085  -9.222  0.00  0.00     0.051 A 
ATOM     60  C   LIG d   1       4.683  -0.098  -9.106  0.00  0.00     0.049 A 
ATOM     61  N   LIG d   1       3.370  -0.077  -8.982  0.00  0.00    -0.261 NA
ATOM     62  H   LIG d   1       5.204  -1.043  -9.113  0.00  0.00     0.085 H 
ATOM     63  C   LIG d   1       2.690   1.053  -8.975  0.00  0.00     0.028 A 
ATOM     64  C   LIG d   1       3.334   2.271  -9.092  0.00  0.00    -0.042 A 
ATOM     65  H   LIG d   1       1.615   1.027  -8.875  0.00  0.00     0.083 H 
ATOM     66  C   LIG d   1       4.714   2.297  -9.218  0.00  0.00    -0.038 A 
ATOM     67  H   LIG d   1       2.769   3.190  -9.084  0.00  0.00     0.063 H 
ATOM     68  H   LIG d   1       5.243   3.234  -9.311  0.00  0.00     0.064 H 
ENDBRANCH  57  59
ENDBRANCH   6  57
BRANCH  14  69
ATOM     69  O   LIG d   1      12.347   6.194  -2.707  0.00  0.00    -0.391 OA
ATOM     70  H   LIG d   1      12.636   5.945  -1.818  0.00  0.00     0.210 HD
ENDBRANCH  14  69
TORSDOF 13
ENDMDL
MODEL 5
REMARK VINA RESULT:      -5.9      5.374      8.796
REMARK  13 active torsions:
REMARK  status: ('A' for Active; 'I' for Inactive)
REMARK    1  A    between atoms: C_1  and  C_2 
REMARK       I    between atoms: C_2  and  N_4 
REMARK    2  A    between atoms: N_4  and  C_5 
REMARK    3  A    between atoms: C_5  and  C_6 
REMARK    4  A    between atoms: C_6  and  N_7 
REMARK       I    between atoms: N_7  and  C_8 
REMARK    5  A    between atoms: C_8  and  C_10 
REMARK    6  A    between atoms: C_10  and  C_11 
REMARK    7  A    between atoms: C_16  and  N_18 
REMARK    8  A    between atoms: N_18  and  C_19 
REMARK    9  A    between atoms: C_28  and  C_38 
REMARK   10  A    between atoms: C_31  and  O_37 
REMARK   11  A    between atoms: C_33  and  C_34 
REMARK   12  A    between atoms: C_33  and  C_35 
REMARK   13  A    between atoms: C_35  and  O_36 
ROOT
ATOM      1  C   LIG d   1       7.140  -2.888  -4.206  0.00  0.00     0.016 C 
ATOM      2  H   LIG d   1       7.335  -3.115  -3.158  0.00  0.00     0.037 H 
ATOM      3  C   LIG d   1       6.329  -4.016  -4.826  0.00  0.00     0.058 A 
ATOM      4  C   LIG d   1       4.991  -3.872  -5.006  0.00  0.00     0.015 A 
ATOM      5  S   LIG d   1       4.528  -5.422  -5.731  0.00  0.00    -0.057 SA
ATOM      6  C   LIG d   1       6.114  -6.134  -5.744  0.00  0.00     0.163 A 
ATOM      7  N   LIG d   1       6.850  -5.178  -5.217  0.00  0.00    -0.229 NA
ATOM      8  C   LIG d   1       4.150  -2.692  -4.670  0.00  0.00    -0.016 C 
ATOM      9  C   LIG d   1       4.947  -1.755  -3.741  0.00  0.00    -0.021 C 
ATOM     10  H   LIG d   1       5.000  -2.180  -2.739  0.00  0.00     0.032 H 
ATOM     11  C   LIG d   1       6.356  -1.574  -4.309  0.00  0.00    -0.019 C 
ATOM     12  C   LIG d   1       7.118  -0.520  -3.499  0.00  0.00    -0.044 C 
ATOM     13  C   LIG d   1       6.366   0.810  -3.517  0.00  0.00    -0.026 C 
ATOM     14  C   LIG d   1       4.989   0.604  -2.882  0.00  0.00     0.063 C 
ATOM     15  H   LIG d   1       5.106   0.231  -1.864  0.00  0.00     0.060 H 
ATOM     16  C   LIG d   1       4.210  -0.413  -3.715  0.00  0.00     0.021 C 
ATOM     17  H   LIG d   1       3.244  -3.024  -4.163  0.00  0.00     0.032 H 
ATOM     18  H   LIG d   1       3.883  -2.161  -5.583  0.00  0.00     0.032 H 
ATOM     19  H   LIG d   1       8.109  -0.379  -3.933  0.00  0.00     0.027 H 
ATOM     20  H   LIG d   1       7.221  -0.863  -2.470  0.00  0.00     0.027 H 
ATOM     21  H   LIG d   1       6.248   1.149  -4.546  0.00  0.00     0.029 H 
ATOM     22  H   LIG d   1       6.924   1.554  -2.948  0.00  0.00     0.029 H 
ENDROOT
BRANCH   1  23
ATOM     23  C   LIG d   1       8.471  -2.748  -4.951  0.00  0.00     0.033 C 
ATOM     24  H   LIG d   1       8.390  -3.221  -5.929  0.00  0.00     0.036 H 
ATOM     25  H   LIG d   1       8.706  -1.692  -5.076  0.00  0.00     0.036 H 
BRANCH  23  26
ATOM     26  C   LIG d   1       9.563  -3.417  -4.157  0.00  0.00     0.214 C 
ATOM     27  N   LIG d   1       9.250  -4.195  -3.102  0.00  0.00    -0.314 N 
ATOM     28  H   LIG d   1       8.320  -4.326  -2.855  0.00  0.00     0.149 HD
ATOM     29  O   LIG d   1      10.724  -3.253  -4.466  0.00  0.00    -0.276 OA
BRANCH  27  30
ATOM     30  C   LIG d   1      10.312  -4.845  -2.331  0.00  0.00     0.027 C 
ATOM     31  H   LIG d   1      11.236  -4.839  -2.908  0.00  0.00     0.048 H 
ATOM     32  H   LIG d   1      10.463  -4.305  -1.395  0.00  0.00     0.048 H 
BRANCH  30  33
ATOM     33  C   LIG d   1       9.909  -6.290  -2.025  0.00  0.00     0.027 C 
ATOM     34  H   LIG d   1       8.829  -6.395  -2.126  0.00  0.00     0.048 H 
ATOM     35  H   LIG d   1      10.407  -6.960  -2.726  0.00  0.00     0.048 H 
BRANCH  33  36
ATOM     36  N   LIG d   1      10.310  -6.629  -0.657  0.00  0.00    -0.314 N 
ATOM     37  C   LIG d   1      11.047  -7.734  -0.427  0.00  0.00     0.210 C 
ATOM     38  O   LIG d   1      11.378  -8.447  -1.350  0.00  0.00    -0.276 OA
ATOM     39  H   LIG d   1      10.045  -6.060   0.081  0.00  0.00     0.149 HD
BRANCH  37  40
ATOM     40  C   LIG d   1      11.458  -8.084   0.981  0.00  0.00     0.012 C 
ATOM     41  H   LIG d   1      12.440  -8.557   0.965  0.00  0.00     0.032 H 
ATOM     42  H   LIG d   1      11.501  -7.176   1.582  0.00  0.00     0.032 H 
ATOM     43  H   LIG d   1      10.731  -8.772   1.412  0.00  0.00     0.032 H 
ENDBRANCH  37  40
ENDBRANCH  33  36
ENDBRANCH  30  33
ENDBRANCH  27  30
ENDBRANCH  23  26
ENDBRANCH   1  23
BRANCH  11  44
ATOM     44  C   LIG d   1       6.268  -1.134  -5.772  0.00  0.00    -0.059 C 
ATOM     45  H   LIG d   1       5.790  -0.156  -5.828  0.00  0.00     0.024 H 
ATOM     46  H   LIG d   1       7.271  -1.074  -6.195  0.00  0.00     0.024 H 
ATOM     47  H   LIG d   1       5.679  -1.860  -6.334  0.00  0.00     0.024 H 
ENDBRANCH  11  44
BRANCH  16  48
ATOM     48  C   LIG d   1       2.821  -0.609  -3.106  0.00  0.00    -0.055 C 
ATOM     49  H   LIG d   1       2.472   0.334  -2.683  0.00  0.00     0.024 H 
ATOM     50  H   LIG d   1       2.127  -0.937  -3.881  0.00  0.00     0.024 H 
ATOM     51  H   LIG d   1       2.871  -1.363  -2.320  0.00  0.00     0.024 H 
ENDBRANCH  16  48
BRANCH  16  52
ATOM     52  C   LIG d   1       4.063   0.113  -5.145  0.00  0.00     0.052 C 
ATOM     53  H   LIG d   1       4.951   0.684  -5.415  0.00  0.00     0.056 H 
ATOM     54  H   LIG d   1       3.949  -0.727  -5.830  0.00  0.00     0.056 H 
BRANCH  52  55
ATOM     55  O   LIG d   1       2.911   0.955  -5.227  0.00  0.00    -0.394 OA
ATOM     56  H   LIG d   1       3.115   1.883  -5.404  0.00  0.00     0.209 HD
ENDBRANCH  52  55
ENDBRANCH  16  52
BRANCH   6  57
ATOM     57  N   LIG d   1       6.503  -7.386  -6.196  0.00  0.00    -0.292 N 
ATOM     58  H   LIG d   1       7.210  -7.465  -6.855  0.00  0.00     0.154 HD
BRANCH  57  59
ATOM     59  C   LIG d   1       5.879  -8.534  -5.699  0.00  0.00     0.051 A 
ATOM     60  C   LIG d   1       4.848  -9.138  -6.407  0.00  0.00     0.049 A 
ATOM     61  N   LIG d   1       4.261 -10.224  -5.943  0.00  0.00    -0.261 NA
ATOM     62  H   LIG d   1       4.527  -8.717  -7.347  0.00  0.00     0.085 H 
ATOM     63  C   LIG d   1       4.615 -10.770  -4.797  0.00  0.00     0.028 A 
ATOM     64  C   LIG d   1       5.629 -10.224  -4.032  0.00  0.00    -0.042 A 
ATOM     65  H   LIG d   1       4.106 -11.658  -4.450  0.00  0.00     0.083 H 
ATOM     66  C   LIG d   1       6.278  -9.086  -4.483  0.00  0.00    -0.038 A 
ATOM     67  H   LIG d   1       5.912 -10.678  -3.095  0.00  0.00     0.063 H 
ATOM     68  H   LIG d   1       7.074  -8.637  -3.907  0.00  0.00     0.064 H 
ENDBRANCH  57  59
ENDBRANCH   6  57
BRANCH  14  69
ATOM     69  O   LIG d   1       4.282   1.846  -2.857  0.00  0.00    -0.391 OA
ATOM     70  H   LIG d   1       3.928   2.080  -1.988  0.00  0.00     0.210 HD
ENDBRANCH  14  69
TORSDOF 13
ENDMDL
MODEL 6
REMARK VINA RESULT:      -5.9      5.938     10.475
REMARK  13 active torsions:
REMARK  status: ('A' for Active; 'I' for Inactive)
REMARK    1  A    between atoms: C_1  and  C_2 
REMARK       I    between atoms: C_2  and  N_4 
REMARK    2  A    between atoms: N_4  and  C_5 
REMARK    3  A    between atoms: C_5  and  C_6 
REMARK    4  A    between atoms: C_6  and  N_7 
REMARK       I    between atoms: N_7  and  C_8 
REMARK    5  A    between atoms: C_8  and  C_10 
REMARK    6  A    between atoms: C_10  and  C_11 
REMARK    7  A    between atoms: C_16  and  N_18 
REMARK    8  A    between atoms: N_18  and  C_19 
REMARK    9  A    between atoms: C_28  and  C_38 
REMARK   10  A    between atoms: C_31  and  O_37 
REMARK   11  A    between atoms: C_33  and  C_34 
REMARK   12  A    between atoms: C_33  and  C_35 
REMARK   13  A    between atoms: C_35  and  O_36 
ROOT
ATOM      1  C   LIG d   1       9.913   5.932  -4.015  0.00  0.00     0.016 C 
ATOM      2  H   LIG d   1       8.942   5.540  -3.712  0.00  0.00     0.037 H 
ATOM      3  C   LIG d   1       9.716   7.220  -4.800  0.00  0.00     0.058 A 
ATOM      4  C   LIG d   1       9.915   8.420  -4.198  0.00  0.00     0.015 A 
ATOM      5  S   LIG d   1       9.558   9.571  -5.499  0.00  0.00    -0.057 SA
ATOM      6  C   LIG d   1       9.180   8.397  -6.724  0.00  0.00     0.163 A 
ATOM      7  N   LIG d   1       9.347   7.261  -6.079  0.00  0.00    -0.229 NA
ATOM      8  C   LIG d   1      10.331   8.675  -2.793  0.00  0.00    -0.016 C 
ATOM      9  C   LIG d   1      10.167   7.379  -1.977  0.00  0.00    -0.021 C 
ATOM     10  H   LIG d   1       9.110   7.194  -1.779  0.00  0.00     0.032 H 
ATOM     11  C   LIG d   1      10.763   6.213  -2.769  0.00  0.00    -0.019 C 
ATOM     12  C   LIG d   1      10.762   4.941  -1.916  0.00  0.00    -0.044 C 
ATOM     13  C   LIG d   1      11.554   5.165  -0.628  0.00  0.00    -0.026 C 
ATOM     14  C   LIG d   1      10.889   6.291   0.168  0.00  0.00     0.063 C 
ATOM     15  H   LIG d   1       9.854   6.026   0.384  0.00  0.00     0.060 H 
ATOM     16  C   LIG d   1      10.931   7.572  -0.663  0.00  0.00     0.021 C 
ATOM     17  H   LIG d   1       9.706   9.459  -2.365  0.00  0.00     0.032 H 
ATOM     18  H   LIG d   1      11.374   8.990  -2.771  0.00  0.00     0.032 H 
ATOM     19  H   LIG d   1      11.217   4.128  -2.481  0.00  0.00     0.027 H 
ATOM     20  H   LIG d   1       9.735   4.677  -1.666  0.00  0.00     0.027 H 
ATOM     21  H   LIG d   1      12.578   5.445  -0.873  0.00  0.00     0.029 H 
ATOM     22  H   LIG d   1      11.556   4.250  -0.035  0.00  0.00     0.029 H 
ENDROOT
BRANCH   1  23
ATOM     23  C   LIG d   1      10.625   4.902  -4.896  0.00  0.00     0.033 C 
ATOM     24  H   LIG d   1      11.079   5.406  -5.748  0.00  0.00     0.036 H 
ATOM     25  H   LIG d   1      11.399   4.401  -4.315  0.00  0.00     0.036 H 
BRANCH  23  26
ATOM     26  C   LIG d   1       9.627   3.884  -5.385  0.00  0.00     0.214 C 
ATOM     27  N   LIG d   1       9.013   3.066  -4.507  0.00  0.00    -0.314 N 
ATOM     28  H   LIG d   1       9.214   3.133  -3.560  0.00  0.00     0.149 HD
ATOM     29  O   LIG d   1       9.377   3.801  -6.568  0.00  0.00    -0.276 OA
BRANCH  27  30
ATOM     30  C   LIG d   1       8.043   2.078  -4.983  0.00  0.00     0.027 C 
ATOM     31  H   LIG d   1       7.179   2.589  -5.406  0.00  0.00     0.048 H 
ATOM     32  H   LIG d   1       8.506   1.453  -5.747  0.00  0.00     0.048 H 
BRANCH  30  33
ATOM     33  C   LIG d   1       7.593   1.200  -3.812  0.00  0.00     0.027 C 
ATOM     34  H   LIG d   1       7.608   0.153  -4.116  0.00  0.00     0.048 H 
ATOM     35  H   LIG d   1       8.271   1.344  -2.970  0.00  0.00     0.048 H 
BRANCH  33  36
ATOM     36  N   LIG d   1       6.234   1.576  -3.414  0.00  0.00    -0.314 N 
ATOM     37  C   LIG d   1       5.418   0.658  -2.858  0.00  0.00     0.210 C 
ATOM     38  O   LIG d   1       5.808  -0.477  -2.687  0.00  0.00    -0.276 OA
ATOM     39  H   LIG d   1       5.922   2.484  -3.550  0.00  0.00     0.149 HD
BRANCH  37  40
ATOM     40  C   LIG d   1       4.019   1.045  -2.449  0.00  0.00     0.012 C 
ATOM     41  H   LIG d   1       3.858   0.772  -1.406  0.00  0.00     0.032 H 
ATOM     42  H   LIG d   1       3.892   2.121  -2.567  0.00  0.00     0.032 H 
ATOM     43  H   LIG d   1       3.299   0.522  -3.077  0.00  0.00     0.032 H 
ENDBRANCH  37  40
ENDBRANCH  33  36
ENDBRANCH  30  33
ENDBRANCH  27  30
ENDBRANCH  23  26
ENDBRANCH   1  23
BRANCH  11  44
ATOM     44  C   LIG d   1      12.196   6.554  -3.183  0.00  0.00    -0.059 C 
ATOM     45  H   LIG d   1      12.259   6.600  -4.270  0.00  0.00     0.024 H 
ATOM     46  H   LIG d   1      12.476   7.519  -2.761  0.00  0.00     0.024 H 
ATOM     47  H   LIG d   1      12.873   5.784  -2.812  0.00  0.00     0.024 H 
ENDBRANCH  11  44
BRANCH  16  48
ATOM     48  C   LIG d   1      10.293   8.713   0.131  0.00  0.00    -0.055 C 
ATOM     49  H   LIG d   1      10.958   9.005   0.945  0.00  0.00     0.024 H 
ATOM     50  H   LIG d   1      10.127   9.566  -0.527  0.00  0.00     0.024 H 
ATOM     51  H   LIG d   1       9.340   8.381   0.543  0.00  0.00     0.024 H 
ENDBRANCH  16  48
BRANCH  16  52
ATOM     52  C   LIG d   1      12.387   7.927  -0.973  0.00  0.00     0.052 C 
ATOM     53  H   LIG d   1      12.967   7.012  -1.089  0.00  0.00     0.056 H 
ATOM     54  H   LIG d   1      12.432   8.506  -1.895  0.00  0.00     0.056 H 
BRANCH  52  55
ATOM     55  O   LIG d   1      12.928   8.699   0.102  0.00  0.00    -0.394 OA
ATOM     56  H   LIG d   1      12.487   8.555   0.950  0.00  0.00     0.209 HD
ENDBRANCH  52  55
ENDBRANCH  16  52
BRANCH   6  57
ATOM     57  N   LIG d   1       8.802   8.604  -8.042  0.00  0.00    -0.292 N 
ATOM     58  H   LIG d   1       8.145   9.283  -8.257  0.00  0.00     0.154 HD
BRANCH  57  59
ATOM     59  C   LIG d   1       9.370   7.834  -9.062  0.00  0.00     0.051 A 
ATOM     60  C   LIG d   1      10.514   8.268  -9.719  0.00  0.00     0.049 A 
ATOM     61  N   LIG d   1      11.054   7.541 -10.677  0.00  0.00    -0.261 NA
ATOM     62  H   LIG d   1      10.967   9.207  -9.440  0.00  0.00     0.085 H 
ATOM     63  C   LIG d   1      10.533   6.391 -11.056  0.00  0.00     0.028 A 
ATOM     64  C   LIG d   1       9.392   5.895 -10.453  0.00  0.00    -0.042 A 
ATOM     65  H   LIG d   1      11.004   5.827 -11.848  0.00  0.00     0.083 H 
ATOM     66  C   LIG d   1       8.793   6.623  -9.437  0.00  0.00    -0.038 A 
ATOM     67  H   LIG d   1       8.973   4.952 -10.769  0.00  0.00     0.063 H 
ATOM     68  H   LIG d   1       7.901   6.259  -8.948  0.00  0.00     0.064 H 
ENDBRANCH  57  59
ENDBRANCH   6  57
BRANCH  14  69
ATOM     69  O   LIG d   1      11.596   6.493   1.394  0.00  0.00    -0.391 OA
ATOM     70  H   LIG d   1      11.033   6.765   2.132  0.00  0.00     0.210 HD
ENDBRANCH  14  69
TORSDOF 13
ENDMDL
MODEL 7
REMARK VINA RESULT:      -5.6      8.243     10.992
REMARK  13 active torsions:
REMARK  status: ('A' for Active; 'I' for Inactive)
REMARK    1  A    between atoms: C_1  and  C_2 
REMARK       I    between atoms: C_2  and  N_4 
REMARK    2  A    between atoms: N_4  and  C_5 
REMARK    3  A    between atoms: C_5  and  C_6 
REMARK    4  A    between atoms: C_6  and  N_7 
REMARK       I    between atoms: N_7  and  C_8 
REMARK    5  A    between atoms: C_8  and  C_10 
REMARK    6  A    between atoms: C_10  and  C_11 
REMARK    7  A    between atoms: C_16  and  N_18 
REMARK    8  A    between atoms: N_18  and  C_19 
REMARK    9  A    between atoms: C_28  and  C_38 
REMARK   10  A    between atoms: C_31  and  O_37 
REMARK   11  A    between atoms: C_33  and  C_34 
REMARK   12  A    between atoms: C_33  and  C_35 
REMARK   13  A    between atoms: C_35  and  O_36 
ROOT
ATOM      1  C   LIG d   1       8.869  -7.472  -2.807  0.00  0.00     0.016 C 
ATOM      2  H   LIG d   1       8.143  -6.784  -2.376  0.00  0.00     0.037 H 
ATOM      3  C   LIG d   1       9.679  -8.118  -1.693  0.00  0.00     0.058 A 
ATOM      4  C   LIG d   1       9.389  -9.379  -1.284  0.00  0.00     0.015 A 
ATOM      5  S   LIG d   1      10.578  -9.654   0.003  0.00  0.00    -0.057 SA
ATOM      6  C   LIG d   1      11.360  -8.105  -0.096  0.00  0.00     0.163 A 
ATOM      7  N   LIG d   1      10.686  -7.516  -1.062  0.00  0.00    -0.229 NA
ATOM      8  C   LIG d   1       8.329 -10.283  -1.806  0.00  0.00    -0.016 C 
ATOM      9  C   LIG d   1       7.342  -9.462  -2.658  0.00  0.00    -0.021 C 
ATOM     10  H   LIG d   1       6.705  -8.858  -2.011  0.00  0.00     0.032 H 
ATOM     11  C   LIG d   1       8.135  -8.558  -3.605  0.00  0.00    -0.019 C 
ATOM     12  C   LIG d   1       7.186  -7.852  -4.577  0.00  0.00    -0.044 C 
ATOM     13  C   LIG d   1       6.381  -8.877  -5.374  0.00  0.00    -0.026 C 
ATOM     14  C   LIG d   1       5.551  -9.717  -4.400  0.00  0.00     0.063 C 
ATOM     15  H   LIG d   1       4.895  -9.066  -3.822  0.00  0.00     0.060 H 
ATOM     16  C   LIG d   1       6.499 -10.459  -3.459  0.00  0.00     0.021 C 
ATOM     17  H   LIG d   1       7.798 -10.742  -0.972  0.00  0.00     0.032 H 
ATOM     18  H   LIG d   1       8.782 -11.061  -2.420  0.00  0.00     0.032 H 
ATOM     19  H   LIG d   1       7.766  -7.236  -5.264  0.00  0.00     0.027 H 
ATOM     20  H   LIG d   1       6.502  -7.217  -4.013  0.00  0.00     0.027 H 
ATOM     21  H   LIG d   1       7.062  -9.524  -5.928  0.00  0.00     0.029 H 
ATOM     22  H   LIG d   1       5.718  -8.363  -6.070  0.00  0.00     0.029 H 
ENDROOT
BRANCH   1  23
ATOM     23  C   LIG d   1       9.808  -6.703  -3.739  0.00  0.00     0.033 C 
ATOM     24  H   LIG d   1      10.842  -6.938  -3.487  0.00  0.00     0.036 H 
ATOM     25  H   LIG d   1       9.612  -6.991  -4.771  0.00  0.00     0.036 H 
BRANCH  23  26
ATOM     26  C   LIG d   1       9.575  -5.223  -3.578  0.00  0.00     0.214 C 
ATOM     27  N   LIG d   1       8.484  -4.650  -4.125  0.00  0.00    -0.314 N 
ATOM     28  H   LIG d   1       7.850  -5.190  -4.622  0.00  0.00     0.149 HD
ATOM     29  O   LIG d   1      10.367  -4.548  -2.957  0.00  0.00    -0.276 OA
BRANCH  27  30
ATOM     30  C   LIG d   1       8.256  -3.212  -3.968  0.00  0.00     0.027 C 
ATOM     31  H   LIG d   1       8.242  -2.959  -2.908  0.00  0.00     0.048 H 
ATOM     32  H   LIG d   1       9.057  -2.661  -4.463  0.00  0.00     0.048 H 
BRANCH  30  33
ATOM     33  C   LIG d   1       6.914  -2.836  -4.600  0.00  0.00     0.027 C 
ATOM     34  H   LIG d   1       7.079  -2.114  -5.400  0.00  0.00     0.048 H 
ATOM     35  H   LIG d   1       6.442  -3.730  -5.008  0.00  0.00     0.048 H 
BRANCH  33  36
ATOM     36  N   LIG d   1       6.042  -2.246  -3.581  0.00  0.00    -0.314 N 
ATOM     37  C   LIG d   1       4.744  -2.602  -3.518  0.00  0.00     0.210 C 
ATOM     38  O   LIG d   1       4.297  -3.409  -4.305  0.00  0.00    -0.276 OA
ATOM     39  H   LIG d   1       6.399  -1.600  -2.952  0.00  0.00     0.149 HD
BRANCH  37  40
ATOM     40  C   LIG d   1       3.846  -1.994  -2.470  0.00  0.00     0.012 C 
ATOM     41  H   LIG d   1       2.832  -1.917  -2.861  0.00  0.00     0.032 H 
ATOM     42  H   LIG d   1       3.847  -2.626  -1.582  0.00  0.00     0.032 H 
ATOM     43  H   LIG d   1       4.212  -1.001  -2.210  0.00  0.00     0.032 H 
ENDBRANCH  37  40
ENDBRANCH  33  36
ENDBRANCH  30  33
ENDBRANCH  27  30
ENDBRANCH  23  26
ENDBRANCH   1  23
BRANCH  11  44
ATOM     44  C   LIG d   1       9.144  -9.398  -4.391  0.00  0.00    -0.059 C 
ATOM     45  H   LIG d   1      10.154  -9.154  -4.063  0.00  0.00     0.024 H 
ATOM     46  H   LIG d   1       8.951 -10.457  -4.216  0.00  0.00     0.024 H 
ATOM     47  H   LIG d   1       9.045  -9.182  -5.455  0.00  0.00     0.024 H 
ENDBRANCH  11  44
BRANCH  16  48
ATOM     48  C   LIG d   1       5.684 -11.323  -2.496  0.00  0.00    -0.055 C 
ATOM     49  H   LIG d   1       5.310 -12.202  -3.023  0.00  0.00     0.024 H 
ATOM     50  H   LIG d   1       6.317 -11.639  -1.667  0.00  0.00     0.024 H 
ATOM     51  H   LIG d   1       4.843 -10.745  -2.112  0.00  0.00     0.024 H 
ENDBRANCH  16  48
BRANCH  16  52
ATOM     52  C   LIG d   1       7.425 -11.359  -4.282  0.00  0.00     0.052 C 
ATOM     53  H   LIG d   1       7.565 -10.927  -5.273  0.00  0.00     0.056 H 
ATOM     54  H   LIG d   1       8.391 -11.440  -3.782  0.00  0.00     0.056 H 
BRANCH  52  55
ATOM     55  O   LIG d   1       6.841 -12.657  -4.405  0.00  0.00    -0.394 OA
ATOM     56  H   LIG d   1       7.262 -13.215  -5.072  0.00  0.00     0.209 HD
ENDBRANCH  52  55
ENDBRANCH  16  52
BRANCH   6  57
ATOM     57  N   LIG d   1      12.422  -7.616   0.650  0.00  0.00    -0.292 N 
ATOM     58  H   LIG d   1      12.907  -6.833   0.346  0.00  0.00     0.154 HD
BRANCH  57  59
ATOM     59  C   LIG d   1      12.793  -8.251   1.839  0.00  0.00     0.051 A 
ATOM     60  C   LIG d   1      12.091  -8.012   3.013  0.00  0.00     0.049 A 
ATOM     61  N   LIG d   1      12.435  -8.614   4.135  0.00  0.00    -0.261 NA
ATOM     62  H   LIG d   1      11.253  -7.331   3.007  0.00  0.00     0.085 H 
ATOM     63  C   LIG d   1      13.454  -9.448   4.193  0.00  0.00     0.028 A 
ATOM     64  C   LIG d   1      14.204  -9.732   3.066  0.00  0.00    -0.042 A 
ATOM     65  H   LIG d   1      13.706  -9.918   5.132  0.00  0.00     0.083 H 
ATOM     66  C   LIG d   1      13.875  -9.127   1.864  0.00  0.00    -0.038 A 
ATOM     67  H   LIG d   1      15.037 -10.417   3.123  0.00  0.00     0.063 H 
ATOM     68  H   LIG d   1      14.444  -9.331   0.969  0.00  0.00     0.064 H 
ENDBRANCH  57  59
ENDBRANCH   6  57
BRANCH  14  69
ATOM     69  O   LIG d   1       4.765 -10.661  -5.130  0.00  0.00    -0.391 OA
ATOM     70  H   LIG d   1       5.283 -11.352  -5.564  0.00  0.00     0.210 HD
ENDBRANCH  14  69
TORSDOF 13
ENDMDL
MODEL 8
REMARK VINA RESULT:      -5.6      5.262      8.652
REMARK  13 active torsions:
REMARK  status: ('A' for Active; 'I' for Inactive)
REMARK    1  A    between atoms: C_1  and  C_2 
REMARK       I    between atoms: C_2  and  N_4 
REMARK    2  A    between atoms: N_4  and  C_5 
REMARK    3  A    between atoms: C_5  and  C_6 
REMARK    4  A    between atoms: C_6  and  N_7 
REMARK       I    between atoms: N_7  and  C_8 
REMARK    5  A    between atoms: C_8  and  C_10 
REMARK    6  A    between atoms: C_10  and  C_11 
REMARK    7  A    between atoms: C_16  and  N_18 
REMARK    8  A    between atoms: N_18  and  C_19 
REMARK    9  A    between atoms: C_28  and  C_38 
REMARK   10  A    between atoms: C_31  and  O_37 
REMARK   11  A    between atoms: C_33  and  C_34 
REMARK   12  A    between atoms: C_33  and  C_35 
REMARK   13  A    between atoms: C_35  and  O_36 
ROOT
ATOM      1  C   LIG d   1       9.630   3.719  -4.611  0.00  0.00     0.016 C 
ATOM      2  H   LIG d   1       8.963   4.549  -4.378  0.00  0.00     0.037 H 
ATOM      3  C   LIG d   1       8.814   2.448  -4.791  0.00  0.00     0.058 A 
ATOM      4  C   LIG d   1       8.533   1.992  -6.039  0.00  0.00     0.015 A 
ATOM      5  S   LIG d   1       7.578   0.534  -5.713  0.00  0.00    -0.057 SA
ATOM      6  C   LIG d   1       7.622   0.633  -3.979  0.00  0.00     0.163 A 
ATOM      7  N   LIG d   1       8.332   1.725  -3.782  0.00  0.00    -0.229 NA
ATOM      8  C   LIG d   1       8.941   2.589  -7.338  0.00  0.00    -0.016 C 
ATOM      9  C   LIG d   1       9.442   4.026  -7.097  0.00  0.00    -0.021 C 
ATOM     10  H   LIG d   1       8.597   4.686  -6.898  0.00  0.00     0.032 H 
ATOM     11  C   LIG d   1      10.399   4.025  -5.903  0.00  0.00    -0.019 C 
ATOM     12  C   LIG d   1      11.040   5.406  -5.740  0.00  0.00    -0.044 C 
ATOM     13  C   LIG d   1      11.785   5.800  -7.014  0.00  0.00    -0.026 C 
ATOM     14  C   LIG d   1      10.785   5.856  -8.172  0.00  0.00     0.063 C 
ATOM     15  H   LIG d   1       9.995   6.571  -7.940  0.00  0.00     0.060 H 
ATOM     16  C   LIG d   1      10.179   4.467  -8.365  0.00  0.00     0.021 C 
ATOM     17  H   LIG d   1       8.086   2.608  -8.014  0.00  0.00     0.032 H 
ATOM     18  H   LIG d   1       9.740   1.993  -7.781  0.00  0.00     0.032 H 
ATOM     19  H   LIG d   1      11.741   5.383  -4.906  0.00  0.00     0.027 H 
ATOM     20  H   LIG d   1      10.261   6.141  -5.536  0.00  0.00     0.027 H 
ATOM     21  H   LIG d   1      12.554   5.059  -7.231  0.00  0.00     0.029 H 
ATOM     22  H   LIG d   1      12.246   6.779  -6.882  0.00  0.00     0.029 H 
ENDROOT
BRANCH   1  23
ATOM     23  C   LIG d   1      10.623   3.527  -3.461  0.00  0.00     0.033 C 
ATOM     24  H   LIG d   1      10.403   2.593  -2.944  0.00  0.00     0.036 H 
ATOM     25  H   LIG d   1      11.636   3.492  -3.859  0.00  0.00     0.036 H 
BRANCH  23  26
ATOM     26  C   LIG d   1      10.501   4.677  -2.495  0.00  0.00     0.214 C 
ATOM     27  N   LIG d   1       9.645   5.687  -2.755  0.00  0.00    -0.314 N 
ATOM     28  H   LIG d   1       9.109   5.672  -3.563  0.00  0.00     0.149 HD
ATOM     29  O   LIG d   1      11.172   4.696  -1.486  0.00  0.00    -0.276 OA
BRANCH  27  30
ATOM     30  C   LIG d   1       9.527   6.805  -1.817  0.00  0.00     0.027 C 
ATOM     31  H   LIG d   1       8.474   6.997  -1.610  0.00  0.00     0.048 H 
ATOM     32  H   LIG d   1      10.040   6.555  -0.887  0.00  0.00     0.048 H 
BRANCH  30  33
ATOM     33  C   LIG d   1      10.164   8.054  -2.429  0.00  0.00     0.027 C 
ATOM     34  H   LIG d   1      10.071   8.888  -1.734  0.00  0.00     0.048 H 
ATOM     35  H   LIG d   1      11.219   7.863  -2.628  0.00  0.00     0.048 H 
BRANCH  33  36
ATOM     36  N   LIG d   1       9.483   8.385  -3.684  0.00  0.00    -0.314 N 
ATOM     37  C   LIG d   1      10.202   8.751  -4.764  0.00  0.00     0.210 C 
ATOM     38  O   LIG d   1      11.412   8.806  -4.697  0.00  0.00    -0.276 OA
ATOM     39  H   LIG d   1       8.516   8.340  -3.737  0.00  0.00     0.149 HD
BRANCH  37  40
ATOM     40  C   LIG d   1       9.501   9.091  -6.055  0.00  0.00     0.012 C 
ATOM     41  H   LIG d   1       8.869   9.966  -5.904  0.00  0.00     0.032 H 
ATOM     42  H   LIG d   1      10.242   9.306  -6.823  0.00  0.00     0.032 H 
ATOM     43  H   LIG d   1       8.886   8.248  -6.367  0.00  0.00     0.032 H 
ENDBRANCH  37  40
ENDBRANCH  33  36
ENDBRANCH  30  33
ENDBRANCH  27  30
ENDBRANCH  23  26
ENDBRANCH   1  23
BRANCH  11  44
ATOM     44  C   LIG d   1      11.490   2.974  -6.121  0.00  0.00    -0.059 C 
ATOM     45  H   LIG d   1      12.142   2.942  -5.249  0.00  0.00     0.024 H 
ATOM     46  H   LIG d   1      11.030   1.997  -6.267  0.00  0.00     0.024 H 
ATOM     47  H   LIG d   1      12.075   3.237  -7.003  0.00  0.00     0.024 H 
ENDBRANCH  11  44
BRANCH  16  48
ATOM     48  C   LIG d   1       9.196   4.501  -9.537  0.00  0.00    -0.055 C 
ATOM     49  H   LIG d   1       9.163   5.508  -9.955  0.00  0.00     0.024 H 
ATOM     50  H   LIG d   1       9.521   3.799 -10.305  0.00  0.00     0.024 H 
ATOM     51  H   LIG d   1       8.202   4.222  -9.186  0.00  0.00     0.024 H 
ENDBRANCH  16  48
BRANCH  16  52
ATOM     52  C   LIG d   1      11.296   3.467  -8.676  0.00  0.00     0.052 C 
ATOM     53  H   LIG d   1      12.214   3.783  -8.180  0.00  0.00     0.056 H 
ATOM     54  H   LIG d   1      11.009   2.479  -8.314  0.00  0.00     0.056 H 
BRANCH  52  55
ATOM     55  O   LIG d   1      11.510   3.414 -10.088  0.00  0.00    -0.394 OA
ATOM     56  H   LIG d   1      10.727   3.159 -10.594  0.00  0.00     0.209 HD
ENDBRANCH  52  55
ENDBRANCH  16  52
BRANCH   6  57
ATOM     57  N   LIG d   1       7.057  -0.220  -3.042  0.00  0.00    -0.292 N 
ATOM     58  H   LIG d   1       7.626  -0.742  -2.457  0.00  0.00     0.154 HD
BRANCH  57  59
ATOM     59  C   LIG d   1       5.666  -0.324  -2.942  0.00  0.00     0.051 A 
ATOM     60  C   LIG d   1       4.868   0.810  -2.996  0.00  0.00     0.049 A 
ATOM     61  N   LIG d   1       3.556   0.713  -2.907  0.00  0.00    -0.261 NA
ATOM     62  H   LIG d   1       5.325   1.780  -3.117  0.00  0.00     0.085 H 
ATOM     63  C   LIG d   1       2.953  -0.449  -2.753  0.00  0.00     0.028 A 
ATOM     64  C   LIG d   1       3.681  -1.623  -2.684  0.00  0.00    -0.042 A 
ATOM     65  H   LIG d   1       1.876  -0.485  -2.680  0.00  0.00     0.083 H 
ATOM     66  C   LIG d   1       5.062  -1.570  -2.779  0.00  0.00    -0.038 A 
ATOM     67  H   LIG d   1       3.178  -2.570  -2.557  0.00  0.00     0.063 H 
ATOM     68  H   LIG d   1       5.655  -2.471  -2.728  0.00  0.00     0.064 H 
ENDBRANCH  57  59
ENDBRANCH   6  57
BRANCH  14  69
ATOM     69  O   LIG d   1      11.457   6.256  -9.368  0.00  0.00    -0.391 OA
ATOM     70  H   LIG d   1      10.867   6.585 -10.060  0.00  0.00     0.210 HD
ENDBRANCH  14  69
TORSDOF 13
ENDMDL
MODEL 9
REMARK VINA RESULT:      -5.5      5.301      8.943
REMARK  13 active torsions:
REMARK  status: ('A' for Active; 'I' for Inactive)
REMARK    1  A    between atoms: C_1  and  C_2 
REMARK       I    between atoms: C_2  and  N_4 
REMARK    2  A    between atoms: N_4  and  C_5 
REMARK    3  A    between atoms: C_5  and  C_6 
REMARK    4  A    between atoms: C_6  and  N_7 
REMARK       I    between atoms: N_7  and  C_8 
REMARK    5  A    between atoms: C_8  and  C_10 
REMARK    6  A    between atoms: C_10  and  C_11 
REMARK    7  A    between atoms: C_16  and  N_18 
REMARK    8  A    between atoms: N_18  and  C_19 
REMARK    9  A    between atoms: C_28  and  C_38 
REMARK   10  A    between atoms: C_31  and  O_37 
REMARK   11  A    between atoms: C_33  and  C_34 
REMARK   12  A    between atoms: C_33  and  C_35 
REMARK   13  A    between atoms: C_35  and  O_36 
ROOT
ATOM      1  C   LIG d   1       9.701   4.235  -4.563  0.00  0.00     0.016 C 
ATOM      2  H   LIG d   1       8.992   5.039  -4.364  0.00  0.00     0.037 H 
ATOM      3  C   LIG d   1       8.944   2.931  -4.766  0.00  0.00     0.058 A 
ATOM      4  C   LIG d   1       8.733   2.455  -6.019  0.00  0.00     0.015 A 
ATOM      5  S   LIG d   1       7.826   0.961  -5.720  0.00  0.00    -0.057 SA
ATOM      6  C   LIG d   1       7.796   1.073  -3.986  0.00  0.00     0.163 A 
ATOM      7  N   LIG d   1       8.453   2.195  -3.771  0.00  0.00    -0.229 NA
ATOM      8  C   LIG d   1       9.168   3.060  -7.307  0.00  0.00    -0.016 C 
ATOM      9  C   LIG d   1       9.599   4.518  -7.057  0.00  0.00    -0.021 C 
ATOM     10  H   LIG d   1       8.722   5.145  -6.897  0.00  0.00     0.032 H 
ATOM     11  C   LIG d   1      10.507   4.564  -5.826  0.00  0.00    -0.019 C 
ATOM     12  C   LIG d   1      11.084   5.972  -5.649  0.00  0.00    -0.044 C 
ATOM     13  C   LIG d   1      11.863   6.387  -6.896  0.00  0.00    -0.026 C 
ATOM     14  C   LIG d   1      10.909   6.394  -8.093  0.00  0.00     0.063 C 
ATOM     15  H   LIG d   1      10.082   7.079  -7.899  0.00  0.00     0.060 H 
ATOM     16  C   LIG d   1      10.368   4.981  -8.299  0.00  0.00     0.021 C 
ATOM     17  H   LIG d   1       8.340   3.040  -8.016  0.00  0.00     0.032 H 
ATOM     18  H   LIG d   1      10.007   2.495  -7.712  0.00  0.00     0.032 H 
ATOM     19  H   LIG d   1      11.752   5.982  -4.788  0.00  0.00     0.027 H 
ATOM     20  H   LIG d   1      10.269   6.676  -5.482  0.00  0.00     0.027 H 
ATOM     21  H   LIG d   1      12.670   5.677  -7.075  0.00  0.00     0.029 H 
ATOM     22  H   LIG d   1      12.278   7.385  -6.754  0.00  0.00     0.029 H 
ENDROOT
BRANCH   1  23
ATOM     23  C   LIG d   1      10.653   4.092  -3.373  0.00  0.00     0.033 C 
ATOM     24  H   LIG d   1      10.570   3.086  -2.961  0.00  0.00     0.036 H 
ATOM     25  H   LIG d   1      11.677   4.265  -3.705  0.00  0.00     0.036 H 
BRANCH  23  26
ATOM     26  C   LIG d   1      10.290   5.101  -2.315  0.00  0.00     0.214 C 
ATOM     27  N   LIG d   1       9.546   6.178  -2.638  0.00  0.00    -0.314 N 
ATOM     28  H   LIG d   1       9.244   6.302  -3.552  0.00  0.00     0.149 HD
ATOM     29  O   LIG d   1      10.668   4.946  -1.174  0.00  0.00    -0.276 OA
BRANCH  27  30
ATOM     30  C   LIG d   1       9.194   7.159  -1.610  0.00  0.00     0.027 C 
ATOM     31  H   LIG d   1       8.184   7.527  -1.789  0.00  0.00     0.048 H 
ATOM     32  H   LIG d   1       9.240   6.688  -0.627  0.00  0.00     0.048 H 
BRANCH  30  33
ATOM     33  C   LIG d   1      10.180   8.328  -1.661  0.00  0.00     0.027 C 
ATOM     34  H   LIG d   1      11.117   7.994  -2.107  0.00  0.00     0.048 H 
ATOM     35  H   LIG d   1       9.757   9.133  -2.262  0.00  0.00     0.048 H 
BRANCH  33  36
ATOM     36  N   LIG d   1      10.432   8.814  -0.301  0.00  0.00    -0.314 N 
ATOM     37  C   LIG d   1      11.535   8.415   0.363  0.00  0.00     0.210 C 
ATOM     38  O   LIG d   1      12.319   7.654  -0.164  0.00  0.00    -0.276 OA
ATOM     39  H   LIG d   1       9.805   9.422   0.120  0.00  0.00     0.149 HD
BRANCH  37  40
ATOM     40  C   LIG d   1      11.793   8.915   1.762  0.00  0.00     0.012 C 
ATOM     41  H   LIG d   1      10.897   8.777   2.367  0.00  0.00     0.032 H 
ATOM     42  H   LIG d   1      12.618   8.354   2.200  0.00  0.00     0.032 H 
ATOM     43  H   LIG d   1      12.049   9.973   1.728  0.00  0.00     0.032 H 
ENDBRANCH  37  40
ENDBRANCH  33  36
ENDBRANCH  30  33
ENDBRANCH  27  30
ENDBRANCH  23  26
ENDBRANCH   1  23
BRANCH  11  44
ATOM     44  C   LIG d   1      11.648   3.558  -5.992  0.00  0.00    -0.059 C 
ATOM     45  H   LIG d   1      11.335   2.588  -5.606  0.00  0.00     0.024 H 
ATOM     46  H   LIG d   1      11.900   3.465  -7.048  0.00  0.00     0.024 H 
ATOM     47  H   LIG d   1      12.521   3.905  -5.438  0.00  0.00     0.024 H 
ENDBRANCH  11  44
BRANCH  16  48
ATOM     48  C   LIG d   1       9.432   4.968  -9.509  0.00  0.00    -0.055 C 
ATOM     49  H   LIG d   1       8.714   5.784  -9.422  0.00  0.00     0.024 H 
ATOM     50  H   LIG d   1      10.016   5.093 -10.421  0.00  0.00     0.024 H 
ATOM     51  H   LIG d   1       8.898   4.018  -9.545  0.00  0.00     0.024 H 
ENDBRANCH  16  48
BRANCH  16  52
ATOM     52  C   LIG d   1      11.536   4.025  -8.556  0.00  0.00     0.052 C 
ATOM     53  H   LIG d   1      12.423   4.387  -8.035  0.00  0.00     0.056 H 
ATOM     54  H   LIG d   1      11.280   3.031  -8.190  0.00  0.00     0.056 H 
BRANCH  52  55
ATOM     55  O   LIG d   1      11.801   3.964  -9.960  0.00  0.00    -0.394 OA
ATOM     56  H   LIG d   1      12.730   4.093 -10.190  0.00  0.00     0.209 HD
ENDBRANCH  52  55
ENDBRANCH  16  52
BRANCH   6  57
ATOM     57  N   LIG d   1       7.229   0.205  -3.066  0.00  0.00    -0.292 N 
ATOM     58  H   LIG d   1       7.796  -0.310  -2.472  0.00  0.00     0.154 HD
BRANCH  57  59
ATOM     59  C   LIG d   1       5.839   0.072  -2.995  0.00  0.00     0.051 A 
ATOM     60  C   LIG d   1       5.206  -1.026  -3.562  0.00  0.00     0.049 A 
ATOM     61  N   LIG d   1       3.895  -1.156  -3.490  0.00  0.00    -0.261 NA
ATOM     62  H   LIG d   1       5.792  -1.782  -4.062  0.00  0.00     0.085 H 
ATOM     63  C   LIG d   1       3.138  -0.256  -2.896  0.00  0.00     0.028 A 
ATOM     64  C   LIG d   1       3.695   0.867  -2.312  0.00  0.00    -0.042 A 
ATOM     65  H   LIG d   1       2.068  -0.398  -2.862  0.00  0.00     0.083 H 
ATOM     66  C   LIG d   1       5.069   1.043  -2.358  0.00  0.00    -0.038 A 
ATOM     67  H   LIG d   1       3.067   1.599  -1.827  0.00  0.00     0.063 H 
ATOM     68  H   LIG d   1       5.530   1.911  -1.910  0.00  0.00     0.064 H 
ENDBRANCH  57  59
ENDBRANCH   6  57
BRANCH  14  69
ATOM     69  O   LIG d   1      11.611   6.814  -9.264  0.00  0.00    -0.391 OA
ATOM     70  H   LIG d   1      12.532   7.064  -9.103  0.00  0.00     0.210 HD
ENDBRANCH  14  69
TORSDOF 13
ENDMDL
