MODEL 1
REMARK VINA RESULT:      -5.8      0.000      0.000
REMARK  3 active torsions:
REMARK  status: ('A' for Active; 'I' for Inactive)
REMARK    1  A    between atoms: C_1  and  C_2 
REMARK    2  A    between atoms: C_5  and  C_8 
REMARK    3  A    between atoms: C_13  and  C_17 
ROOT
ATOM      1  C   LIG d   1       3.416  -0.665  -6.973  0.00  0.00     0.090 A 
ATOM      2  C   LIG d   1       4.114  -1.561  -7.723  0.00  0.00     0.037 A 
ATOM      3  N   LIG d   1       3.479  -1.656  -8.929  0.00  0.00    -0.306 N 
ATOM      4  C   LIG d   1       3.736  -2.395 -10.050  0.00  0.00     0.011 A 
ATOM      5  C   LIG d   1       2.936  -2.304 -11.131  0.00  0.00    -0.042 A 
ATOM      6  C   LIG d   1       1.823  -1.447 -11.120  0.00  0.00    -0.046 A 
ATOM      7  C   LIG d   1       1.555  -0.705 -10.011  0.00  0.00    -0.016 A 
ATOM      8  C   LIG d   1       2.400  -0.811  -8.889  0.00  0.00     0.139 A 
ATOM      9  N   LIG d   1       2.375  -0.226  -7.699  0.00  0.00    -0.228 NA
ATOM     10  H   LIG d   1       5.002  -2.096  -7.421  0.00  0.00     0.084 H 
ATOM     11  H   LIG d   1       4.589  -3.057 -10.069  0.00  0.00     0.081 H 
ATOM     12  H   LIG d   1       3.152  -2.893 -12.011  0.00  0.00     0.064 H 
ATOM     13  H   LIG d   1       0.702  -0.043  -9.992  0.00  0.00     0.066 H 
ENDROOT
BRANCH   1  14
ATOM     14  C   LIG d   1       3.744  -0.248  -5.587  0.00  0.00     0.002 A 
ATOM     15  C   LIG d   1       5.022  -0.465  -5.076  0.00  0.00    -0.052 A 
ATOM     16  C   LIG d   1       5.322  -0.076  -3.785  0.00  0.00    -0.058 A 
ATOM     17  H   LIG d   1       5.777  -0.937  -5.687  0.00  0.00     0.062 H 
ATOM     18  C   LIG d   1       4.356   0.529  -3.001  0.00  0.00    -0.050 A 
ATOM     19  H   LIG d   1       6.312  -0.244  -3.389  0.00  0.00     0.062 H 
ATOM     20  C   LIG d   1       3.084   0.741  -3.502  0.00  0.00    -0.058 A 
ATOM     21  C   LIG d   1       2.775   0.360  -4.792  0.00  0.00    -0.052 A 
ATOM     22  H   LIG d   1       2.333   1.210  -2.884  0.00  0.00     0.062 H 
ATOM     23  H   LIG d   1       1.783   0.531  -5.183  0.00  0.00     0.062 H 
BRANCH  18  24
ATOM     24  C   LIG d   1       4.690   0.951  -1.593  0.00  0.00    -0.040 C 
ATOM     25  H   LIG d   1       3.786   0.936  -0.986  0.00  0.00     0.028 H 
ATOM     26  H   LIG d   1       5.423   0.264  -1.172  0.00  0.00     0.028 H 
ATOM     27  H   LIG d   1       5.103   1.960  -1.606  0.00  0.00     0.028 H 
ENDBRANCH  18  24
ENDBRANCH   1  14
BRANCH   6  28
ATOM     28  C   LIG d   1       0.931  -1.346 -12.331  0.00  0.00    -0.040 C 
ATOM     29  H   LIG d   1       0.696  -2.348 -12.692  0.00  0.00     0.028 H 
ATOM     30  H   LIG d   1       0.009  -0.831 -12.061  0.00  0.00     0.028 H 
ATOM     31  H   LIG d   1       1.444  -0.789 -13.115  0.00  0.00     0.028 H 
ENDBRANCH   6  28
TORSDOF 3
ENDMDL
MODEL 2
REMARK VINA RESULT:      -5.7      3.741      4.741
REMARK  3 active torsions:
REMARK  status: ('A' for Active; 'I' for Inactive)
REMARK    1  A    between atoms: C_1  and  C_2 
REMARK    2  A    between atoms: C_5  and  C_8 
REMARK    3  A    between atoms: C_13  and  C_17 
ROOT
ATOM      1  C   LIG d   1       4.619  -3.463  -5.197  0.00  0.00     0.090 A 
ATOM      2  C   LIG d   1       4.661  -3.389  -6.556  0.00  0.00     0.037 A 
ATOM      3  N   LIG d   1       4.659  -4.671  -7.028  0.00  0.00    -0.306 N 
ATOM      4  C   LIG d   1       4.691  -5.185  -8.294  0.00  0.00     0.011 A 
ATOM      5  C   LIG d   1       4.680  -6.519  -8.494  0.00  0.00    -0.042 A 
ATOM      6  C   LIG d   1       4.637  -7.400  -7.400  0.00  0.00    -0.046 A 
ATOM      7  C   LIG d   1       4.605  -6.901  -6.135  0.00  0.00    -0.016 A 
ATOM      8  C   LIG d   1       4.616  -5.505  -5.942  0.00  0.00     0.139 A 
ATOM      9  N   LIG d   1       4.598  -4.759  -4.846  0.00  0.00    -0.228 NA
ATOM     10  H   LIG d   1       4.690  -2.485  -7.148  0.00  0.00     0.084 H 
ATOM     11  H   LIG d   1       4.725  -4.517  -9.142  0.00  0.00     0.081 H 
ATOM     12  H   LIG d   1       4.705  -6.912  -9.500  0.00  0.00     0.064 H 
ATOM     13  H   LIG d   1       4.570  -7.569  -5.287  0.00  0.00     0.066 H 
ENDROOT
BRANCH   1  14
ATOM     14  C   LIG d   1       4.606  -2.310  -4.262  0.00  0.00     0.002 A 
ATOM     15  C   LIG d   1       5.047  -1.059  -4.690  0.00  0.00    -0.052 A 
ATOM     16  C   LIG d   1       5.033   0.010  -3.815  0.00  0.00    -0.058 A 
ATOM     17  H   LIG d   1       5.400  -0.926  -5.701  0.00  0.00     0.062 H 
ATOM     18  C   LIG d   1       4.581  -0.160  -2.519  0.00  0.00    -0.050 A 
ATOM     19  H   LIG d   1       5.375   0.979  -4.146  0.00  0.00     0.062 H 
ATOM     20  C   LIG d   1       4.148  -1.402  -2.089  0.00  0.00    -0.058 A 
ATOM     21  C   LIG d   1       4.153  -2.476  -2.955  0.00  0.00    -0.052 A 
ATOM     22  H   LIG d   1       3.800  -1.529  -1.074  0.00  0.00     0.062 H 
ATOM     23  H   LIG d   1       3.811  -3.443  -2.619  0.00  0.00     0.062 H 
BRANCH  18  24
ATOM     24  C   LIG d   1       4.569   1.011  -1.570  0.00  0.00    -0.040 C 
ATOM     25  H   LIG d   1       5.085   1.855  -2.027  0.00  0.00     0.028 H 
ATOM     26  H   LIG d   1       3.538   1.290  -1.351  0.00  0.00     0.028 H 
ATOM     27  H   LIG d   1       5.074   0.733  -0.645  0.00  0.00     0.028 H 
ENDBRANCH  18  24
ENDBRANCH   1  14
BRANCH   6  28
ATOM     28  C   LIG d   1       4.624  -8.890  -7.627  0.00  0.00    -0.040 C 
ATOM     29  H   LIG d   1       5.085  -9.114  -8.589  0.00  0.00     0.028 H 
ATOM     30  H   LIG d   1       5.184  -9.383  -6.832  0.00  0.00     0.028 H 
ATOM     31  H   LIG d   1       3.595  -9.248  -7.624  0.00  0.00     0.028 H 
ENDBRANCH   6  28
TORSDOF 3
ENDMDL
MODEL 3
REMARK VINA RESULT:      -5.7      5.992      7.861
REMARK  3 active torsions:
REMARK  status: ('A' for Active; 'I' for Inactive)
REMARK    1  A    between atoms: C_1  and  C_2 
REMARK    2  A    between atoms: C_5  and  C_8 
REMARK    3  A    between atoms: C_13  and  C_17 
ROOT
ATOM      1  C   LIG d   1       7.729   1.611  -4.135  0.00  0.00     0.090 A 
ATOM      2  C   LIG d   1       8.090   1.751  -5.441  0.00  0.00     0.037 A 
ATOM      3  N   LIG d   1       9.027   2.744  -5.495  0.00  0.00    -0.306 N 
ATOM      4  C   LIG d   1       9.724   3.297  -6.531  0.00  0.00     0.011 A 
ATOM      5  C   LIG d   1      10.611   4.288  -6.312  0.00  0.00    -0.042 A 
ATOM      6  C   LIG d   1      10.830   4.769  -5.009  0.00  0.00    -0.046 A 
ATOM      7  C   LIG d   1      10.142   4.228  -3.968  0.00  0.00    -0.016 A 
ATOM      8  C   LIG d   1       9.219   3.192  -4.213  0.00  0.00     0.139 A 
ATOM      9  N   LIG d   1       8.424   2.501  -3.408  0.00  0.00    -0.228 NA
ATOM     10  H   LIG d   1       7.707   1.184  -6.277  0.00  0.00     0.084 H 
ATOM     11  H   LIG d   1       9.564   2.935  -7.537  0.00  0.00     0.081 H 
ATOM     12  H   LIG d   1      11.157   4.716  -7.140  0.00  0.00     0.064 H 
ATOM     13  H   LIG d   1      10.304   4.589  -2.962  0.00  0.00     0.066 H 
ENDROOT
BRANCH   1  14
ATOM     14  C   LIG d   1       6.734   0.646  -3.607  0.00  0.00     0.002 A 
ATOM     15  C   LIG d   1       6.893  -0.719  -3.838  0.00  0.00    -0.052 A 
ATOM     16  C   LIG d   1       5.963  -1.613  -3.344  0.00  0.00    -0.058 A 
ATOM     17  H   LIG d   1       7.740  -1.078  -4.402  0.00  0.00     0.062 H 
ATOM     18  C   LIG d   1       4.877  -1.155  -2.620  0.00  0.00    -0.050 A 
ATOM     19  H   LIG d   1       6.086  -2.670  -3.522  0.00  0.00     0.062 H 
ATOM     20  C   LIG d   1       4.712   0.200  -2.393  0.00  0.00    -0.058 A 
ATOM     21  C   LIG d   1       5.637   1.102  -2.878  0.00  0.00    -0.052 A 
ATOM     22  H   LIG d   1       3.860   0.552  -1.831  0.00  0.00     0.062 H 
ATOM     23  H   LIG d   1       5.509   2.158  -2.696  0.00  0.00     0.062 H 
BRANCH  18  24
ATOM     24  C   LIG d   1       3.866  -2.136  -2.083  0.00  0.00    -0.040 C 
ATOM     25  H   LIG d   1       3.752  -1.989  -1.010  0.00  0.00     0.028 H 
ATOM     26  H   LIG d   1       2.907  -1.976  -2.577  0.00  0.00     0.028 H 
ATOM     27  H   LIG d   1       4.209  -3.152  -2.277  0.00  0.00     0.028 H 
ENDBRANCH  18  24
ENDBRANCH   1  14
BRANCH   6  28
ATOM     28  C   LIG d   1      11.823   5.876  -4.767  0.00  0.00    -0.040 C 
ATOM     29  H   LIG d   1      11.404   6.821  -5.113  0.00  0.00     0.028 H 
ATOM     30  H   LIG d   1      12.039   5.943  -3.700  0.00  0.00     0.028 H 
ATOM     31  H   LIG d   1      12.743   5.665  -5.311  0.00  0.00     0.028 H 
ENDBRANCH   6  28
TORSDOF 3
ENDMDL
MODEL 4
REMARK VINA RESULT:      -5.7      1.155      6.737
REMARK  3 active torsions:
REMARK  status: ('A' for Active; 'I' for Inactive)
REMARK    1  A    between atoms: C_1  and  C_2 
REMARK    2  A    between atoms: C_5  and  C_8 
REMARK    3  A    between atoms: C_13  and  C_17 
ROOT
ATOM      1  C   LIG d   1       3.522  -0.728  -7.140  0.00  0.00     0.090 A 
ATOM      2  C   LIG d   1       4.776  -1.084  -6.746  0.00  0.00     0.037 A 
ATOM      3  N   LIG d   1       4.931  -0.651  -5.460  0.00  0.00    -0.306 N 
ATOM      4  C   LIG d   1       5.974  -0.733  -4.580  0.00  0.00     0.011 A 
ATOM      5  C   LIG d   1       5.869  -0.212  -3.341  0.00  0.00    -0.042 A 
ATOM      6  C   LIG d   1       4.684   0.425  -2.937  0.00  0.00    -0.046 A 
ATOM      7  C   LIG d   1       3.638   0.514  -3.802  0.00  0.00    -0.016 A 
ATOM      8  C   LIG d   1       3.762  -0.036  -5.094  0.00  0.00     0.139 A 
ATOM      9  N   LIG d   1       2.927  -0.087  -6.122  0.00  0.00    -0.228 NA
ATOM     10  H   LIG d   1       5.510  -1.611  -7.340  0.00  0.00     0.084 H 
ATOM     11  H   LIG d   1       6.890  -1.220  -4.881  0.00  0.00     0.081 H 
ATOM     12  H   LIG d   1       6.701  -0.284  -2.655  0.00  0.00     0.064 H 
ATOM     13  H   LIG d   1       2.722   1.000  -3.502  0.00  0.00     0.066 H 
ENDROOT
BRANCH   1  14
ATOM     14  C   LIG d   1       2.919  -0.997  -8.470  0.00  0.00     0.002 A 
ATOM     15  C   LIG d   1       3.129  -2.223  -9.097  0.00  0.00    -0.052 A 
ATOM     16  C   LIG d   1       2.566  -2.466 -10.335  0.00  0.00    -0.058 A 
ATOM     17  H   LIG d   1       3.731  -2.981  -8.619  0.00  0.00     0.062 H 
ATOM     18  C   LIG d   1       1.794  -1.497 -10.949  0.00  0.00    -0.050 A 
ATOM     19  H   LIG d   1       2.728  -3.416 -10.822  0.00  0.00     0.062 H 
ATOM     20  C   LIG d   1       1.587  -0.276 -10.331  0.00  0.00    -0.058 A 
ATOM     21  C   LIG d   1       2.142  -0.023  -9.093  0.00  0.00    -0.052 A 
ATOM     22  H   LIG d   1       0.987   0.478 -10.817  0.00  0.00     0.062 H 
ATOM     23  H   LIG d   1       1.976   0.928  -8.610  0.00  0.00     0.062 H 
BRANCH  18  24
ATOM     24  C   LIG d   1       1.181  -1.769 -12.299  0.00  0.00    -0.040 C 
ATOM     25  H   LIG d   1       1.965  -1.792 -13.055  0.00  0.00     0.028 H 
ATOM     26  H   LIG d   1       0.669  -2.731 -12.278  0.00  0.00     0.028 H 
ATOM     27  H   LIG d   1       0.467  -0.981 -12.538  0.00  0.00     0.028 H 
ENDBRANCH  18  24
ENDBRANCH   1  14
BRANCH   6  28
ATOM     28  C   LIG d   1       4.570   1.005  -1.550  0.00  0.00    -0.040 C 
ATOM     29  H   LIG d   1       3.612   1.514  -1.448  0.00  0.00     0.028 H 
ATOM     30  H   LIG d   1       4.636   0.202  -0.815  0.00  0.00     0.028 H 
ATOM     31  H   LIG d   1       5.379   1.716  -1.386  0.00  0.00     0.028 H 
ENDBRANCH   6  28
TORSDOF 3
ENDMDL
MODEL 5
REMARK VINA RESULT:      -5.6      5.673      7.471
REMARK  3 active torsions:
REMARK  status: ('A' for Active; 'I' for Inactive)
REMARK    1  A    between atoms: C_1  and  C_2 
REMARK    2  A    between atoms: C_5  and  C_8 
REMARK    3  A    between atoms: C_13  and  C_17 
ROOT
ATOM      1  C   LIG d   1       8.045   1.709  -4.117  0.00  0.00     0.090 A 
ATOM      2  C   LIG d   1       8.313   0.439  -4.529  0.00  0.00     0.037 A 
ATOM      3  N   LIG d   1       7.299  -0.354  -4.070  0.00  0.00    -0.306 N 
ATOM      4  C   LIG d   1       7.056  -1.694  -4.184  0.00  0.00     0.011 A 
ATOM      5  C   LIG d   1       5.958  -2.242  -3.626  0.00  0.00    -0.042 A 
ATOM      6  C   LIG d   1       5.048  -1.441  -2.915  0.00  0.00    -0.046 A 
ATOM      7  C   LIG d   1       5.278  -0.106  -2.794  0.00  0.00    -0.016 A 
ATOM      8  C   LIG d   1       6.430   0.453  -3.384  0.00  0.00     0.139 A 
ATOM      9  N   LIG d   1       6.899   1.692  -3.418  0.00  0.00    -0.228 NA
ATOM     10  H   LIG d   1       9.166   0.120  -5.110  0.00  0.00     0.084 H 
ATOM     11  H   LIG d   1       7.749  -2.319  -4.728  0.00  0.00     0.081 H 
ATOM     12  H   LIG d   1       5.776  -3.303  -3.724  0.00  0.00     0.064 H 
ATOM     13  H   LIG d   1       4.585   0.519  -2.251  0.00  0.00     0.066 H 
ENDROOT
BRANCH   1  14
ATOM     14  C   LIG d   1       8.879   2.906  -4.388  0.00  0.00     0.002 A 
ATOM     15  C   LIG d   1       9.103   3.319  -5.700  0.00  0.00    -0.052 A 
ATOM     16  C   LIG d   1       9.881   4.434  -5.945  0.00  0.00    -0.058 A 
ATOM     17  H   LIG d   1       8.671   2.770  -6.522  0.00  0.00     0.062 H 
ATOM     18  C   LIG d   1      10.436   5.139  -4.893  0.00  0.00    -0.050 A 
ATOM     19  H   LIG d   1      10.055   4.755  -6.962  0.00  0.00     0.062 H 
ATOM     20  C   LIG d   1      10.221   4.729  -3.589  0.00  0.00    -0.058 A 
ATOM     21  C   LIG d   1       9.441   3.619  -3.331  0.00  0.00    -0.052 A 
ATOM     22  H   LIG d   1      10.660   5.281  -2.771  0.00  0.00     0.062 H 
ATOM     23  H   LIG d   1       9.271   3.303  -2.313  0.00  0.00     0.062 H 
BRANCH  18  24
ATOM     24  C   LIG d   1      11.284   6.354  -5.168  0.00  0.00    -0.040 C 
ATOM     25  H   LIG d   1      12.204   6.050  -5.665  0.00  0.00     0.028 H 
ATOM     26  H   LIG d   1      10.734   7.042  -5.810  0.00  0.00     0.028 H 
ATOM     27  H   LIG d   1      11.524   6.849  -4.227  0.00  0.00     0.028 H 
ENDBRANCH  18  24
ENDBRANCH   1  14
BRANCH   6  28
ATOM     28  C   LIG d   1       3.821  -2.057  -2.293  0.00  0.00    -0.040 C 
ATOM     29  H   LIG d   1       4.119  -2.875  -1.637  0.00  0.00     0.028 H 
ATOM     30  H   LIG d   1       3.289  -1.301  -1.714  0.00  0.00     0.028 H 
ATOM     31  H   LIG d   1       3.169  -2.440  -3.078  0.00  0.00     0.028 H 
ENDBRANCH   6  28
TORSDOF 3
ENDMDL
MODEL 6
REMARK VINA RESULT:      -5.6      1.894      6.792
REMARK  3 active torsions:
REMARK  status: ('A' for Active; 'I' for Inactive)
REMARK    1  A    between atoms: C_1  and  C_2 
REMARK    2  A    between atoms: C_5  and  C_8 
REMARK    3  A    between atoms: C_13  and  C_17 
ROOT
ATOM      1  C   LIG d   1       3.792  -0.480  -7.766  0.00  0.00     0.090 A 
ATOM      2  C   LIG d   1       2.944   0.299  -7.040  0.00  0.00     0.037 A 
ATOM      3  N   LIG d   1       3.132  -0.021  -5.725  0.00  0.00    -0.306 N 
ATOM      4  C   LIG d   1       2.557   0.439  -4.574  0.00  0.00     0.011 A 
ATOM      5  C   LIG d   1       2.928  -0.054  -3.375  0.00  0.00    -0.042 A 
ATOM      6  C   LIG d   1       3.913  -1.053  -3.293  0.00  0.00    -0.046 A 
ATOM      7  C   LIG d   1       4.494  -1.521  -4.431  0.00  0.00    -0.016 A 
ATOM      8  C   LIG d   1       4.096  -0.995  -5.677  0.00  0.00     0.139 A 
ATOM      9  N   LIG d   1       4.478  -1.263  -6.917  0.00  0.00    -0.228 NA
ATOM     10  H   LIG d   1       2.254   1.032  -7.430  0.00  0.00     0.084 H 
ATOM     11  H   LIG d   1       1.799   1.207  -4.625  0.00  0.00     0.081 H 
ATOM     12  H   LIG d   1       2.466   0.320  -2.473  0.00  0.00     0.064 H 
ATOM     13  H   LIG d   1       5.252  -2.288  -4.380  0.00  0.00     0.066 H 
ENDROOT
BRANCH   1  14
ATOM     14  C   LIG d   1       3.931  -0.471  -9.244  0.00  0.00     0.002 A 
ATOM     15  C   LIG d   1       4.080  -1.670  -9.939  0.00  0.00    -0.052 A 
ATOM     16  C   LIG d   1       4.209  -1.656 -11.314  0.00  0.00    -0.058 A 
ATOM     17  H   LIG d   1       4.096  -2.608  -9.404  0.00  0.00     0.062 H 
ATOM     18  C   LIG d   1       4.189  -0.455 -12.000  0.00  0.00    -0.050 A 
ATOM     19  H   LIG d   1       4.325  -2.584 -11.853  0.00  0.00     0.062 H 
ATOM     20  C   LIG d   1       4.046   0.738 -11.314  0.00  0.00    -0.058 A 
ATOM     21  C   LIG d   1       3.912   0.735  -9.940  0.00  0.00    -0.052 A 
ATOM     22  H   LIG d   1       4.035   1.672 -11.855  0.00  0.00     0.062 H 
ATOM     23  H   LIG d   1       3.796   1.666  -9.406  0.00  0.00     0.062 H 
BRANCH  18  24
ATOM     24  C   LIG d   1       4.330  -0.447 -13.501  0.00  0.00    -0.040 C 
ATOM     25  H   LIG d   1       5.198   0.149 -13.781  0.00  0.00     0.028 H 
ATOM     26  H   LIG d   1       4.458  -1.468 -13.859  0.00  0.00     0.028 H 
ATOM     27  H   LIG d   1       3.433  -0.015 -13.947  0.00  0.00     0.028 H 
ENDBRANCH  18  24
ENDBRANCH   1  14
BRANCH   6  28
ATOM     28  C   LIG d   1       4.326  -1.601  -1.952  0.00  0.00    -0.040 C 
ATOM     29  H   LIG d   1       5.153  -1.010  -1.558  0.00  0.00     0.028 H 
ATOM     30  H   LIG d   1       3.482  -1.550  -1.263  0.00  0.00     0.028 H 
ATOM     31  H   LIG d   1       4.641  -2.638  -2.064  0.00  0.00     0.028 H 
ENDBRANCH   6  28
TORSDOF 3
ENDMDL
MODEL 7
REMARK VINA RESULT:      -5.4      4.159      7.608
REMARK  3 active torsions:
REMARK  status: ('A' for Active; 'I' for Inactive)
REMARK    1  A    between atoms: C_1  and  C_2 
REMARK    2  A    between atoms: C_5  and  C_8 
REMARK    3  A    between atoms: C_13  and  C_17 
ROOT
ATOM      1  C   LIG d   1       5.074  -3.934  -5.183  0.00  0.00     0.090 A 
ATOM      2  C   LIG d   1       6.186  -3.150  -5.242  0.00  0.00     0.037 A 
ATOM      3  N   LIG d   1       5.988  -2.108  -4.381  0.00  0.00    -0.306 N 
ATOM      4  C   LIG d   1       6.762  -1.034  -4.043  0.00  0.00     0.011 A 
ATOM      5  C   LIG d   1       6.325  -0.128  -3.145  0.00  0.00    -0.042 A 
ATOM      6  C   LIG d   1       5.064  -0.276  -2.544  0.00  0.00    -0.046 A 
ATOM      7  C   LIG d   1       4.283  -1.340  -2.871  0.00  0.00    -0.016 A 
ATOM      8  C   LIG d   1       4.754  -2.279  -3.811  0.00  0.00     0.139 A 
ATOM      9  N   LIG d   1       4.215  -3.382  -4.311  0.00  0.00    -0.228 NA
ATOM     10  H   LIG d   1       7.059  -3.320  -5.855  0.00  0.00     0.084 H 
ATOM     11  H   LIG d   1       7.734  -0.911  -4.498  0.00  0.00     0.081 H 
ATOM     12  H   LIG d   1       6.948   0.716  -2.885  0.00  0.00     0.064 H 
ATOM     13  H   LIG d   1       3.312  -1.464  -2.415  0.00  0.00     0.066 H 
ENDROOT
BRANCH   1  14
ATOM     14  C   LIG d   1       4.847  -5.181  -5.955  0.00  0.00     0.002 A 
ATOM     15  C   LIG d   1       4.335  -5.118  -7.250  0.00  0.00    -0.052 A 
ATOM     16  C   LIG d   1       4.125  -6.283  -7.963  0.00  0.00    -0.058 A 
ATOM     17  H   LIG d   1       4.100  -4.163  -7.694  0.00  0.00     0.062 H 
ATOM     18  C   LIG d   1       4.425  -7.508  -7.395  0.00  0.00    -0.050 A 
ATOM     19  H   LIG d   1       3.728  -6.235  -8.965  0.00  0.00     0.062 H 
ATOM     20  C   LIG d   1       4.929  -7.575  -6.108  0.00  0.00    -0.058 A 
ATOM     21  C   LIG d   1       5.146  -6.418  -5.388  0.00  0.00    -0.052 A 
ATOM     22  H   LIG d   1       5.157  -8.534  -5.669  0.00  0.00     0.062 H 
ATOM     23  H   LIG d   1       5.544  -6.472  -4.385  0.00  0.00     0.062 H 
BRANCH  18  24
ATOM     24  C   LIG d   1       4.194  -8.774  -8.179  0.00  0.00    -0.040 C 
ATOM     25  H   LIG d   1       5.125  -9.082  -8.655  0.00  0.00     0.028 H 
ATOM     26  H   LIG d   1       3.852  -9.560  -7.506  0.00  0.00     0.028 H 
ATOM     27  H   LIG d   1       3.437  -8.595  -8.943  0.00  0.00     0.028 H 
ENDBRANCH  18  24
ENDBRANCH   1  14
BRANCH   6  28
ATOM     28  C   LIG d   1       4.579   0.738  -1.540  0.00  0.00    -0.040 C 
ATOM     29  H   LIG d   1       3.816   0.286  -0.907  0.00  0.00     0.028 H 
ATOM     30  H   LIG d   1       5.416   1.066  -0.922  0.00  0.00     0.028 H 
ATOM     31  H   LIG d   1       4.157   1.595  -2.063  0.00  0.00     0.028 H 
ENDBRANCH   6  28
TORSDOF 3
ENDMDL
MODEL 8
REMARK VINA RESULT:      -5.0      5.966      7.973
REMARK  3 active torsions:
REMARK  status: ('A' for Active; 'I' for Inactive)
REMARK    1  A    between atoms: C_1  and  C_2 
REMARK    2  A    between atoms: C_5  and  C_8 
REMARK    3  A    between atoms: C_13  and  C_17 
ROOT
ATOM      1  C   LIG d   1       8.134   1.144  -4.124  0.00  0.00     0.090 A 
ATOM      2  C   LIG d   1       8.323   2.468  -3.865  0.00  0.00     0.037 A 
ATOM      3  N   LIG d   1       9.468   2.844  -4.508  0.00  0.00    -0.306 N 
ATOM      4  C   LIG d   1      10.126   4.038  -4.592  0.00  0.00     0.011 A 
ATOM      5  C   LIG d   1      11.264   4.146  -5.308  0.00  0.00    -0.042 A 
ATOM      6  C   LIG d   1      11.791   3.028  -5.977  0.00  0.00    -0.046 A 
ATOM      7  C   LIG d   1      11.145   1.833  -5.901  0.00  0.00    -0.016 A 
ATOM      8  C   LIG d   1       9.957   1.736  -5.149  0.00  0.00     0.139 A 
ATOM      9  N   LIG d   1       9.143   0.719  -4.902  0.00  0.00    -0.228 NA
ATOM     10  H   LIG d   1       7.686   3.100  -3.264  0.00  0.00     0.084 H 
ATOM     11  H   LIG d   1       9.731   4.904  -4.082  0.00  0.00     0.081 H 
ATOM     12  H   LIG d   1      11.774   5.097  -5.367  0.00  0.00     0.064 H 
ATOM     13  H   LIG d   1      11.541   0.967  -6.412  0.00  0.00     0.066 H 
ENDROOT
BRANCH   1  14
ATOM     14  C   LIG d   1       7.010   0.312  -3.628  0.00  0.00     0.002 A 
ATOM     15  C   LIG d   1       5.909   0.914  -3.021  0.00  0.00    -0.052 A 
ATOM     16  C   LIG d   1       4.867   0.134  -2.560  0.00  0.00    -0.058 A 
ATOM     17  H   LIG d   1       5.872   1.987  -2.910  0.00  0.00     0.062 H 
ATOM     18  C   LIG d   1       4.913  -1.241  -2.702  0.00  0.00    -0.050 A 
ATOM     19  H   LIG d   1       4.014   0.600  -2.089  0.00  0.00     0.062 H 
ATOM     20  C   LIG d   1       6.007  -1.843  -3.299  0.00  0.00    -0.058 A 
ATOM     21  C   LIG d   1       7.052  -1.074  -3.767  0.00  0.00    -0.052 A 
ATOM     22  H   LIG d   1       6.039  -2.917  -3.403  0.00  0.00     0.062 H 
ATOM     23  H   LIG d   1       7.903  -1.545  -4.237  0.00  0.00     0.062 H 
BRANCH  18  24
ATOM     24  C   LIG d   1       3.772  -2.086  -2.197  0.00  0.00    -0.040 C 
ATOM     25  H   LIG d   1       3.286  -2.579  -3.037  0.00  0.00     0.028 H 
ATOM     26  H   LIG d   1       4.154  -2.837  -1.506  0.00  0.00     0.028 H 
ATOM     27  H   LIG d   1       3.051  -1.451  -1.681  0.00  0.00     0.028 H 
ENDBRANCH  18  24
ENDBRANCH   1  14
BRANCH   6  28
ATOM     28  C   LIG d   1      13.062   3.152  -6.776  0.00  0.00    -0.040 C 
ATOM     29  H   LIG d   1      13.918   3.138  -6.101  0.00  0.00     0.028 H 
ATOM     30  H   LIG d   1      13.135   2.317  -7.473  0.00  0.00     0.028 H 
ATOM     31  H   LIG d   1      13.052   4.090  -7.331  0.00  0.00     0.028 H 
ENDBRANCH   6  28
TORSDOF 3
ENDMDL
MODEL 9
REMARK VINA RESULT:      -4.9      9.862     12.823
REMARK  3 active torsions:
REMARK  status: ('A' for Active; 'I' for Inactive)
REMARK    1  A    between atoms: C_1  and  C_2 
REMARK    2  A    between atoms: C_5  and  C_8 
REMARK    3  A    between atoms: C_13  and  C_17 
ROOT
ATOM      1  C   LIG d   1      10.103   7.093  -4.031  0.00  0.00     0.090 A 
ATOM      2  C   LIG d   1      10.268   8.228  -3.298  0.00  0.00     0.037 A 
ATOM      3  N   LIG d   1      10.472   7.843  -2.003  0.00  0.00    -0.306 N 
ATOM      4  C   LIG d   1      10.690   8.551  -0.855  0.00  0.00     0.011 A 
ATOM      5  C   LIG d   1      10.865   7.917   0.322  0.00  0.00    -0.042 A 
ATOM      6  C   LIG d   1      10.825   6.513   0.384  0.00  0.00    -0.046 A 
ATOM      7  C   LIG d   1      10.608   5.795  -0.751  0.00  0.00    -0.016 A 
ATOM      8  C   LIG d   1      10.427   6.473  -1.974  0.00  0.00     0.139 A 
ATOM      9  N   LIG d   1      10.198   6.039  -3.205  0.00  0.00    -0.228 NA
ATOM     10  H   LIG d   1      10.242   9.242  -3.670  0.00  0.00     0.084 H 
ATOM     11  H   LIG d   1      10.723   9.631  -0.891  0.00  0.00     0.081 H 
ATOM     12  H   LIG d   1      11.038   8.489   1.221  0.00  0.00     0.064 H 
ATOM     13  H   LIG d   1      10.576   4.716  -0.715  0.00  0.00     0.066 H 
ENDROOT
BRANCH   1  14
ATOM     14  C   LIG d   1       9.854   7.030  -5.493  0.00  0.00     0.002 A 
ATOM     15  C   LIG d   1       9.372   8.150  -6.168  0.00  0.00    -0.052 A 
ATOM     16  C   LIG d   1       9.142   8.086  -7.529  0.00  0.00    -0.058 A 
ATOM     17  H   LIG d   1       9.178   9.066  -5.630  0.00  0.00     0.062 H 
ATOM     18  C   LIG d   1       9.391   6.914  -8.220  0.00  0.00    -0.050 A 
ATOM     19  H   LIG d   1       8.768   8.953  -8.052  0.00  0.00     0.062 H 
ATOM     20  C   LIG d   1       9.864   5.798  -7.553  0.00  0.00    -0.058 A 
ATOM     21  C   LIG d   1      10.102   5.852  -6.194  0.00  0.00    -0.052 A 
ATOM     22  H   LIG d   1      10.052   4.885  -8.097  0.00  0.00     0.062 H 
ATOM     23  H   LIG d   1      10.475   4.982  -5.676  0.00  0.00     0.062 H 
BRANCH  18  24
ATOM     24  C   LIG d   1       9.137   6.851  -9.704  0.00  0.00    -0.040 C 
ATOM     25  H   LIG d   1       9.980   6.366 -10.196  0.00  0.00     0.028 H 
ATOM     26  H   LIG d   1       8.228   6.281  -9.894  0.00  0.00     0.028 H 
ATOM     27  H   LIG d   1       9.021   7.862 -10.096  0.00  0.00     0.028 H 
ENDBRANCH  18  24
ENDBRANCH   1  14
BRANCH   6  28
ATOM     28  C   LIG d   1      11.022   5.807   1.701  0.00  0.00    -0.040 C 
ATOM     29  H   LIG d   1      10.058   5.465   2.076  0.00  0.00     0.028 H 
ATOM     30  H   LIG d   1      11.681   4.950   1.557  0.00  0.00     0.028 H 
ATOM     31  H   LIG d   1      11.469   6.494   2.418  0.00  0.00     0.028 H 
ENDBRANCH   6  28
TORSDOF 3
ENDMDL
MODEL 10
REMARK VINA RESULT:      -4.8      9.533     10.491
REMARK  3 active torsions:
REMARK  status: ('A' for Active; 'I' for Inactive)
REMARK    1  A    between atoms: C_1  and  C_2 
REMARK    2  A    between atoms: C_5  and  C_8 
REMARK    3  A    between atoms: C_13  and  C_17 
ROOT
ATOM      1  C   LIG d   1      10.006   6.730  -4.356  0.00  0.00     0.090 A 
ATOM      2  C   LIG d   1       9.647   7.912  -4.929  0.00  0.00     0.037 A 
ATOM      3  N   LIG d   1       9.495   7.681  -6.267  0.00  0.00    -0.306 N 
ATOM      4  C   LIG d   1       9.150   8.495  -7.308  0.00  0.00     0.011 A 
ATOM      5  C   LIG d   1       9.070   8.008  -8.563  0.00  0.00    -0.042 A 
ATOM      6  C   LIG d   1       9.343   6.654  -8.818  0.00  0.00    -0.046 A 
ATOM      7  C   LIG d   1       9.688   5.832  -7.790  0.00  0.00    -0.016 A 
ATOM      8  C   LIG d   1       9.767   6.355  -6.484  0.00  0.00     0.139 A 
ATOM      9  N   LIG d   1      10.079   5.799  -5.322  0.00  0.00    -0.228 NA
ATOM     10  H   LIG d   1       9.508   8.855  -4.420  0.00  0.00     0.084 H 
ATOM     11  H   LIG d   1       8.938   9.538  -7.124  0.00  0.00     0.081 H 
ATOM     12  H   LIG d   1       8.795   8.663  -9.378  0.00  0.00     0.064 H 
ATOM     13  H   LIG d   1       9.899   4.788  -7.974  0.00  0.00     0.066 H 
ENDROOT
BRANCH   1  14
ATOM     14  C   LIG d   1      10.278   6.508  -2.914  0.00  0.00     0.002 A 
ATOM     15  C   LIG d   1       9.888   7.462  -1.975  0.00  0.00    -0.052 A 
ATOM     16  C   LIG d   1      10.144   7.250  -0.635  0.00  0.00    -0.058 A 
ATOM     17  H   LIG d   1       9.388   8.364  -2.295  0.00  0.00     0.062 H 
ATOM     18  C   LIG d   1      10.784   6.095  -0.224  0.00  0.00    -0.050 A 
ATOM     19  H   LIG d   1       9.842   7.989   0.093  0.00  0.00     0.062 H 
ATOM     20  C   LIG d   1      11.178   5.148  -1.153  0.00  0.00    -0.058 A 
ATOM     21  C   LIG d   1      10.923   5.347  -2.495  0.00  0.00    -0.052 A 
ATOM     22  H   LIG d   1      11.681   4.250  -0.827  0.00  0.00     0.062 H 
ATOM     23  H   LIG d   1      11.227   4.605  -3.219  0.00  0.00     0.062 H 
BRANCH  18  24
ATOM     24  C   LIG d   1      11.060   5.871   1.240  0.00  0.00    -0.040 C 
ATOM     25  H   LIG d   1      10.118   5.756   1.775  0.00  0.00     0.028 H 
ATOM     26  H   LIG d   1      11.660   4.969   1.363  0.00  0.00     0.028 H 
ATOM     27  H   LIG d   1      11.604   6.726   1.642  0.00  0.00     0.028 H 
ENDBRANCH  18  24
ENDBRANCH   1  14
BRANCH   6  28
ATOM     28  C   LIG d   1       9.252   6.113 -10.222  0.00  0.00    -0.040 C 
ATOM     29  H   LIG d   1       9.940   5.275 -10.333  0.00  0.00     0.028 H 
ATOM     30  H   LIG d   1       8.233   5.775 -10.414  0.00  0.00     0.028 H 
ATOM     31  H   LIG d   1       9.515   6.897 -10.931  0.00  0.00     0.028 H 
ENDBRANCH   6  28
TORSDOF 3
ENDMDL
