MODEL 1
REMARK VINA RESULT:      -7.3      0.000      0.000
REMARK  5 active torsions:
REMARK  status: ('A' for Active; 'I' for Inactive)
REMARK    1  A    between atoms: C_1  and  O_2 
REMARK    2  A    between atoms: O_2  and  C_3 
REMARK    3  A    between atoms: C_6  and  C_9 
REMARK    4  A    between atoms: N_23  and  C_25 
REMARK    5  A    between atoms: C_25  and  C_26 
ROOT
ATOM      1  C   LIG d   1       7.649   1.027  -4.353  0.00  0.00    -0.032 A 
ATOM      2  C   LIG d   1       8.460   2.148  -4.326  0.00  0.00    -0.057 A 
ATOM      3  C   LIG d   1       8.912   2.711  -5.506  0.00  0.00    -0.060 A 
ATOM      4  C   LIG d   1       8.547   2.165  -6.719  0.00  0.00    -0.044 A 
ATOM      5  C   LIG d   1       7.724   1.037  -6.753  0.00  0.00     0.052 A 
ATOM      6  C   LIG d   1       7.276   0.470  -5.558  0.00  0.00    -0.040 A 
ATOM      7  C   LIG d   1       7.341   0.465  -8.009  0.00  0.00     0.099 C 
ATOM      8  N   LIG d   1       7.037   0.010  -9.005  0.00  0.00    -0.191 NA
ATOM      9  H   LIG d   1       8.746   2.583  -3.380  0.00  0.00     0.062 H 
ATOM     10  H   LIG d   1       9.549   3.582  -5.477  0.00  0.00     0.062 H 
ATOM     11  H   LIG d   1       8.897   2.607  -7.640  0.00  0.00     0.063 H 
ATOM     12  H   LIG d   1       6.639  -0.401  -5.578  0.00  0.00     0.063 H 
ENDROOT
BRANCH   1  13
ATOM     13  C   LIG d   1       7.166   0.419  -3.062  0.00  0.00     0.024 C 
ATOM     14  H   LIG d   1       7.078   1.204  -2.297  0.00  0.00     0.048 H 
ATOM     15  H   LIG d   1       7.884  -0.343  -2.724  0.00  0.00     0.048 H 
BRANCH  13  16
ATOM     16  N   LIG d   1       5.853  -0.206  -3.276  0.00  0.00    -0.297 N 
ATOM     17  C   LIG d   1       4.849   0.355  -2.367  0.00  0.00     0.004 C 
ATOM     18  C   LIG d   1       3.477  -0.249  -2.624  0.00  0.00    -0.009 C 
ATOM     19  H   LIG d   1       4.805   1.443  -2.521  0.00  0.00     0.043 H 
ATOM     20  H   LIG d   1       5.155   0.143  -1.332  0.00  0.00     0.043 H 
ATOM     21  C   LIG d   1       3.543  -1.777  -2.540  0.00  0.00    -0.038 C 
ATOM     22  H   LIG d   1       2.803   0.144  -1.849  0.00  0.00     0.033 H 
ATOM     23  C   LIG d   1       2.922   0.159  -3.977  0.00  0.00     0.030 C 
ATOM     24  C   LIG d   1       4.578  -2.262  -3.543  0.00  0.00     0.013 C 
ATOM     25  H   LIG d   1       2.563  -2.212  -2.786  0.00  0.00     0.028 H 
ATOM     26  H   LIG d   1       3.839  -2.089  -1.528  0.00  0.00     0.028 H 
ATOM     27  C   LIG d   1       4.237  -1.721  -4.913  0.00  0.00     0.034 A 
ATOM     28  H   LIG d   1       4.589  -3.361  -3.570  0.00  0.00     0.038 H 
ATOM     29  C   LIG d   1       5.937  -1.668  -3.137  0.00  0.00     0.007 C 
ATOM     30  C   LIG d   1       4.668  -2.438  -5.999  0.00  0.00     0.002 A 
ATOM     31  N   LIG d   1       3.553  -0.565  -5.081  0.00  0.00    -0.311 N 
ATOM     32  C   LIG d   1       4.431  -1.963  -7.304  0.00  0.00    -0.047 A 
ATOM     33  C   LIG d   1       3.802  -0.765  -7.460  0.00  0.00     0.004 A 
ATOM     34  H   LIG d   1       4.741  -2.537  -8.164  0.00  0.00     0.063 H 
ATOM     35  C   LIG d   1       3.382  -0.057  -6.324  0.00  0.00     0.252 A 
ATOM     36  H   LIG d   1       3.628  -0.364  -8.448  0.00  0.00     0.067 H 
ATOM     37  O   LIG d   1       2.865   1.040  -6.458  0.00  0.00    -0.268 OA
ATOM     38  H   LIG d   1       6.158  -1.939  -2.094  0.00  0.00     0.043 H 
ATOM     39  H   LIG d   1       6.723  -2.069  -3.794  0.00  0.00     0.043 H 
ATOM     40  H   LIG d   1       3.091   1.239  -4.102  0.00  0.00     0.050 H 
ATOM     41  H   LIG d   1       1.840  -0.044  -3.976  0.00  0.00     0.050 H 
BRANCH  30  42
ATOM     42  C   LIG d   1       5.385  -3.721  -5.799  0.00  0.00    -0.016 A 
ATOM     43  C   LIG d   1       4.670  -4.912  -5.693  0.00  0.00    -0.051 A 
ATOM     44  C   LIG d   1       5.340  -6.104  -5.507  0.00  0.00    -0.019 A 
ATOM     45  H   LIG d   1       3.592  -4.903  -5.757  0.00  0.00     0.062 H 
ATOM     46  C   LIG d   1       6.726  -6.116  -5.425  0.00  0.00     0.120 A 
ATOM     47  H   LIG d   1       4.786  -7.027  -5.425  0.00  0.00     0.065 H 
ATOM     48  C   LIG d   1       7.441  -4.932  -5.530  0.00  0.00    -0.019 A 
ATOM     49  C   LIG d   1       6.777  -3.738  -5.722  0.00  0.00    -0.051 A 
ATOM     50  H   LIG d   1       8.519  -4.945  -5.465  0.00  0.00     0.065 H 
ATOM     51  H   LIG d   1       7.335  -2.817  -5.809  0.00  0.00     0.062 H 
BRANCH  46  52
ATOM     52  O   LIG d   1       7.383  -7.292  -5.242  0.00  0.00    -0.495 OA
BRANCH  52  53
ATOM     53  C   LIG d   1       6.588  -8.439  -4.937  0.00  0.00     0.079 C 
ATOM     54  H   LIG d   1       5.788  -8.156  -4.238  0.00  0.00     0.066 H 
ATOM     55  H   LIG d   1       7.220  -9.212  -4.475  0.00  0.00     0.066 H 
ATOM     56  H   LIG d   1       6.143  -8.834  -5.863  0.00  0.00     0.066 H 
ENDBRANCH  52  53
ENDBRANCH  46  52
ENDBRANCH  30  42
ENDBRANCH  13  16
ENDBRANCH   1  13
TORSDOF 5
ENDMDL
MODEL 2
REMARK VINA RESULT:      -7.3      1.249      1.728
REMARK  5 active torsions:
REMARK  status: ('A' for Active; 'I' for Inactive)
REMARK    1  A    between atoms: C_1  and  O_2 
REMARK    2  A    between atoms: O_2  and  C_3 
REMARK    3  A    between atoms: C_6  and  C_9 
REMARK    4  A    between atoms: N_23  and  C_25 
REMARK    5  A    between atoms: C_25  and  C_26 
ROOT
ATOM      1  C   LIG d   1       7.661   1.045  -4.378  0.00  0.00    -0.032 A 
ATOM      2  C   LIG d   1       7.346   0.430  -5.577  0.00  0.00    -0.057 A 
ATOM      3  C   LIG d   1       7.779   0.972  -6.774  0.00  0.00    -0.060 A 
ATOM      4  C   LIG d   1       8.538   2.123  -6.780  0.00  0.00    -0.044 A 
ATOM      5  C   LIG d   1       8.864   2.746  -5.574  0.00  0.00     0.052 A 
ATOM      6  C   LIG d   1       8.419   2.197  -4.369  0.00  0.00    -0.040 A 
ATOM      7  C   LIG d   1       9.652   3.942  -5.572  0.00  0.00     0.099 C 
ATOM      8  N   LIG d   1      10.277   4.891  -5.570  0.00  0.00    -0.191 NA
ATOM      9  H   LIG d   1       6.756  -0.474  -5.579  0.00  0.00     0.062 H 
ATOM     10  H   LIG d   1       7.525   0.489  -7.707  0.00  0.00     0.062 H 
ATOM     11  H   LIG d   1       8.879   2.543  -7.715  0.00  0.00     0.063 H 
ATOM     12  H   LIG d   1       8.668   2.674  -3.433  0.00  0.00     0.063 H 
ENDROOT
BRANCH   1  13
ATOM     13  C   LIG d   1       7.181   0.451  -3.080  0.00  0.00     0.024 C 
ATOM     14  H   LIG d   1       7.090   1.245  -2.325  0.00  0.00     0.048 H 
ATOM     15  H   LIG d   1       7.901  -0.305  -2.733  0.00  0.00     0.048 H 
BRANCH  13  16
ATOM     16  N   LIG d   1       5.870  -0.182  -3.286  0.00  0.00    -0.297 N 
ATOM     17  C   LIG d   1       4.872   0.364  -2.361  0.00  0.00     0.004 C 
ATOM     18  C   LIG d   1       3.502  -0.248  -2.609  0.00  0.00    -0.009 C 
ATOM     19  H   LIG d   1       4.819   1.453  -2.504  0.00  0.00     0.043 H 
ATOM     20  H   LIG d   1       5.190   0.144  -1.331  0.00  0.00     0.043 H 
ATOM     21  C   LIG d   1       3.579  -1.776  -2.541  0.00  0.00    -0.038 C 
ATOM     22  H   LIG d   1       2.833   0.133  -1.824  0.00  0.00     0.033 H 
ATOM     23  C   LIG d   1       2.929   0.169  -3.953  0.00  0.00     0.030 C 
ATOM     24  C   LIG d   1       4.607  -2.244  -3.560  0.00  0.00     0.013 C 
ATOM     25  H   LIG d   1       2.600  -2.216  -2.780  0.00  0.00     0.028 H 
ATOM     26  H   LIG d   1       3.888  -2.095  -1.535  0.00  0.00     0.028 H 
ATOM     27  C   LIG d   1       4.248  -1.693  -4.921  0.00  0.00     0.034 A 
ATOM     28  H   LIG d   1       4.625  -3.343  -3.597  0.00  0.00     0.038 H 
ATOM     29  C   LIG d   1       5.966  -1.645  -3.162  0.00  0.00     0.007 C 
ATOM     30  C   LIG d   1       4.672  -2.396  -6.018  0.00  0.00     0.002 A 
ATOM     31  N   LIG d   1       3.553  -0.540  -5.070  0.00  0.00    -0.311 N 
ATOM     32  C   LIG d   1       4.418  -1.910  -7.316  0.00  0.00    -0.047 A 
ATOM     33  C   LIG d   1       3.778  -0.715  -7.454  0.00  0.00     0.004 A 
ATOM     34  H   LIG d   1       4.723  -2.474  -8.184  0.00  0.00     0.063 H 
ATOM     35  C   LIG d   1       3.366  -0.021  -6.307  0.00  0.00     0.252 A 
ATOM     36  H   LIG d   1       3.591  -0.306  -8.436  0.00  0.00     0.067 H 
ATOM     37  O   LIG d   1       2.839   1.073  -6.424  0.00  0.00    -0.268 OA
ATOM     38  H   LIG d   1       6.200  -1.923  -2.124  0.00  0.00     0.043 H 
ATOM     39  H   LIG d   1       6.748  -2.033  -3.831  0.00  0.00     0.043 H 
ATOM     40  H   LIG d   1       3.090   1.251  -4.069  0.00  0.00     0.050 H 
ATOM     41  H   LIG d   1       1.849  -0.042  -3.942  0.00  0.00     0.050 H 
BRANCH  30  42
ATOM     42  C   LIG d   1       5.400  -3.676  -5.838  0.00  0.00    -0.016 A 
ATOM     43  C   LIG d   1       4.693  -4.866  -5.679  0.00  0.00    -0.051 A 
ATOM     44  C   LIG d   1       5.375  -6.054  -5.511  0.00  0.00    -0.019 A 
ATOM     45  H   LIG d   1       3.613  -4.858  -5.686  0.00  0.00     0.062 H 
ATOM     46  C   LIG d   1       6.762  -6.065  -5.502  0.00  0.00     0.120 A 
ATOM     47  H   LIG d   1       4.827  -6.977  -5.388  0.00  0.00     0.065 H 
ATOM     48  C   LIG d   1       7.469  -4.881  -5.660  0.00  0.00    -0.019 A 
ATOM     49  C   LIG d   1       6.795  -3.691  -5.833  0.00  0.00    -0.051 A 
ATOM     50  H   LIG d   1       8.549  -4.892  -5.651  0.00  0.00     0.065 H 
ATOM     51  H   LIG d   1       7.346  -2.771  -5.962  0.00  0.00     0.062 H 
BRANCH  46  52
ATOM     52  O   LIG d   1       7.430  -7.237  -5.337  0.00  0.00    -0.495 OA
BRANCH  52  53
ATOM     53  C   LIG d   1       6.641  -8.404  -5.098  0.00  0.00     0.079 C 
ATOM     54  H   LIG d   1       5.999  -8.241  -4.221  0.00  0.00     0.066 H 
ATOM     55  H   LIG d   1       7.304  -9.263  -4.912  0.00  0.00     0.066 H 
ATOM     56  H   LIG d   1       6.014  -8.610  -5.978  0.00  0.00     0.066 H 
ENDBRANCH  52  53
ENDBRANCH  46  52
ENDBRANCH  30  42
ENDBRANCH  13  16
ENDBRANCH   1  13
TORSDOF 5
ENDMDL
MODEL 3
REMARK VINA RESULT:      -7.1      2.132      5.654
REMARK  5 active torsions:
REMARK  status: ('A' for Active; 'I' for Inactive)
REMARK    1  A    between atoms: C_1  and  O_2 
REMARK    2  A    between atoms: O_2  and  C_3 
REMARK    3  A    between atoms: C_6  and  C_9 
REMARK    4  A    between atoms: N_23  and  C_25 
REMARK    5  A    between atoms: C_25  and  C_26 
ROOT
ATOM      1  C   LIG d   1       2.941   0.492  -6.839  0.00  0.00    -0.032 A 
ATOM      2  C   LIG d   1       2.713   1.548  -7.703  0.00  0.00    -0.057 A 
ATOM      3  C   LIG d   1       3.287   1.557  -8.961  0.00  0.00    -0.060 A 
ATOM      4  C   LIG d   1       4.084   0.507  -9.368  0.00  0.00    -0.044 A 
ATOM      5  C   LIG d   1       4.315  -0.564  -8.503  0.00  0.00     0.052 A 
ATOM      6  C   LIG d   1       3.736  -0.565  -7.231  0.00  0.00    -0.040 A 
ATOM      7  C   LIG d   1       5.141  -1.659  -8.918  0.00  0.00     0.099 C 
ATOM      8  N   LIG d   1       5.796  -2.527  -9.247  0.00  0.00    -0.191 NA
ATOM      9  H   LIG d   1       2.086   2.371  -7.393  0.00  0.00     0.062 H 
ATOM     10  H   LIG d   1       3.108   2.387  -9.629  0.00  0.00     0.062 H 
ATOM     11  H   LIG d   1       4.529   0.513 -10.351  0.00  0.00     0.063 H 
ATOM     12  H   LIG d   1       3.910  -1.391  -6.558  0.00  0.00     0.063 H 
ENDROOT
BRANCH   1  13
ATOM     13  C   LIG d   1       2.316   0.493  -5.469  0.00  0.00     0.024 C 
ATOM     14  H   LIG d   1       1.380  -0.084  -5.492  0.00  0.00     0.048 H 
ATOM     15  H   LIG d   1       2.100   1.528  -5.164  0.00  0.00     0.048 H 
BRANCH  13  16
ATOM     16  N   LIG d   1       3.243  -0.117  -4.506  0.00  0.00    -0.297 N 
ATOM     17  C   LIG d   1       2.524  -0.628  -3.334  0.00  0.00     0.004 C 
ATOM     18  C   LIG d   1       3.473  -1.310  -2.362  0.00  0.00    -0.009 C 
ATOM     19  H   LIG d   1       1.766  -1.349  -3.675  0.00  0.00     0.043 H 
ATOM     20  H   LIG d   1       2.028   0.216  -2.832  0.00  0.00     0.043 H 
ATOM     21  C   LIG d   1       4.612  -0.361  -1.974  0.00  0.00    -0.038 C 
ATOM     22  H   LIG d   1       2.885  -1.579  -1.473  0.00  0.00     0.033 H 
ATOM     23  C   LIG d   1       4.056  -2.588  -2.940  0.00  0.00     0.030 C 
ATOM     24  C   LIG d   1       5.317   0.078  -3.247  0.00  0.00     0.013 C 
ATOM     25  H   LIG d   1       5.328  -0.879  -1.318  0.00  0.00     0.028 H 
ATOM     26  H   LIG d   1       4.210   0.520  -1.454  0.00  0.00     0.028 H 
ATOM     27  C   LIG d   1       5.753  -1.143  -4.023  0.00  0.00     0.034 A 
ATOM     28  H   LIG d   1       6.194   0.693  -2.998  0.00  0.00     0.038 H 
ATOM     29  C   LIG d   1       4.293   0.834  -4.111  0.00  0.00     0.007 C 
ATOM     30  C   LIG d   1       6.832  -1.007  -4.857  0.00  0.00     0.002 A 
ATOM     31  N   LIG d   1       5.103  -2.327  -3.928  0.00  0.00    -0.311 N 
ATOM     32  C   LIG d   1       7.259  -2.091  -5.650  0.00  0.00    -0.047 A 
ATOM     33  C   LIG d   1       6.556  -3.257  -5.598  0.00  0.00     0.004 A 
ATOM     34  H   LIG d   1       8.125  -2.000  -6.287  0.00  0.00     0.063 H 
ATOM     35  C   LIG d   1       5.453  -3.355  -4.737  0.00  0.00     0.252 A 
ATOM     36  H   LIG d   1       6.845  -4.097  -6.212  0.00  0.00     0.067 H 
ATOM     37  O   LIG d   1       4.790  -4.379  -4.725  0.00  0.00    -0.268 OA
ATOM     38  H   LIG d   1       3.859   1.659  -3.528  0.00  0.00     0.043 H 
ATOM     39  H   LIG d   1       4.794   1.239  -5.002  0.00  0.00     0.043 H 
ATOM     40  H   LIG d   1       3.237  -3.151  -3.413  0.00  0.00     0.050 H 
ATOM     41  H   LIG d   1       4.474  -3.177  -2.109  0.00  0.00     0.050 H 
BRANCH  30  42
ATOM     42  C   LIG d   1       7.556   0.286  -4.924  0.00  0.00    -0.016 A 
ATOM     43  C   LIG d   1       8.068   0.860  -3.763  0.00  0.00    -0.051 A 
ATOM     44  C   LIG d   1       8.741   2.064  -3.829  0.00  0.00    -0.019 A 
ATOM     45  H   LIG d   1       7.939   0.365  -2.812  0.00  0.00     0.062 H 
ATOM     46  C   LIG d   1       8.906   2.701  -5.051  0.00  0.00     0.120 A 
ATOM     47  H   LIG d   1       9.138   2.510  -2.929  0.00  0.00     0.065 H 
ATOM     48  C   LIG d   1       8.397   2.131  -6.209  0.00  0.00    -0.019 A 
ATOM     49  C   LIG d   1       7.729   0.926  -6.151  0.00  0.00    -0.051 A 
ATOM     50  H   LIG d   1       8.527   2.630  -7.158  0.00  0.00     0.065 H 
ATOM     51  H   LIG d   1       7.338   0.481  -7.053  0.00  0.00     0.062 H 
BRANCH  46  52
ATOM     52  O   LIG d   1       9.569   3.886  -5.112  0.00  0.00    -0.495 OA
BRANCH  52  53
ATOM     53  C   LIG d   1       9.857   4.402  -6.413  0.00  0.00     0.079 C 
ATOM     54  H   LIG d   1       9.289   3.838  -7.166  0.00  0.00     0.066 H 
ATOM     55  H   LIG d   1      10.934   4.303  -6.617  0.00  0.00     0.066 H 
ATOM     56  H   LIG d   1       9.572   5.464  -6.457  0.00  0.00     0.066 H 
ENDBRANCH  52  53
ENDBRANCH  46  52
ENDBRANCH  30  42
ENDBRANCH  13  16
ENDBRANCH   1  13
TORSDOF 5
ENDMDL
MODEL 4
REMARK VINA RESULT:      -6.9      2.700      5.055
REMARK  5 active torsions:
REMARK  status: ('A' for Active; 'I' for Inactive)
REMARK    1  A    between atoms: C_1  and  O_2 
REMARK    2  A    between atoms: O_2  and  C_3 
REMARK    3  A    between atoms: C_6  and  C_9 
REMARK    4  A    between atoms: N_23  and  C_25 
REMARK    5  A    between atoms: C_25  and  C_26 
ROOT
ATOM      1  C   LIG d   1       3.195  -0.022  -4.771  0.00  0.00    -0.032 A 
ATOM      2  C   LIG d   1       2.520  -0.554  -3.686  0.00  0.00    -0.057 A 
ATOM      3  C   LIG d   1       3.176  -1.384  -2.794  0.00  0.00    -0.060 A 
ATOM      4  C   LIG d   1       4.511  -1.678  -2.975  0.00  0.00    -0.044 A 
ATOM      5  C   LIG d   1       5.200  -1.141  -4.064  0.00  0.00     0.052 A 
ATOM      6  C   LIG d   1       4.531  -0.308  -4.964  0.00  0.00    -0.040 A 
ATOM      7  C   LIG d   1       6.587  -1.441  -4.258  0.00  0.00     0.099 C 
ATOM      8  N   LIG d   1       7.687  -1.680  -4.412  0.00  0.00    -0.191 NA
ATOM      9  H   LIG d   1       1.476  -0.324  -3.537  0.00  0.00     0.062 H 
ATOM     10  H   LIG d   1       2.642  -1.799  -1.952  0.00  0.00     0.062 H 
ATOM     11  H   LIG d   1       5.024  -2.322  -2.276  0.00  0.00     0.063 H 
ATOM     12  H   LIG d   1       5.057   0.111  -5.808  0.00  0.00     0.063 H 
ENDROOT
BRANCH   1  13
ATOM     13  C   LIG d   1       2.471   0.876  -5.739  0.00  0.00     0.024 C 
ATOM     14  H   LIG d   1       2.544   1.919  -5.397  0.00  0.00     0.048 H 
ATOM     15  H   LIG d   1       1.413   0.582  -5.793  0.00  0.00     0.048 H 
BRANCH  13  16
ATOM     16  N   LIG d   1       3.081   0.755  -7.071  0.00  0.00    -0.297 N 
ATOM     17  C   LIG d   1       2.768   1.922  -7.901  0.00  0.00     0.004 C 
ATOM     18  C   LIG d   1       3.444   1.825  -9.260  0.00  0.00    -0.009 C 
ATOM     19  H   LIG d   1       3.118   2.826  -7.381  0.00  0.00     0.043 H 
ATOM     20  H   LIG d   1       1.678   1.974  -8.037  0.00  0.00     0.043 H 
ATOM     21  C   LIG d   1       3.072   0.509  -9.949  0.00  0.00    -0.038 C 
ATOM     22  H   LIG d   1       3.090   2.679  -9.856  0.00  0.00     0.033 H 
ATOM     23  C   LIG d   1       4.956   1.928  -9.151  0.00  0.00     0.030 C 
ATOM     24  C   LIG d   1       3.470  -0.636  -9.031  0.00  0.00     0.013 C 
ATOM     25  H   LIG d   1       3.610   0.417 -10.904  0.00  0.00     0.028 H 
ATOM     26  H   LIG d   1       1.988   0.472 -10.134  0.00  0.00     0.028 H 
ATOM     27  C   LIG d   1       4.933  -0.504  -8.675  0.00  0.00     0.034 A 
ATOM     28  H   LIG d   1       3.294  -1.598  -9.532  0.00  0.00     0.038 H 
ATOM     29  C   LIG d   1       2.663  -0.493  -7.729  0.00  0.00     0.007 C 
ATOM     30  C   LIG d   1       5.607  -1.652  -8.347  0.00  0.00     0.002 A 
ATOM     31  N   LIG d   1       5.565   0.693  -8.654  0.00  0.00    -0.311 N 
ATOM     32  C   LIG d   1       6.959  -1.594  -7.953  0.00  0.00    -0.047 A 
ATOM     33  C   LIG d   1       7.565  -0.377  -7.870  0.00  0.00     0.004 A 
ATOM     34  H   LIG d   1       7.504  -2.497  -7.722  0.00  0.00     0.063 H 
ATOM     35  C   LIG d   1       6.840   0.775  -8.207  0.00  0.00     0.252 A 
ATOM     36  H   LIG d   1       8.593  -0.300  -7.548  0.00  0.00     0.067 H 
ATOM     37  O   LIG d   1       7.363   1.871  -8.084  0.00  0.00    -0.268 OA
ATOM     38  H   LIG d   1       1.589  -0.456  -7.965  0.00  0.00     0.043 H 
ATOM     39  H   LIG d   1       2.865  -1.354  -7.076  0.00  0.00     0.043 H 
ATOM     40  H   LIG d   1       5.191   2.755  -8.464  0.00  0.00     0.050 H 
ATOM     41  H   LIG d   1       5.354   2.157 -10.151  0.00  0.00     0.050 H 
BRANCH  30  42
ATOM     42  C   LIG d   1       4.911  -2.960  -8.409  0.00  0.00    -0.016 A 
ATOM     43  C   LIG d   1       4.713  -3.588  -9.636  0.00  0.00    -0.051 A 
ATOM     44  C   LIG d   1       4.065  -4.806  -9.690  0.00  0.00    -0.019 A 
ATOM     45  H   LIG d   1       5.066  -3.124 -10.545  0.00  0.00     0.062 H 
ATOM     46  C   LIG d   1       3.611  -5.404  -8.523  0.00  0.00     0.120 A 
ATOM     47  H   LIG d   1       3.911  -5.293 -10.642  0.00  0.00     0.065 H 
ATOM     48  C   LIG d   1       3.807  -4.780  -7.299  0.00  0.00    -0.019 A 
ATOM     49  C   LIG d   1       4.459  -3.566  -7.237  0.00  0.00    -0.051 A 
ATOM     50  H   LIG d   1       3.451  -5.247  -6.392  0.00  0.00     0.065 H 
ATOM     51  H   LIG d   1       4.615  -3.084  -6.284  0.00  0.00     0.062 H 
BRANCH  46  52
ATOM     52  O   LIG d   1       2.973  -6.602  -8.580  0.00  0.00    -0.495 OA
BRANCH  52  53
ATOM     53  C   LIG d   1       3.363  -7.495  -9.625  0.00  0.00     0.079 C 
ATOM     54  H   LIG d   1       3.021  -7.100 -10.592  0.00  0.00     0.066 H 
ATOM     55  H   LIG d   1       2.909  -8.483  -9.452  0.00  0.00     0.066 H 
ATOM     56  H   LIG d   1       4.459  -7.592  -9.635  0.00  0.00     0.066 H 
ENDBRANCH  52  53
ENDBRANCH  46  52
ENDBRANCH  30  42
ENDBRANCH  13  16
ENDBRANCH   1  13
TORSDOF 5
ENDMDL
MODEL 5
REMARK VINA RESULT:      -6.7      1.770      4.607
REMARK  5 active torsions:
REMARK  status: ('A' for Active; 'I' for Inactive)
REMARK    1  A    between atoms: C_1  and  O_2 
REMARK    2  A    between atoms: O_2  and  C_3 
REMARK    3  A    between atoms: C_6  and  C_9 
REMARK    4  A    between atoms: N_23  and  C_25 
REMARK    5  A    between atoms: C_25  and  C_26 
ROOT
ATOM      1  C   LIG d   1       5.279   0.070  -7.964  0.00  0.00    -0.032 A 
ATOM      2  C   LIG d   1       4.432   0.037  -9.059  0.00  0.00    -0.057 A 
ATOM      3  C   LIG d   1       3.061  -0.008  -8.880  0.00  0.00    -0.060 A 
ATOM      4  C   LIG d   1       2.528  -0.009  -7.608  0.00  0.00    -0.044 A 
ATOM      5  C   LIG d   1       3.376   0.029  -6.499  0.00  0.00     0.052 A 
ATOM      6  C   LIG d   1       4.759   0.069  -6.686  0.00  0.00    -0.040 A 
ATOM      7  C   LIG d   1       2.828   0.028  -5.175  0.00  0.00     0.099 C 
ATOM      8  N   LIG d   1       2.395   0.027  -4.125  0.00  0.00    -0.191 NA
ATOM      9  H   LIG d   1       4.844   0.042 -10.057  0.00  0.00     0.062 H 
ATOM     10  H   LIG d   1       2.407  -0.038  -9.739  0.00  0.00     0.062 H 
ATOM     11  H   LIG d   1       1.457  -0.040  -7.469  0.00  0.00     0.063 H 
ATOM     12  H   LIG d   1       5.419   0.098  -5.833  0.00  0.00     0.063 H 
ENDROOT
BRANCH   1  13
ATOM     13  C   LIG d   1       6.770   0.113  -8.169  0.00  0.00     0.024 C 
ATOM     14  H   LIG d   1       7.031   0.988  -8.782  0.00  0.00     0.048 H 
ATOM     15  H   LIG d   1       7.098  -0.804  -8.681  0.00  0.00     0.048 H 
BRANCH  13  16
ATOM     16  N   LIG d   1       7.442   0.211  -6.865  0.00  0.00    -0.297 N 
ATOM     17  C   LIG d   1       8.219   1.451  -6.766  0.00  0.00     0.004 C 
ATOM     18  C   LIG d   1       8.869   1.582  -5.398  0.00  0.00    -0.009 C 
ATOM     19  H   LIG d   1       7.545   2.303  -6.935  0.00  0.00     0.043 H 
ATOM     20  H   LIG d   1       8.998   1.438  -7.542  0.00  0.00     0.043 H 
ATOM     21  C   LIG d   1       9.714   0.342  -5.086  0.00  0.00    -0.038 C 
ATOM     22  H   LIG d   1       9.508   2.477  -5.430  0.00  0.00     0.033 H 
ATOM     23  C   LIG d   1       7.841   1.781  -4.297  0.00  0.00     0.030 C 
ATOM     24  C   LIG d   1       8.812  -0.879  -5.175  0.00  0.00     0.013 C 
ATOM     25  H   LIG d   1      10.133   0.415  -4.072  0.00  0.00     0.028 H 
ATOM     26  H   LIG d   1      10.532   0.249  -5.815  0.00  0.00     0.028 H 
ATOM     27  C   LIG d   1       7.619  -0.687  -4.267  0.00  0.00     0.034 A 
ATOM     28  H   LIG d   1       9.368  -1.779  -4.874  0.00  0.00     0.038 H 
ATOM     29  C   LIG d   1       8.286  -0.968  -6.618  0.00  0.00     0.007 C 
ATOM     30  C   LIG d   1       7.010  -1.814  -3.781  0.00  0.00     0.002 A 
ATOM     31  N   LIG d   1       7.144   0.542  -3.953  0.00  0.00    -0.311 N 
ATOM     32  C   LIG d   1       5.860  -1.707  -2.972  0.00  0.00    -0.047 A 
ATOM     33  C   LIG d   1       5.351  -0.469  -2.718  0.00  0.00     0.004 A 
ATOM     34  H   LIG d   1       5.392  -2.589  -2.562  0.00  0.00     0.063 H 
ATOM     35  C   LIG d   1       5.999   0.660  -3.240  0.00  0.00     0.252 A 
ATOM     36  H   LIG d   1       4.457  -0.358  -2.122  0.00  0.00     0.067 H 
ATOM     37  O   LIG d   1       5.518   1.766  -3.058  0.00  0.00    -0.268 OA
ATOM     38  H   LIG d   1       9.134  -0.981  -7.317  0.00  0.00     0.043 H 
ATOM     39  H   LIG d   1       7.698  -1.889  -6.737  0.00  0.00     0.043 H 
ATOM     40  H   LIG d   1       7.111   2.528  -4.646  0.00  0.00     0.050 H 
ATOM     41  H   LIG d   1       8.364   2.168  -3.409  0.00  0.00     0.050 H 
BRANCH  30  42
ATOM     42  C   LIG d   1       7.563  -3.151  -4.105  0.00  0.00    -0.016 A 
ATOM     43  C   LIG d   1       6.936  -3.955  -5.054  0.00  0.00    -0.051 A 
ATOM     44  C   LIG d   1       7.453  -5.199  -5.353  0.00  0.00    -0.019 A 
ATOM     45  H   LIG d   1       6.046  -3.605  -5.557  0.00  0.00     0.062 H 
ATOM     46  C   LIG d   1       8.597  -5.649  -4.707  0.00  0.00     0.120 A 
ATOM     47  H   LIG d   1       6.968  -5.823  -6.089  0.00  0.00     0.065 H 
ATOM     48  C   LIG d   1       9.222  -4.851  -3.761  0.00  0.00    -0.019 A 
ATOM     49  C   LIG d   1       8.715  -3.605  -3.462  0.00  0.00    -0.051 A 
ATOM     50  H   LIG d   1      10.111  -5.205  -3.259  0.00  0.00     0.065 H 
ATOM     51  H   LIG d   1       9.205  -2.982  -2.729  0.00  0.00     0.062 H 
BRANCH  46  52
ATOM     52  O   LIG d   1       9.103  -6.875  -5.004  0.00  0.00    -0.495 OA
BRANCH  52  53
ATOM     53  C   LIG d   1       8.625  -7.979  -4.233  0.00  0.00     0.079 C 
ATOM     54  H   LIG d   1       9.382  -8.261  -3.487  0.00  0.00     0.066 H 
ATOM     55  H   LIG d   1       8.429  -8.834  -4.897  0.00  0.00     0.066 H 
ATOM     56  H   LIG d   1       7.694  -7.692  -3.720  0.00  0.00     0.066 H 
ENDBRANCH  52  53
ENDBRANCH  46  52
ENDBRANCH  30  42
ENDBRANCH  13  16
ENDBRANCH   1  13
TORSDOF 5
ENDMDL
MODEL 6
REMARK VINA RESULT:      -6.6      2.333      6.074
REMARK  5 active torsions:
REMARK  status: ('A' for Active; 'I' for Inactive)
REMARK    1  A    between atoms: C_1  and  O_2 
REMARK    2  A    between atoms: O_2  and  C_3 
REMARK    3  A    between atoms: C_6  and  C_9 
REMARK    4  A    between atoms: N_23  and  C_25 
REMARK    5  A    between atoms: C_25  and  C_26 
ROOT
ATOM      1  C   LIG d   1       4.387  -2.117  -3.650  0.00  0.00    -0.032 A 
ATOM      2  C   LIG d   1       4.654  -1.877  -2.313  0.00  0.00    -0.057 A 
ATOM      3  C   LIG d   1       4.333  -0.656  -1.746  0.00  0.00    -0.060 A 
ATOM      4  C   LIG d   1       3.735   0.327  -2.507  0.00  0.00    -0.044 A 
ATOM      5  C   LIG d   1       3.459   0.089  -3.855  0.00  0.00     0.052 A 
ATOM      6  C   LIG d   1       3.790  -1.144  -4.423  0.00  0.00    -0.040 A 
ATOM      7  C   LIG d   1       2.838   1.105  -4.652  0.00  0.00     0.099 C 
ATOM      8  N   LIG d   1       2.346   1.910  -5.284  0.00  0.00    -0.191 NA
ATOM      9  H   LIG d   1       5.118  -2.643  -1.711  0.00  0.00     0.062 H 
ATOM     10  H   LIG d   1       4.549  -0.474  -0.703  0.00  0.00     0.062 H 
ATOM     11  H   LIG d   1       3.482   1.277  -2.063  0.00  0.00     0.063 H 
ATOM     12  H   LIG d   1       3.578  -1.333  -5.464  0.00  0.00     0.063 H 
ENDROOT
BRANCH   1  13
ATOM     13  C   LIG d   1       4.744  -3.447  -4.259  0.00  0.00     0.024 C 
ATOM     14  H   LIG d   1       3.841  -3.911  -4.682  0.00  0.00     0.048 H 
ATOM     15  H   LIG d   1       5.166  -4.105  -3.485  0.00  0.00     0.048 H 
BRANCH  13  16
ATOM     16  N   LIG d   1       5.736  -3.248  -5.325  0.00  0.00    -0.297 N 
ATOM     17  C   LIG d   1       6.105  -4.524  -5.946  0.00  0.00     0.004 C 
ATOM     18  C   LIG d   1       7.089  -4.315  -7.086  0.00  0.00    -0.009 C 
ATOM     19  H   LIG d   1       5.193  -5.003  -6.331  0.00  0.00     0.043 H 
ATOM     20  H   LIG d   1       6.563  -5.167  -5.180  0.00  0.00     0.043 H 
ATOM     21  C   LIG d   1       8.313  -3.533  -6.599  0.00  0.00    -0.038 C 
ATOM     22  H   LIG d   1       7.391  -5.312  -7.437  0.00  0.00     0.033 H 
ATOM     23  C   LIG d   1       6.455  -3.582  -8.256  0.00  0.00     0.030 C 
ATOM     24  C   LIG d   1       7.831  -2.216  -6.012  0.00  0.00     0.013 C 
ATOM     25  H   LIG d   1       8.993  -3.332  -7.440  0.00  0.00     0.028 H 
ATOM     26  H   LIG d   1       8.845  -4.106  -5.826  0.00  0.00     0.028 H 
ATOM     27  C   LIG d   1       6.989  -1.491  -7.038  0.00  0.00     0.034 A 
ATOM     28  H   LIG d   1       8.691  -1.593  -5.731  0.00  0.00     0.038 H 
ATOM     29  C   LIG d   1       6.922  -2.542  -4.815  0.00  0.00     0.007 C 
ATOM     30  C   LIG d   1       6.925  -0.125  -6.948  0.00  0.00     0.002 A 
ATOM     31  N   LIG d   1       6.300  -2.150  -8.000  0.00  0.00    -0.311 N 
ATOM     32  C   LIG d   1       6.116   0.609  -7.839  0.00  0.00    -0.047 A 
ATOM     33  C   LIG d   1       5.375  -0.069  -8.760  0.00  0.00     0.004 A 
ATOM     34  H   LIG d   1       6.084   1.686  -7.794  0.00  0.00     0.063 H 
ATOM     35  C   LIG d   1       5.461  -1.468  -8.815  0.00  0.00     0.252 A 
ATOM     36  H   LIG d   1       4.727   0.465  -9.440  0.00  0.00     0.067 H 
ATOM     37  O   LIG d   1       4.761  -2.082  -9.603  0.00  0.00    -0.268 OA
ATOM     38  H   LIG d   1       7.467  -3.180  -4.104  0.00  0.00     0.043 H 
ATOM     39  H   LIG d   1       6.624  -1.609  -4.316  0.00  0.00     0.043 H 
ATOM     40  H   LIG d   1       5.467  -4.030  -8.442  0.00  0.00     0.050 H 
ATOM     41  H   LIG d   1       7.096  -3.730  -9.138  0.00  0.00     0.050 H 
BRANCH  30  42
ATOM     42  C   LIG d   1       7.713   0.585  -5.911  0.00  0.00    -0.016 A 
ATOM     43  C   LIG d   1       7.150   0.847  -4.664  0.00  0.00    -0.051 A 
ATOM     44  C   LIG d   1       7.885   1.509  -3.702  0.00  0.00    -0.019 A 
ATOM     45  H   LIG d   1       6.139   0.534  -4.450  0.00  0.00     0.062 H 
ATOM     46  C   LIG d   1       9.185   1.913  -3.976  0.00  0.00     0.120 A 
ATOM     47  H   LIG d   1       7.449   1.713  -2.735  0.00  0.00     0.065 H 
ATOM     48  C   LIG d   1       9.748   1.653  -5.218  0.00  0.00    -0.019 A 
ATOM     49  C   LIG d   1       9.020   0.988  -6.182  0.00  0.00    -0.051 A 
ATOM     50  H   LIG d   1      10.759   1.970  -5.428  0.00  0.00     0.065 H 
ATOM     51  H   LIG d   1       9.461   0.781  -7.146  0.00  0.00     0.062 H 
BRANCH  46  52
ATOM     52  O   LIG d   1       9.906   2.564  -3.026  0.00  0.00    -0.495 OA
BRANCH  52  53
ATOM     53  C   LIG d   1       9.849   3.991  -3.033  0.00  0.00     0.079 C 
ATOM     54  H   LIG d   1       9.905   4.357  -4.068  0.00  0.00     0.066 H 
ATOM     55  H   LIG d   1      10.694   4.395  -2.455  0.00  0.00     0.066 H 
ATOM     56  H   LIG d   1       8.903   4.323  -2.578  0.00  0.00     0.066 H 
ENDBRANCH  52  53
ENDBRANCH  46  52
ENDBRANCH  30  42
ENDBRANCH  13  16
ENDBRANCH   1  13
TORSDOF 5
ENDMDL
MODEL 7
REMARK VINA RESULT:      -6.5      2.270      4.521
REMARK  5 active torsions:
REMARK  status: ('A' for Active; 'I' for Inactive)
REMARK    1  A    between atoms: C_1  and  O_2 
REMARK    2  A    between atoms: O_2  and  C_3 
REMARK    3  A    between atoms: C_6  and  C_9 
REMARK    4  A    between atoms: N_23  and  C_25 
REMARK    5  A    between atoms: C_25  and  C_26 
ROOT
ATOM      1  C   LIG d   1       4.696   0.427  -8.661  0.00  0.00    -0.032 A 
ATOM      2  C   LIG d   1       3.759   0.386  -7.644  0.00  0.00    -0.057 A 
ATOM      3  C   LIG d   1       2.476  -0.067  -7.895  0.00  0.00    -0.060 A 
ATOM      4  C   LIG d   1       2.125  -0.491  -9.159  0.00  0.00    -0.044 A 
ATOM      5  C   LIG d   1       3.067  -0.456 -10.190  0.00  0.00     0.052 A 
ATOM      6  C   LIG d   1       4.360   0.007  -9.931  0.00  0.00    -0.040 A 
ATOM      7  C   LIG d   1       2.710  -0.896 -11.506  0.00  0.00     0.099 C 
ATOM      8  N   LIG d   1       2.427  -1.243 -12.549  0.00  0.00    -0.191 NA
ATOM      9  H   LIG d   1       4.029   0.712  -6.651  0.00  0.00     0.062 H 
ATOM     10  H   LIG d   1       1.749  -0.092  -7.097  0.00  0.00     0.062 H 
ATOM     11  H   LIG d   1       1.125  -0.848  -9.353  0.00  0.00     0.063 H 
ATOM     12  H   LIG d   1       5.092   0.035 -10.723  0.00  0.00     0.063 H 
ENDROOT
BRANCH   1  13
ATOM     13  C   LIG d   1       6.089   0.927  -8.380  0.00  0.00     0.024 C 
ATOM     14  H   LIG d   1       6.067   2.018  -8.243  0.00  0.00     0.048 H 
ATOM     15  H   LIG d   1       6.747   0.677  -9.225  0.00  0.00     0.048 H 
BRANCH  13  16
ATOM     16  N   LIG d   1       6.600   0.290  -7.158  0.00  0.00    -0.297 N 
ATOM     17  C   LIG d   1       7.905   0.845  -6.782  0.00  0.00     0.004 C 
ATOM     18  C   LIG d   1       8.411   0.228  -5.487  0.00  0.00    -0.009 C 
ATOM     19  H   LIG d   1       7.800   1.932  -6.655  0.00  0.00     0.043 H 
ATOM     20  H   LIG d   1       8.621   0.637  -7.591  0.00  0.00     0.043 H 
ATOM     21  C   LIG d   1       8.442  -1.299  -5.600  0.00  0.00    -0.038 C 
ATOM     22  H   LIG d   1       9.426   0.617  -5.321  0.00  0.00     0.033 H 
ATOM     23  C   LIG d   1       7.557   0.629  -4.296  0.00  0.00     0.030 C 
ATOM     24  C   LIG d   1       7.042  -1.777  -5.951  0.00  0.00     0.013 C 
ATOM     25  H   LIG d   1       8.751  -1.742  -4.641  0.00  0.00     0.028 H 
ATOM     26  H   LIG d   1       9.143  -1.606  -6.389  0.00  0.00     0.028 H 
ATOM     27  C   LIG d   1       6.061  -1.241  -4.933  0.00  0.00     0.034 A 
ATOM     28  H   LIG d   1       7.010  -2.876  -5.955  0.00  0.00     0.038 H 
ATOM     29  C   LIG d   1       6.669  -1.171  -7.315  0.00  0.00     0.007 C 
ATOM     30  C   LIG d   1       4.910  -1.957  -4.730  0.00  0.00     0.002 A 
ATOM     31  N   LIG d   1       6.284  -0.091  -4.254  0.00  0.00    -0.311 N 
ATOM     32  C   LIG d   1       3.929  -1.486  -3.834  0.00  0.00    -0.047 A 
ATOM     33  C   LIG d   1       4.133  -0.293  -3.208  0.00  0.00     0.004 A 
ATOM     34  H   LIG d   1       3.034  -2.059  -3.648  0.00  0.00     0.063 H 
ATOM     35  C   LIG d   1       5.321   0.413  -3.447  0.00  0.00     0.252 A 
ATOM     36  H   LIG d   1       3.388   0.104  -2.535  0.00  0.00     0.067 H 
ATOM     37  O   LIG d   1       5.484   1.505  -2.928  0.00  0.00    -0.268 OA
ATOM     38  H   LIG d   1       7.436  -1.438  -8.056  0.00  0.00     0.043 H 
ATOM     39  H   LIG d   1       5.695  -1.566  -7.637  0.00  0.00     0.043 H 
ATOM     40  H   LIG d   1       7.364   1.711  -4.366  0.00  0.00     0.050 H 
ATOM     41  H   LIG d   1       8.130   0.417  -3.381  0.00  0.00     0.050 H 
BRANCH  30  42
ATOM     42  C   LIG d   1       4.696  -3.233  -5.455  0.00  0.00    -0.016 A 
ATOM     43  C   LIG d   1       4.122  -3.228  -6.724  0.00  0.00    -0.051 A 
ATOM     44  C   LIG d   1       3.925  -4.418  -7.395  0.00  0.00    -0.019 A 
ATOM     45  H   LIG d   1       3.832  -2.295  -7.183  0.00  0.00     0.062 H 
ATOM     46  C   LIG d   1       4.296  -5.618  -6.806  0.00  0.00     0.120 A 
ATOM     47  H   LIG d   1       3.480  -4.414  -8.379  0.00  0.00     0.065 H 
ATOM     48  C   LIG d   1       4.867  -5.626  -5.541  0.00  0.00    -0.019 A 
ATOM     49  C   LIG d   1       5.074  -4.441  -4.868  0.00  0.00    -0.051 A 
ATOM     50  H   LIG d   1       5.155  -6.562  -5.085  0.00  0.00     0.065 H 
ATOM     51  H   LIG d   1       5.523  -4.447  -3.886  0.00  0.00     0.062 H 
BRANCH  46  52
ATOM     52  O   LIG d   1       4.100  -6.788  -7.469  0.00  0.00    -0.495 OA
BRANCH  52  53
ATOM     53  C   LIG d   1       4.572  -7.980  -6.838  0.00  0.00     0.079 C 
ATOM     54  H   LIG d   1       3.797  -8.757  -6.895  0.00  0.00     0.066 H 
ATOM     55  H   LIG d   1       4.803  -7.769  -5.783  0.00  0.00     0.066 H 
ATOM     56  H   LIG d   1       5.482  -8.330  -7.349  0.00  0.00     0.066 H 
ENDBRANCH  52  53
ENDBRANCH  46  52
ENDBRANCH  30  42
ENDBRANCH  13  16
ENDBRANCH   1  13
TORSDOF 5
ENDMDL
MODEL 8
REMARK VINA RESULT:      -6.5      2.519      5.246
REMARK  5 active torsions:
REMARK  status: ('A' for Active; 'I' for Inactive)
REMARK    1  A    between atoms: C_1  and  O_2 
REMARK    2  A    between atoms: O_2  and  C_3 
REMARK    3  A    between atoms: C_6  and  C_9 
REMARK    4  A    between atoms: N_23  and  C_25 
REMARK    5  A    between atoms: C_25  and  C_26 
ROOT
ATOM      1  C   LIG d   1       8.291  -0.239  -4.935  0.00  0.00    -0.032 A 
ATOM      2  C   LIG d   1       7.196   0.280  -4.265  0.00  0.00    -0.057 A 
ATOM      3  C   LIG d   1       7.262   1.534  -3.686  0.00  0.00    -0.060 A 
ATOM      4  C   LIG d   1       8.417   2.282  -3.782  0.00  0.00    -0.044 A 
ATOM      5  C   LIG d   1       9.524   1.767  -4.460  0.00  0.00     0.052 A 
ATOM      6  C   LIG d   1       9.452   0.498  -5.039  0.00  0.00    -0.040 A 
ATOM      7  C   LIG d   1      10.727   2.538  -4.564  0.00  0.00     0.099 C 
ATOM      8  N   LIG d   1      11.681   3.149  -4.646  0.00  0.00    -0.191 NA
ATOM      9  H   LIG d   1       6.287  -0.299  -4.191  0.00  0.00     0.062 H 
ATOM     10  H   LIG d   1       6.406   1.931  -3.161  0.00  0.00     0.062 H 
ATOM     11  H   LIG d   1       8.467   3.263  -3.333  0.00  0.00     0.063 H 
ATOM     12  H   LIG d   1      10.304   0.094  -5.564  0.00  0.00     0.063 H 
ENDROOT
BRANCH   1  13
ATOM     13  C   LIG d   1       8.211  -1.608  -5.558  0.00  0.00     0.024 C 
ATOM     14  H   LIG d   1       8.857  -2.302  -5.002  0.00  0.00     0.048 H 
ATOM     15  H   LIG d   1       8.544  -1.555  -6.605  0.00  0.00     0.048 H 
BRANCH  13  16
ATOM     16  N   LIG d   1       6.822  -2.087  -5.511  0.00  0.00    -0.297 N 
ATOM     17  C   LIG d   1       6.744  -3.410  -4.882  0.00  0.00     0.004 C 
ATOM     18  C   LIG d   1       5.302  -3.884  -4.782  0.00  0.00    -0.009 C 
ATOM     19  H   LIG d   1       7.181  -3.346  -3.875  0.00  0.00     0.043 H 
ATOM     20  H   LIG d   1       7.322  -4.122  -5.490  0.00  0.00     0.043 H 
ATOM     21  C   LIG d   1       4.633  -3.858  -6.159  0.00  0.00    -0.038 C 
ATOM     22  H   LIG d   1       5.329  -4.912  -4.393  0.00  0.00     0.033 H 
ATOM     23  C   LIG d   1       4.493  -3.040  -3.812  0.00  0.00     0.030 C 
ATOM     24  C   LIG d   1       4.732  -2.442  -6.706  0.00  0.00     0.013 C 
ATOM     25  H   LIG d   1       3.575  -4.144  -6.071  0.00  0.00     0.028 H 
ATOM     26  H   LIG d   1       5.145  -4.551  -6.842  0.00  0.00     0.028 H 
ATOM     27  C   LIG d   1       4.143  -1.477  -5.703  0.00  0.00     0.034 A 
ATOM     28  H   LIG d   1       4.186  -2.368  -7.658  0.00  0.00     0.038 H 
ATOM     29  C   LIG d   1       6.224  -2.101  -6.855  0.00  0.00     0.007 C 
ATOM     30  C   LIG d   1       3.637  -0.298  -6.185  0.00  0.00     0.002 A 
ATOM     31  N   LIG d   1       4.126  -1.740  -4.374  0.00  0.00    -0.311 N 
ATOM     32  C   LIG d   1       3.122   0.669  -5.298  0.00  0.00    -0.047 A 
ATOM     33  C   LIG d   1       3.172   0.423  -3.959  0.00  0.00     0.004 A 
ATOM     34  H   LIG d   1       2.695   1.587  -5.673  0.00  0.00     0.063 H 
ATOM     35  C   LIG d   1       3.705  -0.792  -3.505  0.00  0.00     0.252 A 
ATOM     36  H   LIG d   1       2.807   1.156  -3.255  0.00  0.00     0.067 H 
ATOM     37  O   LIG d   1       3.799  -0.995  -2.305  0.00  0.00    -0.268 OA
ATOM     38  H   LIG d   1       6.713  -2.861  -7.481  0.00  0.00     0.043 H 
ATOM     39  H   LIG d   1       6.329  -1.114  -7.328  0.00  0.00     0.043 H 
ATOM     40  H   LIG d   1       5.100  -2.889  -2.906  0.00  0.00     0.050 H 
ATOM     41  H   LIG d   1       3.581  -3.599  -3.553  0.00  0.00     0.050 H 
BRANCH  30  42
ATOM     42  C   LIG d   1       3.629  -0.039  -7.645  0.00  0.00    -0.016 A 
ATOM     43  C   LIG d   1       4.662   0.689  -8.231  0.00  0.00    -0.051 A 
ATOM     44  C   LIG d   1       4.652   0.928  -9.590  0.00  0.00    -0.019 A 
ATOM     45  H   LIG d   1       5.471   1.066  -7.622  0.00  0.00     0.062 H 
ATOM     46  C   LIG d   1       3.613   0.444 -10.373  0.00  0.00     0.120 A 
ATOM     47  H   LIG d   1       5.452   1.493 -10.044  0.00  0.00     0.065 H 
ATOM     48  C   LIG d   1       2.582  -0.281  -9.792  0.00  0.00    -0.019 A 
ATOM     49  C   LIG d   1       2.590  -0.529  -8.435  0.00  0.00    -0.051 A 
ATOM     50  H   LIG d   1       1.775  -0.656 -10.403  0.00  0.00     0.065 H 
ATOM     51  H   LIG d   1       1.790  -1.098  -7.985  0.00  0.00     0.062 H 
BRANCH  46  52
ATOM     52  O   LIG d   1       3.606   0.681 -11.711  0.00  0.00    -0.495 OA
BRANCH  52  53
ATOM     53  C   LIG d   1       4.271  -0.272 -12.542  0.00  0.00     0.079 C 
ATOM     54  H   LIG d   1       3.536  -0.983 -12.946  0.00  0.00     0.066 H 
ATOM     55  H   LIG d   1       5.020  -0.817 -11.949  0.00  0.00     0.066 H 
ATOM     56  H   LIG d   1       4.770   0.251 -13.372  0.00  0.00     0.066 H 
ENDBRANCH  52  53
ENDBRANCH  46  52
ENDBRANCH  30  42
ENDBRANCH  13  16
ENDBRANCH   1  13
TORSDOF 5
ENDMDL
MODEL 9
REMARK VINA RESULT:      -6.2      2.190      6.043
REMARK  5 active torsions:
REMARK  status: ('A' for Active; 'I' for Inactive)
REMARK    1  A    between atoms: C_1  and  O_2 
REMARK    2  A    between atoms: O_2  and  C_3 
REMARK    3  A    between atoms: C_6  and  C_9 
REMARK    4  A    between atoms: N_23  and  C_25 
REMARK    5  A    between atoms: C_25  and  C_26 
ROOT
ATOM      1  C   LIG d   1       7.711  -0.867  -4.361  0.00  0.00    -0.032 A 
ATOM      2  C   LIG d   1       7.679   0.496  -4.124  0.00  0.00    -0.057 A 
ATOM      3  C   LIG d   1       6.601   1.066  -3.471  0.00  0.00    -0.060 A 
ATOM      4  C   LIG d   1       5.554   0.278  -3.041  0.00  0.00    -0.044 A 
ATOM      5  C   LIG d   1       5.582  -1.099  -3.272  0.00  0.00     0.052 A 
ATOM      6  C   LIG d   1       6.671  -1.668  -3.937  0.00  0.00    -0.040 A 
ATOM      7  C   LIG d   1       4.499  -1.925  -2.828  0.00  0.00     0.099 C 
ATOM      8  N   LIG d   1       3.640  -2.580  -2.477  0.00  0.00    -0.191 NA
ATOM      9  H   LIG d   1       8.497   1.119  -4.454  0.00  0.00     0.062 H 
ATOM     10  H   LIG d   1       6.581   2.132  -3.294  0.00  0.00     0.062 H 
ATOM     11  H   LIG d   1       4.715   0.723  -2.528  0.00  0.00     0.063 H 
ATOM     12  H   LIG d   1       6.698  -2.732  -4.118  0.00  0.00     0.063 H 
ENDROOT
BRANCH   1  13
ATOM     13  C   LIG d   1       8.886  -1.478  -5.077  0.00  0.00     0.024 C 
ATOM     14  H   LIG d   1       9.512  -2.024  -4.356  0.00  0.00     0.048 H 
ATOM     15  H   LIG d   1       9.482  -0.683  -5.550  0.00  0.00     0.048 H 
BRANCH  13  16
ATOM     16  N   LIG d   1       8.404  -2.406  -6.109  0.00  0.00    -0.297 N 
ATOM     17  C   LIG d   1       9.521  -3.103  -6.754  0.00  0.00     0.004 C 
ATOM     18  C   LIG d   1       9.022  -4.105  -7.783  0.00  0.00    -0.009 C 
ATOM     19  H   LIG d   1      10.100  -3.629  -5.980  0.00  0.00     0.043 H 
ATOM     20  H   LIG d   1      10.161  -2.358  -7.248  0.00  0.00     0.043 H 
ATOM     21  C   LIG d   1       8.106  -3.416  -8.799  0.00  0.00    -0.038 C 
ATOM     22  H   LIG d   1       9.908  -4.516  -8.288  0.00  0.00     0.033 H 
ATOM     23  C   LIG d   1       8.277  -5.261  -7.135  0.00  0.00     0.030 C 
ATOM     24  C   LIG d   1       6.964  -2.760  -8.040  0.00  0.00     0.013 C 
ATOM     25  H   LIG d   1       7.700  -4.156  -9.505  0.00  0.00     0.028 H 
ATOM     26  H   LIG d   1       8.666  -2.649  -9.354  0.00  0.00     0.028 H 
ATOM     27  C   LIG d   1       6.279  -3.796  -7.177  0.00  0.00     0.034 A 
ATOM     28  H   LIG d   1       6.242  -2.329  -8.747  0.00  0.00     0.038 H 
ATOM     29  C   LIG d   1       7.572  -1.705  -7.100  0.00  0.00     0.007 C 
ATOM     30  C   LIG d   1       4.962  -3.583  -6.863  0.00  0.00     0.002 A 
ATOM     31  N   LIG d   1       6.930  -4.886  -6.706  0.00  0.00    -0.311 N 
ATOM     32  C   LIG d   1       4.278  -4.481  -6.020  0.00  0.00    -0.047 A 
ATOM     33  C   LIG d   1       4.961  -5.537  -5.496  0.00  0.00     0.004 A 
ATOM     34  H   LIG d   1       3.233  -4.335  -5.792  0.00  0.00     0.063 H 
ATOM     35  C   LIG d   1       6.310  -5.717  -5.835  0.00  0.00     0.252 A 
ATOM     36  H   LIG d   1       4.469  -6.228  -4.828  0.00  0.00     0.067 H 
ATOM     37  O   LIG d   1       6.939  -6.631  -5.329  0.00  0.00    -0.268 OA
ATOM     38  H   LIG d   1       8.186  -1.005  -7.684  0.00  0.00     0.043 H 
ATOM     39  H   LIG d   1       6.764  -1.154  -6.597  0.00  0.00     0.043 H 
ATOM     40  H   LIG d   1       8.861  -5.594  -6.264  0.00  0.00     0.050 H 
ATOM     41  H   LIG d   1       8.215  -6.078  -7.869  0.00  0.00     0.050 H 
BRANCH  30  42
ATOM     42  C   LIG d   1       4.252  -2.403  -7.416  0.00  0.00    -0.016 A 
ATOM     43  C   LIG d   1       3.671  -2.467  -8.680  0.00  0.00    -0.051 A 
ATOM     44  C   LIG d   1       3.012  -1.367  -9.191  0.00  0.00    -0.019 A 
ATOM     45  H   LIG d   1       3.735  -3.376  -9.260  0.00  0.00     0.062 H 
ATOM     46  C   LIG d   1       2.929  -0.199  -8.447  0.00  0.00     0.120 A 
ATOM     47  H   LIG d   1       2.561  -1.416 -10.171  0.00  0.00     0.065 H 
ATOM     48  C   LIG d   1       3.508  -0.132  -7.187  0.00  0.00    -0.019 A 
ATOM     49  C   LIG d   1       4.162  -1.229  -6.668  0.00  0.00    -0.051 A 
ATOM     50  H   LIG d   1       3.442   0.779  -6.611  0.00  0.00     0.065 H 
ATOM     51  H   LIG d   1       4.608  -1.179  -5.686  0.00  0.00     0.062 H 
BRANCH  46  52
ATOM     52  O   LIG d   1       2.279   0.882  -8.953  0.00  0.00    -0.495 OA
BRANCH  52  53
ATOM     53  C   LIG d   1       2.961   2.136  -8.893  0.00  0.00     0.079 C 
ATOM     54  H   LIG d   1       3.134   2.509  -9.912  0.00  0.00     0.066 H 
ATOM     55  H   LIG d   1       3.926   2.005  -8.381  0.00  0.00     0.066 H 
ATOM     56  H   LIG d   1       2.347   2.861  -8.336  0.00  0.00     0.066 H 
ENDBRANCH  52  53
ENDBRANCH  46  52
ENDBRANCH  30  42
ENDBRANCH  13  16
ENDBRANCH   1  13
TORSDOF 5
ENDMDL
