MODEL 1
REMARK VINA RESULT:      -7.1      0.000      0.000
REMARK  9 active torsions:
REMARK  status: ('A' for Active; 'I' for Inactive)
REMARK    1  A    between atoms: C_1  and  C_2 
REMARK    2  A    between atoms: C_2  and  C_3 
REMARK    3  A    between atoms: C_2  and  C_4 
REMARK    4  A    between atoms: C_2  and  C_5 
REMARK    5  A    between atoms: C_8  and  C_11 
REMARK    6  A    between atoms: C_11  and  N_12 
REMARK    7  A    between atoms: N_15  and  C_18 
REMARK    8  A    between atoms: C_18  and  C_20 
REMARK    9  A    between atoms: C_18  and  C_26 
ROOT
ATOM      1  N   LIG d   1       7.268  -5.026  -5.092  0.00  0.00    -0.288 N 
ATOM      2  C   LIG d   1       6.333  -4.129  -5.785  0.00  0.00     0.040 C 
ATOM      3  C   LIG d   1       6.028  -2.925  -4.891  0.00  0.00    -0.018 C 
ATOM      4  N   LIG d   1       7.277  -2.216  -4.582  0.00  0.00     0.246 N 
ATOM      5  C   LIG d   1       8.190  -3.118  -3.869  0.00  0.00    -0.018 C 
ATOM      6  C   LIG d   1       8.512  -4.323  -4.755  0.00  0.00     0.040 C 
ATOM      7  H   LIG d   1       6.782  -3.786  -6.717  0.00  0.00     0.048 H 
ATOM      8  H   LIG d   1       5.408  -4.664  -6.003  0.00  0.00     0.048 H 
ATOM      9  H   LIG d   1       5.345  -2.251  -5.410  0.00  0.00     0.083 H 
ATOM     10  H   LIG d   1       5.566  -3.268  -3.965  0.00  0.00     0.083 H 
ATOM     11  H   LIG d   1       9.111  -2.586  -3.628  0.00  0.00     0.083 H 
ATOM     12  H   LIG d   1       7.718  -3.460  -2.948  0.00  0.00     0.083 H 
ATOM     13  H   LIG d   1       9.179  -5.000  -4.218  0.00  0.00     0.048 H 
ATOM     14  H   LIG d   1       8.998  -3.983  -5.669  0.00  0.00     0.048 H 
ATOM     15  H   LIG d   1       7.710  -1.908  -5.440  0.00  0.00     0.204 HD
ENDROOT
BRANCH   1  16
ATOM     16  C   LIG d   1       7.541  -6.225  -5.896  0.00  0.00     0.024 C 
ATOM     17  H   LIG d   1       8.610  -6.438  -5.879  0.00  0.00     0.048 H 
ATOM     18  H   LIG d   1       7.221  -6.053  -6.924  0.00  0.00     0.048 H 
BRANCH  16  19
ATOM     19  C   LIG d   1       6.785  -7.397  -5.324  0.00  0.00    -0.033 A 
ATOM     20  C   LIG d   1       7.411  -8.259  -4.443  0.00  0.00    -0.057 A 
ATOM     21  C   LIG d   1       6.717  -9.333  -3.918  0.00  0.00    -0.058 A 
ATOM     22  H   LIG d   1       8.441  -8.093  -4.166  0.00  0.00     0.062 H 
ATOM     23  C   LIG d   1       5.398  -9.545  -4.273  0.00  0.00    -0.042 A 
ATOM     24  H   LIG d   1       7.206 -10.007  -3.229  0.00  0.00     0.062 H 
ATOM     25  C   LIG d   1       4.774  -8.685  -5.157  0.00  0.00    -0.058 A 
ATOM     26  C   LIG d   1       5.467  -7.609  -5.680  0.00  0.00    -0.057 A 
ATOM     27  H   LIG d   1       3.745  -8.853  -5.438  0.00  0.00     0.062 H 
ATOM     28  H   LIG d   1       4.978  -6.935  -6.368  0.00  0.00     0.062 H 
BRANCH  23  29
ATOM     29  C   LIG d   1       4.642 -10.715  -3.700  0.00  0.00    -0.013 C 
BRANCH  29  30
ATOM     30  C   LIG d   1       3.286 -10.239  -3.175  0.00  0.00    -0.056 C 
ATOM     31  H   LIG d   1       3.358  -9.192  -2.880  0.00  0.00     0.024 H 
ATOM     32  H   LIG d   1       2.536 -10.344  -3.959  0.00  0.00     0.024 H 
ATOM     33  H   LIG d   1       2.998 -10.841  -2.313  0.00  0.00     0.024 H 
ENDBRANCH  29  30
BRANCH  29  34
ATOM     34  C   LIG d   1       5.446 -11.330  -2.552  0.00  0.00    -0.056 C 
ATOM     35  H   LIG d   1       6.368 -11.759  -2.943  0.00  0.00     0.024 H 
ATOM     36  H   LIG d   1       5.685 -10.557  -1.821  0.00  0.00     0.024 H 
ATOM     37  H   LIG d   1       4.856 -12.112  -2.073  0.00  0.00     0.024 H 
ENDBRANCH  29  34
BRANCH  29  38
ATOM     38  C   LIG d   1       4.427 -11.766  -4.791  0.00  0.00    -0.056 C 
ATOM     39  H   LIG d   1       4.941 -12.686  -4.514  0.00  0.00     0.024 H 
ATOM     40  H   LIG d   1       3.361 -11.964  -4.900  0.00  0.00     0.024 H 
ATOM     41  H   LIG d   1       4.827 -11.396  -5.736  0.00  0.00     0.024 H 
ENDBRANCH  29  38
ENDBRANCH  23  29
ENDBRANCH  16  19
ENDBRANCH   1  16
BRANCH   4  42
ATOM     42  C   LIG d   1       6.981  -1.050  -3.739  0.00  0.00     0.031 C 
ATOM     43  H   LIG d   1       7.391  -1.210  -2.742  0.00  0.00     0.096 H 
BRANCH  42  44
ATOM     44  C   LIG d   1       5.489  -0.862  -3.646  0.00  0.00     0.005 A 
ATOM     45  C   LIG d   1       4.798  -0.287  -4.694  0.00  0.00    -0.053 A 
ATOM     46  C   LIG d   1       3.428  -0.117  -4.609  0.00  0.00    -0.061 A 
ATOM     47  H   LIG d   1       5.326   0.029  -5.582  0.00  0.00     0.062 H 
ATOM     48  C   LIG d   1       2.751  -0.515  -3.471  0.00  0.00    -0.062 A 
ATOM     49  H   LIG d   1       2.886   0.329  -5.431  0.00  0.00     0.062 H 
ATOM     50  C   LIG d   1       3.444  -1.087  -2.421  0.00  0.00    -0.061 A 
ATOM     51  H   LIG d   1       1.682  -0.380  -3.404  0.00  0.00     0.062 H 
ATOM     52  C   LIG d   1       4.813  -1.260  -2.506  0.00  0.00    -0.053 A 
ATOM     53  H   LIG d   1       2.915  -1.398  -1.532  0.00  0.00     0.062 H 
ATOM     54  H   LIG d   1       5.353  -1.706  -1.686  0.00  0.00     0.062 H 
ENDBRANCH  42  44
BRANCH  42  55
ATOM     55  C   LIG d   1       7.605   0.180  -4.347  0.00  0.00     0.005 A 
ATOM     56  C   LIG d   1       7.612   1.370  -3.643  0.00  0.00    -0.051 A 
ATOM     57  C   LIG d   1       8.190   2.498  -4.199  0.00  0.00    -0.043 A 
ATOM     58  H   LIG d   1       7.171   1.419  -2.659  0.00  0.00     0.062 H 
ATOM     59  C   LIG d   1       8.750   2.437  -5.462  0.00  0.00     0.041 A 
ATOM     60  H   LIG d   1       8.200   3.426  -3.647  0.00  0.00     0.063 H 
ATOM     61  C   LIG d   1       8.736   1.247  -6.167  0.00  0.00    -0.043 A 
ATOM     62 CL   LIG d   1       9.468   3.854  -6.162  0.00  0.00    -0.084 Cl
ATOM     63  C   LIG d   1       8.164   0.119  -5.610  0.00  0.00    -0.051 A 
ATOM     64  H   LIG d   1       9.173   1.199  -7.154  0.00  0.00     0.063 H 
ATOM     65  H   LIG d   1       8.154  -0.810  -6.161  0.00  0.00     0.062 H 
ENDBRANCH  42  55
ENDBRANCH   4  42
TORSDOF 9
ENDMDL
MODEL 2
REMARK VINA RESULT:      -7.0      2.432      3.458
REMARK  9 active torsions:
REMARK  status: ('A' for Active; 'I' for Inactive)
REMARK    1  A    between atoms: C_1  and  C_2 
REMARK    2  A    between atoms: C_2  and  C_3 
REMARK    3  A    between atoms: C_2  and  C_4 
REMARK    4  A    between atoms: C_2  and  C_5 
REMARK    5  A    between atoms: C_8  and  C_11 
REMARK    6  A    between atoms: C_11  and  N_12 
REMARK    7  A    between atoms: N_15  and  C_18 
REMARK    8  A    between atoms: C_18  and  C_20 
REMARK    9  A    between atoms: C_18  and  C_26 
ROOT
ATOM      1  N   LIG d   1       5.093  -5.348  -6.283  0.00  0.00    -0.288 N 
ATOM      2  C   LIG d   1       4.692  -4.828  -4.968  0.00  0.00     0.040 C 
ATOM      3  C   LIG d   1       5.275  -3.426  -4.778  0.00  0.00    -0.018 C 
ATOM      4  N   LIG d   1       4.784  -2.543  -5.844  0.00  0.00     0.246 N 
ATOM      5  C   LIG d   1       5.213  -3.062  -7.149  0.00  0.00    -0.018 C 
ATOM      6  C   LIG d   1       4.630  -4.461  -7.359  0.00  0.00     0.040 C 
ATOM      7  H   LIG d   1       3.605  -4.781  -4.913  0.00  0.00     0.048 H 
ATOM      8  H   LIG d   1       5.068  -5.487  -4.186  0.00  0.00     0.048 H 
ATOM      9  H   LIG d   1       4.966  -3.033  -3.809  0.00  0.00     0.083 H 
ATOM     10  H   LIG d   1       6.363  -3.476  -4.820  0.00  0.00     0.083 H 
ATOM     11  H   LIG d   1       4.859  -2.398  -7.938  0.00  0.00     0.083 H 
ATOM     12  H   LIG d   1       6.301  -3.114  -7.179  0.00  0.00     0.083 H 
ATOM     13  H   LIG d   1       4.961  -4.852  -8.321  0.00  0.00     0.048 H 
ATOM     14  H   LIG d   1       3.541  -4.407  -7.343  0.00  0.00     0.048 H 
ATOM     15  H   LIG d   1       3.776  -2.505  -5.812  0.00  0.00     0.204 HD
ENDROOT
BRANCH   1  16
ATOM     16  C   LIG d   1       4.600  -6.718  -6.481  0.00  0.00     0.024 C 
ATOM     17  H   LIG d   1       4.762  -7.016  -7.516  0.00  0.00     0.048 H 
ATOM     18  H   LIG d   1       3.535  -6.756  -6.253  0.00  0.00     0.048 H 
BRANCH  16  19
ATOM     19  C   LIG d   1       5.343  -7.656  -5.565  0.00  0.00    -0.033 A 
ATOM     20  C   LIG d   1       6.698  -7.486  -5.352  0.00  0.00    -0.057 A 
ATOM     21  C   LIG d   1       7.379  -8.347  -4.511  0.00  0.00    -0.058 A 
ATOM     22  H   LIG d   1       7.224  -6.682  -5.844  0.00  0.00     0.062 H 
ATOM     23  C   LIG d   1       6.704  -9.376  -3.882  0.00  0.00    -0.042 A 
ATOM     24  H   LIG d   1       8.438  -8.214  -4.345  0.00  0.00     0.062 H 
ATOM     25  C   LIG d   1       5.349  -9.548  -4.098  0.00  0.00    -0.058 A 
ATOM     26  C   LIG d   1       4.668  -8.686  -4.936  0.00  0.00    -0.057 A 
ATOM     27  H   LIG d   1       4.823 -10.355  -3.610  0.00  0.00     0.062 H 
ATOM     28  H   LIG d   1       3.609  -8.818  -5.102  0.00  0.00     0.062 H 
BRANCH  23  29
ATOM     29  C   LIG d   1       7.446 -10.313  -2.965  0.00  0.00    -0.013 C 
BRANCH  29  30
ATOM     30  C   LIG d   1       7.292  -9.839  -1.518  0.00  0.00    -0.056 C 
ATOM     31  H   LIG d   1       7.538 -10.657  -0.840  0.00  0.00     0.024 H 
ATOM     32  H   LIG d   1       7.964  -9.001  -1.337  0.00  0.00     0.024 H 
ATOM     33  H   LIG d   1       6.263  -9.524  -1.347  0.00  0.00     0.024 H 
ENDBRANCH  29  30
BRANCH  29  34
ATOM     34  C   LIG d   1       8.929 -10.329  -3.342  0.00  0.00    -0.056 C 
ATOM     35  H   LIG d   1       9.145  -9.488  -3.999  0.00  0.00     0.024 H 
ATOM     36  H   LIG d   1       9.535 -10.251  -2.439  0.00  0.00     0.024 H 
ATOM     37  H   LIG d   1       9.163 -11.262  -3.856  0.00  0.00     0.024 H 
ENDBRANCH  29  34
BRANCH  29  38
ATOM     38  C   LIG d   1       6.870 -11.724  -3.103  0.00  0.00    -0.056 C 
ATOM     39  H   LIG d   1       6.205 -11.761  -3.966  0.00  0.00     0.024 H 
ATOM     40  H   LIG d   1       7.681 -12.437  -3.241  0.00  0.00     0.024 H 
ATOM     41  H   LIG d   1       6.310 -11.978  -2.202  0.00  0.00     0.024 H 
ENDBRANCH  29  38
ENDBRANCH  23  29
ENDBRANCH  16  19
ENDBRANCH   1  16
BRANCH   4  42
ATOM     42  C   LIG d   1       5.329  -1.193  -5.650  0.00  0.00     0.031 C 
ATOM     43  H   LIG d   1       6.418  -1.239  -5.635  0.00  0.00     0.096 H 
BRANCH  42  44
ATOM     44  C   LIG d   1       4.831  -0.631  -4.343  0.00  0.00     0.005 A 
ATOM     45  C   LIG d   1       3.568  -0.957  -3.888  0.00  0.00    -0.053 A 
ATOM     46  C   LIG d   1       3.113  -0.444  -2.687  0.00  0.00    -0.061 A 
ATOM     47  H   LIG d   1       2.937  -1.614  -4.468  0.00  0.00     0.062 H 
ATOM     48  C   LIG d   1       3.918   0.401  -1.947  0.00  0.00    -0.062 A 
ATOM     49  H   LIG d   1       2.127  -0.702  -2.328  0.00  0.00     0.062 H 
ATOM     50  C   LIG d   1       5.179   0.730  -2.405  0.00  0.00    -0.061 A 
ATOM     51  H   LIG d   1       3.561   0.803  -1.010  0.00  0.00     0.062 H 
ATOM     52  C   LIG d   1       5.637   0.215  -3.604  0.00  0.00    -0.053 A 
ATOM     53  H   LIG d   1       5.809   1.391  -1.826  0.00  0.00     0.062 H 
ATOM     54  H   LIG d   1       6.622   0.473  -3.962  0.00  0.00     0.062 H 
ENDBRANCH  42  44
BRANCH  42  55
ATOM     55  C   LIG d   1       4.881  -0.303  -6.782  0.00  0.00     0.005 A 
ATOM     56  C   LIG d   1       5.818   0.290  -7.607  0.00  0.00    -0.051 A 
ATOM     57  C   LIG d   1       5.407   1.102  -8.648  0.00  0.00    -0.043 A 
ATOM     58  H   LIG d   1       6.871   0.117  -7.441  0.00  0.00     0.062 H 
ATOM     59  C   LIG d   1       4.058   1.329  -8.857  0.00  0.00     0.041 A 
ATOM     60  H   LIG d   1       6.139   1.561  -9.295  0.00  0.00     0.063 H 
ATOM     61  C   LIG d   1       3.122   0.739  -8.027  0.00  0.00    -0.043 A 
ATOM     62 CL   LIG d   1       3.543   2.354 -10.160  0.00  0.00    -0.084 Cl
ATOM     63  C   LIG d   1       3.533  -0.076  -6.990  0.00  0.00    -0.051 A 
ATOM     64  H   LIG d   1       2.069   0.917  -8.190  0.00  0.00     0.063 H 
ATOM     65  H   LIG d   1       2.801  -0.537  -6.342  0.00  0.00     0.062 H 
ENDBRANCH  42  55
ENDBRANCH   4  42
TORSDOF 9
ENDMDL
MODEL 3
REMARK VINA RESULT:      -6.9      2.737      3.934
REMARK  9 active torsions:
REMARK  status: ('A' for Active; 'I' for Inactive)
REMARK    1  A    between atoms: C_1  and  C_2 
REMARK    2  A    between atoms: C_2  and  C_3 
REMARK    3  A    between atoms: C_2  and  C_4 
REMARK    4  A    between atoms: C_2  and  C_5 
REMARK    5  A    between atoms: C_8  and  C_11 
REMARK    6  A    between atoms: C_11  and  N_12 
REMARK    7  A    between atoms: N_15  and  C_18 
REMARK    8  A    between atoms: C_18  and  C_20 
REMARK    9  A    between atoms: C_18  and  C_26 
ROOT
ATOM      1  N   LIG d   1       5.493  -4.829  -7.109  0.00  0.00    -0.288 N 
ATOM      2  C   LIG d   1       5.173  -4.101  -8.345  0.00  0.00     0.040 C 
ATOM      3  C   LIG d   1       4.174  -2.985  -8.032  0.00  0.00    -0.018 C 
ATOM      4  N   LIG d   1       4.756  -2.071  -7.040  0.00  0.00     0.246 N 
ATOM      5  C   LIG d   1       5.047  -2.808  -5.803  0.00  0.00    -0.018 C 
ATOM      6  C   LIG d   1       6.053  -3.922  -6.099  0.00  0.00     0.040 C 
ATOM      7  H   LIG d   1       6.085  -3.668  -8.757  0.00  0.00     0.048 H 
ATOM      8  H   LIG d   1       4.736  -4.788  -9.069  0.00  0.00     0.048 H 
ATOM      9  H   LIG d   1       3.947  -2.434  -8.945  0.00  0.00     0.083 H 
ATOM     10  H   LIG d   1       3.257  -3.419  -7.632  0.00  0.00     0.083 H 
ATOM     11  H   LIG d   1       5.465  -2.125  -5.064  0.00  0.00     0.083 H 
ATOM     12  H   LIG d   1       4.126  -3.243  -5.415  0.00  0.00     0.083 H 
ATOM     13  H   LIG d   1       6.257  -4.478  -5.183  0.00  0.00     0.048 H 
ATOM     14  H   LIG d   1       6.979  -3.486  -6.473  0.00  0.00     0.048 H 
ATOM     15  H   LIG d   1       5.610  -1.677  -7.406  0.00  0.00     0.204 HD
ENDROOT
BRANCH   1  16
ATOM     16  C   LIG d   1       6.407  -5.947  -7.378  0.00  0.00     0.024 C 
ATOM     17  H   LIG d   1       7.437  -5.603  -7.289  0.00  0.00     0.048 H 
ATOM     18  H   LIG d   1       6.235  -6.322  -8.387  0.00  0.00     0.048 H 
BRANCH  16  19
ATOM     19  C   LIG d   1       6.158  -7.051  -6.383  0.00  0.00    -0.033 A 
ATOM     20  C   LIG d   1       7.159  -7.436  -5.512  0.00  0.00    -0.057 A 
ATOM     21  C   LIG d   1       6.929  -8.448  -4.598  0.00  0.00    -0.058 A 
ATOM     22  H   LIG d   1       8.121  -6.946  -5.545  0.00  0.00     0.062 H 
ATOM     23  C   LIG d   1       5.698  -9.075  -4.556  0.00  0.00    -0.042 A 
ATOM     24  H   LIG d   1       7.712  -8.749  -3.917  0.00  0.00     0.062 H 
ATOM     25  C   LIG d   1       4.698  -8.693  -5.431  0.00  0.00    -0.058 A 
ATOM     26  C   LIG d   1       4.927  -7.679  -6.342  0.00  0.00    -0.057 A 
ATOM     27  H   LIG d   1       3.738  -9.186  -5.401  0.00  0.00     0.062 H 
ATOM     28  H   LIG d   1       4.144  -7.377  -7.022  0.00  0.00     0.062 H 
BRANCH  23  29
ATOM     29  C   LIG d   1       5.448 -10.178  -3.561  0.00  0.00    -0.013 C 
BRANCH  29  30
ATOM     30  C   LIG d   1       3.979 -10.154  -3.132  0.00  0.00    -0.056 C 
ATOM     31  H   LIG d   1       3.721 -11.106  -2.668  0.00  0.00     0.024 H 
ATOM     32  H   LIG d   1       3.822  -9.346  -2.417  0.00  0.00     0.024 H 
ATOM     33  H   LIG d   1       3.349  -9.993  -4.006  0.00  0.00     0.024 H 
ENDBRANCH  29  30
BRANCH  29  34
ATOM     34  C   LIG d   1       6.341  -9.973  -2.335  0.00  0.00    -0.056 C 
ATOM     35  H   LIG d   1       6.336  -8.920  -2.055  0.00  0.00     0.024 H 
ATOM     36  H   LIG d   1       5.965 -10.572  -1.506  0.00  0.00     0.024 H 
ATOM     37  H   LIG d   1       7.360 -10.280  -2.572  0.00  0.00     0.024 H 
ENDBRANCH  29  34
BRANCH  29  38
ATOM     38  C   LIG d   1       5.769 -11.528  -4.205  0.00  0.00    -0.056 C 
ATOM     39  H   LIG d   1       6.063 -12.238  -3.432  0.00  0.00     0.024 H 
ATOM     40  H   LIG d   1       4.889 -11.902  -4.725  0.00  0.00     0.024 H 
ATOM     41  H   LIG d   1       6.587 -11.407  -4.916  0.00  0.00     0.024 H 
ENDBRANCH  29  38
ENDBRANCH  23  29
ENDBRANCH  16  19
ENDBRANCH   1  16
BRANCH   4  42
ATOM     42  C   LIG d   1       3.803  -0.990  -6.754  0.00  0.00     0.031 C 
ATOM     43  H   LIG d   1       2.785  -1.370  -6.840  0.00  0.00     0.096 H 
BRANCH  42  44
ATOM     44  C   LIG d   1       4.006   0.133  -7.739  0.00  0.00     0.005 A 
ATOM     45  C   LIG d   1       2.986   1.034  -7.979  0.00  0.00    -0.053 A 
ATOM     46  C   LIG d   1       3.173   2.066  -8.880  0.00  0.00    -0.061 A 
ATOM     47  H   LIG d   1       2.043   0.934  -7.461  0.00  0.00     0.062 H 
ATOM     48  C   LIG d   1       4.378   2.192  -9.547  0.00  0.00    -0.062 A 
ATOM     49  H   LIG d   1       2.378   2.773  -9.064  0.00  0.00     0.062 H 
ATOM     50  C   LIG d   1       5.395   1.287  -9.310  0.00  0.00    -0.061 A 
ATOM     51  H   LIG d   1       4.522   2.996 -10.252  0.00  0.00     0.062 H 
ATOM     52  C   LIG d   1       5.210   0.257  -8.407  0.00  0.00    -0.053 A 
ATOM     53  H   LIG d   1       6.336   1.386  -9.832  0.00  0.00     0.062 H 
ATOM     54  H   LIG d   1       6.005  -0.449  -8.223  0.00  0.00     0.062 H 
ENDBRANCH  42  44
BRANCH  42  55
ATOM     55  C   LIG d   1       4.031  -0.477  -5.355  0.00  0.00     0.005 A 
ATOM     56  C   LIG d   1       2.957  -0.293  -4.504  0.00  0.00    -0.051 A 
ATOM     57  C   LIG d   1       3.167   0.172  -3.218  0.00  0.00    -0.043 A 
ATOM     58  H   LIG d   1       1.956  -0.515  -4.841  0.00  0.00     0.062 H 
ATOM     59  C   LIG d   1       4.449   0.462  -2.788  0.00  0.00     0.041 A 
ATOM     60  H   LIG d   1       2.328   0.311  -2.552  0.00  0.00     0.063 H 
ATOM     61  C   LIG d   1       5.521   0.283  -3.643  0.00  0.00    -0.043 A 
ATOM     62 CL   LIG d   1       4.710   1.052  -1.176  0.00  0.00    -0.084 Cl
ATOM     63  C   LIG d   1       5.313  -0.186  -4.926  0.00  0.00    -0.051 A 
ATOM     64  H   LIG d   1       6.523   0.510  -3.307  0.00  0.00     0.063 H 
ATOM     65  H   LIG d   1       6.150  -0.327  -5.593  0.00  0.00     0.062 H 
ENDBRANCH  42  55
ENDBRANCH   4  42
TORSDOF 9
ENDMDL
MODEL 4
REMARK VINA RESULT:      -6.8      3.769     10.577
REMARK  9 active torsions:
REMARK  status: ('A' for Active; 'I' for Inactive)
REMARK    1  A    between atoms: C_1  and  C_2 
REMARK    2  A    between atoms: C_2  and  C_3 
REMARK    3  A    between atoms: C_2  and  C_4 
REMARK    4  A    between atoms: C_2  and  C_5 
REMARK    5  A    between atoms: C_8  and  C_11 
REMARK    6  A    between atoms: C_11  and  N_12 
REMARK    7  A    between atoms: N_15  and  C_18 
REMARK    8  A    between atoms: C_18  and  C_20 
REMARK    9  A    between atoms: C_18  and  C_26 
ROOT
ATOM      1  N   LIG d   1       9.168   1.936  -4.739  0.00  0.00    -0.288 N 
ATOM      2  C   LIG d   1       8.060   1.809  -3.782  0.00  0.00     0.040 C 
ATOM      3  C   LIG d   1       7.083   0.741  -4.277  0.00  0.00    -0.018 C 
ATOM      4  N   LIG d   1       7.787  -0.542  -4.411  0.00  0.00     0.246 N 
ATOM      5  C   LIG d   1       8.875  -0.406  -5.388  0.00  0.00    -0.018 C 
ATOM      6  C   LIG d   1       9.866   0.654  -4.902  0.00  0.00     0.040 C 
ATOM      7  H   LIG d   1       8.453   1.520  -2.808  0.00  0.00     0.048 H 
ATOM      8  H   LIG d   1       7.541   2.764  -3.697  0.00  0.00     0.048 H 
ATOM      9  H   LIG d   1       6.267   0.634  -3.561  0.00  0.00     0.083 H 
ATOM     10  H   LIG d   1       6.679   1.037  -5.245  0.00  0.00     0.083 H 
ATOM     11  H   LIG d   1       9.387  -1.362  -5.496  0.00  0.00     0.083 H 
ATOM     12  H   LIG d   1       8.463  -0.104  -6.351  0.00  0.00     0.083 H 
ATOM     13  H   LIG d   1      10.666   0.765  -5.635  0.00  0.00     0.048 H 
ATOM     14  H   LIG d   1      10.289   0.345  -3.947  0.00  0.00     0.048 H 
ATOM     15  H   LIG d   1       8.169  -0.811  -3.516  0.00  0.00     0.204 HD
ENDROOT
BRANCH   1  16
ATOM     16  C   LIG d   1      10.100   2.995  -4.328  0.00  0.00     0.024 C 
ATOM     17  H   LIG d   1      11.115   2.599  -4.312  0.00  0.00     0.048 H 
ATOM     18  H   LIG d   1       9.831   3.348  -3.333  0.00  0.00     0.048 H 
BRANCH  16  19
ATOM     19  C   LIG d   1      10.022   4.139  -5.305  0.00  0.00    -0.033 A 
ATOM     20  C   LIG d   1       9.703   5.408  -4.859  0.00  0.00    -0.057 A 
ATOM     21  C   LIG d   1       9.634   6.459  -5.756  0.00  0.00    -0.058 A 
ATOM     22  H   LIG d   1       9.509   5.579  -3.811  0.00  0.00     0.062 H 
ATOM     23  C   LIG d   1       9.883   6.240  -7.097  0.00  0.00    -0.042 A 
ATOM     24  H   LIG d   1       9.385   7.450  -5.407  0.00  0.00     0.062 H 
ATOM     25  C   LIG d   1      10.198   4.970  -7.544  0.00  0.00    -0.058 A 
ATOM     26  C   LIG d   1      10.271   3.921  -6.647  0.00  0.00    -0.057 A 
ATOM     27  H   LIG d   1      10.389   4.799  -8.593  0.00  0.00     0.062 H 
ATOM     28  H   LIG d   1      10.521   2.929  -6.995  0.00  0.00     0.062 H 
BRANCH  23  29
ATOM     29  C   LIG d   1       9.808   7.385  -8.074  0.00  0.00    -0.013 C 
BRANCH  29  30
ATOM     30  C   LIG d   1       9.029   6.945  -9.316  0.00  0.00    -0.056 C 
ATOM     31  H   LIG d   1       8.068   6.528  -9.013  0.00  0.00     0.024 H 
ATOM     32  H   LIG d   1       8.864   7.804  -9.965  0.00  0.00     0.024 H 
ATOM     33  H   LIG d   1       9.600   6.187  -9.853  0.00  0.00     0.024 H 
ENDBRANCH  29  30
BRANCH  29  34
ATOM     34  C   LIG d   1      11.222   7.804  -8.481  0.00  0.00    -0.056 C 
ATOM     35  H   LIG d   1      11.422   8.810  -8.113  0.00  0.00     0.024 H 
ATOM     36  H   LIG d   1      11.945   7.109  -8.052  0.00  0.00     0.024 H 
ATOM     37  H   LIG d   1      11.307   7.790  -9.568  0.00  0.00     0.024 H 
ENDBRANCH  29  34
BRANCH  29  38
ATOM     38  C   LIG d   1       9.095   8.569  -7.418  0.00  0.00    -0.056 C 
ATOM     39  H   LIG d   1       8.016   8.438  -7.508  0.00  0.00     0.024 H 
ATOM     40  H   LIG d   1       9.367   8.620  -6.365  0.00  0.00     0.024 H 
ATOM     41  H   LIG d   1       9.391   9.493  -7.915  0.00  0.00     0.024 H 
ENDBRANCH  29  38
ENDBRANCH  23  29
ENDBRANCH  16  19
ENDBRANCH   1  16
BRANCH   4  42
ATOM     42  C   LIG d   1       6.844  -1.572  -4.868  0.00  0.00     0.031 C 
ATOM     43  H   LIG d   1       6.636  -1.429  -5.929  0.00  0.00     0.096 H 
BRANCH  42  44
ATOM     44  C   LIG d   1       5.560  -1.462  -4.085  0.00  0.00     0.005 A 
ATOM     45  C   LIG d   1       5.550  -1.738  -2.732  0.00  0.00    -0.053 A 
ATOM     46  C   LIG d   1       4.373  -1.635  -2.014  0.00  0.00    -0.061 A 
ATOM     47  H   LIG d   1       6.463  -2.033  -2.234  0.00  0.00     0.062 H 
ATOM     48  C   LIG d   1       3.205  -1.263  -2.652  0.00  0.00    -0.062 A 
ATOM     49  H   LIG d   1       4.366  -1.847  -0.954  0.00  0.00     0.062 H 
ATOM     50  C   LIG d   1       3.214  -0.992  -4.007  0.00  0.00    -0.061 A 
ATOM     51  H   LIG d   1       2.285  -1.185  -2.091  0.00  0.00     0.062 H 
ATOM     52  C   LIG d   1       4.391  -1.092  -4.725  0.00  0.00    -0.053 A 
ATOM     53  H   LIG d   1       2.301  -0.702  -4.505  0.00  0.00     0.062 H 
ATOM     54  H   LIG d   1       4.398  -0.880  -5.783  0.00  0.00     0.062 H 
ENDBRANCH  42  44
BRANCH  42  55
ATOM     55  C   LIG d   1       7.447  -2.936  -4.654  0.00  0.00     0.005 A 
ATOM     56  C   LIG d   1       8.452  -3.108  -3.720  0.00  0.00    -0.051 A 
ATOM     57  C   LIG d   1       9.001  -4.362  -3.519  0.00  0.00    -0.043 A 
ATOM     58  H   LIG d   1       8.804  -2.266  -3.144  0.00  0.00     0.062 H 
ATOM     59  C   LIG d   1       8.554  -5.440  -4.261  0.00  0.00     0.041 A 
ATOM     60  H   LIG d   1       9.782  -4.497  -2.786  0.00  0.00     0.063 H 
ATOM     61  C   LIG d   1       7.553  -5.265  -5.200  0.00  0.00    -0.043 A 
ATOM     62 CL   LIG d   1       9.249  -7.011  -4.014  0.00  0.00    -0.084 Cl
ATOM     63  C   LIG d   1       7.000  -4.014  -5.396  0.00  0.00    -0.051 A 
ATOM     64  H   LIG d   1       7.203  -6.107  -5.780  0.00  0.00     0.063 H 
ATOM     65  H   LIG d   1       6.218  -3.877  -6.129  0.00  0.00     0.062 H 
ENDBRANCH  42  55
ENDBRANCH   4  42
TORSDOF 9
ENDMDL
MODEL 5
REMARK VINA RESULT:      -6.8      5.113      7.577
REMARK  9 active torsions:
REMARK  status: ('A' for Active; 'I' for Inactive)
REMARK    1  A    between atoms: C_1  and  C_2 
REMARK    2  A    between atoms: C_2  and  C_3 
REMARK    3  A    between atoms: C_2  and  C_4 
REMARK    4  A    between atoms: C_2  and  C_5 
REMARK    5  A    between atoms: C_8  and  C_11 
REMARK    6  A    between atoms: C_11  and  N_12 
REMARK    7  A    between atoms: N_15  and  C_18 
REMARK    8  A    between atoms: C_18  and  C_20 
REMARK    9  A    between atoms: C_18  and  C_26 
ROOT
ATOM      1  N   LIG d   1       4.480   0.530  -8.770  0.00  0.00    -0.288 N 
ATOM      2  C   LIG d   1       3.720   0.457  -7.514  0.00  0.00     0.040 C 
ATOM      3  C   LIG d   1       4.527  -0.328  -6.478  0.00  0.00    -0.018 C 
ATOM      4  N   LIG d   1       5.815   0.341  -6.252  0.00  0.00     0.246 N 
ATOM      5  C   LIG d   1       6.573   0.385  -7.509  0.00  0.00    -0.018 C 
ATOM      6  C   LIG d   1       5.782   1.176  -8.554  0.00  0.00     0.040 C 
ATOM      7  H   LIG d   1       3.533   1.464  -7.143  0.00  0.00     0.048 H 
ATOM      8  H   LIG d   1       2.770  -0.048  -7.693  0.00  0.00     0.048 H 
ATOM      9  H   LIG d   1       3.971  -0.371  -5.541  0.00  0.00     0.083 H 
ATOM     10  H   LIG d   1       4.702  -1.340  -6.843  0.00  0.00     0.083 H 
ATOM     11  H   LIG d   1       7.534   0.870  -7.337  0.00  0.00     0.083 H 
ATOM     12  H   LIG d   1       6.738  -0.630  -7.870  0.00  0.00     0.083 H 
ATOM     13  H   LIG d   1       6.339   1.195  -9.492  0.00  0.00     0.048 H 
ATOM     14  H   LIG d   1       5.630   2.195  -8.200  0.00  0.00     0.048 H 
ATOM     15  H   LIG d   1       5.653   1.282  -5.924  0.00  0.00     0.204 HD
ENDROOT
BRANCH   1  16
ATOM     16  C   LIG d   1       3.712   1.228  -9.810  0.00  0.00     0.024 C 
ATOM     17  H   LIG d   1       4.375   1.888 -10.369  0.00  0.00     0.048 H 
ATOM     18  H   LIG d   1       2.922   1.816  -9.344  0.00  0.00     0.048 H 
BRANCH  16  19
ATOM     19  C   LIG d   1       3.101   0.218 -10.746  0.00  0.00    -0.033 A 
ATOM     20  C   LIG d   1       1.855  -0.313 -10.472  0.00  0.00    -0.057 A 
ATOM     21  C   LIG d   1       1.294  -1.239 -11.332  0.00  0.00    -0.058 A 
ATOM     22  H   LIG d   1       1.319  -0.005  -9.587  0.00  0.00     0.062 H 
ATOM     23  C   LIG d   1       1.979  -1.633 -12.466  0.00  0.00    -0.042 A 
ATOM     24  H   LIG d   1       0.320  -1.654 -11.118  0.00  0.00     0.062 H 
ATOM     25  C   LIG d   1       3.227  -1.106 -12.738  0.00  0.00    -0.058 A 
ATOM     26  C   LIG d   1       3.787  -0.177 -11.879  0.00  0.00    -0.057 A 
ATOM     27  H   LIG d   1       3.765  -1.417 -13.621  0.00  0.00     0.062 H 
ATOM     28  H   LIG d   1       4.760   0.239 -12.094  0.00  0.00     0.062 H 
BRANCH  23  29
ATOM     29  C   LIG d   1       1.367  -2.642 -13.403  0.00  0.00    -0.013 C 
BRANCH  29  30
ATOM     30  C   LIG d   1      -0.133  -2.372 -13.535  0.00  0.00    -0.056 C 
ATOM     31  H   LIG d   1      -0.605  -2.457 -12.556  0.00  0.00     0.024 H 
ATOM     32  H   LIG d   1      -0.288  -1.367 -13.928  0.00  0.00     0.024 H 
ATOM     33  H   LIG d   1      -0.574  -3.101 -14.215  0.00  0.00     0.024 H 
ENDBRANCH  29  30
BRANCH  29  34
ATOM     34  C   LIG d   1       1.586  -4.052 -12.849  0.00  0.00    -0.056 C 
ATOM     35  H   LIG d   1       1.763  -3.996 -11.776  0.00  0.00     0.024 H 
ATOM     36  H   LIG d   1       0.700  -4.659 -13.040  0.00  0.00     0.024 H 
ATOM     37  H   LIG d   1       2.448  -4.505 -13.338  0.00  0.00     0.024 H 
ENDBRANCH  29  34
BRANCH  29  38
ATOM     38  C   LIG d   1       2.029  -2.527 -14.778  0.00  0.00    -0.056 C 
ATOM     39  H   LIG d   1       1.795  -3.413 -15.368  0.00  0.00     0.024 H 
ATOM     40  H   LIG d   1       1.656  -1.641 -15.289  0.00  0.00     0.024 H 
ATOM     41  H   LIG d   1       3.110  -2.448 -14.655  0.00  0.00     0.024 H 
ENDBRANCH  29  38
ENDBRANCH  23  29
ENDBRANCH  16  19
ENDBRANCH   1  16
BRANCH   4  42
ATOM     42  C   LIG d   1       6.582  -0.402  -5.243  0.00  0.00     0.031 C 
ATOM     43  H   LIG d   1       6.767  -1.415  -5.602  0.00  0.00     0.096 H 
BRANCH  42  44
ATOM     44  C   LIG d   1       5.799  -0.459  -3.957  0.00  0.00     0.005 A 
ATOM     45  C   LIG d   1       5.377  -1.676  -3.458  0.00  0.00    -0.053 A 
ATOM     46  C   LIG d   1       4.662  -1.729  -2.276  0.00  0.00    -0.061 A 
ATOM     47  H   LIG d   1       5.608  -2.588  -3.990  0.00  0.00     0.062 H 
ATOM     48  C   LIG d   1       4.361  -0.562  -1.598  0.00  0.00    -0.062 A 
ATOM     49  H   LIG d   1       4.336  -2.681  -1.883  0.00  0.00     0.062 H 
ATOM     50  C   LIG d   1       4.778   0.656  -2.100  0.00  0.00    -0.061 A 
ATOM     51  H   LIG d   1       3.799  -0.603  -0.676  0.00  0.00     0.062 H 
ATOM     52  C   LIG d   1       5.497   0.708  -3.280  0.00  0.00    -0.053 A 
ATOM     53  H   LIG d   1       4.543   1.567  -1.570  0.00  0.00     0.062 H 
ATOM     54  H   LIG d   1       5.823   1.660  -3.672  0.00  0.00     0.062 H 
ENDBRANCH  42  44
BRANCH  42  55
ATOM     55  C   LIG d   1       7.897   0.293  -5.000  0.00  0.00     0.005 A 
ATOM     56  C   LIG d   1       7.916   1.578  -4.492  0.00  0.00    -0.051 A 
ATOM     57  C   LIG d   1       9.123   2.213  -4.263  0.00  0.00    -0.043 A 
ATOM     58  H   LIG d   1       6.989   2.085  -4.269  0.00  0.00     0.062 H 
ATOM     59  C   LIG d   1      10.311   1.566  -4.553  0.00  0.00     0.041 A 
ATOM     60  H   LIG d   1       9.138   3.215  -3.861  0.00  0.00     0.063 H 
ATOM     61  C   LIG d   1      10.290   0.282  -5.067  0.00  0.00    -0.043 A 
ATOM     62 CL   LIG d   1      11.826   2.366  -4.272  0.00  0.00    -0.084 Cl
ATOM     63  C   LIG d   1       9.085  -0.355  -5.291  0.00  0.00    -0.051 A 
ATOM     64  H   LIG d   1      11.218  -0.224  -5.294  0.00  0.00     0.063 H 
ATOM     65  H   LIG d   1       9.069  -1.357  -5.692  0.00  0.00     0.062 H 
ENDBRANCH  42  55
ENDBRANCH   4  42
TORSDOF 9
ENDMDL
MODEL 6
REMARK VINA RESULT:      -6.7      5.546      7.934
REMARK  9 active torsions:
REMARK  status: ('A' for Active; 'I' for Inactive)
REMARK    1  A    between atoms: C_1  and  C_2 
REMARK    2  A    between atoms: C_2  and  C_3 
REMARK    3  A    between atoms: C_2  and  C_4 
REMARK    4  A    between atoms: C_2  and  C_5 
REMARK    5  A    between atoms: C_8  and  C_11 
REMARK    6  A    between atoms: C_11  and  N_12 
REMARK    7  A    between atoms: N_15  and  C_18 
REMARK    8  A    between atoms: C_18  and  C_20 
REMARK    9  A    between atoms: C_18  and  C_26 
ROOT
ATOM      1  N   LIG d   1       4.141  -0.415  -8.849  0.00  0.00    -0.288 N 
ATOM      2  C   LIG d   1       3.829   0.381  -7.653  0.00  0.00     0.040 C 
ATOM      3  C   LIG d   1       3.983  -0.493  -6.407  0.00  0.00    -0.018 C 
ATOM      4  N   LIG d   1       5.360  -1.002  -6.333  0.00  0.00     0.246 N 
ATOM      5  C   LIG d   1       5.647  -1.815  -7.522  0.00  0.00    -0.018 C 
ATOM      6  C   LIG d   1       5.507  -0.951  -8.777  0.00  0.00     0.040 C 
ATOM      7  H   LIG d   1       4.514   1.227  -7.592  0.00  0.00     0.048 H 
ATOM      8  H   LIG d   1       2.804   0.747  -7.717  0.00  0.00     0.048 H 
ATOM      9  H   LIG d   1       3.766   0.100  -5.518  0.00  0.00     0.083 H 
ATOM     10  H   LIG d   1       3.288  -1.331  -6.463  0.00  0.00     0.083 H 
ATOM     11  H   LIG d   1       6.664  -2.203  -7.458  0.00  0.00     0.083 H 
ATOM     12  H   LIG d   1       4.944  -2.647  -7.572  0.00  0.00     0.083 H 
ATOM     13  H   LIG d   1       5.706  -1.560  -9.660  0.00  0.00     0.048 H 
ATOM     14  H   LIG d   1       6.219  -0.128  -8.734  0.00  0.00     0.048 H 
ATOM     15  H   LIG d   1       6.003  -0.225  -6.293  0.00  0.00     0.204 HD
ENDROOT
BRANCH   1  16
ATOM     16  C   LIG d   1       3.948   0.375 -10.073  0.00  0.00     0.024 C 
ATOM     17  H   LIG d   1       4.917   0.580 -10.528  0.00  0.00     0.048 H 
ATOM     18  H   LIG d   1       3.457   1.315  -9.824  0.00  0.00     0.048 H 
BRANCH  16  19
ATOM     19  C   LIG d   1       3.091  -0.399 -11.040  0.00  0.00    -0.033 A 
ATOM     20  C   LIG d   1       3.612  -0.804 -12.255  0.00  0.00    -0.057 A 
ATOM     21  C   LIG d   1       2.825  -1.515 -13.142  0.00  0.00    -0.058 A 
ATOM     22  H   LIG d   1       4.634  -0.565 -12.510  0.00  0.00     0.062 H 
ATOM     23  C   LIG d   1       1.518  -1.821 -12.815  0.00  0.00    -0.042 A 
ATOM     24  H   LIG d   1       3.233  -1.832 -14.091  0.00  0.00     0.062 H 
ATOM     25  C   LIG d   1       0.995  -1.413 -11.602  0.00  0.00    -0.058 A 
ATOM     26  C   LIG d   1       1.783  -0.705 -10.713  0.00  0.00    -0.057 A 
ATOM     27  H   LIG d   1      -0.027  -1.648 -11.348  0.00  0.00     0.062 H 
ATOM     28  H   LIG d   1       1.376  -0.389  -9.764  0.00  0.00     0.062 H 
BRANCH  23  29
ATOM     29  C   LIG d   1       0.661  -2.596 -13.781  0.00  0.00    -0.013 C 
BRANCH  29  30
ATOM     30  C   LIG d   1      -0.774  -2.066 -13.729  0.00  0.00    -0.056 C 
ATOM     31  H   LIG d   1      -0.779  -1.079 -13.267  0.00  0.00     0.024 H 
ATOM     32  H   LIG d   1      -1.174  -1.998 -14.740  0.00  0.00     0.024 H 
ATOM     33  H   LIG d   1      -1.390  -2.746 -13.139  0.00  0.00     0.024 H 
ENDBRANCH  29  30
BRANCH  29  34
ATOM     34  C   LIG d   1       0.672  -4.078 -13.399  0.00  0.00    -0.056 C 
ATOM     35  H   LIG d   1       0.771  -4.684 -14.299  0.00  0.00     0.024 H 
ATOM     36  H   LIG d   1       1.512  -4.276 -12.733  0.00  0.00     0.024 H 
ATOM     37  H   LIG d   1      -0.260  -4.330 -12.892  0.00  0.00     0.024 H 
ENDBRANCH  29  34
BRANCH  29  38
ATOM     38  C   LIG d   1       1.214  -2.431 -15.198  0.00  0.00    -0.056 C 
ATOM     39  H   LIG d   1       0.899  -1.469 -15.601  0.00  0.00     0.024 H 
ATOM     40  H   LIG d   1       2.301  -2.475 -15.172  0.00  0.00     0.024 H 
ATOM     41  H   LIG d   1       0.833  -3.232 -15.833  0.00  0.00     0.024 H 
ENDBRANCH  29  38
ENDBRANCH  23  29
ENDBRANCH  16  19
ENDBRANCH   1  16
BRANCH   4  42
ATOM     42  C   LIG d   1       5.512  -1.826  -5.127  0.00  0.00     0.031 C 
ATOM     43  H   LIG d   1       4.820  -2.667  -5.172  0.00  0.00     0.096 H 
BRANCH  42  44
ATOM     44  C   LIG d   1       5.212  -0.993  -3.907  0.00  0.00     0.005 A 
ATOM     45  C   LIG d   1       5.606   0.330  -3.859  0.00  0.00    -0.053 A 
ATOM     46  C   LIG d   1       5.328   1.094  -2.741  0.00  0.00    -0.061 A 
ATOM     47  H   LIG d   1       6.130   0.768  -4.696  0.00  0.00     0.062 H 
ATOM     48  C   LIG d   1       4.663   0.533  -1.668  0.00  0.00    -0.062 A 
ATOM     49  H   LIG d   1       5.633   2.130  -2.705  0.00  0.00     0.062 H 
ATOM     50  C   LIG d   1       4.272  -0.792  -1.714  0.00  0.00    -0.061 A 
ATOM     51  H   LIG d   1       4.448   1.129  -0.794  0.00  0.00     0.062 H 
ATOM     52  C   LIG d   1       4.547  -1.556  -2.833  0.00  0.00    -0.053 A 
ATOM     53  H   LIG d   1       3.752  -1.231  -0.875  0.00  0.00     0.062 H 
ATOM     54  H   LIG d   1       4.242  -2.591  -2.868  0.00  0.00     0.062 H 
ENDBRANCH  42  44
BRANCH  42  55
ATOM     55  C   LIG d   1       6.925  -2.342  -5.046  0.00  0.00     0.005 A 
ATOM     56  C   LIG d   1       7.159  -3.674  -4.761  0.00  0.00    -0.051 A 
ATOM     57  C   LIG d   1       8.456  -4.150  -4.693  0.00  0.00    -0.043 A 
ATOM     58  H   LIG d   1       6.329  -4.345  -4.595  0.00  0.00     0.062 H 
ATOM     59  C   LIG d   1       9.519  -3.289  -4.900  0.00  0.00     0.041 A 
ATOM     60  H   LIG d   1       8.638  -5.191  -4.475  0.00  0.00     0.063 H 
ATOM     61  C   LIG d   1       9.284  -1.955  -5.179  0.00  0.00    -0.043 A 
ATOM     62 CL   LIG d   1      11.148  -3.884  -4.807  0.00  0.00    -0.084 Cl
ATOM     63  C   LIG d   1       7.988  -1.482  -5.252  0.00  0.00    -0.051 A 
ATOM     64  H   LIG d   1      10.114  -1.283  -5.340  0.00  0.00     0.063 H 
ATOM     65  H   LIG d   1       7.804  -0.440  -5.471  0.00  0.00     0.062 H 
ENDBRANCH  42  55
ENDBRANCH   4  42
TORSDOF 9
ENDMDL
MODEL 7
REMARK VINA RESULT:      -6.5      4.878     10.086
REMARK  9 active torsions:
REMARK  status: ('A' for Active; 'I' for Inactive)
REMARK    1  A    between atoms: C_1  and  C_2 
REMARK    2  A    between atoms: C_2  and  C_3 
REMARK    3  A    between atoms: C_2  and  C_4 
REMARK    4  A    between atoms: C_2  and  C_5 
REMARK    5  A    between atoms: C_8  and  C_11 
REMARK    6  A    between atoms: C_11  and  N_12 
REMARK    7  A    between atoms: N_15  and  C_18 
REMARK    8  A    between atoms: C_18  and  C_20 
REMARK    9  A    between atoms: C_18  and  C_26 
ROOT
ATOM      1  N   LIG d   1       8.598   1.574  -5.524  0.00  0.00    -0.288 N 
ATOM      2  C   LIG d   1       8.098   0.724  -4.434  0.00  0.00     0.040 C 
ATOM      3  C   LIG d   1       6.608   0.451  -4.645  0.00  0.00    -0.018 C 
ATOM      4  N   LIG d   1       6.411  -0.216  -5.939  0.00  0.00     0.246 N 
ATOM      5  C   LIG d   1       6.892   0.655  -7.019  0.00  0.00    -0.018 C 
ATOM      6  C   LIG d   1       8.385   0.929  -6.827  0.00  0.00     0.040 C 
ATOM      7  H   LIG d   1       8.644  -0.219  -4.429  0.00  0.00     0.048 H 
ATOM      8  H   LIG d   1       8.243   1.232  -3.480  0.00  0.00     0.048 H 
ATOM      9  H   LIG d   1       6.239  -0.191  -3.845  0.00  0.00     0.083 H 
ATOM     10  H   LIG d   1       6.061   1.394  -4.635  0.00  0.00     0.083 H 
ATOM     11  H   LIG d   1       6.732   0.164  -7.979  0.00  0.00     0.083 H 
ATOM     12  H   LIG d   1       6.344   1.597  -6.998  0.00  0.00     0.083 H 
ATOM     13  H   LIG d   1       8.738   1.589  -7.621  0.00  0.00     0.048 H 
ATOM     14  H   LIG d   1       8.935  -0.011  -6.863  0.00  0.00     0.048 H 
ATOM     15  H   LIG d   1       6.927  -1.084  -5.952  0.00  0.00     0.204 HD
ENDROOT
BRANCH   1  16
ATOM     16  C   LIG d   1      10.015   1.906  -5.325  0.00  0.00     0.024 C 
ATOM     17  H   LIG d   1      10.465   2.165  -6.284  0.00  0.00     0.048 H 
ATOM     18  H   LIG d   1      10.533   1.046  -4.901  0.00  0.00     0.048 H 
BRANCH  16  19
ATOM     19  C   LIG d   1      10.130   3.077  -4.384  0.00  0.00    -0.033 A 
ATOM     20  C   LIG d   1       9.585   4.299  -4.730  0.00  0.00    -0.057 A 
ATOM     21  C   LIG d   1       9.689   5.372  -3.865  0.00  0.00    -0.058 A 
ATOM     22  H   LIG d   1       9.078   4.415  -5.677  0.00  0.00     0.062 H 
ATOM     23  C   LIG d   1      10.337   5.223  -2.654  0.00  0.00    -0.042 A 
ATOM     24  H   LIG d   1       9.264   6.327  -4.136  0.00  0.00     0.062 H 
ATOM     25  C   LIG d   1      10.886   4.002  -2.309  0.00  0.00    -0.058 A 
ATOM     26  C   LIG d   1      10.779   2.928  -3.172  0.00  0.00    -0.057 A 
ATOM     27  H   LIG d   1      11.396   3.887  -1.364  0.00  0.00     0.062 H 
ATOM     28  H   LIG d   1      11.203   1.973  -2.901  0.00  0.00     0.062 H 
BRANCH  23  29
ATOM     29  C   LIG d   1      10.451   6.393  -1.711  0.00  0.00    -0.013 C 
BRANCH  29  30
ATOM     30  C   LIG d   1       9.151   7.200  -1.741  0.00  0.00    -0.056 C 
ATOM     31  H   LIG d   1       9.385   8.261  -1.841  0.00  0.00     0.024 H 
ATOM     32  H   LIG d   1       8.544   6.880  -2.587  0.00  0.00     0.024 H 
ATOM     33  H   LIG d   1       8.600   7.036  -0.815  0.00  0.00     0.024 H 
ENDBRANCH  29  30
BRANCH  29  34
ATOM     34  C   LIG d   1      11.616   7.286  -2.143  0.00  0.00    -0.056 C 
ATOM     35  H   LIG d   1      12.298   6.714  -2.772  0.00  0.00     0.024 H 
ATOM     36  H   LIG d   1      11.233   8.139  -2.703  0.00  0.00     0.024 H 
ATOM     37  H   LIG d   1      12.149   7.641  -1.260  0.00  0.00     0.024 H 
ENDBRANCH  29  34
BRANCH  29  38
ATOM     38  C   LIG d   1      10.701   5.881  -0.291  0.00  0.00    -0.056 C 
ATOM     39  H   LIG d   1      10.169   6.512   0.421  0.00  0.00     0.024 H 
ATOM     40  H   LIG d   1      10.343   4.856  -0.206  0.00  0.00     0.024 H 
ATOM     41  H   LIG d   1      11.769   5.912  -0.076  0.00  0.00     0.024 H 
ENDBRANCH  29  38
ENDBRANCH  23  29
ENDBRANCH  16  19
ENDBRANCH   1  16
BRANCH   4  42
ATOM     42  C   LIG d   1       4.982  -0.494  -6.133  0.00  0.00     0.031 C 
ATOM     43  H   LIG d   1       4.480   0.409  -6.482  0.00  0.00     0.096 H 
BRANCH  42  44
ATOM     44  C   LIG d   1       4.373  -0.935  -4.827  0.00  0.00     0.005 A 
ATOM     45  C   LIG d   1       3.338  -0.211  -4.267  0.00  0.00    -0.053 A 
ATOM     46  C   LIG d   1       2.778  -0.618  -3.071  0.00  0.00    -0.061 A 
ATOM     47  H   LIG d   1       2.966   0.673  -4.765  0.00  0.00     0.062 H 
ATOM     48  C   LIG d   1       3.258  -1.745  -2.430  0.00  0.00    -0.062 A 
ATOM     49  H   LIG d   1       1.966  -0.054  -2.635  0.00  0.00     0.062 H 
ATOM     50  C   LIG d   1       4.296  -2.466  -2.988  0.00  0.00    -0.061 A 
ATOM     51  H   LIG d   1       2.822  -2.060  -1.494  0.00  0.00     0.062 H 
ATOM     52  C   LIG d   1       4.855  -2.062  -4.186  0.00  0.00    -0.053 A 
ATOM     53  H   LIG d   1       4.671  -3.347  -2.487  0.00  0.00     0.062 H 
ATOM     54  H   LIG d   1       5.666  -2.626  -4.621  0.00  0.00     0.062 H 
ENDBRANCH  42  44
BRANCH  42  55
ATOM     55  C   LIG d   1       4.818  -1.587  -7.158  0.00  0.00     0.005 A 
ATOM     56  C   LIG d   1       3.704  -1.604  -7.977  0.00  0.00    -0.051 A 
ATOM     57  C   LIG d   1       3.556  -2.604  -8.921  0.00  0.00    -0.043 A 
ATOM     58  H   LIG d   1       2.952  -0.835  -7.883  0.00  0.00     0.062 H 
ATOM     59  C   LIG d   1       4.517  -3.593  -9.038  0.00  0.00     0.041 A 
ATOM     60  H   LIG d   1       2.689  -2.615  -9.564  0.00  0.00     0.063 H 
ATOM     61  C   LIG d   1       5.628  -3.577  -8.214  0.00  0.00    -0.043 A 
ATOM     62 CL   LIG d   1       4.328  -4.851 -10.219  0.00  0.00    -0.084 Cl
ATOM     63  C   LIG d   1       5.778  -2.576  -7.274  0.00  0.00    -0.051 A 
ATOM     64  H   LIG d   1       6.378  -4.349  -8.305  0.00  0.00     0.063 H 
ATOM     65  H   LIG d   1       6.646  -2.563  -6.631  0.00  0.00     0.062 H 
ENDBRANCH  42  55
ENDBRANCH   4  42
TORSDOF 9
ENDMDL
MODEL 8
REMARK VINA RESULT:      -6.5      3.541      9.929
REMARK  9 active torsions:
REMARK  status: ('A' for Active; 'I' for Inactive)
REMARK    1  A    between atoms: C_1  and  C_2 
REMARK    2  A    between atoms: C_2  and  C_3 
REMARK    3  A    between atoms: C_2  and  C_4 
REMARK    4  A    between atoms: C_2  and  C_5 
REMARK    5  A    between atoms: C_8  and  C_11 
REMARK    6  A    between atoms: C_11  and  N_12 
REMARK    7  A    between atoms: N_15  and  C_18 
REMARK    8  A    between atoms: C_18  and  C_20 
REMARK    9  A    between atoms: C_18  and  C_26 
ROOT
ATOM      1  N   LIG d   1       8.921   0.301  -5.365  0.00  0.00    -0.288 N 
ATOM      2  C   LIG d   1       8.048   0.168  -4.189  0.00  0.00     0.040 C 
ATOM      3  C   LIG d   1       6.651  -0.263  -4.641  0.00  0.00    -0.018 C 
ATOM      4  N   LIG d   1       6.741  -1.545  -5.354  0.00  0.00     0.246 N 
ATOM      5  C   LIG d   1       7.596  -1.390  -6.538  0.00  0.00    -0.018 C 
ATOM      6  C   LIG d   1       9.001  -0.968  -6.101  0.00  0.00     0.040 C 
ATOM      7  H   LIG d   1       8.460  -0.582  -3.514  0.00  0.00     0.048 H 
ATOM      8  H   LIG d   1       7.984   1.126  -3.674  0.00  0.00     0.048 H 
ATOM      9  H   LIG d   1       6.006  -0.376  -3.769  0.00  0.00     0.083 H 
ATOM     10  H   LIG d   1       6.234   0.494  -5.306  0.00  0.00     0.083 H 
ATOM     11  H   LIG d   1       7.650  -2.338  -7.073  0.00  0.00     0.083 H 
ATOM     12  H   LIG d   1       7.175  -0.627  -7.193  0.00  0.00     0.083 H 
ATOM     13  H   LIG d   1       9.631  -0.838  -6.982  0.00  0.00     0.048 H 
ATOM     14  H   LIG d   1       9.428  -1.736  -5.458  0.00  0.00     0.048 H 
ATOM     15  H   LIG d   1       7.137  -2.243  -4.742  0.00  0.00     0.204 HD
ENDROOT
BRANCH   1  16
ATOM     16  C   LIG d   1      10.258   0.770  -4.977  0.00  0.00     0.024 C 
ATOM     17  H   LIG d   1      10.958   0.587  -5.792  0.00  0.00     0.048 H 
ATOM     18  H   LIG d   1      10.587   0.232  -4.088  0.00  0.00     0.048 H 
BRANCH  16  19
ATOM     19  C   LIG d   1      10.206   2.246  -4.680  0.00  0.00    -0.033 A 
ATOM     20  C   LIG d   1       9.948   3.147  -5.696  0.00  0.00    -0.057 A 
ATOM     21  C   LIG d   1       9.899   4.502  -5.422  0.00  0.00    -0.058 A 
ATOM     22  H   LIG d   1       9.785   2.793  -6.703  0.00  0.00     0.062 H 
ATOM     23  C   LIG d   1      10.107   4.955  -4.134  0.00  0.00    -0.042 A 
ATOM     24  H   LIG d   1       9.698   5.206  -6.217  0.00  0.00     0.062 H 
ATOM     25  C   LIG d   1      10.370   4.054  -3.118  0.00  0.00    -0.058 A 
ATOM     26  C   LIG d   1      10.415   2.699  -3.391  0.00  0.00    -0.057 A 
ATOM     27  H   LIG d   1      10.537   4.409  -2.112  0.00  0.00     0.062 H 
ATOM     28  H   LIG d   1      10.616   1.995  -2.597  0.00  0.00     0.062 H 
BRANCH  23  29
ATOM     29  C   LIG d   1      10.054   6.431  -3.836  0.00  0.00    -0.013 C 
BRANCH  29  30
ATOM     30  C   LIG d   1       9.171   7.129  -4.873  0.00  0.00    -0.056 C 
ATOM     31  H   LIG d   1       8.346   7.631  -4.367  0.00  0.00     0.024 H 
ATOM     32  H   LIG d   1       9.763   7.862  -5.421  0.00  0.00     0.024 H 
ATOM     33  H   LIG d   1       8.774   6.389  -5.568  0.00  0.00     0.024 H 
ENDBRANCH  29  30
BRANCH  29  34
ATOM     34  C   LIG d   1      11.467   7.015  -3.894  0.00  0.00    -0.056 C 
ATOM     35  H   LIG d   1      12.022   6.543  -4.704  0.00  0.00     0.024 H 
ATOM     36  H   LIG d   1      11.410   8.089  -4.069  0.00  0.00     0.024 H 
ATOM     37  H   LIG d   1      11.976   6.829  -2.948  0.00  0.00     0.024 H 
ENDBRANCH  29  34
BRANCH  29  38
ATOM     38  C   LIG d   1       9.470   6.648  -2.439  0.00  0.00    -0.056 C 
ATOM     39  H   LIG d   1       9.775   5.830  -1.787  0.00  0.00     0.024 H 
ATOM     40  H   LIG d   1       9.835   7.591  -2.034  0.00  0.00     0.024 H 
ATOM     41  H   LIG d   1       8.381   6.676  -2.501  0.00  0.00     0.024 H 
ENDBRANCH  29  38
ENDBRANCH  23  29
ENDBRANCH  16  19
ENDBRANCH   1  16
BRANCH   4  42
ATOM     42  C   LIG d   1       5.398  -1.967  -5.771  0.00  0.00     0.031 C 
ATOM     43  H   LIG d   1       5.164  -1.529  -6.742  0.00  0.00     0.096 H 
BRANCH  42  44
ATOM     44  C   LIG d   1       4.386  -1.505  -4.754  0.00  0.00     0.005 A 
ATOM     45  C   LIG d   1       3.517  -0.476  -5.062  0.00  0.00    -0.053 A 
ATOM     46  C   LIG d   1       2.587  -0.055  -4.129  0.00  0.00    -0.061 A 
ATOM     47  H   LIG d   1       3.563  -0.002  -6.031  0.00  0.00     0.062 H 
ATOM     48  C   LIG d   1       2.532  -0.657  -2.887  0.00  0.00    -0.062 A 
ATOM     49  H   LIG d   1       1.905   0.747  -4.371  0.00  0.00     0.062 H 
ATOM     50  C   LIG d   1       3.405  -1.683  -2.577  0.00  0.00    -0.061 A 
ATOM     51  H   LIG d   1       1.807  -0.326  -2.158  0.00  0.00     0.062 H 
ATOM     52  C   LIG d   1       4.333  -2.107  -3.510  0.00  0.00    -0.053 A 
ATOM     53  H   LIG d   1       3.361  -2.154  -1.606  0.00  0.00     0.062 H 
ATOM     54  H   LIG d   1       5.014  -2.909  -3.268  0.00  0.00     0.062 H 
ENDBRANCH  42  44
BRANCH  42  55
ATOM     55  C   LIG d   1       5.354  -3.470  -5.876  0.00  0.00     0.005 A 
ATOM     56  C   LIG d   1       4.285  -4.089  -6.496  0.00  0.00    -0.051 A 
ATOM     57  C   LIG d   1       4.247  -5.468  -6.597  0.00  0.00    -0.043 A 
ATOM     58  H   LIG d   1       3.481  -3.495  -6.906  0.00  0.00     0.062 H 
ATOM     59  C   LIG d   1       5.274  -6.228  -6.067  0.00  0.00     0.041 A 
ATOM     60  H   LIG d   1       3.414  -5.950  -7.087  0.00  0.00     0.063 H 
ATOM     61  C   LIG d   1       6.340  -5.608  -5.441  0.00  0.00    -0.043 A 
ATOM     62 CL   LIG d   1       5.223  -7.959  -6.188  0.00  0.00    -0.084 Cl
ATOM     63  C   LIG d   1       6.380  -4.230  -5.344  0.00  0.00    -0.051 A 
ATOM     64  H   LIG d   1       7.142  -6.202  -5.026  0.00  0.00     0.063 H 
ATOM     65  H   LIG d   1       7.213  -3.746  -4.856  0.00  0.00     0.062 H 
ENDBRANCH  42  55
ENDBRANCH   4  42
TORSDOF 9
ENDMDL
MODEL 9
REMARK VINA RESULT:      -6.4      5.162      9.066
REMARK  9 active torsions:
REMARK  status: ('A' for Active; 'I' for Inactive)
REMARK    1  A    between atoms: C_1  and  C_2 
REMARK    2  A    between atoms: C_2  and  C_3 
REMARK    3  A    between atoms: C_2  and  C_4 
REMARK    4  A    between atoms: C_2  and  C_5 
REMARK    5  A    between atoms: C_8  and  C_11 
REMARK    6  A    between atoms: C_11  and  N_12 
REMARK    7  A    between atoms: N_15  and  C_18 
REMARK    8  A    between atoms: C_18  and  C_20 
REMARK    9  A    between atoms: C_18  and  C_26 
ROOT
ATOM      1  N   LIG d   1       9.151   2.757  -4.122  0.00  0.00    -0.288 N 
ATOM      2  C   LIG d   1       9.221   4.177  -4.496  0.00  0.00     0.040 C 
ATOM      3  C   LIG d   1       9.699   4.995  -3.296  0.00  0.00    -0.018 C 
ATOM      4  N   LIG d   1      11.023   4.516  -2.874  0.00  0.00     0.246 N 
ATOM      5  C   LIG d   1      10.932   3.104  -2.480  0.00  0.00    -0.018 C 
ATOM      6  C   LIG d   1      10.462   2.271  -3.675  0.00  0.00     0.040 C 
ATOM      7  H   LIG d   1       9.919   4.301  -5.324  0.00  0.00     0.048 H 
ATOM      8  H   LIG d   1       8.232   4.522  -4.801  0.00  0.00     0.048 H 
ATOM      9  H   LIG d   1       9.766   6.047  -3.575  0.00  0.00     0.083 H 
ATOM     10  H   LIG d   1       8.993   4.882  -2.473  0.00  0.00     0.083 H 
ATOM     11  H   LIG d   1      11.912   2.754  -2.155  0.00  0.00     0.083 H 
ATOM     12  H   LIG d   1      10.219   3.000  -1.662  0.00  0.00     0.083 H 
ATOM     13  H   LIG d   1      10.381   1.224  -3.378  0.00  0.00     0.048 H 
ATOM     14  H   LIG d   1      11.182   2.363  -4.488  0.00  0.00     0.048 H 
ATOM     15  H   LIG d   1      11.675   4.611  -3.639  0.00  0.00     0.204 HD
ENDROOT
BRANCH   1  16
ATOM     16  C   LIG d   1       8.639   1.945  -5.234  0.00  0.00     0.024 C 
ATOM     17  H   LIG d   1       9.440   1.319  -5.626  0.00  0.00     0.048 H 
ATOM     18  H   LIG d   1       8.271   2.600  -6.023  0.00  0.00     0.048 H 
BRANCH  16  19
ATOM     19  C   LIG d   1       7.514   1.072  -4.742  0.00  0.00    -0.033 A 
ATOM     20  C   LIG d   1       6.922   1.330  -3.520  0.00  0.00    -0.057 A 
ATOM     21  C   LIG d   1       5.889   0.529  -3.069  0.00  0.00    -0.058 A 
ATOM     22  H   LIG d   1       7.267   2.157  -2.917  0.00  0.00     0.062 H 
ATOM     23  C   LIG d   1       5.447  -0.528  -3.840  0.00  0.00    -0.042 A 
ATOM     24  H   LIG d   1       5.427   0.731  -2.114  0.00  0.00     0.062 H 
ATOM     25  C   LIG d   1       6.041  -0.790  -5.061  0.00  0.00    -0.058 A 
ATOM     26  C   LIG d   1       7.072   0.013  -5.513  0.00  0.00    -0.057 A 
ATOM     27  H   LIG d   1       5.699  -1.619  -5.662  0.00  0.00     0.062 H 
ATOM     28  H   LIG d   1       7.534  -0.188  -6.469  0.00  0.00     0.062 H 
BRANCH  23  29
ATOM     29  C   LIG d   1       4.321  -1.401  -3.349  0.00  0.00    -0.013 C 
BRANCH  29  30
ATOM     30  C   LIG d   1       2.981  -0.772  -3.739  0.00  0.00    -0.056 C 
ATOM     31  H   LIG d   1       2.225  -1.042  -3.001  0.00  0.00     0.024 H 
ATOM     32  H   LIG d   1       3.085   0.312  -3.774  0.00  0.00     0.024 H 
ATOM     33  H   LIG d   1       2.680  -1.140  -4.720  0.00  0.00     0.024 H 
ENDBRANCH  29  30
BRANCH  29  34
ATOM     34  C   LIG d   1       4.401  -1.529  -1.826  0.00  0.00    -0.056 C 
ATOM     35  H   LIG d   1       3.801  -0.746  -1.365  0.00  0.00     0.024 H 
ATOM     36  H   LIG d   1       4.021  -2.505  -1.523  0.00  0.00     0.024 H 
ATOM     37  H   LIG d   1       5.438  -1.428  -1.507  0.00  0.00     0.024 H 
ENDBRANCH  29  34
BRANCH  29  38
ATOM     38  C   LIG d   1       4.437  -2.788  -3.984  0.00  0.00    -0.056 C 
ATOM     39  H   LIG d   1       3.877  -2.808  -4.919  0.00  0.00     0.024 H 
ATOM     40  H   LIG d   1       5.484  -3.010  -4.184  0.00  0.00     0.024 H 
ATOM     41  H   LIG d   1       4.031  -3.536  -3.302  0.00  0.00     0.024 H 
ENDBRANCH  29  38
ENDBRANCH  23  29
ENDBRANCH  16  19
ENDBRANCH   1  16
BRANCH   4  42
ATOM     42  C   LIG d   1      11.490   5.314  -1.732  0.00  0.00     0.031 C 
ATOM     43  H   LIG d   1      11.124   4.872  -0.806  0.00  0.00     0.096 H 
BRANCH  42  44
ATOM     44  C   LIG d   1      10.971   6.723  -1.857  0.00  0.00     0.005 A 
ATOM     45  C   LIG d   1      11.377   7.519  -2.911  0.00  0.00    -0.053 A 
ATOM     46  C   LIG d   1      10.898   8.810  -3.026  0.00  0.00    -0.061 A 
ATOM     47  H   LIG d   1      12.067   7.131  -3.646  0.00  0.00     0.062 H 
ATOM     48  C   LIG d   1      10.020   9.309  -2.082  0.00  0.00    -0.062 A 
ATOM     49  H   LIG d   1      11.212   9.432  -3.853  0.00  0.00     0.062 H 
ATOM     50  C   LIG d   1       9.618   8.514  -1.025  0.00  0.00    -0.061 A 
ATOM     51  H   LIG d   1       9.648  10.319  -2.171  0.00  0.00     0.062 H 
ATOM     52  C   LIG d   1      10.094   7.221  -0.911  0.00  0.00    -0.053 A 
ATOM     53  H   LIG d   1       8.931   8.904  -0.288  0.00  0.00     0.062 H 
ATOM     54  H   LIG d   1       9.780   6.601  -0.085  0.00  0.00     0.062 H 
ENDBRANCH  42  44
BRANCH  42  55
ATOM     55  C   LIG d   1      12.998   5.334  -1.717  0.00  0.00     0.005 A 
ATOM     56  C   LIG d   1      13.671   5.846  -0.624  0.00  0.00    -0.051 A 
ATOM     57  C   LIG d   1      15.054   5.859  -0.608  0.00  0.00    -0.043 A 
ATOM     58  H   LIG d   1      13.117   6.233   0.219  0.00  0.00     0.062 H 
ATOM     59  C   LIG d   1      15.762   5.370  -1.690  0.00  0.00     0.041 A 
ATOM     60  H   LIG d   1      15.579   6.255   0.248  0.00  0.00     0.063 H 
ATOM     61  C   LIG d   1      15.087   4.862  -2.786  0.00  0.00    -0.043 A 
ATOM     62 CL   LIG d   1      17.498   5.393  -1.672  0.00  0.00    -0.084 Cl
ATOM     63  C   LIG d   1      13.706   4.845  -2.800  0.00  0.00    -0.051 A 
ATOM     64  H   LIG d   1      15.641   4.480  -3.632  0.00  0.00     0.063 H 
ATOM     65  H   LIG d   1      13.179   4.448  -3.655  0.00  0.00     0.062 H 
ENDBRANCH  42  55
ENDBRANCH   4  42
TORSDOF 9
ENDMDL
MODEL 10
REMARK VINA RESULT:      -6.3      5.026     10.797
REMARK  9 active torsions:
REMARK  status: ('A' for Active; 'I' for Inactive)
REMARK    1  A    between atoms: C_1  and  C_2 
REMARK    2  A    between atoms: C_2  and  C_3 
REMARK    3  A    between atoms: C_2  and  C_4 
REMARK    4  A    between atoms: C_2  and  C_5 
REMARK    5  A    between atoms: C_8  and  C_11 
REMARK    6  A    between atoms: C_11  and  N_12 
REMARK    7  A    between atoms: N_15  and  C_18 
REMARK    8  A    between atoms: C_18  and  C_20 
REMARK    9  A    between atoms: C_18  and  C_26 
ROOT
ATOM      1  N   LIG d   1       7.971   1.729  -6.794  0.00  0.00    -0.288 N 
ATOM      2  C   LIG d   1       7.801   0.863  -5.619  0.00  0.00     0.040 C 
ATOM      3  C   LIG d   1       6.311   0.589  -5.403  0.00  0.00    -0.018 C 
ATOM      4  N   LIG d   1       5.756  -0.062  -6.597  0.00  0.00     0.246 N 
ATOM      5  C   LIG d   1       5.911   0.824  -7.758  0.00  0.00    -0.018 C 
ATOM      6  C   LIG d   1       7.398   1.101  -7.992  0.00  0.00     0.040 C 
ATOM      7  H   LIG d   1       8.325  -0.078  -5.782  0.00  0.00     0.048 H 
ATOM      8  H   LIG d   1       8.210   1.360  -4.739  0.00  0.00     0.048 H 
ATOM      9  H   LIG d   1       6.184  -0.065  -4.540  0.00  0.00     0.083 H 
ATOM     10  H   LIG d   1       5.790   1.529  -5.226  0.00  0.00     0.083 H 
ATOM     11  H   LIG d   1       5.486   0.346  -8.639  0.00  0.00     0.083 H 
ATOM     12  H   LIG d   1       5.392   1.764  -7.569  0.00  0.00     0.083 H 
ATOM     13  H   LIG d   1       7.511   1.772  -8.845  0.00  0.00     0.048 H 
ATOM     14  H   LIG d   1       7.915   0.164  -8.195  0.00  0.00     0.048 H 
ATOM     15  H   LIG d   1       6.246  -0.928  -6.767  0.00  0.00     0.204 HD
ENDROOT
BRANCH   1  16
ATOM     16  C   LIG d   1       9.386   2.064  -7.001  0.00  0.00     0.024 C 
ATOM     17  H   LIG d   1       9.727   1.636  -7.944  0.00  0.00     0.048 H 
ATOM     18  H   LIG d   1       9.979   1.656  -6.183  0.00  0.00     0.048 H 
BRANCH  16  19
ATOM     19  C   LIG d   1       9.548   3.561  -7.041  0.00  0.00    -0.033 A 
ATOM     20  C   LIG d   1       9.745   4.267  -5.868  0.00  0.00    -0.057 A 
ATOM     21  C   LIG d   1       9.895   5.641  -5.905  0.00  0.00    -0.058 A 
ATOM     22  H   LIG d   1       9.782   3.744  -4.924  0.00  0.00     0.062 H 
ATOM     23  C   LIG d   1       9.849   6.309  -7.114  0.00  0.00    -0.042 A 
ATOM     24  H   LIG d   1      10.049   6.192  -4.989  0.00  0.00     0.062 H 
ATOM     25  C   LIG d   1       9.648   5.604  -8.286  0.00  0.00    -0.058 A 
ATOM     26  C   LIG d   1       9.501   4.230  -8.250  0.00  0.00    -0.057 A 
ATOM     27  H   LIG d   1       9.607   6.127  -9.230  0.00  0.00     0.062 H 
ATOM     28  H   LIG d   1       9.349   3.679  -9.166  0.00  0.00     0.062 H 
BRANCH  23  29
ATOM     29  C   LIG d   1      10.012   7.806  -7.154  0.00  0.00    -0.013 C 
BRANCH  29  30
ATOM     30  C   LIG d   1       9.564   8.404  -5.818  0.00  0.00    -0.056 C 
ATOM     31  H   LIG d   1       9.263   9.441  -5.968  0.00  0.00     0.024 H 
ATOM     32  H   LIG d   1       8.721   7.833  -5.429  0.00  0.00     0.024 H 
ATOM     33  H   LIG d   1      10.390   8.364  -5.108  0.00  0.00     0.024 H 
ENDBRANCH  29  30
BRANCH  29  34
ATOM     34  C   LIG d   1       9.157   8.383  -8.284  0.00  0.00    -0.056 C 
ATOM     35  H   LIG d   1       8.760   9.351  -7.981  0.00  0.00     0.024 H 
ATOM     36  H   LIG d   1       9.770   8.505  -9.178  0.00  0.00     0.024 H 
ATOM     37  H   LIG d   1       8.333   7.703  -8.500  0.00  0.00     0.024 H 
ENDBRANCH  29  34
BRANCH  29  38
ATOM     38  C   LIG d   1      11.482   8.152  -7.399  0.00  0.00    -0.056 C 
ATOM     39  H   LIG d   1      12.088   7.764  -6.581  0.00  0.00     0.024 H 
ATOM     40  H   LIG d   1      11.810   7.704  -8.337  0.00  0.00     0.024 H 
ATOM     41  H   LIG d   1      11.597   9.235  -7.455  0.00  0.00     0.024 H 
ENDBRANCH  29  38
ENDBRANCH  23  29
ENDBRANCH  16  19
ENDBRANCH   1  16
BRANCH   4  42
ATOM     42  C   LIG d   1       4.330  -0.343  -6.382  0.00  0.00     0.031 C 
ATOM     43  H   LIG d   1       3.767   0.591  -6.412  0.00  0.00     0.096 H 
BRANCH  42  44
ATOM     44  C   LIG d   1       4.143  -0.999  -5.038  0.00  0.00     0.005 A 
ATOM     45  C   LIG d   1       4.895  -2.107  -4.699  0.00  0.00    -0.053 A 
ATOM     46  C   LIG d   1       4.725  -2.706  -3.465  0.00  0.00    -0.061 A 
ATOM     47  H   LIG d   1       5.618  -2.504  -5.397  0.00  0.00     0.062 H 
ATOM     48  C   LIG d   1       3.797  -2.203  -2.573  0.00  0.00    -0.062 A 
ATOM     49  H   LIG d   1       5.317  -3.570  -3.198  0.00  0.00     0.062 H 
ATOM     50  C   LIG d   1       3.041  -1.097  -2.915  0.00  0.00    -0.061 A 
ATOM     51  H   LIG d   1       3.663  -2.673  -1.611  0.00  0.00     0.062 H 
ATOM     52  C   LIG d   1       3.212  -0.495  -4.148  0.00  0.00    -0.053 A 
ATOM     53  H   LIG d   1       2.315  -0.704  -2.218  0.00  0.00     0.062 H 
ATOM     54  H   LIG d   1       2.622   0.368  -4.414  0.00  0.00     0.062 H 
ENDBRANCH  42  44
BRANCH  42  55
ATOM     55  C   LIG d   1       3.830  -1.265  -7.465  0.00  0.00     0.005 A 
ATOM     56  C   LIG d   1       2.822  -0.851  -8.314  0.00  0.00    -0.051 A 
ATOM     57  C   LIG d   1       2.367  -1.695  -9.311  0.00  0.00    -0.043 A 
ATOM     58  H   LIG d   1       2.390   0.133  -8.202  0.00  0.00     0.062 H 
ATOM     59  C   LIG d   1       2.915  -2.958  -9.450  0.00  0.00     0.041 A 
ATOM     60  H   LIG d   1       1.582  -1.370  -9.977  0.00  0.00     0.063 H 
ATOM     61  C   LIG d   1       3.921  -3.373  -8.596  0.00  0.00    -0.043 A 
ATOM     62 CL   LIG d   1       2.340  -4.020 -10.697  0.00  0.00    -0.084 Cl
ATOM     63  C   LIG d   1       4.378  -2.528  -7.603  0.00  0.00    -0.051 A 
ATOM     64  H   LIG d   1       4.349  -4.359  -8.705  0.00  0.00     0.063 H 
ATOM     65  H   LIG d   1       5.164  -2.851  -6.937  0.00  0.00     0.062 H 
ENDBRANCH  42  55
ENDBRANCH   4  42
TORSDOF 9
ENDMDL
