MODEL 1
REMARK VINA RESULT:      -5.1      0.000      0.000
REMARK  20 active torsions:
REMARK  status: ('A' for Active; 'I' for Inactive)
REMARK    1  A    between atoms: C_1  and  C_2 
REMARK    2  A    between atoms: C_2  and  C_3 
REMARK    3  A    between atoms: C_3  and  C_4 
REMARK    4  A    between atoms: C_4  and  C_5 
REMARK    5  A    between atoms: C_5  and  C_6 
REMARK    6  A    between atoms: C_6  and  C_7 
REMARK    7  A    between atoms: C_7  and  C_9 
REMARK    8  A    between atoms: C_7  and  O_23 
REMARK    9  A    between atoms: C_9  and  C_10 
REMARK   10  A    between atoms: C_10  and  C_11 
REMARK   11  A    between atoms: C_11  and  C_12 
REMARK   12  A    between atoms: C_12  and  C_13 
REMARK   13  A    between atoms: C_13  and  C_14 
REMARK   14  A    between atoms: C_14  and  C_15 
REMARK   15  A    between atoms: C_15  and  C_16 
REMARK   16  A    between atoms: C_16  and  C_17 
REMARK   17  A    between atoms: C_17  and  C_18 
REMARK   18  A    between atoms: C_18  and  C_19 
REMARK   19  A    between atoms: C_19  and  O_21 
REMARK   20  A    between atoms: O_21  and  C_22 
ROOT
ATOM      1  C   LIG d   1       2.852   0.667  -4.529  0.00  0.00    -0.053 C 
ATOM      2  H   LIG d   1       3.886   0.932  -4.307  0.00  0.00     0.026 H 
ATOM      3  H   LIG d   1       2.196   1.489  -4.243  0.00  0.00     0.026 H 
ENDROOT
BRANCH   1   4
ATOM      4  C   LIG d   1       2.705   0.395  -6.027  0.00  0.00    -0.051 C 
ATOM      5  H   LIG d   1       2.654   1.341  -6.565  0.00  0.00     0.027 H 
ATOM      6  H   LIG d   1       1.791  -0.174  -6.205  0.00  0.00     0.027 H 
BRANCH   4   7
ATOM      7  C   LIG d   1       3.910  -0.409  -6.521  0.00  0.00    -0.027 C 
ATOM      8  H   LIG d   1       4.107  -1.229  -5.829  0.00  0.00     0.029 H 
ATOM      9  H   LIG d   1       4.783   0.241  -6.573  0.00  0.00     0.029 H 
BRANCH   7  10
ATOM     10  C   LIG d   1       3.611  -0.975  -7.910  0.00  0.00     0.055 C 
ATOM     11  H   LIG d   1       4.431  -0.732  -8.585  0.00  0.00     0.059 H 
BRANCH  10  12
ATOM     12  C   LIG d   1       2.314  -0.363  -8.441  0.00  0.00    -0.027 C 
ATOM     13  H   LIG d   1       2.144   0.602  -7.963  0.00  0.00     0.029 H 
ATOM     14  H   LIG d   1       1.480  -1.030  -8.221  0.00  0.00     0.029 H 
BRANCH  12  15
ATOM     15  C   LIG d   1       2.424  -0.169  -9.955  0.00  0.00    -0.051 C 
ATOM     16  H   LIG d   1       1.565   0.397 -10.313  0.00  0.00     0.027 H 
ATOM     17  H   LIG d   1       2.447  -1.143 -10.446  0.00  0.00     0.027 H 
BRANCH  15  18
ATOM     18  C   LIG d   1       3.710   0.595 -10.280  0.00  0.00    -0.053 C 
ATOM     19  H   LIG d   1       4.030   0.352 -11.293  0.00  0.00     0.026 H 
ATOM     20  H   LIG d   1       4.490   0.308  -9.573  0.00  0.00     0.026 H 
BRANCH  18  21
ATOM     21  C   LIG d   1       3.450   2.099 -10.172  0.00  0.00    -0.053 C 
ATOM     22  H   LIG d   1       2.426   2.268  -9.842  0.00  0.00     0.026 H 
ATOM     23  H   LIG d   1       3.600   2.563 -11.147  0.00  0.00     0.026 H 
BRANCH  21  24
ATOM     24  C   LIG d   1       4.421   2.712  -9.161  0.00  0.00    -0.056 C 
ATOM     25  H   LIG d   1       3.935   2.784  -8.188  0.00  0.00     0.026 H 
ATOM     26  H   LIG d   1       4.714   3.706  -9.495  0.00  0.00     0.026 H 
BRANCH  24  27
ATOM     27  C   LIG d   1       5.664   1.826  -9.046  0.00  0.00    -0.065 C 
ATOM     28  H   LIG d   1       5.453   0.990  -8.380  0.00  0.00     0.023 H 
ATOM     29  H   LIG d   1       5.933   1.448 -10.032  0.00  0.00     0.023 H 
ATOM     30  H   LIG d   1       6.490   2.412  -8.644  0.00  0.00     0.023 H 
ENDBRANCH  24  27
ENDBRANCH  21  24
ENDBRANCH  18  21
ENDBRANCH  15  18
ENDBRANCH  12  15
ENDBRANCH  10  12
BRANCH  10  31
ATOM     31  O   LIG d   1       3.469  -2.395  -7.826  0.00  0.00    -0.392 OA
ATOM     32  H   LIG d   1       4.309  -2.872  -7.782  0.00  0.00     0.210 HD
ENDBRANCH  10  31
ENDBRANCH   7  10
ENDBRANCH   4   7
ENDBRANCH   1   4
BRANCH   1  33
ATOM     33  C   LIG d   1       2.469  -0.589  -3.742  0.00  0.00    -0.053 C 
ATOM     34  H   LIG d   1       1.421  -0.527  -3.447  0.00  0.00     0.026 H 
ATOM     35  H   LIG d   1       2.619  -1.469  -4.367  0.00  0.00     0.026 H 
BRANCH  33  36
ATOM     36  C   LIG d   1       3.345  -0.696  -2.494  0.00  0.00    -0.053 C 
ATOM     37  H   LIG d   1       4.145   0.044  -2.546  0.00  0.00     0.026 H 
ATOM     38  H   LIG d   1       2.739  -0.511  -1.606  0.00  0.00     0.026 H 
BRANCH  36  39
ATOM     39  C   LIG d   1       3.952  -2.098  -2.415  0.00  0.00    -0.053 C 
ATOM     40  H   LIG d   1       4.440  -2.228  -1.449  0.00  0.00     0.026 H 
ATOM     41  H   LIG d   1       3.164  -2.842  -2.527  0.00  0.00     0.026 H 
BRANCH  39  42
ATOM     42  C   LIG d   1       4.981  -2.272  -3.534  0.00  0.00    -0.053 C 
ATOM     43  H   LIG d   1       5.128  -3.334  -3.729  0.00  0.00     0.026 H 
ATOM     44  H   LIG d   1       4.620  -1.782  -4.439  0.00  0.00     0.026 H 
BRANCH  42  45
ATOM     45  C   LIG d   1       6.309  -1.642  -3.108  0.00  0.00    -0.053 C 
ATOM     46  H   LIG d   1       6.194  -1.180  -2.128  0.00  0.00     0.026 H 
ATOM     47  H   LIG d   1       7.077  -2.415  -3.058  0.00  0.00     0.026 H 
BRANCH  45  48
ATOM     48  C   LIG d   1       6.720  -0.581  -4.130  0.00  0.00    -0.043 C 
ATOM     49  H   LIG d   1       7.753  -0.748  -4.433  0.00  0.00     0.027 H 
ATOM     50  H   LIG d   1       6.070  -0.644  -5.002  0.00  0.00     0.027 H 
BRANCH  48  51
ATOM     51  C   LIG d   1       6.594   0.808  -3.500  0.00  0.00     0.045 C 
ATOM     52  H   LIG d   1       5.597   1.206  -3.695  0.00  0.00     0.038 H 
ATOM     53  H   LIG d   1       6.752   0.736  -2.425  0.00  0.00     0.038 H 
BRANCH  51  54
ATOM     54  C   LIG d   1       7.627   1.728  -4.100  0.00  0.00     0.307 C 
ATOM     55  O   LIG d   1       7.640   1.926  -5.291  0.00  0.00    -0.251 OA
BRANCH  54  56
ATOM     56  O   LIG d   1       8.531   2.326  -3.309  0.00  0.00    -0.468 OA
BRANCH  56  57
ATOM     57  C   LIG d   1       9.620   2.990  -3.955  0.00  0.00     0.082 C 
ATOM     58  H   LIG d   1       9.289   3.374  -4.920  0.00  0.00     0.066 H 
ATOM     59  H   LIG d   1       9.961   3.818  -3.333  0.00  0.00     0.066 H 
ATOM     60  H   LIG d   1      10.437   2.286  -4.105  0.00  0.00     0.066 H 
ENDBRANCH  56  57
ENDBRANCH  54  56
ENDBRANCH  51  54
ENDBRANCH  48  51
ENDBRANCH  45  48
ENDBRANCH  42  45
ENDBRANCH  39  42
ENDBRANCH  36  39
ENDBRANCH  33  36
ENDBRANCH   1  33
TORSDOF 20
ENDMDL
MODEL 2
REMARK VINA RESULT:      -5.0      1.937      5.973
REMARK  20 active torsions:
REMARK  status: ('A' for Active; 'I' for Inactive)
REMARK    1  A    between atoms: C_1  and  C_2 
REMARK    2  A    between atoms: C_2  and  C_3 
REMARK    3  A    between atoms: C_3  and  C_4 
REMARK    4  A    between atoms: C_4  and  C_5 
REMARK    5  A    between atoms: C_5  and  C_6 
REMARK    6  A    between atoms: C_6  and  C_7 
REMARK    7  A    between atoms: C_7  and  C_9 
REMARK    8  A    between atoms: C_7  and  O_23 
REMARK    9  A    between atoms: C_9  and  C_10 
REMARK   10  A    between atoms: C_10  and  C_11 
REMARK   11  A    between atoms: C_11  and  C_12 
REMARK   12  A    between atoms: C_12  and  C_13 
REMARK   13  A    between atoms: C_13  and  C_14 
REMARK   14  A    between atoms: C_14  and  C_15 
REMARK   15  A    between atoms: C_15  and  C_16 
REMARK   16  A    between atoms: C_16  and  C_17 
REMARK   17  A    between atoms: C_17  and  C_18 
REMARK   18  A    between atoms: C_18  and  C_19 
REMARK   19  A    between atoms: C_19  and  O_21 
REMARK   20  A    between atoms: O_21  and  C_22 
ROOT
ATOM      1  C   LIG d   1       4.710  -2.383  -5.998  0.00  0.00    -0.053 C 
ATOM      2  H   LIG d   1       5.118  -3.214  -6.574  0.00  0.00     0.026 H 
ATOM      3  H   LIG d   1       3.746  -2.670  -5.580  0.00  0.00     0.026 H 
ENDROOT
BRANCH   1   4
ATOM      4  C   LIG d   1       5.672  -2.027  -4.863  0.00  0.00    -0.051 C 
ATOM      5  H   LIG d   1       6.599  -2.588  -4.983  0.00  0.00     0.027 H 
ATOM      6  H   LIG d   1       5.216  -2.281  -3.906  0.00  0.00     0.027 H 
BRANCH   4   7
ATOM      7  C   LIG d   1       5.974  -0.527  -4.901  0.00  0.00    -0.027 C 
ATOM      8  H   LIG d   1       5.052   0.024  -5.084  0.00  0.00     0.029 H 
ATOM      9  H   LIG d   1       6.685  -0.321  -5.701  0.00  0.00     0.029 H 
BRANCH   7  10
ATOM     10  C   LIG d   1       6.572  -0.093  -3.562  0.00  0.00     0.055 C 
ATOM     11  H   LIG d   1       6.438  -0.889  -2.830  0.00  0.00     0.059 H 
BRANCH  10  12
ATOM     12  C   LIG d   1       5.864   1.173  -3.075  0.00  0.00    -0.027 C 
ATOM     13  H   LIG d   1       5.269   1.592  -3.886  0.00  0.00     0.029 H 
ATOM     14  H   LIG d   1       6.606   1.903  -2.752  0.00  0.00     0.029 H 
BRANCH  12  15
ATOM     15  C   LIG d   1       4.949   0.824  -1.899  0.00  0.00    -0.051 C 
ATOM     16  H   LIG d   1       5.115   1.531  -1.086  0.00  0.00     0.027 H 
ATOM     17  H   LIG d   1       5.170  -0.186  -1.553  0.00  0.00     0.027 H 
BRANCH  15  18
ATOM     18  C   LIG d   1       3.488   0.900  -2.349  0.00  0.00    -0.053 C 
ATOM     19  H   LIG d   1       3.412   1.535  -3.231  0.00  0.00     0.026 H 
ATOM     20  H   LIG d   1       2.882   1.320  -1.545  0.00  0.00     0.026 H 
BRANCH  18  21
ATOM     21  C   LIG d   1       2.985  -0.506  -2.687  0.00  0.00    -0.053 C 
ATOM     22  H   LIG d   1       2.318  -0.852  -1.897  0.00  0.00     0.026 H 
ATOM     23  H   LIG d   1       3.834  -1.185  -2.771  0.00  0.00     0.026 H 
BRANCH  21  24
ATOM     24  C   LIG d   1       2.227  -0.470  -4.015  0.00  0.00    -0.056 C 
ATOM     25  H   LIG d   1       1.163  -0.620  -3.832  0.00  0.00     0.026 H 
ATOM     26  H   LIG d   1       2.598  -1.260  -4.666  0.00  0.00     0.026 H 
BRANCH  24  27
ATOM     27  C   LIG d   1       2.442   0.888  -4.688  0.00  0.00    -0.065 C 
ATOM     28  H   LIG d   1       3.507   1.120  -4.705  0.00  0.00     0.023 H 
ATOM     29  H   LIG d   1       2.061   0.852  -5.708  0.00  0.00     0.023 H 
ATOM     30  H   LIG d   1       1.912   1.658  -4.128  0.00  0.00     0.023 H 
ENDBRANCH  24  27
ENDBRANCH  21  24
ENDBRANCH  18  21
ENDBRANCH  15  18
ENDBRANCH  12  15
ENDBRANCH  10  12
BRANCH  10  31
ATOM     31  O   LIG d   1       7.966   0.174  -3.727  0.00  0.00    -0.392 OA
ATOM     32  H   LIG d   1       8.342   0.743  -3.040  0.00  0.00     0.210 HD
ENDBRANCH  10  31
ENDBRANCH   7  10
ENDBRANCH   4   7
ENDBRANCH   1   4
BRANCH   1  33
ATOM     33  C   LIG d   1       4.529  -1.169  -6.913  0.00  0.00    -0.053 C 
ATOM     34  H   LIG d   1       4.045  -0.366  -6.358  0.00  0.00     0.026 H 
ATOM     35  H   LIG d   1       5.503  -0.832  -7.266  0.00  0.00     0.026 H 
BRANCH  33  36
ATOM     36  C   LIG d   1       3.660  -1.558  -8.110  0.00  0.00    -0.053 C 
ATOM     37  H   LIG d   1       4.283  -1.636  -9.002  0.00  0.00     0.026 H 
ATOM     38  H   LIG d   1       3.184  -2.520  -7.916  0.00  0.00     0.026 H 
BRANCH  36  39
ATOM     39  C   LIG d   1       2.586  -0.491  -8.328  0.00  0.00    -0.053 C 
ATOM     40  H   LIG d   1       2.336  -0.440  -9.388  0.00  0.00     0.026 H 
ATOM     41  H   LIG d   1       1.695  -0.750  -7.757  0.00  0.00     0.026 H 
BRANCH  39  42
ATOM     42  C   LIG d   1       3.115   0.867  -7.863  0.00  0.00    -0.053 C 
ATOM     43  H   LIG d   1       2.575   1.180  -6.969  0.00  0.00     0.026 H 
ATOM     44  H   LIG d   1       4.178   0.785  -7.636  0.00  0.00     0.026 H 
BRANCH  42  45
ATOM     45  C   LIG d   1       2.909   1.902  -8.972  0.00  0.00    -0.053 C 
ATOM     46  H   LIG d   1       2.548   1.403  -9.871  0.00  0.00     0.026 H 
ATOM     47  H   LIG d   1       2.175   2.641  -8.647  0.00  0.00     0.026 H 
BRANCH  45  48
ATOM     48  C   LIG d   1       4.237   2.599  -9.272  0.00  0.00    -0.043 C 
ATOM     49  H   LIG d   1       4.120   3.243 -10.143  0.00  0.00     0.027 H 
ATOM     50  H   LIG d   1       4.535   3.199  -8.413  0.00  0.00     0.027 H 
BRANCH  48  51
ATOM     51  C   LIG d   1       5.311   1.547  -9.557  0.00  0.00     0.045 C 
ATOM     52  H   LIG d   1       4.952   0.566  -9.243  0.00  0.00     0.038 H 
ATOM     53  H   LIG d   1       5.530   1.530 -10.624  0.00  0.00     0.038 H 
BRANCH  51  54
ATOM     54  C   LIG d   1       6.565   1.890  -8.793  0.00  0.00     0.307 C 
ATOM     55  O   LIG d   1       6.679   1.555  -7.638  0.00  0.00    -0.251 OA
BRANCH  54  56
ATOM     56  O   LIG d   1       7.554   2.568  -9.397  0.00  0.00    -0.468 OA
BRANCH  56  57
ATOM     57  C   LIG d   1       8.758   1.849  -9.673  0.00  0.00     0.082 C 
ATOM     58  H   LIG d   1       8.698   0.855  -9.228  0.00  0.00     0.066 H 
ATOM     59  H   LIG d   1       8.887   1.757 -10.751  0.00  0.00     0.066 H 
ATOM     60  H   LIG d   1       9.606   2.385  -9.249  0.00  0.00     0.066 H 
ENDBRANCH  56  57
ENDBRANCH  54  56
ENDBRANCH  51  54
ENDBRANCH  48  51
ENDBRANCH  45  48
ENDBRANCH  42  45
ENDBRANCH  39  42
ENDBRANCH  36  39
ENDBRANCH  33  36
ENDBRANCH   1  33
TORSDOF 20
ENDMDL
MODEL 3
REMARK VINA RESULT:      -4.9      2.577      6.738
REMARK  20 active torsions:
REMARK  status: ('A' for Active; 'I' for Inactive)
REMARK    1  A    between atoms: C_1  and  C_2 
REMARK    2  A    between atoms: C_2  and  C_3 
REMARK    3  A    between atoms: C_3  and  C_4 
REMARK    4  A    between atoms: C_4  and  C_5 
REMARK    5  A    between atoms: C_5  and  C_6 
REMARK    6  A    between atoms: C_6  and  C_7 
REMARK    7  A    between atoms: C_7  and  C_9 
REMARK    8  A    between atoms: C_7  and  O_23 
REMARK    9  A    between atoms: C_9  and  C_10 
REMARK   10  A    between atoms: C_10  and  C_11 
REMARK   11  A    between atoms: C_11  and  C_12 
REMARK   12  A    between atoms: C_12  and  C_13 
REMARK   13  A    between atoms: C_13  and  C_14 
REMARK   14  A    between atoms: C_14  and  C_15 
REMARK   15  A    between atoms: C_15  and  C_16 
REMARK   16  A    between atoms: C_16  and  C_17 
REMARK   17  A    between atoms: C_17  and  C_18 
REMARK   18  A    between atoms: C_18  and  C_19 
REMARK   19  A    between atoms: C_19  and  O_21 
REMARK   20  A    between atoms: O_21  and  C_22 
ROOT
ATOM      1  C   LIG d   1       5.788  -0.501  -6.157  0.00  0.00    -0.053 C 
ATOM      2  H   LIG d   1       4.863  -0.805  -6.648  0.00  0.00     0.026 H 
ATOM      3  H   LIG d   1       5.553   0.061  -5.254  0.00  0.00     0.026 H 
ENDROOT
BRANCH   1   4
ATOM      4  C   LIG d   1       6.601  -1.743  -5.787  0.00  0.00    -0.051 C 
ATOM      5  H   LIG d   1       7.654  -1.475  -5.698  0.00  0.00     0.027 H 
ATOM      6  H   LIG d   1       6.483  -2.500  -6.563  0.00  0.00     0.027 H 
BRANCH   4   7
ATOM      7  C   LIG d   1       6.103  -2.300  -4.452  0.00  0.00    -0.027 C 
ATOM      8  H   LIG d   1       6.523  -1.715  -3.634  0.00  0.00     0.029 H 
ATOM      9  H   LIG d   1       6.417  -3.339  -4.353  0.00  0.00     0.029 H 
BRANCH   7  10
ATOM     10  C   LIG d   1       4.576  -2.222  -4.404  0.00  0.00     0.055 C 
ATOM     11  H   LIG d   1       4.248  -1.270  -4.822  0.00  0.00     0.059 H 
BRANCH  10  12
ATOM     12  C   LIG d   1       4.105  -2.331  -2.952  0.00  0.00    -0.027 C 
ATOM     13  H   LIG d   1       4.933  -2.097  -2.283  0.00  0.00     0.029 H 
ATOM     14  H   LIG d   1       3.756  -3.345  -2.759  0.00  0.00     0.029 H 
BRANCH  12  15
ATOM     15  C   LIG d   1       2.961  -1.344  -2.712  0.00  0.00    -0.051 C 
ATOM     16  H   LIG d   1       2.906  -1.101  -1.651  0.00  0.00     0.027 H 
ATOM     17  H   LIG d   1       2.020  -1.793  -3.031  0.00  0.00     0.027 H 
BRANCH  15  18
ATOM     18  C   LIG d   1       3.213  -0.065  -3.515  0.00  0.00    -0.053 C 
ATOM     19  H   LIG d   1       2.364   0.124  -4.172  0.00  0.00     0.026 H 
ATOM     20  H   LIG d   1       4.117  -0.186  -4.113  0.00  0.00     0.026 H 
BRANCH  18  21
ATOM     21  C   LIG d   1       3.389   1.113  -2.555  0.00  0.00    -0.053 C 
ATOM     22  H   LIG d   1       2.606   1.086  -1.798  0.00  0.00     0.026 H 
ATOM     23  H   LIG d   1       3.324   2.048  -3.113  0.00  0.00     0.026 H 
BRANCH  21  24
ATOM     24  C   LIG d   1       4.758   1.019  -1.878  0.00  0.00    -0.056 C 
ATOM     25  H   LIG d   1       4.848   0.057  -1.373  0.00  0.00     0.026 H 
ATOM     26  H   LIG d   1       4.859   1.822  -1.150  0.00  0.00     0.026 H 
BRANCH  24  27
ATOM     27  C   LIG d   1       5.858   1.146  -2.934  0.00  0.00    -0.065 C 
ATOM     28  H   LIG d   1       5.463   1.663  -3.809  0.00  0.00     0.023 H 
ATOM     29  H   LIG d   1       6.693   1.713  -2.522  0.00  0.00     0.023 H 
ATOM     30  H   LIG d   1       6.200   0.153  -3.222  0.00  0.00     0.023 H 
ENDBRANCH  24  27
ENDBRANCH  21  24
ENDBRANCH  18  21
ENDBRANCH  15  18
ENDBRANCH  12  15
ENDBRANCH  10  12
BRANCH  10  31
ATOM     31  O   LIG d   1       4.020  -3.295  -5.167  0.00  0.00    -0.392 OA
ATOM     32  H   LIG d   1       4.677  -3.917  -5.509  0.00  0.00     0.210 HD
ENDBRANCH  10  31
ENDBRANCH   7  10
ENDBRANCH   4   7
ENDBRANCH   1   4
BRANCH   1  33
ATOM     33  C   LIG d   1       6.604   0.378  -7.108  0.00  0.00    -0.053 C 
ATOM     34  H   LIG d   1       6.193   1.388  -7.111  0.00  0.00     0.026 H 
ATOM     35  H   LIG d   1       7.641   0.408  -6.776  0.00  0.00     0.026 H 
BRANCH  33  36
ATOM     36  C   LIG d   1       6.538  -0.203  -8.522  0.00  0.00    -0.053 C 
ATOM     37  H   LIG d   1       7.435  -0.793  -8.714  0.00  0.00     0.026 H 
ATOM     38  H   LIG d   1       5.659  -0.842  -8.612  0.00  0.00     0.026 H 
BRANCH  36  39
ATOM     39  C   LIG d   1       6.448   0.936  -9.538  0.00  0.00    -0.053 C 
ATOM     40  H   LIG d   1       7.424   1.411  -9.638  0.00  0.00     0.026 H 
ATOM     41  H   LIG d   1       6.137   0.539 -10.503  0.00  0.00     0.026 H 
BRANCH  39  42
ATOM     42  C   LIG d   1       5.426   1.969  -9.058  0.00  0.00    -0.053 C 
ATOM     43  H   LIG d   1       5.208   1.800  -8.003  0.00  0.00     0.026 H 
ATOM     44  H   LIG d   1       5.834   2.971  -9.190  0.00  0.00     0.026 H 
BRANCH  42  45
ATOM     45  C   LIG d   1       4.139   1.830  -9.873  0.00  0.00    -0.053 C 
ATOM     46  H   LIG d   1       4.127   2.579 -10.664  0.00  0.00     0.026 H 
ATOM     47  H   LIG d   1       4.096   0.834 -10.316  0.00  0.00     0.026 H 
BRANCH  45  48
ATOM     48  C   LIG d   1       2.931   2.034  -8.958  0.00  0.00    -0.043 C 
ATOM     49  H   LIG d   1       3.001   3.008  -8.474  0.00  0.00     0.027 H 
ATOM     50  H   LIG d   1       2.015   1.985  -9.547  0.00  0.00     0.027 H 
BRANCH  48  51
ATOM     51  C   LIG d   1       2.909   0.937  -7.891  0.00  0.00     0.045 C 
ATOM     52  H   LIG d   1       3.890   0.869  -7.419  0.00  0.00     0.038 H 
ATOM     53  H   LIG d   1       2.160   1.178  -7.137  0.00  0.00     0.038 H 
BRANCH  51  54
ATOM     54  C   LIG d   1       2.569  -0.383  -8.533  0.00  0.00     0.307 C 
ATOM     55  O   LIG d   1       3.196  -1.374  -8.245  0.00  0.00    -0.251 OA
BRANCH  54  56
ATOM     56  O   LIG d   1       1.569  -0.457  -9.425  0.00  0.00    -0.468 OA
BRANCH  56  57
ATOM     57  C   LIG d   1       1.521  -1.622 -10.252  0.00  0.00     0.082 C 
ATOM     58  H   LIG d   1       1.758  -1.347 -11.280  0.00  0.00     0.066 H 
ATOM     59  H   LIG d   1       2.249  -2.351  -9.894  0.00  0.00     0.066 H 
ATOM     60  H   LIG d   1       0.522  -2.055 -10.213  0.00  0.00     0.066 H 
ENDBRANCH  56  57
ENDBRANCH  54  56
ENDBRANCH  51  54
ENDBRANCH  48  51
ENDBRANCH  45  48
ENDBRANCH  42  45
ENDBRANCH  39  42
ENDBRANCH  36  39
ENDBRANCH  33  36
ENDBRANCH   1  33
TORSDOF 20
ENDMDL
MODEL 4
REMARK VINA RESULT:      -4.9      2.499      3.633
REMARK  20 active torsions:
REMARK  status: ('A' for Active; 'I' for Inactive)
REMARK    1  A    between atoms: C_1  and  C_2 
REMARK    2  A    between atoms: C_2  and  C_3 
REMARK    3  A    between atoms: C_3  and  C_4 
REMARK    4  A    between atoms: C_4  and  C_5 
REMARK    5  A    between atoms: C_5  and  C_6 
REMARK    6  A    between atoms: C_6  and  C_7 
REMARK    7  A    between atoms: C_7  and  C_9 
REMARK    8  A    between atoms: C_7  and  O_23 
REMARK    9  A    between atoms: C_9  and  C_10 
REMARK   10  A    between atoms: C_10  and  C_11 
REMARK   11  A    between atoms: C_11  and  C_12 
REMARK   12  A    between atoms: C_12  and  C_13 
REMARK   13  A    between atoms: C_13  and  C_14 
REMARK   14  A    between atoms: C_14  and  C_15 
REMARK   15  A    between atoms: C_15  and  C_16 
REMARK   16  A    between atoms: C_16  and  C_17 
REMARK   17  A    between atoms: C_17  and  C_18 
REMARK   18  A    between atoms: C_18  and  C_19 
REMARK   19  A    between atoms: C_19  and  O_21 
REMARK   20  A    between atoms: O_21  and  C_22 
ROOT
ATOM      1  C   LIG d   1       4.245  -1.270  -7.477  0.00  0.00    -0.053 C 
ATOM      2  H   LIG d   1       4.362  -2.244  -7.002  0.00  0.00     0.026 H 
ATOM      3  H   LIG d   1       5.094  -1.080  -8.133  0.00  0.00     0.026 H 
ENDROOT
BRANCH   1   4
ATOM      4  C   LIG d   1       2.954  -1.254  -8.298  0.00  0.00    -0.051 C 
ATOM      5  H   LIG d   1       2.876  -0.310  -8.835  0.00  0.00     0.027 H 
ATOM      6  H   LIG d   1       2.098  -1.365  -7.631  0.00  0.00     0.027 H 
BRANCH   4   7
ATOM      7  C   LIG d   1       2.972  -2.411  -9.300  0.00  0.00    -0.027 C 
ATOM      8  H   LIG d   1       2.573  -3.308  -8.825  0.00  0.00     0.029 H 
ATOM      9  H   LIG d   1       3.997  -2.596  -9.621  0.00  0.00     0.029 H 
BRANCH   7  10
ATOM     10  C   LIG d   1       2.113  -2.050 -10.512  0.00  0.00     0.055 C 
ATOM     11  H   LIG d   1       2.476  -2.589 -11.387  0.00  0.00     0.059 H 
BRANCH  10  12
ATOM     12  C   LIG d   1       2.200  -0.544 -10.768  0.00  0.00    -0.027 C 
ATOM     13  H   LIG d   1       2.332  -0.022  -9.820  0.00  0.00     0.029 H 
ATOM     14  H   LIG d   1       1.282  -0.203 -11.246  0.00  0.00     0.029 H 
BRANCH  12  15
ATOM     15  C   LIG d   1       3.391  -0.251 -11.683  0.00  0.00    -0.051 C 
ATOM     16  H   LIG d   1       3.030  -0.006 -12.682  0.00  0.00     0.027 H 
ATOM     17  H   LIG d   1       4.035  -1.129 -11.735  0.00  0.00     0.027 H 
BRANCH  15  18
ATOM     18  C   LIG d   1       4.185   0.932 -11.124  0.00  0.00    -0.053 C 
ATOM     19  H   LIG d   1       4.443   1.612 -11.935  0.00  0.00     0.026 H 
ATOM     20  H   LIG d   1       5.097   0.565 -10.652  0.00  0.00     0.026 H 
BRANCH  18  21
ATOM     21  C   LIG d   1       3.337   1.672 -10.088  0.00  0.00    -0.053 C 
ATOM     22  H   LIG d   1       2.841   0.949  -9.440  0.00  0.00     0.026 H 
ATOM     23  H   LIG d   1       2.587   2.277 -10.598  0.00  0.00     0.026 H 
BRANCH  21  24
ATOM     24  C   LIG d   1       4.237   2.579  -9.246  0.00  0.00    -0.056 C 
ATOM     25  H   LIG d   1       3.782   2.738  -8.269  0.00  0.00     0.026 H 
ATOM     26  H   LIG d   1       4.360   3.537  -9.749  0.00  0.00     0.026 H 
BRANCH  24  27
ATOM     27  C   LIG d   1       5.605   1.917  -9.071  0.00  0.00    -0.065 C 
ATOM     28  H   LIG d   1       6.248   2.565  -8.474  0.00  0.00     0.023 H 
ATOM     29  H   LIG d   1       5.484   0.959  -8.564  0.00  0.00     0.023 H 
ATOM     30  H   LIG d   1       6.059   1.756 -10.049  0.00  0.00     0.023 H 
ENDBRANCH  24  27
ENDBRANCH  21  24
ENDBRANCH  18  21
ENDBRANCH  15  18
ENDBRANCH  12  15
ENDBRANCH  10  12
BRANCH  10  31
ATOM     31  O   LIG d   1       0.754  -2.413 -10.259  0.00  0.00    -0.392 OA
ATOM     32  H   LIG d   1       0.600  -3.368 -10.234  0.00  0.00     0.210 HD
ENDBRANCH  10  31
ENDBRANCH   7  10
ENDBRANCH   4   7
ENDBRANCH   1   4
BRANCH   1  33
ATOM     33  C   LIG d   1       4.178  -0.183  -6.401  0.00  0.00    -0.053 C 
ATOM     34  H   LIG d   1       4.687  -0.530  -5.502  0.00  0.00     0.026 H 
ATOM     35  H   LIG d   1       4.663   0.721  -6.768  0.00  0.00     0.026 H 
BRANCH  33  36
ATOM     36  C   LIG d   1       2.715   0.121  -6.074  0.00  0.00    -0.053 C 
ATOM     37  H   LIG d   1       2.292   0.757  -6.853  0.00  0.00     0.026 H 
ATOM     38  H   LIG d   1       2.152  -0.812  -6.023  0.00  0.00     0.026 H 
BRANCH  36  39
ATOM     39  C   LIG d   1       2.632   0.841  -4.727  0.00  0.00    -0.053 C 
ATOM     40  H   LIG d   1       3.501   1.488  -4.608  0.00  0.00     0.026 H 
ATOM     41  H   LIG d   1       1.724   1.442  -4.691  0.00  0.00     0.026 H 
BRANCH  39  42
ATOM     42  C   LIG d   1       2.607  -0.191  -3.598  0.00  0.00    -0.053 C 
ATOM     43  H   LIG d   1       1.588  -0.295  -3.225  0.00  0.00     0.026 H 
ATOM     44  H   LIG d   1       2.956  -1.152  -3.976  0.00  0.00     0.026 H 
BRANCH  42  45
ATOM     45  C   LIG d   1       3.521   0.273  -2.462  0.00  0.00    -0.053 C 
ATOM     46  H   LIG d   1       4.195   1.046  -2.830  0.00  0.00     0.026 H 
ATOM     47  H   LIG d   1       2.915   0.677  -1.650  0.00  0.00     0.026 H 
BRANCH  45  48
ATOM     48  C   LIG d   1       4.338  -0.914  -1.948  0.00  0.00    -0.043 C 
ATOM     49  H   LIG d   1       5.387  -0.773  -2.206  0.00  0.00     0.027 H 
ATOM     50  H   LIG d   1       4.236  -0.983  -0.865  0.00  0.00     0.027 H 
BRANCH  48  51
ATOM     51  C   LIG d   1       3.824  -2.203  -2.592  0.00  0.00     0.045 C 
ATOM     52  H   LIG d   1       3.766  -2.988  -1.837  0.00  0.00     0.038 H 
ATOM     53  H   LIG d   1       2.835  -2.030  -3.014  0.00  0.00     0.038 H 
BRANCH  51  54
ATOM     54  C   LIG d   1       4.769  -2.629  -3.686  0.00  0.00     0.307 C 
ATOM     55  O   LIG d   1       4.539  -3.626  -4.329  0.00  0.00    -0.251 OA
BRANCH  54  56
ATOM     56  O   LIG d   1       5.866  -1.901  -3.946  0.00  0.00    -0.468 OA
BRANCH  56  57
ATOM     57  C   LIG d   1       7.118  -2.592  -3.948  0.00  0.00     0.082 C 
ATOM     58  H   LIG d   1       7.064  -3.437  -4.634  0.00  0.00     0.066 H 
ATOM     59  H   LIG d   1       7.907  -1.912  -4.271  0.00  0.00     0.066 H 
ATOM     60  H   LIG d   1       7.336  -2.952  -2.944  0.00  0.00     0.066 H 
ENDBRANCH  56  57
ENDBRANCH  54  56
ENDBRANCH  51  54
ENDBRANCH  48  51
ENDBRANCH  45  48
ENDBRANCH  42  45
ENDBRANCH  39  42
ENDBRANCH  36  39
ENDBRANCH  33  36
ENDBRANCH   1  33
TORSDOF 20
ENDMDL
MODEL 5
REMARK VINA RESULT:      -4.8      2.191      5.647
REMARK  20 active torsions:
REMARK  status: ('A' for Active; 'I' for Inactive)
REMARK    1  A    between atoms: C_1  and  C_2 
REMARK    2  A    between atoms: C_2  and  C_3 
REMARK    3  A    between atoms: C_3  and  C_4 
REMARK    4  A    between atoms: C_4  and  C_5 
REMARK    5  A    between atoms: C_5  and  C_6 
REMARK    6  A    between atoms: C_6  and  C_7 
REMARK    7  A    between atoms: C_7  and  C_9 
REMARK    8  A    between atoms: C_7  and  O_23 
REMARK    9  A    between atoms: C_9  and  C_10 
REMARK   10  A    between atoms: C_10  and  C_11 
REMARK   11  A    between atoms: C_11  and  C_12 
REMARK   12  A    between atoms: C_12  and  C_13 
REMARK   13  A    between atoms: C_13  and  C_14 
REMARK   14  A    between atoms: C_14  and  C_15 
REMARK   15  A    between atoms: C_15  and  C_16 
REMARK   16  A    between atoms: C_16  and  C_17 
REMARK   17  A    between atoms: C_17  and  C_18 
REMARK   18  A    between atoms: C_18  and  C_19 
REMARK   19  A    between atoms: C_19  and  O_21 
REMARK   20  A    between atoms: O_21  and  C_22 
ROOT
ATOM      1  C   LIG d   1       4.642   0.403  -1.964  0.00  0.00    -0.053 C 
ATOM      2  H   LIG d   1       4.852   0.788  -0.966  0.00  0.00     0.026 H 
ATOM      3  H   LIG d   1       3.678   0.781  -2.303  0.00  0.00     0.026 H 
ENDROOT
BRANCH   1   4
ATOM      4  C   LIG d   1       5.736   0.861  -2.929  0.00  0.00    -0.051 C 
ATOM      5  H   LIG d   1       6.258   1.720  -2.506  0.00  0.00     0.027 H 
ATOM      6  H   LIG d   1       5.287   1.142  -3.882  0.00  0.00     0.027 H 
BRANCH   4   7
ATOM      7  C   LIG d   1       6.730  -0.281  -3.152  0.00  0.00    -0.027 C 
ATOM      8  H   LIG d   1       6.228  -1.235  -2.995  0.00  0.00     0.029 H 
ATOM      9  H   LIG d   1       7.557  -0.185  -2.448  0.00  0.00     0.029 H 
BRANCH   7  10
ATOM     10  C   LIG d   1       7.268  -0.217  -4.583  0.00  0.00     0.055 C 
ATOM     11  H   LIG d   1       6.900   0.686  -5.069  0.00  0.00     0.059 H 
BRANCH  10  12
ATOM     12  C   LIG d   1       6.793  -1.445  -5.361  0.00  0.00    -0.027 C 
ATOM     13  H   LIG d   1       7.400  -1.565  -6.258  0.00  0.00     0.029 H 
ATOM     14  H   LIG d   1       5.748  -1.314  -5.644  0.00  0.00     0.029 H 
BRANCH  12  15
ATOM     15  C   LIG d   1       6.930  -2.690  -4.482  0.00  0.00    -0.051 C 
ATOM     16  H   LIG d   1       7.026  -2.389  -3.439  0.00  0.00     0.027 H 
ATOM     17  H   LIG d   1       7.817  -3.250  -4.781  0.00  0.00     0.027 H 
BRANCH  15  18
ATOM     18  C   LIG d   1       5.690  -3.571  -4.648  0.00  0.00    -0.053 C 
ATOM     19  H   LIG d   1       4.999  -3.383  -3.827  0.00  0.00     0.026 H 
ATOM     20  H   LIG d   1       5.988  -4.621  -4.640  0.00  0.00     0.026 H 
BRANCH  18  21
ATOM     21  C   LIG d   1       5.006  -3.245  -5.977  0.00  0.00    -0.053 C 
ATOM     22  H   LIG d   1       5.760  -2.979  -6.718  0.00  0.00     0.026 H 
ATOM     23  H   LIG d   1       4.322  -2.407  -5.837  0.00  0.00     0.026 H 
BRANCH  21  24
ATOM     24  C   LIG d   1       4.223  -4.467  -6.461  0.00  0.00    -0.056 C 
ATOM     25  H   LIG d   1       4.464  -4.663  -7.505  0.00  0.00     0.026 H 
ATOM     26  H   LIG d   1       3.155  -4.275  -6.365  0.00  0.00     0.026 H 
BRANCH  24  27
ATOM     27  C   LIG d   1       4.601  -5.683  -5.612  0.00  0.00    -0.065 C 
ATOM     28  H   LIG d   1       5.252  -5.367  -4.796  0.00  0.00     0.023 H 
ATOM     29  H   LIG d   1       3.698  -6.135  -5.203  0.00  0.00     0.023 H 
ATOM     30  H   LIG d   1       5.124  -6.410  -6.233  0.00  0.00     0.023 H 
ENDBRANCH  24  27
ENDBRANCH  21  24
ENDBRANCH  18  21
ENDBRANCH  15  18
ENDBRANCH  12  15
ENDBRANCH  10  12
BRANCH  10  31
ATOM     31  O   LIG d   1       8.697  -0.193  -4.554  0.00  0.00    -0.392 OA
ATOM     32  H   LIG d   1       9.113  -0.675  -5.282  0.00  0.00     0.210 HD
ENDBRANCH  10  31
ENDBRANCH   7  10
ENDBRANCH   4   7
ENDBRANCH   1   4
BRANCH   1  33
ATOM     33  C   LIG d   1       4.605  -1.127  -1.923  0.00  0.00    -0.053 C 
ATOM     34  H   LIG d   1       5.506  -1.524  -2.390  0.00  0.00     0.026 H 
ATOM     35  H   LIG d   1       4.554  -1.461  -0.888  0.00  0.00     0.026 H 
BRANCH  33  36
ATOM     36  C   LIG d   1       3.374  -1.627  -2.681  0.00  0.00    -0.053 C 
ATOM     37  H   LIG d   1       3.680  -2.026  -3.649  0.00  0.00     0.026 H 
ATOM     38  H   LIG d   1       2.885  -2.412  -2.103  0.00  0.00     0.026 H 
BRANCH  36  39
ATOM     39  C   LIG d   1       2.399  -0.467  -2.893  0.00  0.00    -0.053 C 
ATOM     40  H   LIG d   1       1.546  -0.583  -2.224  0.00  0.00     0.026 H 
ATOM     41  H   LIG d   1       2.903   0.475  -2.679  0.00  0.00     0.026 H 
BRANCH  39  42
ATOM     42  C   LIG d   1       1.913  -0.468  -4.344  0.00  0.00    -0.053 C 
ATOM     43  H   LIG d   1       2.101  -1.445  -4.789  0.00  0.00     0.026 H 
ATOM     44  H   LIG d   1       0.844  -0.255  -4.369  0.00  0.00     0.026 H 
BRANCH  42  45
ATOM     45  C   LIG d   1       2.664   0.606  -5.134  0.00  0.00    -0.053 C 
ATOM     46  H   LIG d   1       1.949   1.298  -5.578  0.00  0.00     0.026 H 
ATOM     47  H   LIG d   1       3.329   1.152  -4.463  0.00  0.00     0.026 H 
BRANCH  45  48
ATOM     48  C   LIG d   1       3.487  -0.057  -6.240  0.00  0.00    -0.043 C 
ATOM     49  H   LIG d   1       4.447   0.451  -6.333  0.00  0.00     0.027 H 
ATOM     50  H   LIG d   1       3.653  -1.105  -5.991  0.00  0.00     0.027 H 
BRANCH  48  51
ATOM     51  C   LIG d   1       2.730   0.039  -7.566  0.00  0.00     0.045 C 
ATOM     52  H   LIG d   1       2.917  -0.859  -8.157  0.00  0.00     0.038 H 
ATOM     53  H   LIG d   1       1.662   0.129  -7.370  0.00  0.00     0.038 H 
BRANCH  51  54
ATOM     54  C   LIG d   1       3.205   1.249  -8.330  0.00  0.00     0.307 C 
ATOM     55  O   LIG d   1       2.433   1.866  -9.024  0.00  0.00    -0.251 OA
BRANCH  54  56
ATOM     56  O   LIG d   1       4.486   1.640  -8.237  0.00  0.00    -0.468 OA
BRANCH  56  57
ATOM     57  C   LIG d   1       5.227   1.731  -9.456  0.00  0.00     0.082 C 
ATOM     58  H   LIG d   1       5.886   0.868  -9.545  0.00  0.00     0.066 H 
ATOM     59  H   LIG d   1       4.536   1.749 -10.299  0.00  0.00     0.066 H 
ATOM     60  H   LIG d   1       5.821   2.644  -9.452  0.00  0.00     0.066 H 
ENDBRANCH  56  57
ENDBRANCH  54  56
ENDBRANCH  51  54
ENDBRANCH  48  51
ENDBRANCH  45  48
ENDBRANCH  42  45
ENDBRANCH  39  42
ENDBRANCH  36  39
ENDBRANCH  33  36
ENDBRANCH   1  33
TORSDOF 20
ENDMDL
MODEL 6
REMARK VINA RESULT:      -4.8      1.528      2.697
REMARK  20 active torsions:
REMARK  status: ('A' for Active; 'I' for Inactive)
REMARK    1  A    between atoms: C_1  and  C_2 
REMARK    2  A    between atoms: C_2  and  C_3 
REMARK    3  A    between atoms: C_3  and  C_4 
REMARK    4  A    between atoms: C_4  and  C_5 
REMARK    5  A    between atoms: C_5  and  C_6 
REMARK    6  A    between atoms: C_6  and  C_7 
REMARK    7  A    between atoms: C_7  and  C_9 
REMARK    8  A    between atoms: C_7  and  O_23 
REMARK    9  A    between atoms: C_9  and  C_10 
REMARK   10  A    between atoms: C_10  and  C_11 
REMARK   11  A    between atoms: C_11  and  C_12 
REMARK   12  A    between atoms: C_12  and  C_13 
REMARK   13  A    between atoms: C_13  and  C_14 
REMARK   14  A    between atoms: C_14  and  C_15 
REMARK   15  A    between atoms: C_15  and  C_16 
REMARK   16  A    between atoms: C_16  and  C_17 
REMARK   17  A    between atoms: C_17  and  C_18 
REMARK   18  A    between atoms: C_18  and  C_19 
REMARK   19  A    between atoms: C_19  and  O_21 
REMARK   20  A    between atoms: O_21  and  C_22 
ROOT
ATOM      1  C   LIG d   1       3.344  -0.194  -6.041  0.00  0.00    -0.053 C 
ATOM      2  H   LIG d   1       2.974  -1.210  -6.178  0.00  0.00     0.026 H 
ATOM      3  H   LIG d   1       4.409  -0.222  -5.817  0.00  0.00     0.026 H 
ENDROOT
BRANCH   1   4
ATOM      4  C   LIG d   1       3.113   0.611  -7.321  0.00  0.00    -0.051 C 
ATOM      5  H   LIG d   1       2.775   1.615  -7.064  0.00  0.00     0.027 H 
ATOM      6  H   LIG d   1       2.354   0.117  -7.929  0.00  0.00     0.027 H 
BRANCH   4   7
ATOM      7  C   LIG d   1       4.421   0.699  -8.112  0.00  0.00    -0.027 C 
ATOM      8  H   LIG d   1       4.545  -0.204  -8.709  0.00  0.00     0.029 H 
ATOM      9  H   LIG d   1       5.257   0.795  -7.419  0.00  0.00     0.029 H 
BRANCH   7  10
ATOM     10  C   LIG d   1       4.379   1.919  -9.033  0.00  0.00     0.055 C 
ATOM     11  H   LIG d   1       4.026   2.785  -8.473  0.00  0.00     0.059 H 
BRANCH  10  12
ATOM     12  C   LIG d   1       3.428   1.644 -10.200  0.00  0.00    -0.027 C 
ATOM     13  H   LIG d   1       3.164   2.585 -10.683  0.00  0.00     0.029 H 
ATOM     14  H   LIG d   1       2.525   1.161  -9.826  0.00  0.00     0.029 H 
BRANCH  12  15
ATOM     15  C   LIG d   1       4.116   0.726 -11.212  0.00  0.00    -0.051 C 
ATOM     16  H   LIG d   1       5.106   0.455 -10.843  0.00  0.00     0.027 H 
ATOM     17  H   LIG d   1       4.214   1.245 -12.166  0.00  0.00     0.027 H 
BRANCH  15  18
ATOM     18  C   LIG d   1       3.279  -0.540 -11.404  0.00  0.00    -0.053 C 
ATOM     19  H   LIG d   1       3.808  -1.393 -10.979  0.00  0.00     0.026 H 
ATOM     20  H   LIG d   1       3.114  -0.708 -12.469  0.00  0.00     0.026 H 
BRANCH  18  21
ATOM     21  C   LIG d   1       1.931  -0.372 -10.699  0.00  0.00    -0.053 C 
ATOM     22  H   LIG d   1       1.161  -0.149 -11.437  0.00  0.00     0.026 H 
ATOM     23  H   LIG d   1       1.996   0.446  -9.982  0.00  0.00     0.026 H 
BRANCH  21  24
ATOM     24  C   LIG d   1       1.575  -1.667  -9.965  0.00  0.00    -0.056 C 
ATOM     25  H   LIG d   1       0.991  -2.309 -10.624  0.00  0.00     0.026 H 
ATOM     26  H   LIG d   1       0.992  -1.432  -9.076  0.00  0.00     0.026 H 
BRANCH  24  27
ATOM     27  C   LIG d   1       2.860  -2.390  -9.556  0.00  0.00    -0.065 C 
ATOM     28  H   LIG d   1       3.504  -1.703  -9.006  0.00  0.00     0.023 H 
ATOM     29  H   LIG d   1       2.612  -3.242  -8.923  0.00  0.00     0.023 H 
ATOM     30  H   LIG d   1       3.380  -2.739 -10.448  0.00  0.00     0.023 H 
ENDBRANCH  24  27
ENDBRANCH  21  24
ENDBRANCH  18  21
ENDBRANCH  15  18
ENDBRANCH  12  15
ENDBRANCH  10  12
BRANCH  10  31
ATOM     31  O   LIG d   1       5.690   2.181  -9.537  0.00  0.00    -0.392 OA
ATOM     32  H   LIG d   1       6.366   2.269  -8.850  0.00  0.00     0.210 HD
ENDBRANCH  10  31
ENDBRANCH   7  10
ENDBRANCH   4   7
ENDBRANCH   1   4
BRANCH   1  33
ATOM     33  C   LIG d   1       2.596   0.468  -4.881  0.00  0.00    -0.053 C 
ATOM     34  H   LIG d   1       3.109   1.387  -4.596  0.00  0.00     0.026 H 
ATOM     35  H   LIG d   1       1.578   0.701  -5.191  0.00  0.00     0.026 H 
BRANCH  33  36
ATOM     36  C   LIG d   1       2.559  -0.487  -3.687  0.00  0.00    -0.053 C 
ATOM     37  H   LIG d   1       1.532  -0.593  -3.337  0.00  0.00     0.026 H 
ATOM     38  H   LIG d   1       2.941  -1.463  -3.990  0.00  0.00     0.026 H 
BRANCH  36  39
ATOM     39  C   LIG d   1       3.428   0.073  -2.559  0.00  0.00    -0.053 C 
ATOM     40  H   LIG d   1       4.094   0.837  -2.959  0.00  0.00     0.026 H 
ATOM     41  H   LIG d   1       2.790   0.512  -1.793  0.00  0.00     0.026 H 
BRANCH  39  42
ATOM     42  C   LIG d   1       4.258  -1.057  -1.945  0.00  0.00    -0.053 C 
ATOM     43  H   LIG d   1       4.967  -0.639  -1.231  0.00  0.00     0.026 H 
ATOM     44  H   LIG d   1       3.597  -1.758  -1.435  0.00  0.00     0.026 H 
BRANCH  42  45
ATOM     45  C   LIG d   1       5.019  -1.789  -3.053  0.00  0.00    -0.053 C 
ATOM     46  H   LIG d   1       5.059  -2.854  -2.824  0.00  0.00     0.026 H 
ATOM     47  H   LIG d   1       4.507  -1.641  -4.004  0.00  0.00     0.026 H 
BRANCH  45  48
ATOM     48  C   LIG d   1       6.441  -1.234  -3.147  0.00  0.00    -0.043 C 
ATOM     49  H   LIG d   1       6.631  -0.574  -2.300  0.00  0.00     0.027 H 
ATOM     50  H   LIG d   1       7.155  -2.057  -3.134  0.00  0.00     0.027 H 
BRANCH  48  51
ATOM     51  C   LIG d   1       6.596  -0.446  -4.449  0.00  0.00     0.045 C 
ATOM     52  H   LIG d   1       7.411  -0.870  -5.036  0.00  0.00     0.038 H 
ATOM     53  H   LIG d   1       5.670  -0.501  -5.020  0.00  0.00     0.038 H 
BRANCH  51  54
ATOM     54  C   LIG d   1       6.904   0.995  -4.131  0.00  0.00     0.307 C 
ATOM     55  O   LIG d   1       6.587   1.458  -3.061  0.00  0.00    -0.251 OA
BRANCH  54  56
ATOM     56  O   LIG d   1       7.530   1.763  -5.036  0.00  0.00    -0.468 OA
BRANCH  56  57
ATOM     57  C   LIG d   1       8.549   2.640  -4.549  0.00  0.00     0.082 C 
ATOM     58  H   LIG d   1       8.262   3.673  -4.746  0.00  0.00     0.066 H 
ATOM     59  H   LIG d   1       8.671   2.494  -3.476  0.00  0.00     0.066 H 
ATOM     60  H   LIG d   1       9.489   2.421  -5.056  0.00  0.00     0.066 H 
ENDBRANCH  56  57
ENDBRANCH  54  56
ENDBRANCH  51  54
ENDBRANCH  48  51
ENDBRANCH  45  48
ENDBRANCH  42  45
ENDBRANCH  39  42
ENDBRANCH  36  39
ENDBRANCH  33  36
ENDBRANCH   1  33
TORSDOF 20
ENDMDL
MODEL 7
REMARK VINA RESULT:      -4.7      2.094      7.177
REMARK  20 active torsions:
REMARK  status: ('A' for Active; 'I' for Inactive)
REMARK    1  A    between atoms: C_1  and  C_2 
REMARK    2  A    between atoms: C_2  and  C_3 
REMARK    3  A    between atoms: C_3  and  C_4 
REMARK    4  A    between atoms: C_4  and  C_5 
REMARK    5  A    between atoms: C_5  and  C_6 
REMARK    6  A    between atoms: C_6  and  C_7 
REMARK    7  A    between atoms: C_7  and  C_9 
REMARK    8  A    between atoms: C_7  and  O_23 
REMARK    9  A    between atoms: C_9  and  C_10 
REMARK   10  A    between atoms: C_10  and  C_11 
REMARK   11  A    between atoms: C_11  and  C_12 
REMARK   12  A    between atoms: C_12  and  C_13 
REMARK   13  A    between atoms: C_13  and  C_14 
REMARK   14  A    between atoms: C_14  and  C_15 
REMARK   15  A    between atoms: C_15  and  C_16 
REMARK   16  A    between atoms: C_16  and  C_17 
REMARK   17  A    between atoms: C_17  and  C_18 
REMARK   18  A    between atoms: C_18  and  C_19 
REMARK   19  A    between atoms: C_19  and  O_21 
REMARK   20  A    between atoms: O_21  and  C_22 
ROOT
ATOM      1  C   LIG d   1       3.049   0.296  -6.925  0.00  0.00    -0.053 C 
ATOM      2  H   LIG d   1       2.367  -0.472  -6.559  0.00  0.00     0.026 H 
ATOM      3  H   LIG d   1       3.036   1.148  -6.247  0.00  0.00     0.026 H 
ENDROOT
BRANCH   1   4
ATOM      4  C   LIG d   1       4.466  -0.274  -7.000  0.00  0.00    -0.051 C 
ATOM      5  H   LIG d   1       5.189   0.523  -6.827  0.00  0.00     0.027 H 
ATOM      6  H   LIG d   1       4.633  -0.707  -7.987  0.00  0.00     0.027 H 
BRANCH   4   7
ATOM      7  C   LIG d   1       4.638  -1.359  -5.934  0.00  0.00    -0.027 C 
ATOM      8  H   LIG d   1       4.697  -2.335  -6.415  0.00  0.00     0.029 H 
ATOM      9  H   LIG d   1       3.784  -1.339  -5.257  0.00  0.00     0.029 H 
BRANCH   7  10
ATOM     10  C   LIG d   1       5.921  -1.100  -5.144  0.00  0.00     0.055 C 
ATOM     11  H   LIG d   1       6.780  -1.430  -5.728  0.00  0.00     0.059 H 
BRANCH  10  12
ATOM     12  C   LIG d   1       5.874  -1.876  -3.826  0.00  0.00    -0.027 C 
ATOM     13  H   LIG d   1       6.192  -1.226  -3.010  0.00  0.00     0.029 H 
ATOM     14  H   LIG d   1       6.540  -2.737  -3.887  0.00  0.00     0.029 H 
BRANCH  12  15
ATOM     15  C   LIG d   1       4.443  -2.355  -3.568  0.00  0.00    -0.051 C 
ATOM     16  H   LIG d   1       4.448  -3.429  -3.381  0.00  0.00     0.027 H 
ATOM     17  H   LIG d   1       3.825  -2.141  -4.441  0.00  0.00     0.027 H 
BRANCH  15  18
ATOM     18  C   LIG d   1       3.873  -1.627  -2.349  0.00  0.00    -0.053 C 
ATOM     19  H   LIG d   1       4.677  -1.112  -1.824  0.00  0.00     0.026 H 
ATOM     20  H   LIG d   1       3.407  -2.351  -1.680  0.00  0.00     0.026 H 
BRANCH  18  21
ATOM     21  C   LIG d   1       2.828  -0.608  -2.806  0.00  0.00    -0.053 C 
ATOM     22  H   LIG d   1       1.942  -0.687  -2.175  0.00  0.00     0.026 H 
ATOM     23  H   LIG d   1       2.555  -0.807  -3.843  0.00  0.00     0.026 H 
BRANCH  21  24
ATOM     24  C   LIG d   1       3.409   0.803  -2.695  0.00  0.00    -0.056 C 
ATOM     25  H   LIG d   1       2.630   1.494  -2.375  0.00  0.00     0.026 H 
ATOM     26  H   LIG d   1       3.794   1.115  -3.666  0.00  0.00     0.026 H 
BRANCH  24  27
ATOM     27  C   LIG d   1       4.547   0.806  -1.672  0.00  0.00    -0.065 C 
ATOM     28  H   LIG d   1       4.411  -0.022  -0.976  0.00  0.00     0.023 H 
ATOM     29  H   LIG d   1       5.500   0.696  -2.188  0.00  0.00     0.023 H 
ATOM     30  H   LIG d   1       4.537   1.747  -1.122  0.00  0.00     0.023 H 
ENDBRANCH  24  27
ENDBRANCH  21  24
ENDBRANCH  18  21
ENDBRANCH  15  18
ENDBRANCH  12  15
ENDBRANCH  10  12
BRANCH  10  31
ATOM     31  O   LIG d   1       6.039   0.298  -4.871  0.00  0.00    -0.392 OA
ATOM     32  H   LIG d   1       5.365   0.841  -5.303  0.00  0.00     0.210 HD
ENDBRANCH  10  31
ENDBRANCH   7  10
ENDBRANCH   4   7
ENDBRANCH   1   4
BRANCH   1  33
ATOM     33  C   LIG d   1       2.607   0.747  -8.320  0.00  0.00    -0.053 C 
ATOM     34  H   LIG d   1       2.954   0.027  -9.061  0.00  0.00     0.026 H 
ATOM     35  H   LIG d   1       1.520   0.809  -8.354  0.00  0.00     0.026 H 
BRANCH  33  36
ATOM     36  C   LIG d   1       3.205   2.121  -8.624  0.00  0.00    -0.053 C 
ATOM     37  H   LIG d   1       2.402   2.844  -8.770  0.00  0.00     0.026 H 
ATOM     38  H   LIG d   1       3.831   2.438  -7.789  0.00  0.00     0.026 H 
BRANCH  36  39
ATOM     39  C   LIG d   1       4.053   2.038  -9.895  0.00  0.00    -0.053 C 
ATOM     40  H   LIG d   1       4.012   2.991 -10.422  0.00  0.00     0.026 H 
ATOM     41  H   LIG d   1       5.085   1.814  -9.629  0.00  0.00     0.026 H 
BRANCH  39  42
ATOM     42  C   LIG d   1       3.508   0.931 -10.800  0.00  0.00    -0.053 C 
ATOM     43  H   LIG d   1       2.818   0.305 -10.234  0.00  0.00     0.026 H 
ATOM     44  H   LIG d   1       2.983   1.379 -11.645  0.00  0.00     0.026 H 
BRANCH  42  45
ATOM     45  C   LIG d   1       4.667   0.076 -11.315  0.00  0.00    -0.053 C 
ATOM     46  H   LIG d   1       4.529  -0.124 -12.377  0.00  0.00     0.026 H 
ATOM     47  H   LIG d   1       5.607   0.610 -11.166  0.00  0.00     0.026 H 
BRANCH  45  48
ATOM     48  C   LIG d   1       4.705  -1.247 -10.548  0.00  0.00    -0.043 C 
ATOM     49  H   LIG d   1       5.716  -1.655 -10.575  0.00  0.00     0.027 H 
ATOM     50  H   LIG d   1       4.411  -1.075  -9.513  0.00  0.00     0.027 H 
BRANCH  48  51
ATOM     51  C   LIG d   1       3.738  -2.240 -11.195  0.00  0.00     0.045 C 
ATOM     52  H   LIG d   1       3.146  -1.728 -11.955  0.00  0.00     0.038 H 
ATOM     53  H   LIG d   1       4.302  -3.048 -11.658  0.00  0.00     0.038 H 
BRANCH  51  54
ATOM     54  C   LIG d   1       2.820  -2.806 -10.143  0.00  0.00     0.307 C 
ATOM     55  O   LIG d   1       1.864  -2.169  -9.768  0.00  0.00    -0.251 OA
BRANCH  54  56
ATOM     56  O   LIG d   1       3.064  -4.019  -9.622  0.00  0.00    -0.468 OA
BRANCH  56  57
ATOM     57  C   LIG d   1       3.672  -4.060  -8.329  0.00  0.00     0.082 C 
ATOM     58  H   LIG d   1       3.982  -5.081  -8.106  0.00  0.00     0.066 H 
ATOM     59  H   LIG d   1       4.544  -3.405  -8.317  0.00  0.00     0.066 H 
ATOM     60  H   LIG d   1       2.955  -3.726  -7.580  0.00  0.00     0.066 H 
ENDBRANCH  56  57
ENDBRANCH  54  56
ENDBRANCH  51  54
ENDBRANCH  48  51
ENDBRANCH  45  48
ENDBRANCH  42  45
ENDBRANCH  39  42
ENDBRANCH  36  39
ENDBRANCH  33  36
ENDBRANCH   1  33
TORSDOF 20
ENDMDL
MODEL 8
REMARK VINA RESULT:      -4.7      1.676      5.544
REMARK  20 active torsions:
REMARK  status: ('A' for Active; 'I' for Inactive)
REMARK    1  A    between atoms: C_1  and  C_2 
REMARK    2  A    between atoms: C_2  and  C_3 
REMARK    3  A    between atoms: C_3  and  C_4 
REMARK    4  A    between atoms: C_4  and  C_5 
REMARK    5  A    between atoms: C_5  and  C_6 
REMARK    6  A    between atoms: C_6  and  C_7 
REMARK    7  A    between atoms: C_7  and  C_9 
REMARK    8  A    between atoms: C_7  and  O_23 
REMARK    9  A    between atoms: C_9  and  C_10 
REMARK   10  A    between atoms: C_10  and  C_11 
REMARK   11  A    between atoms: C_11  and  C_12 
REMARK   12  A    between atoms: C_12  and  C_13 
REMARK   13  A    between atoms: C_13  and  C_14 
REMARK   14  A    between atoms: C_14  and  C_15 
REMARK   15  A    between atoms: C_15  and  C_16 
REMARK   16  A    between atoms: C_16  and  C_17 
REMARK   17  A    between atoms: C_17  and  C_18 
REMARK   18  A    between atoms: C_18  and  C_19 
REMARK   19  A    between atoms: C_19  and  O_21 
REMARK   20  A    between atoms: O_21  and  C_22 
ROOT
ATOM      1  C   LIG d   1       4.202  -0.345  -6.350  0.00  0.00    -0.053 C 
ATOM      2  H   LIG d   1       4.099  -0.873  -5.402  0.00  0.00     0.026 H 
ATOM      3  H   LIG d   1       4.982   0.411  -6.263  0.00  0.00     0.026 H 
ENDROOT
BRANCH   1   4
ATOM      4  C   LIG d   1       4.577  -1.339  -7.450  0.00  0.00    -0.051 C 
ATOM      5  H   LIG d   1       5.269  -0.867  -8.147  0.00  0.00     0.027 H 
ATOM      6  H   LIG d   1       3.677  -1.647  -7.984  0.00  0.00     0.027 H 
BRANCH   4   7
ATOM      7  C   LIG d   1       5.241  -2.567  -6.823  0.00  0.00    -0.027 C 
ATOM      8  H   LIG d   1       6.210  -2.285  -6.412  0.00  0.00     0.029 H 
ATOM      9  H   LIG d   1       5.380  -3.333  -7.587  0.00  0.00     0.029 H 
BRANCH   7  10
ATOM     10  C   LIG d   1       4.352  -3.115  -5.706  0.00  0.00     0.055 C 
ATOM     11  H   LIG d   1       3.517  -2.435  -5.541  0.00  0.00     0.059 H 
BRANCH  10  12
ATOM     12  C   LIG d   1       5.170  -3.241  -4.419  0.00  0.00    -0.027 C 
ATOM     13  H   LIG d   1       6.126  -2.734  -4.545  0.00  0.00     0.029 H 
ATOM     14  H   LIG d   1       5.342  -4.295  -4.200  0.00  0.00     0.029 H 
BRANCH  12  15
ATOM     15  C   LIG d   1       4.401  -2.599  -3.262  0.00  0.00    -0.051 C 
ATOM     16  H   LIG d   1       4.270  -3.330  -2.464  0.00  0.00     0.027 H 
ATOM     17  H   LIG d   1       3.424  -2.267  -3.615  0.00  0.00     0.027 H 
BRANCH  15  18
ATOM     18  C   LIG d   1       5.186  -1.398  -2.731  0.00  0.00    -0.053 C 
ATOM     19  H   LIG d   1       5.460  -0.747  -3.561  0.00  0.00     0.026 H 
ATOM     20  H   LIG d   1       6.090  -1.749  -2.231  0.00  0.00     0.026 H 
BRANCH  18  21
ATOM     21  C   LIG d   1       4.320  -0.622  -1.737  0.00  0.00    -0.053 C 
ATOM     22  H   LIG d   1       4.527  -0.970  -0.725  0.00  0.00     0.026 H 
ATOM     23  H   LIG d   1       3.268  -0.783  -1.969  0.00  0.00     0.026 H 
BRANCH  21  24
ATOM     24  C   LIG d   1       4.642   0.871  -1.839  0.00  0.00    -0.056 C 
ATOM     25  H   LIG d   1       5.662   0.999  -2.198  0.00  0.00     0.026 H 
ATOM     26  H   LIG d   1       4.543   1.331  -0.857  0.00  0.00     0.026 H 
BRANCH  24  27
ATOM     27  C   LIG d   1       3.669   1.536  -2.814  0.00  0.00    -0.065 C 
ATOM     28  H   LIG d   1       2.826   0.868  -2.998  0.00  0.00     0.023 H 
ATOM     29  H   LIG d   1       3.306   2.470  -2.386  0.00  0.00     0.023 H 
ATOM     30  H   LIG d   1       4.181   1.741  -3.754  0.00  0.00     0.023 H 
ENDBRANCH  24  27
ENDBRANCH  21  24
ENDBRANCH  18  21
ENDBRANCH  15  18
ENDBRANCH  12  15
ENDBRANCH  10  12
BRANCH  10  31
ATOM     31  O   LIG d   1       3.853  -4.401  -6.082  0.00  0.00    -0.392 OA
ATOM     32  H   LIG d   1       4.491  -5.119  -5.970  0.00  0.00     0.210 HD
ENDBRANCH  10  31
ENDBRANCH   7  10
ENDBRANCH   4   7
ENDBRANCH   1   4
BRANCH   1  33
ATOM     33  C   LIG d   1       2.875   0.331  -6.704  0.00  0.00    -0.053 C 
ATOM     34  H   LIG d   1       2.048  -0.314  -6.404  0.00  0.00     0.026 H 
ATOM     35  H   LIG d   1       2.801   1.283  -6.180  0.00  0.00     0.026 H 
BRANCH  33  36
ATOM     36  C   LIG d   1       2.812   0.573  -8.213  0.00  0.00    -0.053 C 
ATOM     37  H   LIG d   1       3.672   0.103  -8.692  0.00  0.00     0.026 H 
ATOM     38  H   LIG d   1       1.894   0.141  -8.613  0.00  0.00     0.026 H 
BRANCH  36  39
ATOM     39  C   LIG d   1       2.831   2.077  -8.489  0.00  0.00    -0.053 C 
ATOM     40  H   LIG d   1       1.810   2.436  -8.616  0.00  0.00     0.026 H 
ATOM     41  H   LIG d   1       3.297   2.595  -7.652  0.00  0.00     0.026 H 
BRANCH  39  42
ATOM     42  C   LIG d   1       3.629   2.350  -9.766  0.00  0.00    -0.053 C 
ATOM     43  H   LIG d   1       3.008   2.134 -10.636  0.00  0.00     0.026 H 
ATOM     44  H   LIG d   1       3.933   3.397  -9.787  0.00  0.00     0.026 H 
BRANCH  42  45
ATOM     45  C   LIG d   1       4.872   1.458  -9.792  0.00  0.00    -0.053 C 
ATOM     46  H   LIG d   1       4.644   0.503  -9.320  0.00  0.00     0.026 H 
ATOM     47  H   LIG d   1       5.176   1.289 -10.826  0.00  0.00     0.026 H 
BRANCH  45  48
ATOM     48  C   LIG d   1       6.008   2.145  -9.033  0.00  0.00    -0.043 C 
ATOM     49  H   LIG d   1       6.515   2.848  -9.694  0.00  0.00     0.027 H 
ATOM     50  H   LIG d   1       5.601   2.681  -8.175  0.00  0.00     0.027 H 
BRANCH  48  51
ATOM     51  C   LIG d   1       7.007   1.092  -8.549  0.00  0.00     0.045 C 
ATOM     52  H   LIG d   1       6.471   0.187  -8.260  0.00  0.00     0.038 H 
ATOM     53  H   LIG d   1       7.708   0.859  -9.350  0.00  0.00     0.038 H 
BRANCH  51  54
ATOM     54  C   LIG d   1       7.764   1.627  -7.359  0.00  0.00     0.307 C 
ATOM     55  O   LIG d   1       8.778   2.263  -7.525  0.00  0.00    -0.251 OA
BRANCH  54  56
ATOM     56  O   LIG d   1       7.310   1.397  -6.117  0.00  0.00    -0.468 OA
BRANCH  56  57
ATOM     57  C   LIG d   1       8.176   1.749  -5.035  0.00  0.00     0.082 C 
ATOM     58  H   LIG d   1       7.801   1.306  -4.112  0.00  0.00     0.066 H 
ATOM     59  H   LIG d   1       9.179   1.373  -5.236  0.00  0.00     0.066 H 
ATOM     60  H   LIG d   1       8.206   2.833  -4.932  0.00  0.00     0.066 H 
ENDBRANCH  56  57
ENDBRANCH  54  56
ENDBRANCH  51  54
ENDBRANCH  48  51
ENDBRANCH  45  48
ENDBRANCH  42  45
ENDBRANCH  39  42
ENDBRANCH  36  39
ENDBRANCH  33  36
ENDBRANCH   1  33
TORSDOF 20
ENDMDL
MODEL 9
REMARK VINA RESULT:      -4.7      1.912      4.062
REMARK  20 active torsions:
REMARK  status: ('A' for Active; 'I' for Inactive)
REMARK    1  A    between atoms: C_1  and  C_2 
REMARK    2  A    between atoms: C_2  and  C_3 
REMARK    3  A    between atoms: C_3  and  C_4 
REMARK    4  A    between atoms: C_4  and  C_5 
REMARK    5  A    between atoms: C_5  and  C_6 
REMARK    6  A    between atoms: C_6  and  C_7 
REMARK    7  A    between atoms: C_7  and  C_9 
REMARK    8  A    between atoms: C_7  and  O_23 
REMARK    9  A    between atoms: C_9  and  C_10 
REMARK   10  A    between atoms: C_10  and  C_11 
REMARK   11  A    between atoms: C_11  and  C_12 
REMARK   12  A    between atoms: C_12  and  C_13 
REMARK   13  A    between atoms: C_13  and  C_14 
REMARK   14  A    between atoms: C_14  and  C_15 
REMARK   15  A    between atoms: C_15  and  C_16 
REMARK   16  A    between atoms: C_16  and  C_17 
REMARK   17  A    between atoms: C_17  and  C_18 
REMARK   18  A    between atoms: C_18  and  C_19 
REMARK   19  A    between atoms: C_19  and  O_21 
REMARK   20  A    between atoms: O_21  and  C_22 
ROOT
ATOM      1  C   LIG d   1       2.617   1.302  -9.349  0.00  0.00    -0.053 C 
ATOM      2  H   LIG d   1       1.811   1.990  -9.603  0.00  0.00     0.026 H 
ATOM      3  H   LIG d   1       2.327   0.286  -9.616  0.00  0.00     0.026 H 
ENDROOT
BRANCH   1   4
ATOM      4  C   LIG d   1       3.881   1.689 -10.119  0.00  0.00    -0.051 C 
ATOM      5  H   LIG d   1       3.612   2.322 -10.964  0.00  0.00     0.027 H 
ATOM      6  H   LIG d   1       4.376   0.788 -10.483  0.00  0.00     0.027 H 
BRANCH   4   7
ATOM      7  C   LIG d   1       4.830   2.452  -9.192  0.00  0.00    -0.027 C 
ATOM      8  H   LIG d   1       4.386   2.527  -8.199  0.00  0.00     0.029 H 
ATOM      9  H   LIG d   1       5.000   3.452  -9.591  0.00  0.00     0.029 H 
BRANCH   7  10
ATOM     10  C   LIG d   1       6.162   1.706  -9.100  0.00  0.00     0.055 C 
ATOM     11  H   LIG d   1       6.932   2.271  -9.625  0.00  0.00     0.059 H 
BRANCH  10  12
ATOM     12  C   LIG d   1       6.018   0.324  -9.741  0.00  0.00    -0.027 C 
ATOM     13  H   LIG d   1       6.763   0.209 -10.528  0.00  0.00     0.029 H 
ATOM     14  H   LIG d   1       5.019   0.224 -10.167  0.00  0.00     0.029 H 
BRANCH  12  15
ATOM     15  C   LIG d   1       6.228  -0.755  -8.677  0.00  0.00    -0.051 C 
ATOM     16  H   LIG d   1       5.878  -0.388  -7.712  0.00  0.00     0.027 H 
ATOM     17  H   LIG d   1       7.289  -0.998  -8.609  0.00  0.00     0.027 H 
BRANCH  15  18
ATOM     18  C   LIG d   1       5.441  -2.010  -9.061  0.00  0.00    -0.053 C 
ATOM     19  H   LIG d   1       4.676  -2.204  -8.309  0.00  0.00     0.026 H 
ATOM     20  H   LIG d   1       6.121  -2.862  -9.115  0.00  0.00     0.026 H 
BRANCH  18  21
ATOM     21  C   LIG d   1       4.778  -1.800 -10.423  0.00  0.00    -0.053 C 
ATOM     22  H   LIG d   1       5.283  -2.409 -11.172  0.00  0.00     0.026 H 
ATOM     23  H   LIG d   1       4.848  -0.748 -10.702  0.00  0.00     0.026 H 
BRANCH  21  24
ATOM     24  C   LIG d   1       3.305  -2.207 -10.341  0.00  0.00    -0.056 C 
ATOM     25  H   LIG d   1       3.011  -2.695 -11.270  0.00  0.00     0.026 H 
ATOM     26  H   LIG d   1       2.691  -1.321 -10.186  0.00  0.00     0.026 H 
BRANCH  24  27
ATOM     27  C   LIG d   1       3.109  -3.175  -9.172  0.00  0.00    -0.065 C 
ATOM     28  H   LIG d   1       3.897  -3.018  -8.435  0.00  0.00     0.023 H 
ATOM     29  H   LIG d   1       2.138  -2.996  -8.711  0.00  0.00     0.023 H 
ATOM     30  H   LIG d   1       3.154  -4.201  -9.539  0.00  0.00     0.023 H 
ENDBRANCH  24  27
ENDBRANCH  21  24
ENDBRANCH  18  21
ENDBRANCH  15  18
ENDBRANCH  12  15
ENDBRANCH  10  12
BRANCH  10  31
ATOM     31  O   LIG d   1       6.532   1.559  -7.727  0.00  0.00    -0.392 OA
ATOM     32  H   LIG d   1       6.430   0.659  -7.386  0.00  0.00     0.210 HD
ENDBRANCH  10  31
ENDBRANCH   7  10
ENDBRANCH   4   7
ENDBRANCH   1   4
BRANCH   1  33
ATOM     33  C   LIG d   1       2.894   1.375  -7.845  0.00  0.00    -0.053 C 
ATOM     34  H   LIG d   1       3.891   1.783  -7.679  0.00  0.00     0.026 H 
ATOM     35  H   LIG d   1       2.154   2.019  -7.371  0.00  0.00     0.026 H 
BRANCH  33  36
ATOM     36  C   LIG d   1       2.809  -0.028  -7.243  0.00  0.00    -0.053 C 
ATOM     37  H   LIG d   1       1.763  -0.321  -7.148  0.00  0.00     0.026 H 
ATOM     38  H   LIG d   1       3.326  -0.735  -7.893  0.00  0.00     0.026 H 
BRANCH  36  39
ATOM     39  C   LIG d   1       3.467  -0.031  -5.862  0.00  0.00    -0.053 C 
ATOM     40  H   LIG d   1       3.801  -1.040  -5.621  0.00  0.00     0.026 H 
ATOM     41  H   LIG d   1       4.323   0.643  -5.866  0.00  0.00     0.026 H 
BRANCH  39  42
ATOM     42  C   LIG d   1       2.455   0.436  -4.813  0.00  0.00    -0.053 C 
ATOM     43  H   LIG d   1       2.440   1.525  -4.783  0.00  0.00     0.026 H 
ATOM     44  H   LIG d   1       1.464   0.064  -5.075  0.00  0.00     0.026 H 
BRANCH  42  45
ATOM     45  C   LIG d   1       2.856  -0.107  -3.440  0.00  0.00    -0.053 C 
ATOM     46  H   LIG d   1       1.988  -0.557  -2.959  0.00  0.00     0.026 H 
ATOM     47  H   LIG d   1       3.635  -0.862  -3.562  0.00  0.00     0.026 H 
BRANCH  45  48
ATOM     48  C   LIG d   1       3.385   1.037  -2.574  0.00  0.00    -0.043 C 
ATOM     49  H   LIG d   1       3.644   1.884  -3.209  0.00  0.00     0.027 H 
ATOM     50  H   LIG d   1       2.617   1.339  -1.862  0.00  0.00     0.027 H 
BRANCH  48  51
ATOM     51  C   LIG d   1       4.629   0.570  -1.816  0.00  0.00     0.045 C 
ATOM     52  H   LIG d   1       4.842   1.266  -1.004  0.00  0.00     0.038 H 
ATOM     53  H   LIG d   1       4.454  -0.424  -1.405  0.00  0.00     0.038 H 
BRANCH  51  54
ATOM     54  C   LIG d   1       5.804   0.524  -2.758  0.00  0.00     0.307 C 
ATOM     55  O   LIG d   1       6.327  -0.533  -3.020  0.00  0.00    -0.251 OA
BRANCH  54  56
ATOM     56  O   LIG d   1       6.269   1.657  -3.307  0.00  0.00    -0.468 OA
BRANCH  56  57
ATOM     57  C   LIG d   1       7.593   1.623  -3.845  0.00  0.00     0.082 C 
ATOM     58  H   LIG d   1       7.548   1.739  -4.928  0.00  0.00     0.066 H 
ATOM     59  H   LIG d   1       8.180   2.436  -3.416  0.00  0.00     0.066 H 
ATOM     60  H   LIG d   1       8.059   0.669  -3.601  0.00  0.00     0.066 H 
ENDBRANCH  56  57
ENDBRANCH  54  56
ENDBRANCH  51  54
ENDBRANCH  48  51
ENDBRANCH  45  48
ENDBRANCH  42  45
ENDBRANCH  39  42
ENDBRANCH  36  39
ENDBRANCH  33  36
ENDBRANCH   1  33
TORSDOF 20
ENDMDL
