MODEL 1
REMARK VINA RESULT:      -5.2      0.000      0.000
REMARK  6 active torsions:
REMARK  status: ('A' for Active; 'I' for Inactive)
REMARK    1  A    between atoms: C_1  and  C_2 
REMARK    2  A    between atoms: C_2  and  C_4 
REMARK    3  A    between atoms: C_2  and  O_20 
REMARK    4  A    between atoms: C_4  and  C_6 
REMARK    5  A    between atoms: C_4  and  O_19 
REMARK    6  A    between atoms: C_16  and  N_18 
ROOT
ATOM      1  C   LIG d   1       4.016  -0.681  -5.653  0.00  0.00     0.091 A 
ATOM      2  C   LIG d   1       4.663  -1.710  -6.331  0.00  0.00     0.054 A 
ATOM      3  N   LIG d   1       4.833  -1.654  -7.636  0.00  0.00    -0.232 NA
ATOM      4  C   LIG d   1       4.383  -0.598  -8.315  0.00  0.00     0.187 A 
ATOM      5  C   LIG d   1       3.727   0.445  -7.621  0.00  0.00     0.172 A 
ATOM      6  N   LIG d   1       3.564   0.370  -6.307  0.00  0.00    -0.239 NA
ATOM      7  C   LIG d   1       3.240   1.597  -8.399  0.00  0.00     0.280 A 
ATOM      8  O   LIG d   1       2.669   2.527  -7.861  0.00  0.00    -0.265 OA
ATOM      9  N   LIG d   1       3.454   1.583  -9.735  0.00  0.00    -0.293 N 
ATOM     10  H   LIG d   1       3.108   2.422 -10.356  0.00  0.00     0.172 HD
ATOM     11  C   LIG d   1       4.096   0.532 -10.322  0.00  0.00     0.195 A 
ATOM     12  N   LIG d   1       4.533  -0.504  -9.649  0.00  0.00    -0.195 NA
ATOM     13  H   LIG d   1       5.026  -2.566  -5.780  0.00  0.00     0.085 H 
ENDROOT
BRANCH   1  14
ATOM     14  C   LIG d   1       3.831  -0.769  -4.160  0.00  0.00     0.124 C 
ATOM     15  H   LIG d   1       4.357  -1.647  -3.759  0.00  0.00     0.069 H 
BRANCH  14  16
ATOM     16  C   LIG d   1       4.316   0.528  -3.509  0.00  0.00     0.084 C 
ATOM     17  H   LIG d   1       3.664   1.374  -3.772  0.00  0.00     0.062 H 
BRANCH  16  18
ATOM     18  C   LIG d   1       4.395   0.339  -1.993  0.00  0.00    -0.036 C 
ATOM     19  H   LIG d   1       5.012  -0.543  -1.765  0.00  0.00     0.025 H 
ATOM     20  H   LIG d   1       3.383   0.193  -1.588  0.00  0.00     0.025 H 
ATOM     21  H   LIG d   1       4.848   1.231  -1.535  0.00  0.00     0.025 H 
ENDBRANCH  16  18
BRANCH  16  22
ATOM     22  O   LIG d   1       5.610   0.860  -4.015  0.00  0.00    -0.389 OA
ATOM     23  H   LIG d   1       5.832   0.730  -5.085  0.00  0.00     0.210 HD
ENDBRANCH  16  22
ENDBRANCH  14  16
BRANCH  14  24
ATOM     24  O   LIG d   1       2.447  -0.963  -3.862  0.00  0.00    -0.383 OA
ATOM     25  H   LIG d   1       2.105  -0.970  -2.817  0.00  0.00     0.210 HD
ENDBRANCH  14  24
ENDBRANCH   1  14
BRANCH  11  26
ATOM     26  N   LIG d   1       4.291   0.560 -11.678  0.00  0.00    -0.329 N 
ATOM     27  H   LIG d   1       4.351  -0.381 -12.244  0.00  0.00     0.145 HD
ATOM     28  H   LIG d   1       4.386   1.523 -12.200  0.00  0.00     0.145 HD
ENDBRANCH  11  26
TORSDOF 6
ENDMDL
MODEL 2
REMARK VINA RESULT:      -5.0      1.547      1.604
REMARK  6 active torsions:
REMARK  status: ('A' for Active; 'I' for Inactive)
REMARK    1  A    between atoms: C_1  and  C_2 
REMARK    2  A    between atoms: C_2  and  C_4 
REMARK    3  A    between atoms: C_2  and  O_20 
REMARK    4  A    between atoms: C_4  and  C_6 
REMARK    5  A    between atoms: C_4  and  O_19 
REMARK    6  A    between atoms: C_16  and  N_18 
ROOT
ATOM      1  C   LIG d   1       4.715  -0.530  -5.232  0.00  0.00     0.091 A 
ATOM      2  C   LIG d   1       4.857  -1.858  -5.624  0.00  0.00     0.054 A 
ATOM      3  N   LIG d   1       4.410  -2.265  -6.795  0.00  0.00    -0.232 NA
ATOM      4  C   LIG d   1       3.817  -1.396  -7.614  0.00  0.00     0.187 A 
ATOM      5  C   LIG d   1       3.675  -0.048  -7.210  0.00  0.00     0.172 A 
ATOM      6  N   LIG d   1       4.130   0.343  -6.027  0.00  0.00    -0.239 NA
ATOM      7  C   LIG d   1       3.014   0.888  -8.136  0.00  0.00     0.280 A 
ATOM      8  O   LIG d   1       2.863   2.060  -7.848  0.00  0.00    -0.265 OA
ATOM      9  N   LIG d   1       2.584   0.394  -9.319  0.00  0.00    -0.293 N 
ATOM     10  H   LIG d   1       2.084   1.057 -10.042  0.00  0.00     0.172 HD
ATOM     11  C   LIG d   1       2.762  -0.923  -9.626  0.00  0.00     0.195 A 
ATOM     12  N   LIG d   1       3.342  -1.773  -8.815  0.00  0.00    -0.195 NA
ATOM     13  H   LIG d   1       5.337  -2.562  -4.960  0.00  0.00     0.085 H 
ENDROOT
BRANCH   1  14
ATOM     14  C   LIG d   1       5.232  -0.088  -3.887  0.00  0.00     0.124 C 
ATOM     15  H   LIG d   1       6.062   0.623  -4.011  0.00  0.00     0.069 H 
BRANCH  14  16
ATOM     16  C   LIG d   1       4.086   0.516  -3.074  0.00  0.00     0.084 C 
ATOM     17  H   LIG d   1       3.191  -0.122  -3.111  0.00  0.00     0.062 H 
BRANCH  16  18
ATOM     18  C   LIG d   1       4.548   0.742  -1.633  0.00  0.00    -0.036 C 
ATOM     19  H   LIG d   1       4.786  -0.227  -1.167  0.00  0.00     0.025 H 
ATOM     20  H   LIG d   1       3.747   1.235  -1.063  0.00  0.00     0.025 H 
ATOM     21  H   LIG d   1       5.445   1.379  -1.630  0.00  0.00     0.025 H 
ENDBRANCH  16  18
BRANCH  16  22
ATOM     22  O   LIG d   1       3.699   1.766  -3.650  0.00  0.00    -0.389 OA
ATOM     23  H   LIG d   1       3.232   1.789  -4.646  0.00  0.00     0.210 HD
ENDBRANCH  16  22
ENDBRANCH  14  16
BRANCH  14  24
ATOM     24  O   LIG d   1       5.770  -1.213  -3.190  0.00  0.00    -0.383 OA
ATOM     25  H   LIG d   1       5.942  -1.158  -2.105  0.00  0.00     0.210 HD
ENDBRANCH  14  24
ENDBRANCH   1  14
BRANCH  11  26
ATOM     26  N   LIG d   1       2.309  -1.379 -10.836  0.00  0.00    -0.329 N 
ATOM     27  H   LIG d   1       1.844  -2.373 -10.910  0.00  0.00     0.145 HD
ATOM     28  H   LIG d   1       2.410  -0.751 -11.734  0.00  0.00     0.145 HD
ENDBRANCH  11  26
TORSDOF 6
ENDMDL
MODEL 3
REMARK VINA RESULT:      -5.0      3.700      5.916
REMARK  6 active torsions:
REMARK  status: ('A' for Active; 'I' for Inactive)
REMARK    1  A    between atoms: C_1  and  C_2 
REMARK    2  A    between atoms: C_2  and  C_4 
REMARK    3  A    between atoms: C_2  and  O_20 
REMARK    4  A    between atoms: C_4  and  C_6 
REMARK    5  A    between atoms: C_4  and  O_19 
REMARK    6  A    between atoms: C_16  and  N_18 
ROOT
ATOM      1  C   LIG d   1       4.591  -3.635  -5.998  0.00  0.00     0.091 A 
ATOM      2  C   LIG d   1       5.127  -2.646  -6.818  0.00  0.00     0.054 A 
ATOM      3  N   LIG d   1       5.309  -1.422  -6.364  0.00  0.00    -0.232 NA
ATOM      4  C   LIG d   1       4.977  -1.128  -5.107  0.00  0.00     0.187 A 
ATOM      5  C   LIG d   1       4.434  -2.137  -4.279  0.00  0.00     0.172 A 
ATOM      6  N   LIG d   1       4.257  -3.363  -4.753  0.00  0.00    -0.239 NA
ATOM      7  C   LIG d   1       4.077  -1.782  -2.894  0.00  0.00     0.280 A 
ATOM      8  O   LIG d   1       3.606  -2.604  -2.132  0.00  0.00    -0.265 OA
ATOM      9  N   LIG d   1       4.294  -0.505  -2.503  0.00  0.00    -0.293 N 
ATOM     10  H   LIG d   1       4.042  -0.194  -1.478  0.00  0.00     0.172 HD
ATOM     11  C   LIG d   1       4.823   0.405  -3.371  0.00  0.00     0.195 A 
ATOM     12  N   LIG d   1       5.142   0.111  -4.607  0.00  0.00    -0.195 NA
ATOM     13  H   LIG d   1       5.394  -2.884  -7.837  0.00  0.00     0.085 H 
ENDROOT
BRANCH   1  14
ATOM     14  C   LIG d   1       4.391  -5.027  -6.539  0.00  0.00     0.124 C 
ATOM     15  H   LIG d   1       4.812  -5.109  -7.552  0.00  0.00     0.069 H 
BRANCH  14  16
ATOM     16  C   LIG d   1       5.018  -6.042  -5.581  0.00  0.00     0.084 C 
ATOM     17  H   LIG d   1       4.564  -5.979  -4.581  0.00  0.00     0.062 H 
BRANCH  16  18
ATOM     18  C   LIG d   1       4.880  -7.448  -6.166  0.00  0.00    -0.036 C 
ATOM     19  H   LIG d   1       5.547  -8.138  -5.626  0.00  0.00     0.025 H 
ATOM     20  H   LIG d   1       5.155  -7.432  -7.231  0.00  0.00     0.025 H 
ATOM     21  H   LIG d   1       3.839  -7.788  -6.062  0.00  0.00     0.025 H 
ENDBRANCH  16  18
BRANCH  16  22
ATOM     22  O   LIG d   1       6.402  -5.735  -5.402  0.00  0.00    -0.389 OA
ATOM     23  H   LIG d   1       6.852  -4.888  -5.941  0.00  0.00     0.210 HD
ENDBRANCH  16  22
ENDBRANCH  14  16
BRANCH  14  24
ATOM     24  O   LIG d   1       2.992  -5.292  -6.665  0.00  0.00    -0.383 OA
ATOM     25  H   LIG d   1       2.259  -4.583  -6.255  0.00  0.00     0.210 HD
ENDBRANCH  14  24
ENDBRANCH   1  14
BRANCH  11  26
ATOM     26  N   LIG d   1       5.025   1.687  -2.931  0.00  0.00    -0.329 N 
ATOM     27  H   LIG d   1       5.814   1.897  -2.193  0.00  0.00     0.145 HD
ATOM     28  H   LIG d   1       4.400   2.506  -3.316  0.00  0.00     0.145 HD
ENDBRANCH  11  26
TORSDOF 6
ENDMDL
MODEL 4
REMARK VINA RESULT:      -4.8     10.911     12.799
REMARK  6 active torsions:
REMARK  status: ('A' for Active; 'I' for Inactive)
REMARK    1  A    between atoms: C_1  and  C_2 
REMARK    2  A    between atoms: C_2  and  C_4 
REMARK    3  A    between atoms: C_2  and  O_20 
REMARK    4  A    between atoms: C_4  and  C_6 
REMARK    5  A    between atoms: C_4  and  O_19 
REMARK    6  A    between atoms: C_16  and  N_18 
ROOT
ATOM      1  C   LIG d   1       9.495  10.341  -2.074  0.00  0.00     0.091 A 
ATOM      2  C   LIG d   1       9.861  10.637  -0.764  0.00  0.00     0.054 A 
ATOM      3  N   LIG d   1      10.235   9.681   0.062  0.00  0.00    -0.232 NA
ATOM      4  C   LIG d   1      10.266   8.417  -0.362  0.00  0.00     0.187 A 
ATOM      5  C   LIG d   1       9.894   8.123  -1.694  0.00  0.00     0.172 A 
ATOM      6  N   LIG d   1       9.519   9.098  -2.511  0.00  0.00    -0.239 NA
ATOM      7  C   LIG d   1       9.938   6.718  -2.133  0.00  0.00     0.280 A 
ATOM      8  O   LIG d   1       9.631   6.400  -3.266  0.00  0.00    -0.265 OA
ATOM      9  N   LIG d   1      10.334   5.794  -1.227  0.00  0.00    -0.293 N 
ATOM     10  H   LIG d   1      10.381   4.731  -1.510  0.00  0.00     0.172 HD
ATOM     11  C   LIG d   1      10.674   6.168   0.039  0.00  0.00     0.195 A 
ATOM     12  N   LIG d   1      10.638   7.411   0.451  0.00  0.00    -0.195 NA
ATOM     13  H   LIG d   1       9.835  11.661  -0.421  0.00  0.00     0.085 H 
ENDROOT
BRANCH   1  14
ATOM     14  C   LIG d   1       9.069  11.452  -3.000  0.00  0.00     0.124 C 
ATOM     15  H   LIG d   1       9.426  12.422  -2.626  0.00  0.00     0.069 H 
BRANCH  14  16
ATOM     16  C   LIG d   1       9.584  11.165  -4.411  0.00  0.00     0.084 C 
ATOM     17  H   LIG d   1       9.025  10.342  -4.881  0.00  0.00     0.062 H 
BRANCH  16  18
ATOM     18  C   LIG d   1       9.506  12.440  -5.252  0.00  0.00    -0.036 C 
ATOM     19  H   LIG d   1       8.865  13.177  -4.743  0.00  0.00     0.025 H 
ATOM     20  H   LIG d   1       9.080  12.204  -6.238  0.00  0.00     0.025 H 
ATOM     21  H   LIG d   1      10.515  12.858  -5.380  0.00  0.00     0.025 H 
ENDBRANCH  16  18
BRANCH  16  22
ATOM     22  O   LIG d   1      10.942  10.724  -4.342  0.00  0.00    -0.389 OA
ATOM     23  H   LIG d   1      11.543  10.934  -3.445  0.00  0.00     0.210 HD
ENDBRANCH  16  22
ENDBRANCH  14  16
BRANCH  14  24
ATOM     24  O   LIG d   1       7.642  11.532  -3.021  0.00  0.00    -0.383 OA
ATOM     25  H   LIG d   1       7.078  11.548  -2.077  0.00  0.00     0.210 HD
ENDBRANCH  14  24
ENDBRANCH   1  14
BRANCH  11  26
ATOM     26  N   LIG d   1      11.069   5.198   0.924  0.00  0.00    -0.329 N 
ATOM     27  H   LIG d   1      11.751   4.400   0.596  0.00  0.00     0.145 HD
ATOM     28  H   LIG d   1      10.705   5.219   1.961  0.00  0.00     0.145 HD
ENDBRANCH  11  26
TORSDOF 6
ENDMDL
MODEL 5
REMARK VINA RESULT:      -4.7     11.085     13.008
REMARK  6 active torsions:
REMARK  status: ('A' for Active; 'I' for Inactive)
REMARK    1  A    between atoms: C_1  and  C_2 
REMARK    2  A    between atoms: C_2  and  C_4 
REMARK    3  A    between atoms: C_2  and  O_20 
REMARK    4  A    between atoms: C_4  and  C_6 
REMARK    5  A    between atoms: C_4  and  O_19 
REMARK    6  A    between atoms: C_16  and  N_18 
ROOT
ATOM      1  C   LIG d   1      10.242   9.454  -0.374  0.00  0.00     0.091 A 
ATOM      2  C   LIG d   1       9.975   9.273  -1.727  0.00  0.00     0.054 A 
ATOM      3  N   LIG d   1      10.095   8.084  -2.283  0.00  0.00    -0.232 NA
ATOM      4  C   LIG d   1      10.476   7.044  -1.541  0.00  0.00     0.187 A 
ATOM      5  C   LIG d   1      10.746   7.235  -0.166  0.00  0.00     0.172 A 
ATOM      6  N   LIG d   1      10.620   8.438   0.376  0.00  0.00    -0.239 NA
ATOM      7  C   LIG d   1      11.165   6.066   0.627  0.00  0.00     0.280 A 
ATOM      8  O   LIG d   1      11.410   6.164   1.815  0.00  0.00    -0.265 OA
ATOM      9  N   LIG d   1      11.265   4.880  -0.015  0.00  0.00    -0.293 N 
ATOM     10  H   LIG d   1      11.574   3.980   0.538  0.00  0.00     0.172 HD
ATOM     11  C   LIG d   1      10.985   4.788  -1.347  0.00  0.00     0.195 A 
ATOM     12  N   LIG d   1      10.616   5.815  -2.071  0.00  0.00    -0.195 NA
ATOM     13  H   LIG d   1       9.667  10.116  -2.328  0.00  0.00     0.085 H 
ENDROOT
BRANCH   1  14
ATOM     14  C   LIG d   1      10.099  10.824   0.240  0.00  0.00     0.124 C 
ATOM     15  H   LIG d   1       9.339  10.810   1.034  0.00  0.00     0.069 H 
BRANCH  14  16
ATOM     16  C   LIG d   1      11.458  11.292   0.763  0.00  0.00     0.084 C 
ATOM     17  H   LIG d   1      12.282  10.769   0.256  0.00  0.00     0.062 H 
BRANCH  16  18
ATOM     18  C   LIG d   1      11.574  12.808   0.594  0.00  0.00    -0.036 C 
ATOM     19  H   LIG d   1      10.754  13.303   1.136  0.00  0.00     0.025 H 
ATOM     20  H   LIG d   1      11.514  13.064  -0.474  0.00  0.00     0.025 H 
ATOM     21  H   LIG d   1      12.538  13.150   0.998  0.00  0.00     0.025 H 
ENDBRANCH  16  18
BRANCH  16  22
ATOM     22  O   LIG d   1      11.576  10.958   2.148  0.00  0.00    -0.389 OA
ATOM     23  H   LIG d   1      10.747  11.175   2.838  0.00  0.00     0.210 HD
ENDBRANCH  16  22
ENDBRANCH  14  16
BRANCH  14  24
ATOM     24  O   LIG d   1       9.626  11.741  -0.749  0.00  0.00    -0.383 OA
ATOM     25  H   LIG d   1       9.792  12.821  -0.621  0.00  0.00     0.210 HD
ENDBRANCH  14  24
ENDBRANCH   1  14
BRANCH  11  26
ATOM     26  N   LIG d   1      11.100   3.566  -1.956  0.00  0.00    -0.329 N 
ATOM     27  H   LIG d   1      11.611   3.481  -2.926  0.00  0.00     0.145 HD
ATOM     28  H   LIG d   1      10.682   2.669  -1.474  0.00  0.00     0.145 HD
ENDBRANCH  11  26
TORSDOF 6
ENDMDL
MODEL 6
REMARK VINA RESULT:      -4.7     10.138     11.722
REMARK  6 active torsions:
REMARK  status: ('A' for Active; 'I' for Inactive)
REMARK    1  A    between atoms: C_1  and  C_2 
REMARK    2  A    between atoms: C_2  and  C_4 
REMARK    3  A    between atoms: C_2  and  O_20 
REMARK    4  A    between atoms: C_4  and  C_6 
REMARK    5  A    between atoms: C_4  and  O_19 
REMARK    6  A    between atoms: C_16  and  N_18 
ROOT
ATOM      1  C   LIG d   1       9.995   9.128  -3.798  0.00  0.00     0.091 A 
ATOM      2  C   LIG d   1      10.256   8.329  -4.906  0.00  0.00     0.054 A 
ATOM      3  N   LIG d   1      10.494   7.040  -4.766  0.00  0.00    -0.232 NA
ATOM      4  C   LIG d   1      10.482   6.496  -3.549  0.00  0.00     0.187 A 
ATOM      5  C   LIG d   1      10.216   7.313  -2.426  0.00  0.00     0.172 A 
ATOM      6  N   LIG d   1       9.980   8.608  -2.587  0.00  0.00    -0.239 NA
ATOM      7  C   LIG d   1      10.212   6.683  -1.095  0.00  0.00     0.280 A 
ATOM      8  O   LIG d   1       9.989   7.331  -0.090  0.00  0.00    -0.265 OA
ATOM      9  N   LIG d   1      10.463   5.355  -1.032  0.00  0.00    -0.293 N 
ATOM     10  H   LIG d   1      10.470   4.842  -0.059  0.00  0.00     0.172 HD
ATOM     11  C   LIG d   1      10.711   4.644  -2.169  0.00  0.00     0.195 A 
ATOM     12  N   LIG d   1      10.725   5.186  -3.362  0.00  0.00    -0.195 NA
ATOM     13  H   LIG d   1      10.266   8.770  -5.892  0.00  0.00     0.085 H 
ENDROOT
BRANCH   1  14
ATOM     14  C   LIG d   1       9.728  10.600  -3.983  0.00  0.00     0.124 C 
ATOM     15  H   LIG d   1       9.139  10.771  -4.895  0.00  0.00     0.069 H 
BRANCH  14  16
ATOM     16  C   LIG d   1       9.022  11.150  -2.742  0.00  0.00     0.084 C 
ATOM     17  H   LIG d   1       8.926  10.379  -1.963  0.00  0.00     0.062 H 
BRANCH  16  18
ATOM     18  C   LIG d   1       9.782  12.372  -2.223  0.00  0.00    -0.036 C 
ATOM     19  H   LIG d   1      10.562  12.046  -1.517  0.00  0.00     0.025 H 
ATOM     20  H   LIG d   1       9.083  13.048  -1.710  0.00  0.00     0.025 H 
ATOM     21  H   LIG d   1      10.249  12.899  -3.067  0.00  0.00     0.025 H 
ENDBRANCH  16  18
BRANCH  16  22
ATOM     22  O   LIG d   1       7.687  11.530  -3.082  0.00  0.00    -0.389 OA
ATOM     23  H   LIG d   1       7.424  11.731  -4.131  0.00  0.00     0.210 HD
ENDBRANCH  16  22
ENDBRANCH  14  16
BRANCH  14  24
ATOM     24  O   LIG d   1      10.966  11.289  -4.171  0.00  0.00    -0.383 OA
ATOM     25  H   LIG d   1      11.780  10.811  -4.736  0.00  0.00     0.210 HD
ENDBRANCH  14  24
ENDBRANCH   1  14
BRANCH  11  26
ATOM     26  N   LIG d   1      10.962   3.301  -2.058  0.00  0.00    -0.329 N 
ATOM     27  H   LIG d   1      10.340   2.579  -2.608  0.00  0.00     0.145 HD
ATOM     28  H   LIG d   1      11.785   2.946  -1.421  0.00  0.00     0.145 HD
ENDBRANCH  11  26
TORSDOF 6
ENDMDL
MODEL 7
REMARK VINA RESULT:      -4.6      2.586      5.408
REMARK  6 active torsions:
REMARK  status: ('A' for Active; 'I' for Inactive)
REMARK    1  A    between atoms: C_1  and  C_2 
REMARK    2  A    between atoms: C_2  and  C_4 
REMARK    3  A    between atoms: C_2  and  O_20 
REMARK    4  A    between atoms: C_4  and  C_6 
REMARK    5  A    between atoms: C_4  and  O_19 
REMARK    6  A    between atoms: C_16  and  N_18 
ROOT
ATOM      1  C   LIG d   1       3.964  -0.580  -6.776  0.00  0.00     0.091 A 
ATOM      2  C   LIG d   1       4.322  -1.873  -7.148  0.00  0.00     0.054 A 
ATOM      3  N   LIG d   1       5.254  -2.529  -6.488  0.00  0.00    -0.232 NA
ATOM      4  C   LIG d   1       5.860  -1.950  -5.451  0.00  0.00     0.187 A 
ATOM      5  C   LIG d   1       5.492  -0.637  -5.077  0.00  0.00     0.172 A 
ATOM      6  N   LIG d   1       4.552   0.009  -5.754  0.00  0.00    -0.239 NA
ATOM      7  C   LIG d   1       6.180  -0.024  -3.928  0.00  0.00     0.280 A 
ATOM      8  O   LIG d   1       5.908   1.102  -3.556  0.00  0.00    -0.265 OA
ATOM      9  N   LIG d   1       7.125  -0.761  -3.301  0.00  0.00    -0.293 N 
ATOM     10  H   LIG d   1       7.665  -0.344  -2.438  0.00  0.00     0.172 HD
ATOM     11  C   LIG d   1       7.417  -2.022  -3.731  0.00  0.00     0.195 A 
ATOM     12  N   LIG d   1       6.821  -2.584  -4.754  0.00  0.00    -0.195 NA
ATOM     13  H   LIG d   1       3.831  -2.341  -7.988  0.00  0.00     0.085 H 
ENDROOT
BRANCH   1  14
ATOM     14  C   LIG d   1       2.895   0.152  -7.547  0.00  0.00     0.124 C 
ATOM     15  H   LIG d   1       2.164   0.598  -6.859  0.00  0.00     0.069 H 
BRANCH  14  16
ATOM     16  C   LIG d   1       3.547   1.206  -8.444  0.00  0.00     0.084 C 
ATOM     17  H   LIG d   1       4.629   1.276  -8.258  0.00  0.00     0.062 H 
BRANCH  16  18
ATOM     18  C   LIG d   1       3.256   0.878  -9.910  0.00  0.00    -0.036 C 
ATOM     19  H   LIG d   1       2.395   0.195  -9.970  0.00  0.00     0.025 H 
ATOM     20  H   LIG d   1       4.137   0.397 -10.360  0.00  0.00     0.025 H 
ATOM     21  H   LIG d   1       3.026   1.805 -10.455  0.00  0.00     0.025 H 
ENDBRANCH  16  18
BRANCH  16  22
ATOM     22  O   LIG d   1       3.013   2.494  -8.131  0.00  0.00    -0.389 OA
ATOM     23  H   LIG d   1       1.937   2.609  -7.929  0.00  0.00     0.210 HD
ENDBRANCH  16  22
ENDBRANCH  14  16
BRANCH  14  24
ATOM     24  O   LIG d   1       2.169  -0.778  -8.354  0.00  0.00    -0.383 OA
ATOM     25  H   LIG d   1       1.185  -1.140  -8.024  0.00  0.00     0.210 HD
ENDBRANCH  14  24
ENDBRANCH   1  14
BRANCH  11  26
ATOM     26  N   LIG d   1       8.382  -2.733  -3.066  0.00  0.00    -0.329 N 
ATOM     27  H   LIG d   1       9.238  -3.148  -3.618  0.00  0.00     0.145 HD
ATOM     28  H   LIG d   1       8.300  -2.887  -1.980  0.00  0.00     0.145 HD
ENDBRANCH  11  26
TORSDOF 6
ENDMDL
MODEL 8
REMARK VINA RESULT:      -4.6     10.071     11.929
REMARK  6 active torsions:
REMARK  status: ('A' for Active; 'I' for Inactive)
REMARK    1  A    between atoms: C_1  and  C_2 
REMARK    2  A    between atoms: C_2  and  C_4 
REMARK    3  A    between atoms: C_2  and  O_20 
REMARK    4  A    between atoms: C_4  and  C_6 
REMARK    5  A    between atoms: C_4  and  O_19 
REMARK    6  A    between atoms: C_16  and  N_18 
ROOT
ATOM      1  C   LIG d   1      10.219   8.277  -3.356  0.00  0.00     0.091 A 
ATOM      2  C   LIG d   1       9.882   9.086  -2.274  0.00  0.00     0.054 A 
ATOM      3  N   LIG d   1       9.961   8.628  -1.041  0.00  0.00    -0.232 NA
ATOM      4  C   LIG d   1      10.369   7.377  -0.827  0.00  0.00     0.187 A 
ATOM      5  C   LIG d   1      10.709   6.559  -1.930  0.00  0.00     0.172 A 
ATOM      6  N   LIG d   1      10.623   7.038  -3.164  0.00  0.00    -0.239 NA
ATOM      7  C   LIG d   1      11.155   5.182  -1.661  0.00  0.00     0.280 A 
ATOM      8  O   LIG d   1      11.463   4.429  -2.566  0.00  0.00    -0.265 OA
ATOM      9  N   LIG d   1      11.210   4.785  -0.369  0.00  0.00    -0.293 N 
ATOM     10  H   LIG d   1      11.537   3.764  -0.120  0.00  0.00     0.172 HD
ATOM     11  C   LIG d   1      10.861   5.642   0.634  0.00  0.00     0.195 A 
ATOM     12  N   LIG d   1      10.458   6.869   0.416  0.00  0.00    -0.195 NA
ATOM     13  H   LIG d   1       9.552  10.099  -2.449  0.00  0.00     0.085 H 
ENDROOT
BRANCH   1  14
ATOM     14  C   LIG d   1      10.119   8.822  -4.757  0.00  0.00     0.124 C 
ATOM     15  H   LIG d   1      11.057   9.319  -5.043  0.00  0.00     0.069 H 
BRANCH  14  16
ATOM     16  C   LIG d   1       9.762   7.689  -5.721  0.00  0.00     0.084 C 
ATOM     17  H   LIG d   1       9.048   6.988  -5.265  0.00  0.00     0.062 H 
BRANCH  16  18
ATOM     18  C   LIG d   1       9.208   8.280  -7.019  0.00  0.00    -0.036 C 
ATOM     19  H   LIG d   1       8.389   7.645  -7.392  0.00  0.00     0.025 H 
ATOM     20  H   LIG d   1      10.008   8.326  -7.772  0.00  0.00     0.025 H 
ATOM     21  H   LIG d   1       8.826   9.294  -6.827  0.00  0.00     0.025 H 
ENDBRANCH  16  18
BRANCH  16  22
ATOM     22  O   LIG d   1      10.933   6.922  -6.009  0.00  0.00    -0.389 OA
ATOM     23  H   LIG d   1      11.321   6.878  -7.038  0.00  0.00     0.210 HD
ENDBRANCH  16  22
ENDBRANCH  14  16
BRANCH  14  24
ATOM     24  O   LIG d   1       9.104   9.827  -4.806  0.00  0.00    -0.383 OA
ATOM     25  H   LIG d   1       9.260  10.792  -4.301  0.00  0.00     0.210 HD
ENDBRANCH  14  24
ENDBRANCH   1  14
BRANCH  11  26
ATOM     26  N   LIG d   1      10.933   5.197   1.928  0.00  0.00    -0.329 N 
ATOM     27  H   LIG d   1      11.838   5.383   2.524  0.00  0.00     0.145 HD
ATOM     28  H   LIG d   1      10.084   4.655   2.371  0.00  0.00     0.145 HD
ENDBRANCH  11  26
TORSDOF 6
ENDMDL
MODEL 9
REMARK VINA RESULT:      -4.5     11.366     12.988
REMARK  6 active torsions:
REMARK  status: ('A' for Active; 'I' for Inactive)
REMARK    1  A    between atoms: C_1  and  C_2 
REMARK    2  A    between atoms: C_2  and  C_4 
REMARK    3  A    between atoms: C_2  and  O_20 
REMARK    4  A    between atoms: C_4  and  C_6 
REMARK    5  A    between atoms: C_4  and  O_19 
REMARK    6  A    between atoms: C_16  and  N_18 
ROOT
ATOM      1  C   LIG d   1      10.531  10.867  -2.423  0.00  0.00     0.091 A 
ATOM      2  C   LIG d   1      11.861  10.624  -2.753  0.00  0.00     0.054 A 
ATOM      3  N   LIG d   1      12.393   9.432  -2.573  0.00  0.00    -0.232 NA
ATOM      4  C   LIG d   1      11.648   8.446  -2.072  0.00  0.00     0.187 A 
ATOM      5  C   LIG d   1      10.297   8.699  -1.739  0.00  0.00     0.172 A 
ATOM      6  N   LIG d   1       9.780   9.905  -1.926  0.00  0.00    -0.239 NA
ATOM      7  C   LIG d   1       9.500   7.590  -1.186  0.00  0.00     0.280 A 
ATOM      8  O   LIG d   1       8.332   7.742  -0.880  0.00  0.00    -0.265 OA
ATOM      9  N   LIG d   1      10.116   6.395  -1.031  0.00  0.00    -0.293 N 
ATOM     10  H   LIG d   1       9.560   5.539  -0.622  0.00  0.00     0.172 HD
ATOM     11  C   LIG d   1      11.426   6.242  -1.379  0.00  0.00     0.195 A 
ATOM     12  N   LIG d   1      12.154   7.216  -1.868  0.00  0.00    -0.195 NA
ATOM     13  H   LIG d   1      12.464  11.423  -3.159  0.00  0.00     0.085 H 
ENDROOT
BRANCH   1  14
ATOM     14  C   LIG d   1       9.946  12.239  -2.636  0.00  0.00     0.124 C 
ATOM     15  H   LIG d   1      10.721  12.937  -2.984  0.00  0.00     0.069 H 
BRANCH  14  16
ATOM     16  C   LIG d   1       8.780  12.149  -3.623  0.00  0.00     0.084 C 
ATOM     17  H   LIG d   1       8.408  13.148  -3.894  0.00  0.00     0.062 H 
BRANCH  16  18
ATOM     18  C   LIG d   1       9.221  11.367  -4.862  0.00  0.00    -0.036 C 
ATOM     19  H   LIG d   1       8.361  11.227  -5.534  0.00  0.00     0.025 H 
ATOM     20  H   LIG d   1       9.611  10.385  -4.557  0.00  0.00     0.025 H 
ATOM     21  H   LIG d   1      10.009  11.926  -5.388  0.00  0.00     0.025 H 
ENDBRANCH  16  18
BRANCH  16  22
ATOM     22  O   LIG d   1       7.681  11.478  -3.003  0.00  0.00    -0.389 OA
ATOM     23  H   LIG d   1       7.506  11.595  -1.923  0.00  0.00     0.210 HD
ENDBRANCH  16  22
ENDBRANCH  14  16
BRANCH  14  24
ATOM     24  O   LIG d   1       9.475  12.755  -1.389  0.00  0.00    -0.383 OA
ATOM     25  H   LIG d   1       9.726  13.782  -1.089  0.00  0.00     0.210 HD
ENDBRANCH  14  24
ENDBRANCH   1  14
BRANCH  11  26
ATOM     26  N   LIG d   1      12.009   5.015  -1.206  0.00  0.00    -0.329 N 
ATOM     27  H   LIG d   1      12.082   4.578  -0.199  0.00  0.00     0.145 HD
ATOM     28  H   LIG d   1      12.404   4.465  -2.074  0.00  0.00     0.145 HD
ENDBRANCH  11  26
TORSDOF 6
ENDMDL
