MODEL 1
REMARK VINA RESULT:      -6.7      0.000      0.000
REMARK  4 active torsions:
REMARK  status: ('A' for Active; 'I' for Inactive)
REMARK    1  A    between atoms: C_4  and  C_7 
REMARK    2  A    between atoms: N_9  and  S_10 
REMARK    3  A    between atoms: S_10  and  C_13 
REMARK    4  A    between atoms: C_16  and  N_19 
ROOT
ATOM      1  S   LIG d   1       9.366   2.580  -4.357  0.00  0.00     0.098 S 
ATOM      2  O   LIG d   1      10.463   1.905  -3.758  0.00  0.00    -0.146 OA
ATOM      3  O   LIG d   1       9.123   2.546  -5.756  0.00  0.00    -0.146 OA
ENDROOT
BRANCH   1   4
ATOM      4  N   LIG d   1       7.998   2.001  -3.625  0.00  0.00    -0.144 NA
ATOM      5  C   LIG d   1       7.590   0.792  -3.872  0.00  0.00     0.018 C 
ATOM      6  O   LIG d   1       8.285   0.006  -4.726  0.00  0.00    -0.859 OA
BRANCH   5   7
ATOM      7  C   LIG d   1       6.368   0.274  -3.218  0.00  0.00    -0.013 A 
ATOM      8  C   LIG d   1       6.110  -1.097  -3.200  0.00  0.00    -0.054 A 
ATOM      9  C   LIG d   1       4.969  -1.573  -2.588  0.00  0.00    -0.061 A 
ATOM     10  H   LIG d   1       6.803  -1.784  -3.664  0.00  0.00     0.062 H 
ATOM     11  C   LIG d   1       4.081  -0.694  -1.993  0.00  0.00    -0.062 A 
ATOM     12  H   LIG d   1       4.768  -2.635  -2.574  0.00  0.00     0.062 H 
ATOM     13  C   LIG d   1       4.332   0.666  -2.007  0.00  0.00    -0.061 A 
ATOM     14  H   LIG d   1       3.188  -1.072  -1.519  0.00  0.00     0.062 H 
ATOM     15  C   LIG d   1       5.470   1.154  -2.616  0.00  0.00    -0.054 A 
ATOM     16  H   LIG d   1       3.636   1.347  -1.541  0.00  0.00     0.062 H 
ATOM     17  H   LIG d   1       5.664   2.217  -2.627  0.00  0.00     0.062 H 
ENDBRANCH   5   7
ENDBRANCH   1   4
BRANCH   1  18
ATOM     18  C   LIG d   1       9.515   4.279  -3.912  0.00  0.00     0.113 A 
ATOM     19  C   LIG d   1       9.220   5.262  -4.839  0.00  0.00    -0.033 A 
ATOM     20  C   LIG d   1       9.331   6.595  -4.492  0.00  0.00    -0.039 A 
ATOM     21  H   LIG d   1       8.899   4.988  -5.834  0.00  0.00     0.064 H 
ATOM     22  C   LIG d   1       9.749   6.946  -3.215  0.00  0.00     0.025 A 
ATOM     23  H   LIG d   1       9.096   7.363  -5.215  0.00  0.00     0.064 H 
ATOM     24  C   LIG d   1      10.050   5.955  -2.289  0.00  0.00    -0.039 A 
ATOM     25  C   LIG d   1       9.931   4.625  -2.640  0.00  0.00    -0.033 A 
ATOM     26  H   LIG d   1      10.375   6.225  -1.295  0.00  0.00     0.064 H 
ATOM     27  H   LIG d   1      10.164   3.854  -1.920  0.00  0.00     0.064 H 
BRANCH  22  28
ATOM     28  N   LIG d   1       9.867   8.292  -2.863  0.00  0.00    -0.358 N 
ATOM     29  H   LIG d   1       9.181   8.714  -2.322  0.00  0.00     0.142 HD
ATOM     30  H   LIG d   1      10.635   8.806  -3.159  0.00  0.00     0.142 HD
ENDBRANCH  22  28
ENDBRANCH   1  18
TORSDOF 4
ENDMDL
MODEL 2
REMARK VINA RESULT:      -6.5      5.806      8.519
REMARK  4 active torsions:
REMARK  status: ('A' for Active; 'I' for Inactive)
REMARK    1  A    between atoms: C_4  and  C_7 
REMARK    2  A    between atoms: N_9  and  S_10 
REMARK    3  A    between atoms: S_10  and  C_13 
REMARK    4  A    between atoms: C_16  and  N_19 
ROOT
ATOM      1  S   LIG d   1       4.561   0.432  -8.142  0.00  0.00     0.098 S 
ATOM      2  O   LIG d   1       3.973   1.723  -8.051  0.00  0.00    -0.146 OA
ATOM      3  O   LIG d   1       5.789   0.201  -8.819  0.00  0.00    -0.146 OA
ENDROOT
BRANCH   1   4
ATOM      4  N   LIG d   1       4.768  -0.104  -6.589  0.00  0.00    -0.144 NA
ATOM      5  C   LIG d   1       3.838   0.095  -5.703  0.00  0.00     0.018 C 
ATOM      6  O   LIG d   1       2.701   0.740  -6.050  0.00  0.00    -0.859 OA
BRANCH   5   7
ATOM      7  C   LIG d   1       4.023  -0.384  -4.315  0.00  0.00    -0.013 A 
ATOM      8  C   LIG d   1       4.300   0.523  -3.292  0.00  0.00    -0.054 A 
ATOM      9  C   LIG d   1       4.471   0.070  -2.000  0.00  0.00    -0.061 A 
ATOM     10  H   LIG d   1       4.379   1.578  -3.511  0.00  0.00     0.062 H 
ATOM     11  C   LIG d   1       4.369  -1.281  -1.718  0.00  0.00    -0.062 A 
ATOM     12  H   LIG d   1       4.685   0.772  -1.207  0.00  0.00     0.062 H 
ATOM     13  C   LIG d   1       4.094  -2.185  -2.728  0.00  0.00    -0.061 A 
ATOM     14  H   LIG d   1       4.507  -1.630  -0.706  0.00  0.00     0.062 H 
ATOM     15  C   LIG d   1       3.921  -1.743  -4.024  0.00  0.00    -0.054 A 
ATOM     16  H   LIG d   1       4.015  -3.238  -2.503  0.00  0.00     0.062 H 
ATOM     17  H   LIG d   1       3.707  -2.451  -4.812  0.00  0.00     0.062 H 
ENDBRANCH   5   7
ENDBRANCH   1   4
BRANCH   1  18
ATOM     18  C   LIG d   1       3.364  -0.615  -8.900  0.00  0.00     0.113 A 
ATOM     19  C   LIG d   1       3.551  -1.985  -8.904  0.00  0.00    -0.033 A 
ATOM     20  C   LIG d   1       2.611  -2.810  -9.492  0.00  0.00    -0.039 A 
ATOM     21  H   LIG d   1       4.430  -2.412  -8.443  0.00  0.00     0.064 H 
ATOM     22  C   LIG d   1       1.484  -2.260 -10.089  0.00  0.00     0.025 A 
ATOM     23  H   LIG d   1       2.755  -3.880  -9.491  0.00  0.00     0.064 H 
ATOM     24  C   LIG d   1       1.303  -0.883 -10.088  0.00  0.00    -0.039 A 
ATOM     25  C   LIG d   1       2.243  -0.065  -9.493  0.00  0.00    -0.033 A 
ATOM     26  H   LIG d   1       0.427  -0.452 -10.551  0.00  0.00     0.064 H 
ATOM     27  H   LIG d   1       2.102   1.006  -9.492  0.00  0.00     0.064 H 
BRANCH  22  28
ATOM     28  N   LIG d   1       0.535  -3.090 -10.689  0.00  0.00    -0.358 N 
ATOM     29  H   LIG d   1      -0.301  -2.719 -11.011  0.00  0.00     0.142 HD
ATOM     30  H   LIG d   1       0.712  -4.040 -10.784  0.00  0.00     0.142 HD
ENDBRANCH  22  28
ENDBRANCH   1  18
TORSDOF 4
ENDMDL
MODEL 3
REMARK VINA RESULT:      -6.1      4.885      8.289
REMARK  4 active torsions:
REMARK  status: ('A' for Active; 'I' for Inactive)
REMARK    1  A    between atoms: C_4  and  C_7 
REMARK    2  A    between atoms: N_9  and  S_10 
REMARK    3  A    between atoms: S_10  and  C_13 
REMARK    4  A    between atoms: C_16  and  N_19 
ROOT
ATOM      1  S   LIG d   1       8.747  -3.519  -4.458  0.00  0.00     0.098 S 
ATOM      2  O   LIG d   1       8.103  -3.968  -5.642  0.00  0.00    -0.146 OA
ATOM      3  O   LIG d   1       9.932  -2.735  -4.487  0.00  0.00    -0.146 OA
ENDROOT
BRANCH   1   4
ATOM      4  N   LIG d   1       7.623  -2.648  -3.610  0.00  0.00    -0.144 NA
ATOM      5  C   LIG d   1       7.174  -1.525  -4.088  0.00  0.00     0.018 C 
ATOM      6  O   LIG d   1       7.624  -1.069  -5.279  0.00  0.00    -0.859 OA
BRANCH   5   7
ATOM      7  C   LIG d   1       6.170  -0.747  -3.330  0.00  0.00    -0.013 A 
ATOM      8  C   LIG d   1       6.203   0.648  -3.351  0.00  0.00    -0.054 A 
ATOM      9  C   LIG d   1       5.263   1.369  -2.642  0.00  0.00    -0.061 A 
ATOM     10  H   LIG d   1       6.962   1.163  -3.922  0.00  0.00     0.062 H 
ATOM     11  C   LIG d   1       4.290   0.710  -1.911  0.00  0.00    -0.062 A 
ATOM     12  H   LIG d   1       5.287   2.448  -2.658  0.00  0.00     0.062 H 
ATOM     13  C   LIG d   1       4.252  -0.672  -1.887  0.00  0.00    -0.061 A 
ATOM     14  H   LIG d   1       3.560   1.279  -1.355  0.00  0.00     0.062 H 
ATOM     15  C   LIG d   1       5.186  -1.403  -2.591  0.00  0.00    -0.054 A 
ATOM     16  H   LIG d   1       3.490  -1.180  -1.315  0.00  0.00     0.062 H 
ATOM     17  H   LIG d   1       5.155  -2.483  -2.571  0.00  0.00     0.062 H 
ENDBRANCH   5   7
ENDBRANCH   1   4
BRANCH   1  18
ATOM     18  C   LIG d   1       9.117  -4.956  -3.509  0.00  0.00     0.113 A 
ATOM     19  C   LIG d   1       9.606  -4.824  -2.222  0.00  0.00    -0.033 A 
ATOM     20  C   LIG d   1       9.892  -5.949  -1.472  0.00  0.00    -0.039 A 
ATOM     21  H   LIG d   1       9.761  -3.842  -1.801  0.00  0.00     0.064 H 
ATOM     22  C   LIG d   1       9.698  -7.212  -2.017  0.00  0.00     0.025 A 
ATOM     23  H   LIG d   1      10.270  -5.847  -0.466  0.00  0.00     0.064 H 
ATOM     24  C   LIG d   1       9.212  -7.340  -3.312  0.00  0.00    -0.039 A 
ATOM     25  C   LIG d   1       8.923  -6.212  -4.054  0.00  0.00    -0.033 A 
ATOM     26  H   LIG d   1       9.060  -8.321  -3.738  0.00  0.00     0.064 H 
ATOM     27  H   LIG d   1       8.544  -6.310  -5.060  0.00  0.00     0.064 H 
BRANCH  22  28
ATOM     28  N   LIG d   1       9.991  -8.351  -1.264  0.00  0.00    -0.358 N 
ATOM     29  H   LIG d   1      10.628  -9.003  -1.596  0.00  0.00     0.142 HD
ATOM     30  H   LIG d   1       9.557  -8.491  -0.408  0.00  0.00     0.142 HD
ENDBRANCH  22  28
ENDBRANCH   1  18
TORSDOF 4
ENDMDL
MODEL 4
REMARK VINA RESULT:      -5.9      5.893      8.679
REMARK  4 active torsions:
REMARK  status: ('A' for Active; 'I' for Inactive)
REMARK    1  A    between atoms: C_4  and  C_7 
REMARK    2  A    between atoms: N_9  and  S_10 
REMARK    3  A    between atoms: S_10  and  C_13 
REMARK    4  A    between atoms: C_16  and  N_19 
ROOT
ATOM      1  S   LIG d   1       4.514  -2.811  -7.526  0.00  0.00     0.098 S 
ATOM      2  O   LIG d   1       5.782  -2.539  -8.107  0.00  0.00    -0.146 OA
ATOM      3  O   LIG d   1       4.134  -4.114  -7.104  0.00  0.00    -0.146 OA
ENDROOT
BRANCH   1   4
ATOM      4  N   LIG d   1       4.380  -1.826  -6.201  0.00  0.00    -0.144 NA
ATOM      5  C   LIG d   1       5.082  -2.071  -5.135  0.00  0.00     0.018 C 
ATOM      6  O   LIG d   1       5.924  -3.129  -5.108  0.00  0.00    -0.859 OA
BRANCH   5   7
ATOM      7  C   LIG d   1       4.962  -1.192  -3.952  0.00  0.00    -0.013 A 
ATOM      8  C   LIG d   1       5.394   0.134  -4.017  0.00  0.00    -0.054 A 
ATOM      9  C   LIG d   1       5.278   0.950  -2.910  0.00  0.00    -0.061 A 
ATOM     10  H   LIG d   1       5.817   0.520  -4.933  0.00  0.00     0.062 H 
ATOM     11  C   LIG d   1       4.736   0.456  -1.737  0.00  0.00    -0.062 A 
ATOM     12  H   LIG d   1       5.612   1.976  -2.959  0.00  0.00     0.062 H 
ATOM     13  C   LIG d   1       4.305  -0.857  -1.666  0.00  0.00    -0.061 A 
ATOM     14  H   LIG d   1       4.651   1.097  -0.873  0.00  0.00     0.062 H 
ATOM     15  C   LIG d   1       4.416  -1.682  -2.766  0.00  0.00    -0.054 A 
ATOM     16  H   LIG d   1       3.883  -1.237  -0.748  0.00  0.00     0.062 H 
ATOM     17  H   LIG d   1       4.080  -2.707  -2.709  0.00  0.00     0.062 H 
ENDBRANCH   5   7
ENDBRANCH   1   4
BRANCH   1  18
ATOM     18  C   LIG d   1       3.302  -2.285  -8.691  0.00  0.00     0.113 A 
ATOM     19  C   LIG d   1       2.810  -3.179  -9.624  0.00  0.00    -0.033 A 
ATOM     20  C   LIG d   1       1.855  -2.772 -10.536  0.00  0.00    -0.039 A 
ATOM     21  H   LIG d   1       3.168  -4.198  -9.638  0.00  0.00     0.064 H 
ATOM     22  C   LIG d   1       1.398  -1.460 -10.521  0.00  0.00     0.025 A 
ATOM     23  H   LIG d   1       1.467  -3.471 -11.262  0.00  0.00     0.064 H 
ATOM     24  C   LIG d   1       1.899  -0.564  -9.586  0.00  0.00    -0.039 A 
ATOM     25  C   LIG d   1       2.849  -0.979  -8.674  0.00  0.00    -0.033 A 
ATOM     26  H   LIG d   1       1.545   0.457  -9.571  0.00  0.00     0.064 H 
ATOM     27  H   LIG d   1       3.239  -0.282  -7.946  0.00  0.00     0.064 H 
BRANCH  22  28
ATOM     28  N   LIG d   1       0.436  -1.043 -11.444  0.00  0.00    -0.358 N 
ATOM     29  H   LIG d   1       0.628  -0.309 -12.048  0.00  0.00     0.142 HD
ATOM     30  H   LIG d   1      -0.425  -1.489 -11.482  0.00  0.00     0.142 HD
ENDBRANCH  22  28
ENDBRANCH   1  18
TORSDOF 4
ENDMDL
MODEL 5
REMARK VINA RESULT:      -5.8      6.243      9.910
REMARK  4 active torsions:
REMARK  status: ('A' for Active; 'I' for Inactive)
REMARK    1  A    between atoms: C_4  and  C_7 
REMARK    2  A    between atoms: N_9  and  S_10 
REMARK    3  A    between atoms: S_10  and  C_13 
REMARK    4  A    between atoms: C_16  and  N_19 
ROOT
ATOM      1  S   LIG d   1       4.752  -4.995  -6.153  0.00  0.00     0.098 S 
ATOM      2  O   LIG d   1       3.388  -5.353  -6.327  0.00  0.00    -0.146 OA
ATOM      3  O   LIG d   1       5.535  -4.446  -7.204  0.00  0.00    -0.146 OA
ENDROOT
BRANCH   1   4
ATOM      4  N   LIG d   1       4.800  -3.906  -4.907  0.00  0.00    -0.144 NA
ATOM      5  C   LIG d   1       4.592  -2.643  -5.139  0.00  0.00     0.018 C 
ATOM      6  O   LIG d   1       4.335  -2.220  -6.397  0.00  0.00    -0.859 OA
BRANCH   5   7
ATOM      7  C   LIG d   1       4.635  -1.670  -4.025  0.00  0.00    -0.013 A 
ATOM      8  C   LIG d   1       4.229  -2.050  -2.746  0.00  0.00    -0.054 A 
ATOM      9  C   LIG d   1       4.272  -1.137  -1.712  0.00  0.00    -0.061 A 
ATOM     10  H   LIG d   1       3.882  -3.057  -2.566  0.00  0.00     0.062 H 
ATOM     11  C   LIG d   1       4.717   0.152  -1.941  0.00  0.00    -0.062 A 
ATOM     12  H   LIG d   1       3.958  -1.431  -0.721  0.00  0.00     0.062 H 
ATOM     13  C   LIG d   1       5.121   0.535  -3.207  0.00  0.00    -0.061 A 
ATOM     14  H   LIG d   1       4.744   0.863  -1.130  0.00  0.00     0.062 H 
ATOM     15  C   LIG d   1       5.082  -0.368  -4.250  0.00  0.00    -0.054 A 
ATOM     16  H   LIG d   1       5.467   1.543  -3.381  0.00  0.00     0.062 H 
ATOM     17  H   LIG d   1       5.398  -0.067  -5.238  0.00  0.00     0.062 H 
ENDBRANCH   5   7
ENDBRANCH   1   4
BRANCH   1  18
ATOM     18  C   LIG d   1       5.588  -6.447  -5.607  0.00  0.00     0.113 A 
ATOM     19  C   LIG d   1       4.871  -7.603  -5.358  0.00  0.00    -0.033 A 
ATOM     20  C   LIG d   1       5.523  -8.745  -4.936  0.00  0.00    -0.039 A 
ATOM     21  H   LIG d   1       3.799  -7.615  -5.498  0.00  0.00     0.064 H 
ATOM     22  C   LIG d   1       6.900  -8.727  -4.751  0.00  0.00     0.025 A 
ATOM     23  H   LIG d   1       4.964  -9.649  -4.746  0.00  0.00     0.064 H 
ATOM     24  C   LIG d   1       7.616  -7.563  -4.996  0.00  0.00    -0.039 A 
ATOM     25  C   LIG d   1       6.958  -6.427  -5.424  0.00  0.00    -0.033 A 
ATOM     26  H   LIG d   1       8.687  -7.546  -4.854  0.00  0.00     0.064 H 
ATOM     27  H   LIG d   1       7.515  -5.521  -5.616  0.00  0.00     0.064 H 
BRANCH  22  28
ATOM     28  N   LIG d   1       7.563  -9.879  -4.319  0.00  0.00    -0.358 N 
ATOM     29  H   LIG d   1       8.354  -9.804  -3.764  0.00  0.00     0.142 HD
ATOM     30  H   LIG d   1       7.231 -10.754  -4.574  0.00  0.00     0.142 HD
ENDBRANCH  22  28
ENDBRANCH   1  18
TORSDOF 4
ENDMDL
MODEL 6
REMARK VINA RESULT:      -5.6      6.231      8.033
REMARK  4 active torsions:
REMARK  status: ('A' for Active; 'I' for Inactive)
REMARK    1  A    between atoms: C_4  and  C_7 
REMARK    2  A    between atoms: N_9  and  S_10 
REMARK    3  A    between atoms: S_10  and  C_13 
REMARK    4  A    between atoms: C_16  and  N_19 
ROOT
ATOM      1  S   LIG d   1       4.746  -1.368  -4.247  0.00  0.00     0.098 S 
ATOM      2  O   LIG d   1       5.275  -0.173  -3.689  0.00  0.00    -0.146 OA
ATOM      3  O   LIG d   1       3.650  -2.060  -3.665  0.00  0.00    -0.146 OA
ENDROOT
BRANCH   1   4
ATOM      4  N   LIG d   1       4.308  -1.011  -5.803  0.00  0.00    -0.144 NA
ATOM      5  C   LIG d   1       3.461  -0.052  -6.036  0.00  0.00     0.018 C 
ATOM      6  O   LIG d   1       2.939   0.654  -5.008  0.00  0.00    -0.859 OA
BRANCH   5   7
ATOM      7  C   LIG d   1       3.070   0.267  -7.427  0.00  0.00    -0.013 A 
ATOM      8  C   LIG d   1       2.646  -0.747  -8.286  0.00  0.00    -0.054 A 
ATOM      9  C   LIG d   1       2.281  -0.443  -9.582  0.00  0.00    -0.061 A 
ATOM     10  H   LIG d   1       2.602  -1.768  -7.937  0.00  0.00     0.062 H 
ATOM     11  C   LIG d   1       2.337   0.865 -10.030  0.00  0.00    -0.062 A 
ATOM     12  H   LIG d   1       1.953  -1.227 -10.248  0.00  0.00     0.062 H 
ATOM     13  C   LIG d   1       2.756   1.875  -9.183  0.00  0.00    -0.061 A 
ATOM     14  H   LIG d   1       2.055   1.097 -11.046  0.00  0.00     0.062 H 
ATOM     15  C   LIG d   1       3.123   1.583  -7.885  0.00  0.00    -0.054 A 
ATOM     16  H   LIG d   1       2.797   2.894  -9.538  0.00  0.00     0.062 H 
ATOM     17  H   LIG d   1       3.450   2.373  -7.225  0.00  0.00     0.062 H 
ENDBRANCH   5   7
ENDBRANCH   1   4
BRANCH   1  18
ATOM     18  C   LIG d   1       6.079  -2.518  -4.332  0.00  0.00     0.113 A 
ATOM     19  C   LIG d   1       5.953  -3.662  -5.098  0.00  0.00    -0.033 A 
ATOM     20  C   LIG d   1       6.998  -4.563  -5.172  0.00  0.00    -0.039 A 
ATOM     21  H   LIG d   1       5.039  -3.851  -5.643  0.00  0.00     0.064 H 
ATOM     22  C   LIG d   1       8.170  -4.323  -4.466  0.00  0.00     0.025 A 
ATOM     23  H   LIG d   1       6.902  -5.455  -5.773  0.00  0.00     0.064 H 
ATOM     24  C   LIG d   1       8.290  -3.175  -3.694  0.00  0.00    -0.039 A 
ATOM     25  C   LIG d   1       7.244  -2.276  -3.629  0.00  0.00    -0.033 A 
ATOM     26  H   LIG d   1       9.201  -2.986  -3.144  0.00  0.00     0.064 H 
ATOM     27  H   LIG d   1       7.337  -1.383  -3.029  0.00  0.00     0.064 H 
BRANCH  22  28
ATOM     28  N   LIG d   1       9.227  -5.234  -4.534  0.00  0.00    -0.358 N 
ATOM     29  H   LIG d   1       9.927  -5.118  -5.195  0.00  0.00     0.142 HD
ATOM     30  H   LIG d   1       9.261  -5.984  -3.919  0.00  0.00     0.142 HD
ENDBRANCH  22  28
ENDBRANCH   1  18
TORSDOF 4
ENDMDL
MODEL 7
REMARK VINA RESULT:      -5.4      8.147     10.849
REMARK  4 active torsions:
REMARK  status: ('A' for Active; 'I' for Inactive)
REMARK    1  A    between atoms: C_4  and  C_7 
REMARK    2  A    between atoms: N_9  and  S_10 
REMARK    3  A    between atoms: S_10  and  C_13 
REMARK    4  A    between atoms: C_16  and  N_19 
ROOT
ATOM      1  S   LIG d   1      12.287   9.566   2.332  0.00  0.00     0.098 S 
ATOM      2  O   LIG d   1      11.860  10.909   2.513  0.00  0.00    -0.146 OA
ATOM      3  O   LIG d   1      13.638   9.229   2.049  0.00  0.00    -0.146 OA
ENDROOT
BRANCH   1   4
ATOM      4  N   LIG d   1      11.874   8.748   3.711  0.00  0.00    -0.144 NA
ATOM      5  C   LIG d   1      12.198   9.229   4.874  0.00  0.00     0.018 C 
ATOM      6  O   LIG d   1      12.871  10.399   4.958  0.00  0.00    -0.859 OA
BRANCH   5   7
ATOM      7  C   LIG d   1      11.829   8.498   6.107  0.00  0.00    -0.013 A 
ATOM      8  C   LIG d   1      12.275   8.949   7.349  0.00  0.00    -0.054 A 
ATOM      9  C   LIG d   1      11.927   8.263   8.495  0.00  0.00    -0.061 A 
ATOM     10  H   LIG d   1      12.891   9.834   7.414  0.00  0.00     0.062 H 
ATOM     11  C   LIG d   1      11.137   7.130   8.413  0.00  0.00    -0.062 A 
ATOM     12  H   LIG d   1      12.272   8.611   9.457  0.00  0.00     0.062 H 
ATOM     13  C   LIG d   1      10.691   6.678   7.184  0.00  0.00    -0.061 A 
ATOM     14  H   LIG d   1      10.871   6.595   9.312  0.00  0.00     0.062 H 
ATOM     15  C   LIG d   1      11.033   7.356   6.032  0.00  0.00    -0.054 A 
ATOM     16  H   LIG d   1      10.075   5.794   7.126  0.00  0.00     0.062 H 
ATOM     17  H   LIG d   1      10.684   7.001   5.073  0.00  0.00     0.062 H 
ENDBRANCH   5   7
ENDBRANCH   1   4
BRANCH   1  18
ATOM     18  C   LIG d   1      11.317   8.900   1.021  0.00  0.00     0.113 A 
ATOM     19  C   LIG d   1      10.548   9.741   0.237  0.00  0.00    -0.033 A 
ATOM     20  C   LIG d   1       9.790   9.223  -0.795  0.00  0.00    -0.039 A 
ATOM     21  H   LIG d   1      10.542  10.804   0.429  0.00  0.00     0.064 H 
ATOM     22  C   LIG d   1       9.792   7.856  -1.038  0.00  0.00     0.025 A 
ATOM     23  H   LIG d   1       9.193   9.880  -1.410  0.00  0.00     0.064 H 
ATOM     24  C   LIG d   1      10.562   7.014  -0.245  0.00  0.00    -0.039 A 
ATOM     25  C   LIG d   1      11.322   7.538   0.781  0.00  0.00    -0.033 A 
ATOM     26  H   LIG d   1      10.566   5.950  -0.432  0.00  0.00     0.064 H 
ATOM     27  H   LIG d   1      11.920   6.884   1.398  0.00  0.00     0.064 H 
BRANCH  22  28
ATOM     28  N   LIG d   1       9.023   7.328  -2.078  0.00  0.00    -0.358 N 
ATOM     29  H   LIG d   1       9.169   6.416  -2.376  0.00  0.00     0.142 HD
ATOM     30  H   LIG d   1       8.343   7.874  -2.503  0.00  0.00     0.142 HD
ENDBRANCH  22  28
ENDBRANCH   1  18
TORSDOF 4
ENDMDL
MODEL 8
REMARK VINA RESULT:      -5.3      5.143      6.616
REMARK  4 active torsions:
REMARK  status: ('A' for Active; 'I' for Inactive)
REMARK    1  A    between atoms: C_4  and  C_7 
REMARK    2  A    between atoms: N_9  and  S_10 
REMARK    3  A    between atoms: S_10  and  C_13 
REMARK    4  A    between atoms: C_16  and  N_19 
ROOT
ATOM      1  S   LIG d   1      10.312   5.202  -4.640  0.00  0.00     0.098 S 
ATOM      2  O   LIG d   1      11.605   4.732  -4.995  0.00  0.00    -0.146 OA
ATOM      3  O   LIG d   1       9.204   4.328  -4.472  0.00  0.00    -0.146 OA
ENDROOT
BRANCH   1   4
ATOM      4  N   LIG d   1      10.484   6.029  -3.216  0.00  0.00    -0.144 NA
ATOM      5  C   LIG d   1      10.733   5.384  -2.115  0.00  0.00     0.018 C 
ATOM      6  O   LIG d   1      10.854   4.037  -2.134  0.00  0.00    -0.859 OA
BRANCH   5   7
ATOM      7  C   LIG d   1      10.887   6.123  -0.843  0.00  0.00    -0.013 A 
ATOM      8  C   LIG d   1      10.918   7.518  -0.842  0.00  0.00    -0.054 A 
ATOM      9  C   LIG d   1      11.061   8.202   0.348  0.00  0.00    -0.061 A 
ATOM     10  H   LIG d   1      10.830   8.061  -1.772  0.00  0.00     0.062 H 
ATOM     11  C   LIG d   1      11.173   7.507   1.539  0.00  0.00    -0.062 A 
ATOM     12  H   LIG d   1      11.085   9.282   0.349  0.00  0.00     0.062 H 
ATOM     13  C   LIG d   1      11.142   6.124   1.545  0.00  0.00    -0.061 A 
ATOM     14  H   LIG d   1      11.289   8.046   2.467  0.00  0.00     0.062 H 
ATOM     15  C   LIG d   1      11.000   5.429   0.361  0.00  0.00    -0.054 A 
ATOM     16  H   LIG d   1      11.230   5.587   2.477  0.00  0.00     0.062 H 
ATOM     17  H   LIG d   1      10.977   4.349   0.368  0.00  0.00     0.062 H 
ENDBRANCH   5   7
ENDBRANCH   1   4
BRANCH   1  18
ATOM     18  C   LIG d   1       9.846   6.374  -5.870  0.00  0.00     0.113 A 
ATOM     19  C   LIG d   1       9.447   7.644  -5.496  0.00  0.00    -0.033 A 
ATOM     20  C   LIG d   1       9.087   8.568  -6.458  0.00  0.00    -0.039 A 
ATOM     21  H   LIG d   1       9.421   7.916  -4.451  0.00  0.00     0.064 H 
ATOM     22  C   LIG d   1       9.115   8.216  -7.801  0.00  0.00     0.025 A 
ATOM     23  H   LIG d   1       8.779   9.561  -6.166  0.00  0.00     0.064 H 
ATOM     24  C   LIG d   1       9.511   6.937  -8.173  0.00  0.00    -0.039 A 
ATOM     25  C   LIG d   1       9.876   6.021  -7.207  0.00  0.00    -0.033 A 
ATOM     26  H   LIG d   1       9.534   6.661  -9.217  0.00  0.00     0.064 H 
ATOM     27  H   LIG d   1      10.184   5.027  -7.495  0.00  0.00     0.064 H 
BRANCH  22  28
ATOM     28  N   LIG d   1       8.746   9.145  -8.776  0.00  0.00    -0.358 N 
ATOM     29  H   LIG d   1       8.854  10.094  -8.608  0.00  0.00     0.142 HD
ATOM     30  H   LIG d   1       8.382   8.841  -9.623  0.00  0.00     0.142 HD
ENDBRANCH  22  28
ENDBRANCH   1  18
TORSDOF 4
ENDMDL
MODEL 9
REMARK VINA RESULT:      -5.0      4.597      6.209
REMARK  4 active torsions:
REMARK  status: ('A' for Active; 'I' for Inactive)
REMARK    1  A    between atoms: C_4  and  C_7 
REMARK    2  A    between atoms: N_9  and  S_10 
REMARK    3  A    between atoms: S_10  and  C_13 
REMARK    4  A    between atoms: C_16  and  N_19 
ROOT
ATOM      1  S   LIG d   1      11.340   6.336   0.576  0.00  0.00     0.098 S 
ATOM      2  O   LIG d   1      10.771   5.904   1.804  0.00  0.00    -0.146 OA
ATOM      3  O   LIG d   1      12.732   6.245   0.308  0.00  0.00    -0.146 OA
ENDROOT
BRANCH   1   4
ATOM      4  N   LIG d   1      10.571   5.494  -0.624  0.00  0.00    -0.144 NA
ATOM      5  C   LIG d   1      11.071   5.467  -1.824  0.00  0.00     0.018 C 
ATOM      6  O   LIG d   1      12.221   6.127  -2.091  0.00  0.00    -0.859 OA
BRANCH   5   7
ATOM      7  C   LIG d   1      10.384   4.714  -2.896  0.00  0.00    -0.013 A 
ATOM      8  C   LIG d   1      10.222   3.332  -2.788  0.00  0.00    -0.054 A 
ATOM      9  C   LIG d   1       9.580   2.635  -3.791  0.00  0.00    -0.061 A 
ATOM     10  H   LIG d   1      10.598   2.810  -1.921  0.00  0.00     0.062 H 
ATOM     11  C   LIG d   1       9.097   3.304  -4.902  0.00  0.00    -0.062 A 
ATOM     12  H   LIG d   1       9.454   1.566  -3.709  0.00  0.00     0.062 H 
ATOM     13  C   LIG d   1       9.254   4.674  -5.015  0.00  0.00    -0.061 A 
ATOM     14  H   LIG d   1       8.599   2.754  -5.686  0.00  0.00     0.062 H 
ATOM     15  C   LIG d   1       9.895   5.381  -4.018  0.00  0.00    -0.054 A 
ATOM     16  H   LIG d   1       8.876   5.190  -5.884  0.00  0.00     0.062 H 
ATOM     17  H   LIG d   1      10.017   6.451  -4.108  0.00  0.00     0.062 H 
ENDBRANCH   5   7
ENDBRANCH   1   4
BRANCH   1  18
ATOM     18  C   LIG d   1      10.900   8.032   0.386  0.00  0.00     0.113 A 
ATOM     19  C   LIG d   1       9.903   8.389  -0.504  0.00  0.00    -0.033 A 
ATOM     20  C   LIG d   1       9.552   9.717  -0.651  0.00  0.00    -0.039 A 
ATOM     21  H   LIG d   1       9.396   7.630  -1.081  0.00  0.00     0.064 H 
ATOM     22  C   LIG d   1      10.208  10.694   0.087  0.00  0.00     0.025 A 
ATOM     23  H   LIG d   1       8.770   9.996  -1.343  0.00  0.00     0.064 H 
ATOM     24  C   LIG d   1      11.212  10.331   0.975  0.00  0.00    -0.039 A 
ATOM     25  C   LIG d   1      11.554   9.001   1.123  0.00  0.00    -0.033 A 
ATOM     26  H   LIG d   1      11.724  11.088   1.552  0.00  0.00     0.064 H 
ATOM     27  H   LIG d   1      12.335   8.719   1.814  0.00  0.00     0.064 H 
BRANCH  22  28
ATOM     28  N   LIG d   1       9.859  12.038  -0.063  0.00  0.00    -0.358 N 
ATOM     29  H   LIG d   1      10.534  12.728   0.025  0.00  0.00     0.142 HD
ATOM     30  H   LIG d   1       8.939  12.281  -0.257  0.00  0.00     0.142 HD
ENDBRANCH  22  28
ENDBRANCH   1  18
TORSDOF 4
ENDMDL
