MODEL 1
REMARK VINA RESULT:      -5.6      0.000      0.000
REMARK  8 active torsions:
REMARK  status: ('A' for Active; 'I' for Inactive)
REMARK    1  A    between atoms: C_1  and  C_2 
REMARK    2  A    between atoms: C_2  and  C_3 
REMARK    3  A    between atoms: C_3  and  O_4 
REMARK    4  A    between atoms: O_4  and  C_5 
REMARK    5  A    between atoms: C_5  and  C_6 
REMARK    6  A    between atoms: C_11  and  C_15 
REMARK    7  A    between atoms: C_11  and  C_16 
REMARK    8  A    between atoms: C_19  and  N_21 
ROOT
ATOM      1  C   LIG d   1       4.270  -0.155  -6.047  0.00  0.00     0.128 C 
ATOM      2  H   LIG d   1       4.195   0.867  -5.678  0.00  0.00     0.076 H 
ATOM      3  C   LIG d   1       3.218  -0.409  -7.154  0.00  0.00     0.013 C 
ATOM      4  C   LIG d   1       4.013  -0.077  -8.426  0.00  0.00     0.171 C 
ATOM      5  C   LIG d   1       3.767  -1.134  -9.513  0.00  0.00     0.019 C 
ATOM      6  C   LIG d   1       2.844  -0.372 -10.495  0.00  0.00     0.154 C 
ATOM      7  O   LIG d   1       3.175   1.035 -10.289  0.00  0.00    -0.451 OA
ATOM      8  C   LIG d   1       3.573   1.231  -9.020  0.00  0.00     0.325 C 
ATOM      9  O   LIG d   1       3.576   2.294  -8.448  0.00  0.00    -0.250 OA
ATOM     10  C   LIG d   1       5.458  -0.047  -8.010  0.00  0.00     0.325 C 
ATOM     11  O   LIG d   1       6.387   0.222  -8.733  0.00  0.00    -0.250 OA
ATOM     12  O   LIG d   1       5.553  -0.366  -6.708  0.00  0.00    -0.458 OA
ATOM     13  H   LIG d   1       2.364   0.260  -7.043  0.00  0.00     0.032 H 
ATOM     14  H   LIG d   1       2.897  -1.451  -7.155  0.00  0.00     0.032 H 
ATOM     15  H   LIG d   1       3.262  -2.008  -9.101  0.00  0.00     0.032 H 
ATOM     16  H   LIG d   1       4.701  -1.420  -9.998  0.00  0.00     0.032 H 
ENDROOT
BRANCH   1  17
ATOM     17  C   LIG d   1       4.089  -1.151  -4.900  0.00  0.00     0.085 C 
ATOM     18  H   LIG d   1       3.659  -2.076  -5.286  0.00  0.00     0.060 H 
ATOM     19  H   LIG d   1       5.057  -1.362  -4.446  0.00  0.00     0.060 H 
BRANCH  17  20
ATOM     20  O   LIG d   1       3.214  -0.592  -3.918  0.00  0.00    -0.376 OA
BRANCH  20  21
ATOM     21  C   LIG d   1       3.250  -1.264  -2.658  0.00  0.00     0.048 C 
ATOM     22  H   LIG d   1       2.343  -1.037  -2.099  0.00  0.00     0.056 H 
ATOM     23  H   LIG d   1       3.318  -2.339  -2.822  0.00  0.00     0.056 H 
BRANCH  21  24
ATOM     24  C   LIG d   1       4.469  -0.792  -1.864  0.00  0.00    -0.032 C 
ATOM     25  H   LIG d   1       4.451  -1.239  -0.869  0.00  0.00     0.029 H 
ATOM     26  H   LIG d   1       5.380  -1.095  -2.381  0.00  0.00     0.029 H 
BRANCH  24  27
ATOM     27  C   LIG d   1       4.438   0.733  -1.738  0.00  0.00    -0.063 C 
ATOM     28  H   LIG d   1       3.686   1.137  -2.416  0.00  0.00     0.023 H 
ATOM     29  H   LIG d   1       4.189   1.008  -0.713  0.00  0.00     0.023 H 
ATOM     30  H   LIG d   1       5.416   1.139  -1.996  0.00  0.00     0.023 H 
ENDBRANCH  24  27
ENDBRANCH  21  24
ENDBRANCH  20  21
ENDBRANCH  17  20
ENDBRANCH   1  17
BRANCH   6  31
ATOM     31  C   LIG d   1       1.375  -0.630 -10.155  0.00  0.00    -0.019 C 
ATOM     32  H   LIG d   1       1.307  -1.117  -9.182  0.00  0.00     0.027 H 
ATOM     33  H   LIG d   1       0.933  -1.275 -10.915  0.00  0.00     0.027 H 
ATOM     34  H   LIG d   1       0.836   0.317 -10.125  0.00  0.00     0.027 H 
ENDBRANCH   6  31
BRANCH   6  35
ATOM     35  C   LIG d   1       3.133  -0.778 -11.916  0.00  0.00     0.094 A 
ATOM     36  N   LIG d   1       4.170  -0.280 -12.564  0.00  0.00    -0.226 NA
ATOM     37  C   LIG d   1       4.433  -0.634 -13.807  0.00  0.00     0.156 A 
ATOM     38  S   LIG d   1       3.145  -1.748 -14.150  0.00  0.00    -0.061 SA
ATOM     39  C   LIG d   1       2.332  -1.660 -12.561  0.00  0.00     0.004 A 
ATOM     40  H   LIG d   1       1.446  -2.169 -12.212  0.00  0.00     0.071 H 
BRANCH  37  41
ATOM     41  N   LIG d   1       5.468  -0.221 -14.631  0.00  0.00    -0.338 N 
ATOM     42  H   LIG d   1       5.485  -0.492 -15.561  0.00  0.00     0.144 HD
ATOM     43  H   LIG d   1       6.175   0.340 -14.275  0.00  0.00     0.144 HD
ENDBRANCH  37  41
ENDBRANCH   6  35
TORSDOF 8
ENDMDL
MODEL 2
REMARK VINA RESULT:      -5.6      9.166     11.664
REMARK  8 active torsions:
REMARK  status: ('A' for Active; 'I' for Inactive)
REMARK    1  A    between atoms: C_1  and  C_2 
REMARK    2  A    between atoms: C_2  and  C_3 
REMARK    3  A    between atoms: C_3  and  O_4 
REMARK    4  A    between atoms: O_4  and  C_5 
REMARK    5  A    between atoms: C_5  and  C_6 
REMARK    6  A    between atoms: C_11  and  C_15 
REMARK    7  A    between atoms: C_11  and  C_16 
REMARK    8  A    between atoms: C_19  and  N_21 
ROOT
ATOM      1  C   LIG d   1       9.665   2.572  -4.314  0.00  0.00     0.128 C 
ATOM      2  H   LIG d   1      10.476   2.278  -4.979  0.00  0.00     0.076 H 
ATOM      3  C   LIG d   1      10.230   3.172  -3.004  0.00  0.00     0.013 C 
ATOM      4  C   LIG d   1      10.267   4.672  -3.334  0.00  0.00     0.171 C 
ATOM      5  C   LIG d   1       9.725   5.502  -2.161  0.00  0.00     0.019 C 
ATOM      6  C   LIG d   1      11.024   6.110  -1.576  0.00  0.00     0.154 C 
ATOM      7  O   LIG d   1      11.948   6.150  -2.705  0.00  0.00    -0.451 OA
ATOM      8  C   LIG d   1      11.675   5.147  -3.557  0.00  0.00     0.325 C 
ATOM      9  O   LIG d   1      12.442   4.699  -4.375  0.00  0.00    -0.250 OA
ATOM     10  C   LIG d   1       9.416   4.841  -4.562  0.00  0.00     0.325 C 
ATOM     11  O   LIG d   1       9.235   5.882  -5.148  0.00  0.00    -0.250 OA
ATOM     12  O   LIG d   1       8.887   3.654  -4.906  0.00  0.00    -0.458 OA
ATOM     13  H   LIG d   1      11.232   2.793  -2.800  0.00  0.00     0.032 H 
ATOM     14  H   LIG d   1       9.562   2.973  -2.164  0.00  0.00     0.032 H 
ATOM     15  H   LIG d   1       9.229   4.864  -1.428  0.00  0.00     0.032 H 
ATOM     16  H   LIG d   1       9.053   6.283  -2.513  0.00  0.00     0.032 H 
ENDROOT
BRANCH   1  17
ATOM     17  C   LIG d   1       8.766   1.372  -4.007  0.00  0.00     0.085 C 
ATOM     18  H   LIG d   1       8.570   0.820  -4.926  0.00  0.00     0.060 H 
ATOM     19  H   LIG d   1       9.263   0.719  -3.289  0.00  0.00     0.060 H 
BRANCH  17  20
ATOM     20  O   LIG d   1       7.530   1.833  -3.455  0.00  0.00    -0.376 OA
BRANCH  20  21
ATOM     21  C   LIG d   1       6.549   0.807  -3.291  0.00  0.00     0.048 C 
ATOM     22  H   LIG d   1       6.420   0.273  -4.233  0.00  0.00     0.056 H 
ATOM     23  H   LIG d   1       6.879   0.110  -2.521  0.00  0.00     0.056 H 
BRANCH  21  24
ATOM     24  C   LIG d   1       5.219   1.435  -2.875  0.00  0.00    -0.032 C 
ATOM     25  H   LIG d   1       5.386   2.466  -2.559  0.00  0.00     0.029 H 
ATOM     26  H   LIG d   1       4.530   1.423  -3.720  0.00  0.00     0.029 H 
BRANCH  24  27
ATOM     27  C   LIG d   1       4.617   0.638  -1.716  0.00  0.00    -0.063 C 
ATOM     28  H   LIG d   1       3.757   0.072  -2.073  0.00  0.00     0.023 H 
ATOM     29  H   LIG d   1       5.366  -0.050  -1.321  0.00  0.00     0.023 H 
ATOM     30  H   LIG d   1       4.302   1.322  -0.929  0.00  0.00     0.023 H 
ENDBRANCH  24  27
ENDBRANCH  21  24
ENDBRANCH  20  21
ENDBRANCH  17  20
ENDBRANCH   1  17
BRANCH   6  31
ATOM     31  C   LIG d   1      11.577   5.218  -0.464  0.00  0.00    -0.019 C 
ATOM     32  H   LIG d   1      11.207   4.201  -0.595  0.00  0.00     0.027 H 
ATOM     33  H   LIG d   1      11.253   5.600   0.505  0.00  0.00     0.027 H 
ATOM     34  H   LIG d   1      12.666   5.216  -0.507  0.00  0.00     0.027 H 
ENDBRANCH   6  31
BRANCH   6  35
ATOM     35  C   LIG d   1      10.768   7.500  -1.055  0.00  0.00     0.094 A 
ATOM     36  N   LIG d   1       9.677   8.161  -1.399  0.00  0.00    -0.226 NA
ATOM     37  C   LIG d   1       9.443   9.376  -0.943  0.00  0.00     0.156 A 
ATOM     38  S   LIG d   1      10.841   9.672   0.043  0.00  0.00    -0.061 SA
ATOM     39  C   LIG d   1      11.654   8.104  -0.228  0.00  0.00     0.004 A 
ATOM     40  H   LIG d   1      12.593   7.739   0.160  0.00  0.00     0.071 H 
BRANCH  37  41
ATOM     41  N   LIG d   1       8.361  10.207  -1.192  0.00  0.00    -0.338 N 
ATOM     42  H   LIG d   1       8.456  10.957  -1.799  0.00  0.00     0.144 HD
ATOM     43  H   LIG d   1       7.510  10.037  -0.759  0.00  0.00     0.144 HD
ENDBRANCH  37  41
ENDBRANCH   6  35
TORSDOF 8
ENDMDL
MODEL 3
REMARK VINA RESULT:      -5.5      3.871      7.056
REMARK  8 active torsions:
REMARK  status: ('A' for Active; 'I' for Inactive)
REMARK    1  A    between atoms: C_1  and  C_2 
REMARK    2  A    between atoms: C_2  and  C_3 
REMARK    3  A    between atoms: C_3  and  O_4 
REMARK    4  A    between atoms: O_4  and  C_5 
REMARK    5  A    between atoms: C_5  and  C_6 
REMARK    6  A    between atoms: C_11  and  C_15 
REMARK    7  A    between atoms: C_11  and  C_16 
REMARK    8  A    between atoms: C_19  and  N_21 
ROOT
ATOM      1  C   LIG d   1       4.607   0.665 -10.961  0.00  0.00     0.128 C 
ATOM      2  H   LIG d   1       5.445   1.285 -11.279  0.00  0.00     0.076 H 
ATOM      3  C   LIG d   1       5.049  -0.309  -9.842  0.00  0.00     0.013 C 
ATOM      4  C   LIG d   1       4.710   0.490  -8.575  0.00  0.00     0.171 C 
ATOM      5  C   LIG d   1       4.019  -0.403  -7.535  0.00  0.00     0.019 C 
ATOM      6  C   LIG d   1       5.148  -0.612  -6.496  0.00  0.00     0.154 C 
ATOM      7  O   LIG d   1       6.000   0.564  -6.642  0.00  0.00    -0.451 OA
ATOM      8  C   LIG d   1       5.953   1.010  -7.909  0.00  0.00     0.325 C 
ATOM      9  O   LIG d   1       6.781   1.718  -8.430  0.00  0.00    -0.250 OA
ATOM     10  C   LIG d   1       3.807   1.605  -9.024  0.00  0.00     0.325 C 
ATOM     11  O   LIG d   1       3.361   2.473  -8.312  0.00  0.00    -0.250 OA
ATOM     12  O   LIG d   1       3.572   1.485 -10.343  0.00  0.00    -0.458 OA
ATOM     13  H   LIG d   1       6.119  -0.513  -9.901  0.00  0.00     0.032 H 
ATOM     14  H   LIG d   1       4.475  -1.236  -9.884  0.00  0.00     0.032 H 
ATOM     15  H   LIG d   1       3.716  -1.352  -7.976  0.00  0.00     0.032 H 
ATOM     16  H   LIG d   1       3.167   0.107  -7.087  0.00  0.00     0.032 H 
ENDROOT
BRANCH   1  17
ATOM     17  C   LIG d   1       4.036  -0.111 -12.149  0.00  0.00     0.085 C 
ATOM     18  H   LIG d   1       3.249   0.476 -12.623  0.00  0.00     0.060 H 
ATOM     19  H   LIG d   1       4.829  -0.305 -12.872  0.00  0.00     0.060 H 
BRANCH  17  20
ATOM     20  O   LIG d   1       3.496  -1.352 -11.692  0.00  0.00    -0.376 OA
BRANCH  20  21
ATOM     21  C   LIG d   1       2.179  -1.626 -12.175  0.00  0.00     0.048 C 
ATOM     22  H   LIG d   1       2.108  -1.332 -13.222  0.00  0.00     0.056 H 
ATOM     23  H   LIG d   1       1.973  -2.692 -12.082  0.00  0.00     0.056 H 
BRANCH  21  24
ATOM     24  C   LIG d   1       1.160  -0.836 -11.353  0.00  0.00    -0.032 C 
ATOM     25  H   LIG d   1       1.328   0.233 -11.495  0.00  0.00     0.029 H 
ATOM     26  H   LIG d   1       0.152  -1.090 -11.681  0.00  0.00     0.029 H 
BRANCH  24  27
ATOM     27  C   LIG d   1       1.317  -1.185  -9.871  0.00  0.00    -0.063 C 
ATOM     28  H   LIG d   1       1.889  -0.402  -9.373  0.00  0.00     0.023 H 
ATOM     29  H   LIG d   1       0.333  -1.265  -9.411  0.00  0.00     0.023 H 
ATOM     30  H   LIG d   1       1.842  -2.136  -9.776  0.00  0.00     0.023 H 
ENDBRANCH  24  27
ENDBRANCH  21  24
ENDBRANCH  20  21
ENDBRANCH  17  20
ENDBRANCH   1  17
BRANCH   6  31
ATOM     31  C   LIG d   1       5.936  -1.885  -6.812  0.00  0.00    -0.019 C 
ATOM     32  H   LIG d   1       6.166  -1.914  -7.877  0.00  0.00     0.027 H 
ATOM     33  H   LIG d   1       5.339  -2.757  -6.545  0.00  0.00     0.027 H 
ATOM     34  H   LIG d   1       6.864  -1.890  -6.240  0.00  0.00     0.027 H 
ENDBRANCH   6  31
BRANCH   6  35
ATOM     35  C   LIG d   1       4.579  -0.680  -5.103  0.00  0.00     0.094 A 
ATOM     36  N   LIG d   1       4.351   0.422  -4.411  0.00  0.00    -0.226 NA
ATOM     37  C   LIG d   1       3.848   0.371  -3.193  0.00  0.00     0.156 A 
ATOM     38  S   LIG d   1       3.671  -1.338  -2.941  0.00  0.00    -0.061 SA
ATOM     39  C   LIG d   1       4.293  -1.873  -4.529  0.00  0.00     0.004 A 
ATOM     40  H   LIG d   1       4.410  -2.871  -4.922  0.00  0.00     0.071 H 
BRANCH  37  41
ATOM     41  N   LIG d   1       3.543   1.415  -2.332  0.00  0.00    -0.338 N 
ATOM     42  H   LIG d   1       3.481   1.253  -1.379  0.00  0.00     0.144 HD
ATOM     43  H   LIG d   1       3.392   2.305  -2.685  0.00  0.00     0.144 HD
ENDBRANCH  37  41
ENDBRANCH   6  35
TORSDOF 8
ENDMDL
MODEL 4
REMARK VINA RESULT:      -5.4      5.860      7.548
REMARK  8 active torsions:
REMARK  status: ('A' for Active; 'I' for Inactive)
REMARK    1  A    between atoms: C_1  and  C_2 
REMARK    2  A    between atoms: C_2  and  C_3 
REMARK    3  A    between atoms: C_3  and  O_4 
REMARK    4  A    between atoms: O_4  and  C_5 
REMARK    5  A    between atoms: C_5  and  C_6 
REMARK    6  A    between atoms: C_11  and  C_15 
REMARK    7  A    between atoms: C_11  and  C_16 
REMARK    8  A    between atoms: C_19  and  N_21 
ROOT
ATOM      1  C   LIG d   1       4.477  -0.398  -5.811  0.00  0.00     0.128 C 
ATOM      2  H   LIG d   1       4.455  -0.110  -6.861  0.00  0.00     0.076 H 
ATOM      3  C   LIG d   1       5.045  -1.829  -5.653  0.00  0.00     0.013 C 
ATOM      4  C   LIG d   1       6.539  -1.552  -5.427  0.00  0.00     0.171 C 
ATOM      5  C   LIG d   1       7.087  -2.417  -4.282  0.00  0.00     0.019 C 
ATOM      6  C   LIG d   1       7.913  -3.476  -5.053  0.00  0.00     0.154 C 
ATOM      7  O   LIG d   1       8.291  -2.811  -6.296  0.00  0.00    -0.451 OA
ATOM      8  C   LIG d   1       7.351  -1.914  -6.639  0.00  0.00     0.325 C 
ATOM      9  O   LIG d   1       7.186  -1.468  -7.749  0.00  0.00    -0.250 OA
ATOM     10  C   LIG d   1       6.639  -0.087  -5.102  0.00  0.00     0.325 C 
ATOM     11  O   LIG d   1       7.666   0.515  -4.899  0.00  0.00    -0.250 OA
ATOM     12  O   LIG d   1       5.406   0.448  -5.070  0.00  0.00    -0.458 OA
ATOM     13  H   LIG d   1       4.890  -2.414  -6.560  0.00  0.00     0.032 H 
ATOM     14  H   LIG d   1       4.606  -2.330  -4.789  0.00  0.00     0.032 H 
ATOM     15  H   LIG d   1       6.275  -2.885  -3.725  0.00  0.00     0.032 H 
ATOM     16  H   LIG d   1       7.724  -1.831  -3.621  0.00  0.00     0.032 H 
ENDROOT
BRANCH   1  17
ATOM     17  C   LIG d   1       3.075  -0.311  -5.204  0.00  0.00     0.085 C 
ATOM     18  H   LIG d   1       2.437   0.296  -5.847  0.00  0.00     0.060 H 
ATOM     19  H   LIG d   1       2.654  -1.312  -5.115  0.00  0.00     0.060 H 
BRANCH  17  20
ATOM     20  O   LIG d   1       3.153   0.289  -3.909  0.00  0.00    -0.376 OA
BRANCH  20  21
ATOM     21  C   LIG d   1       2.987  -0.634  -2.831  0.00  0.00     0.048 C 
ATOM     22  H   LIG d   1       2.119  -0.347  -2.237  0.00  0.00     0.056 H 
ATOM     23  H   LIG d   1       2.839  -1.637  -3.231  0.00  0.00     0.056 H 
BRANCH  21  24
ATOM     24  C   LIG d   1       4.236  -0.618  -1.948  0.00  0.00    -0.032 C 
ATOM     25  H   LIG d   1       4.025  -1.131  -1.009  0.00  0.00     0.029 H 
ATOM     26  H   LIG d   1       5.052  -1.124  -2.463  0.00  0.00     0.029 H 
BRANCH  24  27
ATOM     27  C   LIG d   1       4.637   0.831  -1.658  0.00  0.00    -0.063 C 
ATOM     28  H   LIG d   1       5.386   1.151  -2.383  0.00  0.00     0.023 H 
ATOM     29  H   LIG d   1       3.759   1.473  -1.734  0.00  0.00     0.023 H 
ATOM     30  H   LIG d   1       5.051   0.898  -0.652  0.00  0.00     0.023 H 
ENDBRANCH  24  27
ENDBRANCH  21  24
ENDBRANCH  20  21
ENDBRANCH  17  20
ENDBRANCH   1  17
BRANCH   6  31
ATOM     31  C   LIG d   1       7.058  -4.711  -5.345  0.00  0.00    -0.019 C 
ATOM     32  H   LIG d   1       6.441  -4.525  -6.224  0.00  0.00     0.027 H 
ATOM     33  H   LIG d   1       6.416  -4.920  -4.489  0.00  0.00     0.027 H 
ATOM     34  H   LIG d   1       7.707  -5.566  -5.531  0.00  0.00     0.027 H 
ENDBRANCH   6  31
BRANCH   6  35
ATOM     35  C   LIG d   1       9.140  -3.861  -4.268  0.00  0.00     0.094 A 
ATOM     36  N   LIG d   1       9.066  -4.744  -3.289  0.00  0.00    -0.226 NA
ATOM     37  C   LIG d   1      10.137  -5.091  -2.600  0.00  0.00     0.156 A 
ATOM     38  S   LIG d   1      11.375  -4.120  -3.336  0.00  0.00    -0.061 SA
ATOM     39  C   LIG d   1      10.343  -3.305  -4.547  0.00  0.00     0.004 A 
ATOM     40  H   LIG d   1      10.607  -2.572  -5.294  0.00  0.00     0.071 H 
BRANCH  37  41
ATOM     41  N   LIG d   1      10.245  -5.994  -1.554  0.00  0.00    -0.338 N 
ATOM     42  H   LIG d   1      10.490  -5.683  -0.669  0.00  0.00     0.144 HD
ATOM     43  H   LIG d   1      10.075  -6.937  -1.708  0.00  0.00     0.144 HD
ENDBRANCH  37  41
ENDBRANCH   6  35
TORSDOF 8
ENDMDL
MODEL 5
REMARK VINA RESULT:      -5.2      4.795      7.464
REMARK  8 active torsions:
REMARK  status: ('A' for Active; 'I' for Inactive)
REMARK    1  A    between atoms: C_1  and  C_2 
REMARK    2  A    between atoms: C_2  and  C_3 
REMARK    3  A    between atoms: C_3  and  O_4 
REMARK    4  A    between atoms: O_4  and  C_5 
REMARK    5  A    between atoms: C_5  and  C_6 
REMARK    6  A    between atoms: C_11  and  C_15 
REMARK    7  A    between atoms: C_11  and  C_16 
REMARK    8  A    between atoms: C_19  and  N_21 
ROOT
ATOM      1  C   LIG d   1       3.460   0.022  -4.547  0.00  0.00     0.128 C 
ATOM      2  H   LIG d   1       3.692   0.841  -3.866  0.00  0.00     0.076 H 
ATOM      3  C   LIG d   1       4.750  -0.508  -5.217  0.00  0.00     0.013 C 
ATOM      4  C   LIG d   1       5.155  -1.645  -4.267  0.00  0.00     0.171 C 
ATOM      5  C   LIG d   1       5.571  -2.894  -5.059  0.00  0.00     0.019 C 
ATOM      6  C   LIG d   1       7.110  -2.879  -4.888  0.00  0.00     0.154 C 
ATOM      7  O   LIG d   1       7.332  -2.165  -3.635  0.00  0.00    -0.451 OA
ATOM      8  C   LIG d   1       6.351  -1.267  -3.440  0.00  0.00     0.325 C 
ATOM      9  O   LIG d   1       6.421  -0.305  -2.712  0.00  0.00    -0.250 OA
ATOM     10  C   LIG d   1       3.946  -1.916  -3.415  0.00  0.00     0.325 C 
ATOM     11  O   LIG d   1       3.891  -2.722  -2.517  0.00  0.00    -0.250 OA
ATOM     12  O   LIG d   1       2.936  -1.121  -3.808  0.00  0.00    -0.458 OA
ATOM     13  H   LIG d   1       5.519   0.265  -5.250  0.00  0.00     0.032 H 
ATOM     14  H   LIG d   1       4.541  -0.890  -6.217  0.00  0.00     0.032 H 
ATOM     15  H   LIG d   1       5.294  -2.800  -6.109  0.00  0.00     0.032 H 
ATOM     16  H   LIG d   1       5.139  -3.794  -4.622  0.00  0.00     0.032 H 
ENDROOT
BRANCH   1  17
ATOM     17  C   LIG d   1       2.456   0.479  -5.607  0.00  0.00     0.085 C 
ATOM     18  H   LIG d   1       1.691  -0.286  -5.738  0.00  0.00     0.060 H 
ATOM     19  H   LIG d   1       1.988   1.410  -5.288  0.00  0.00     0.060 H 
BRANCH  17  20
ATOM     20  O   LIG d   1       3.137   0.690  -6.846  0.00  0.00    -0.376 OA
BRANCH  20  21
ATOM     21  C   LIG d   1       2.540   0.020  -7.958  0.00  0.00     0.048 C 
ATOM     22  H   LIG d   1       3.076  -0.908  -8.154  0.00  0.00     0.056 H 
ATOM     23  H   LIG d   1       1.498  -0.202  -7.731  0.00  0.00     0.056 H 
BRANCH  21  24
ATOM     24  C   LIG d   1       2.610   0.920  -9.193  0.00  0.00    -0.032 C 
ATOM     25  H   LIG d   1       3.246   0.454  -9.947  0.00  0.00     0.029 H 
ATOM     26  H   LIG d   1       1.609   1.060  -9.600  0.00  0.00     0.029 H 
BRANCH  24  27
ATOM     27  C   LIG d   1       3.196   2.279  -8.803  0.00  0.00    -0.063 C 
ATOM     28  H   LIG d   1       2.655   2.673  -7.942  0.00  0.00     0.023 H 
ATOM     29  H   LIG d   1       4.249   2.160  -8.546  0.00  0.00     0.023 H 
ATOM     30  H   LIG d   1       3.102   2.969  -9.640  0.00  0.00     0.023 H 
ENDBRANCH  24  27
ENDBRANCH  21  24
ENDBRANCH  20  21
ENDBRANCH  17  20
ENDBRANCH   1  17
BRANCH   6  31
ATOM     31  C   LIG d   1       7.768  -2.134  -6.051  0.00  0.00    -0.019 C 
ATOM     32  H   LIG d   1       8.254  -2.852  -6.713  0.00  0.00     0.027 H 
ATOM     33  H   LIG d   1       8.511  -1.437  -5.663  0.00  0.00     0.027 H 
ATOM     34  H   LIG d   1       7.009  -1.584  -6.607  0.00  0.00     0.027 H 
ENDBRANCH   6  31
BRANCH   6  35
ATOM     35  C   LIG d   1       7.644  -4.284  -4.795  0.00  0.00     0.094 A 
ATOM     36  N   LIG d   1       7.059  -5.275  -5.443  0.00  0.00    -0.226 NA
ATOM     37  C   LIG d   1       7.524  -6.507  -5.371  0.00  0.00     0.156 A 
ATOM     38  S   LIG d   1       8.886  -6.322  -4.310  0.00  0.00    -0.061 SA
ATOM     39  C   LIG d   1       8.734  -4.562  -4.039  0.00  0.00     0.004 A 
ATOM     40  H   LIG d   1       9.342  -3.903  -3.439  0.00  0.00     0.071 H 
BRANCH  37  41
ATOM     41  N   LIG d   1       7.045  -7.656  -5.981  0.00  0.00    -0.338 N 
ATOM     42  H   LIG d   1       6.263  -7.611  -6.553  0.00  0.00     0.144 HD
ATOM     43  H   LIG d   1       7.492  -8.504  -5.836  0.00  0.00     0.144 HD
ENDBRANCH  37  41
ENDBRANCH   6  35
TORSDOF 8
ENDMDL
MODEL 6
REMARK VINA RESULT:      -5.1      7.865      9.566
REMARK  8 active torsions:
REMARK  status: ('A' for Active; 'I' for Inactive)
REMARK    1  A    between atoms: C_1  and  C_2 
REMARK    2  A    between atoms: C_2  and  C_3 
REMARK    3  A    between atoms: C_3  and  O_4 
REMARK    4  A    between atoms: O_4  and  C_5 
REMARK    5  A    between atoms: C_5  and  C_6 
REMARK    6  A    between atoms: C_11  and  C_15 
REMARK    7  A    between atoms: C_11  and  C_16 
REMARK    8  A    between atoms: C_19  and  N_21 
ROOT
ATOM      1  C   LIG d   1       9.255   1.679  -4.315  0.00  0.00     0.128 C 
ATOM      2  H   LIG d   1      10.185   1.152  -4.102  0.00  0.00     0.076 H 
ATOM      3  C   LIG d   1       9.243   3.060  -3.617  0.00  0.00     0.013 C 
ATOM      4  C   LIG d   1       9.807   3.974  -4.715  0.00  0.00     0.171 C 
ATOM      5  C   LIG d   1       8.991   5.271  -4.818  0.00  0.00     0.019 C 
ATOM      6  C   LIG d   1       9.949   6.300  -4.169  0.00  0.00     0.154 C 
ATOM      7  O   LIG d   1      11.280   5.741  -4.376  0.00  0.00    -0.451 OA
ATOM      8  C   LIG d   1      11.215   4.399  -4.404  0.00  0.00     0.325 C 
ATOM      9  O   LIG d   1      12.143   3.651  -4.209  0.00  0.00    -0.250 OA
ATOM     10  C   LIG d   1       9.731   3.178  -5.989  0.00  0.00     0.325 C 
ATOM     11  O   LIG d   1      10.122   3.550  -7.069  0.00  0.00    -0.250 OA
ATOM     12  O   LIG d   1       9.158   1.988  -5.737  0.00  0.00    -0.458 OA
ATOM     13  H   LIG d   1       9.891   3.061  -2.739  0.00  0.00     0.032 H 
ATOM     14  H   LIG d   1       8.228   3.353  -3.349  0.00  0.00     0.032 H 
ATOM     15  H   LIG d   1       8.062   5.192  -4.253  0.00  0.00     0.032 H 
ATOM     16  H   LIG d   1       8.792   5.525  -5.858  0.00  0.00     0.032 H 
ENDROOT
BRANCH   1  17
ATOM     17  C   LIG d   1       8.054   0.844  -3.866  0.00  0.00     0.085 C 
ATOM     18  H   LIG d   1       7.723   0.211  -4.689  0.00  0.00     0.060 H 
ATOM     19  H   LIG d   1       8.342   0.219  -3.020  0.00  0.00     0.060 H 
BRANCH  17  20
ATOM     20  O   LIG d   1       6.990   1.714  -3.474  0.00  0.00    -0.376 OA
BRANCH  20  21
ATOM     21  C   LIG d   1       5.694   1.117  -3.553  0.00  0.00     0.048 C 
ATOM     22  H   LIG d   1       5.074   1.685  -4.247  0.00  0.00     0.056 H 
ATOM     23  H   LIG d   1       5.788   0.090  -3.905  0.00  0.00     0.056 H 
BRANCH  21  24
ATOM     24  C   LIG d   1       5.045   1.123  -2.168  0.00  0.00    -0.032 C 
ATOM     25  H   LIG d   1       5.485   0.335  -1.556  0.00  0.00     0.029 H 
ATOM     26  H   LIG d   1       5.214   2.089  -1.691  0.00  0.00     0.029 H 
BRANCH  24  27
ATOM     27  C   LIG d   1       3.540   0.880  -2.307  0.00  0.00    -0.063 C 
ATOM     28  H   LIG d   1       3.264   0.918  -3.361  0.00  0.00     0.023 H 
ATOM     29  H   LIG d   1       3.292  -0.100  -1.901  0.00  0.00     0.023 H 
ATOM     30  H   LIG d   1       2.996   1.649  -1.760  0.00  0.00     0.023 H 
ENDBRANCH  24  27
ENDBRANCH  21  24
ENDBRANCH  20  21
ENDBRANCH  17  20
ENDBRANCH   1  17
BRANCH   6  31
ATOM     31  C   LIG d   1       9.652   6.436  -2.674  0.00  0.00    -0.019 C 
ATOM     32  H   LIG d   1       8.899   7.209  -2.522  0.00  0.00     0.027 H 
ATOM     33  H   LIG d   1      10.566   6.711  -2.146  0.00  0.00     0.027 H 
ATOM     34  H   LIG d   1       9.282   5.486  -2.289  0.00  0.00     0.027 H 
ENDBRANCH   6  31
BRANCH   6  35
ATOM     35  C   LIG d   1       9.827   7.638  -4.851  0.00  0.00     0.094 A 
ATOM     36  N   LIG d   1       9.424   7.722  -6.106  0.00  0.00    -0.226 NA
ATOM     37  C   LIG d   1       9.310   8.890  -6.709  0.00  0.00     0.156 A 
ATOM     38  S   LIG d   1       9.809   9.994  -5.465  0.00  0.00    -0.061 SA
ATOM     39  C   LIG d   1      10.135   8.781  -4.194  0.00  0.00     0.004 A 
ATOM     40  H   LIG d   1      10.483   8.921  -3.182  0.00  0.00     0.071 H 
BRANCH  37  41
ATOM     41  N   LIG d   1       8.901   9.165  -8.005  0.00  0.00    -0.338 N 
ATOM     42  H   LIG d   1       9.561   9.297  -8.703  0.00  0.00     0.144 HD
ATOM     43  H   LIG d   1       7.956   9.224  -8.213  0.00  0.00     0.144 HD
ENDBRANCH  37  41
ENDBRANCH   6  35
TORSDOF 8
ENDMDL
MODEL 7
REMARK VINA RESULT:      -5.1      5.490      6.836
REMARK  8 active torsions:
REMARK  status: ('A' for Active; 'I' for Inactive)
REMARK    1  A    between atoms: C_1  and  C_2 
REMARK    2  A    between atoms: C_2  and  C_3 
REMARK    3  A    between atoms: C_3  and  O_4 
REMARK    4  A    between atoms: O_4  and  C_5 
REMARK    5  A    between atoms: C_5  and  C_6 
REMARK    6  A    between atoms: C_11  and  C_15 
REMARK    7  A    between atoms: C_11  and  C_16 
REMARK    8  A    between atoms: C_19  and  N_21 
ROOT
ATOM      1  C   LIG d   1       4.880  -0.602  -5.816  0.00  0.00     0.128 C 
ATOM      2  H   LIG d   1       5.315  -0.106  -6.682  0.00  0.00     0.076 H 
ATOM      3  C   LIG d   1       4.326  -1.993  -6.210  0.00  0.00     0.013 C 
ATOM      4  C   LIG d   1       5.525  -2.906  -5.911  0.00  0.00     0.171 C 
ATOM      5  C   LIG d   1       5.073  -4.178  -5.178  0.00  0.00     0.019 C 
ATOM      6  C   LIG d   1       5.180  -5.243  -6.296  0.00  0.00     0.154 C 
ATOM      7  O   LIG d   1       6.195  -4.719  -7.204  0.00  0.00    -0.451 OA
ATOM      8  C   LIG d   1       6.184  -3.375  -7.178  0.00  0.00     0.325 C 
ATOM      9  O   LIG d   1       6.633  -2.658  -8.039  0.00  0.00    -0.250 OA
ATOM     10  C   LIG d   1       6.460  -2.089  -5.062  0.00  0.00     0.325 C 
ATOM     11  O   LIG d   1       7.538  -2.456  -4.660  0.00  0.00    -0.250 OA
ATOM     12  O   LIG d   1       5.908  -0.887  -4.821  0.00  0.00    -0.458 OA
ATOM     13  H   LIG d   1       4.067  -2.025  -7.269  0.00  0.00     0.032 H 
ATOM     14  H   LIG d   1       3.468  -2.261  -5.592  0.00  0.00     0.032 H 
ATOM     15  H   LIG d   1       4.045  -4.081  -4.829  0.00  0.00     0.032 H 
ATOM     16  H   LIG d   1       5.743  -4.411  -4.351  0.00  0.00     0.032 H 
ENDROOT
BRANCH   1  17
ATOM     17  C   LIG d   1       3.772   0.260  -5.207  0.00  0.00     0.085 C 
ATOM     18  H   LIG d   1       4.205   1.172  -4.797  0.00  0.00     0.060 H 
ATOM     19  H   LIG d   1       3.046   0.517  -5.979  0.00  0.00     0.060 H 
BRANCH  17  20
ATOM     20  O   LIG d   1       3.120  -0.469  -4.165  0.00  0.00    -0.376 OA
BRANCH  20  21
ATOM     21  C   LIG d   1       3.229   0.138  -2.876  0.00  0.00     0.048 C 
ATOM     22  H   LIG d   1       3.671   1.129  -2.977  0.00  0.00     0.056 H 
ATOM     23  H   LIG d   1       2.238   0.226  -2.432  0.00  0.00     0.056 H 
BRANCH  21  24
ATOM     24  C   LIG d   1       4.115  -0.727  -1.978  0.00  0.00    -0.032 C 
ATOM     25  H   LIG d   1       5.163  -0.496  -2.171  0.00  0.00     0.029 H 
ATOM     26  H   LIG d   1       3.884  -0.521  -0.933  0.00  0.00     0.029 H 
BRANCH  24  27
ATOM     27  C   LIG d   1       3.856  -2.205  -2.276  0.00  0.00    -0.063 C 
ATOM     28  H   LIG d   1       3.368  -2.299  -3.247  0.00  0.00     0.023 H 
ATOM     29  H   LIG d   1       4.803  -2.744  -2.292  0.00  0.00     0.023 H 
ATOM     30  H   LIG d   1       3.212  -2.624  -1.503  0.00  0.00     0.023 H 
ENDBRANCH  24  27
ENDBRANCH  21  24
ENDBRANCH  20  21
ENDBRANCH  17  20
ENDBRANCH   1  17
BRANCH   6  31
ATOM     31  C   LIG d   1       3.841  -5.393  -7.021  0.00  0.00    -0.019 C 
ATOM     32  H   LIG d   1       3.187  -6.047  -6.444  0.00  0.00     0.027 H 
ATOM     33  H   LIG d   1       4.008  -5.825  -8.008  0.00  0.00     0.027 H 
ATOM     34  H   LIG d   1       3.374  -4.414  -7.127  0.00  0.00     0.027 H 
ENDBRANCH   6  31
BRANCH   6  35
ATOM     35  C   LIG d   1       5.618  -6.566  -5.724  0.00  0.00     0.094 A 
ATOM     36  N   LIG d   1       4.729  -7.471  -5.357  0.00  0.00    -0.226 NA
ATOM     37  C   LIG d   1       5.104  -8.635  -4.860  0.00  0.00     0.156 A 
ATOM     38  S   LIG d   1       6.835  -8.497  -4.874  0.00  0.00    -0.061 SA
ATOM     39  C   LIG d   1       6.933  -6.853  -5.568  0.00  0.00     0.004 A 
ATOM     40  H   LIG d   1       7.800  -6.253  -5.800  0.00  0.00     0.071 H 
BRANCH  37  41
ATOM     41  N   LIG d   1       4.318  -9.693  -4.431  0.00  0.00    -0.338 N 
ATOM     42  H   LIG d   1       3.535  -9.524  -3.884  0.00  0.00     0.144 HD
ATOM     43  H   LIG d   1       4.551 -10.601  -4.679  0.00  0.00     0.144 HD
ENDBRANCH  37  41
ENDBRANCH   6  35
TORSDOF 8
ENDMDL
MODEL 8
REMARK VINA RESULT:      -5.1      2.392      2.858
REMARK  8 active torsions:
REMARK  status: ('A' for Active; 'I' for Inactive)
REMARK    1  A    between atoms: C_1  and  C_2 
REMARK    2  A    between atoms: C_2  and  C_3 
REMARK    3  A    between atoms: C_3  and  O_4 
REMARK    4  A    between atoms: O_4  and  C_5 
REMARK    5  A    between atoms: C_5  and  C_6 
REMARK    6  A    between atoms: C_11  and  C_15 
REMARK    7  A    between atoms: C_11  and  C_16 
REMARK    8  A    between atoms: C_19  and  N_21 
ROOT
ATOM      1  C   LIG d   1       3.419   0.163  -6.420  0.00  0.00     0.128 C 
ATOM      2  H   LIG d   1       4.056   1.041  -6.519  0.00  0.00     0.076 H 
ATOM      3  C   LIG d   1       2.596  -0.058  -7.712  0.00  0.00     0.013 C 
ATOM      4  C   LIG d   1       3.498  -1.020  -8.500  0.00  0.00     0.171 C 
ATOM      5  C   LIG d   1       2.673  -2.158  -9.118  0.00  0.00     0.019 C 
ATOM      6  C   LIG d   1       2.646  -1.755 -10.613  0.00  0.00     0.154 C 
ATOM      7  O   LIG d   1       3.854  -0.957 -10.797  0.00  0.00    -0.451 OA
ATOM      8  C   LIG d   1       4.163  -0.322  -9.653  0.00  0.00     0.325 C 
ATOM      9  O   LIG d   1       4.867   0.655  -9.566  0.00  0.00    -0.250 OA
ATOM     10  C   LIG d   1       4.499  -1.546  -7.509  0.00  0.00     0.325 C 
ATOM     11  O   LIG d   1       5.404  -2.303  -7.767  0.00  0.00    -0.250 OA
ATOM     12  O   LIG d   1       4.229  -1.043  -6.292  0.00  0.00    -0.458 OA
ATOM     13  H   LIG d   1       2.458   0.879  -8.253  0.00  0.00     0.032 H 
ATOM     14  H   LIG d   1       1.634  -0.521  -7.487  0.00  0.00     0.032 H 
ATOM     15  H   LIG d   1       1.665  -2.179  -8.703  0.00  0.00     0.032 H 
ATOM     16  H   LIG d   1       3.169  -3.118  -8.982  0.00  0.00     0.032 H 
ENDROOT
BRANCH   1  17
ATOM     17  C   LIG d   1       2.489   0.313  -5.214  0.00  0.00     0.085 C 
ATOM     18  H   LIG d   1       1.547   0.758  -5.534  0.00  0.00     0.060 H 
ATOM     19  H   LIG d   1       2.297  -0.668  -4.778  0.00  0.00     0.060 H 
BRANCH  17  20
ATOM     20  O   LIG d   1       3.107   1.154  -4.238  0.00  0.00    -0.376 OA
BRANCH  20  21
ATOM     21  C   LIG d   1       3.555   0.459  -3.072  0.00  0.00     0.048 C 
ATOM     22  H   LIG d   1       4.626   0.274  -3.148  0.00  0.00     0.056 H 
ATOM     23  H   LIG d   1       3.352   1.064  -2.189  0.00  0.00     0.056 H 
BRANCH  21  24
ATOM     24  C   LIG d   1       2.815  -0.875  -2.958  0.00  0.00    -0.032 C 
ATOM     25  H   LIG d   1       1.974  -0.767  -2.272  0.00  0.00     0.029 H 
ATOM     26  H   LIG d   1       2.445  -1.171  -3.940  0.00  0.00     0.029 H 
BRANCH  24  27
ATOM     27  C   LIG d   1       3.772  -1.946  -2.429  0.00  0.00    -0.063 C 
ATOM     28  H   LIG d   1       3.345  -2.404  -1.536  0.00  0.00     0.023 H 
ATOM     29  H   LIG d   1       3.921  -2.709  -3.193  0.00  0.00     0.023 H 
ATOM     30  H   LIG d   1       4.729  -1.488  -2.181  0.00  0.00     0.023 H 
ENDBRANCH  24  27
ENDBRANCH  21  24
ENDBRANCH  20  21
ENDBRANCH  17  20
ENDBRANCH   1  17
BRANCH   6  31
ATOM     31  C   LIG d   1       1.402  -0.919 -10.919  0.00  0.00    -0.019 C 
ATOM     32  H   LIG d   1       0.509  -1.521 -10.749  0.00  0.00     0.027 H 
ATOM     33  H   LIG d   1       1.428  -0.594 -11.959  0.00  0.00     0.027 H 
ATOM     34  H   LIG d   1       1.381  -0.046 -10.267  0.00  0.00     0.027 H 
ENDBRANCH   6  31
BRANCH   6  35
ATOM     35  C   LIG d   1       2.685  -2.979 -11.491  0.00  0.00     0.094 A 
ATOM     36  N   LIG d   1       2.273  -4.149 -11.038  0.00  0.00    -0.226 NA
ATOM     37  C   LIG d   1       2.299  -5.224 -11.801  0.00  0.00     0.156 A 
ATOM     38  S   LIG d   1       2.958  -4.604 -13.283  0.00  0.00    -0.061 SA
ATOM     39  C   LIG d   1       3.149  -2.905 -12.761  0.00  0.00     0.004 A 
ATOM     40  H   LIG d   1       3.530  -2.056 -13.307  0.00  0.00     0.071 H 
BRANCH  37  41
ATOM     41  N   LIG d   1       1.906  -6.518 -11.497  0.00  0.00    -0.338 N 
ATOM     42  H   LIG d   1       1.039  -6.678 -11.093  0.00  0.00     0.144 HD
ATOM     43  H   LIG d   1       2.497  -7.262 -11.689  0.00  0.00     0.144 HD
ENDBRANCH  37  41
ENDBRANCH   6  35
TORSDOF 8
ENDMDL
MODEL 9
REMARK VINA RESULT:      -5.0     10.555     12.975
REMARK  8 active torsions:
REMARK  status: ('A' for Active; 'I' for Inactive)
REMARK    1  A    between atoms: C_1  and  C_2 
REMARK    2  A    between atoms: C_2  and  C_3 
REMARK    3  A    between atoms: C_3  and  O_4 
REMARK    4  A    between atoms: O_4  and  C_5 
REMARK    5  A    between atoms: C_5  and  C_6 
REMARK    6  A    between atoms: C_11  and  C_15 
REMARK    7  A    between atoms: C_11  and  C_16 
REMARK    8  A    between atoms: C_19  and  N_21 
ROOT
ATOM      1  C   LIG d   1      10.898   9.816  -0.076  0.00  0.00     0.128 C 
ATOM      2  H   LIG d   1      10.984   9.648   0.997  0.00  0.00     0.076 H 
ATOM      3  C   LIG d   1      11.625   8.696  -0.859  0.00  0.00     0.013 C 
ATOM      4  C   LIG d   1      10.489   7.692  -1.102  0.00  0.00     0.171 C 
ATOM      5  C   LIG d   1      10.518   7.177  -2.549  0.00  0.00     0.019 C 
ATOM      6  C   LIG d   1      11.071   5.742  -2.365  0.00  0.00     0.154 C 
ATOM      7  O   LIG d   1      10.691   5.377  -1.004  0.00  0.00    -0.451 OA
ATOM      8  C   LIG d   1      10.639   6.476  -0.231  0.00  0.00     0.325 C 
ATOM      9  O   LIG d   1      10.703   6.484   0.974  0.00  0.00    -0.250 OA
ATOM     10  C   LIG d   1       9.215   8.436  -0.812  0.00  0.00     0.325 C 
ATOM     11  O   LIG d   1       8.105   7.963  -0.855  0.00  0.00    -0.250 OA
ATOM     12  O   LIG d   1       9.505   9.711  -0.498  0.00  0.00    -0.458 OA
ATOM     13  H   LIG d   1      12.418   8.250  -0.257  0.00  0.00     0.032 H 
ATOM     14  H   LIG d   1      12.021   9.074  -1.802  0.00  0.00     0.032 H 
ATOM     15  H   LIG d   1      11.188   7.777  -3.164  0.00  0.00     0.032 H 
ATOM     16  H   LIG d   1       9.515   7.156  -2.975  0.00  0.00     0.032 H 
ENDROOT
BRANCH   1  17
ATOM     17  C   LIG d   1      11.468  11.185  -0.449  0.00  0.00     0.085 C 
ATOM     18  H   LIG d   1      10.733  11.959  -0.227  0.00  0.00     0.060 H 
ATOM     19  H   LIG d   1      12.375  11.371   0.126  0.00  0.00     0.060 H 
BRANCH  17  20
ATOM     20  O   LIG d   1      11.777  11.208  -1.845  0.00  0.00    -0.376 OA
BRANCH  20  21
ATOM     21  C   LIG d   1      10.964  12.105  -2.605  0.00  0.00     0.048 C 
ATOM     22  H   LIG d   1      10.326  12.676  -1.932  0.00  0.00     0.056 H 
ATOM     23  H   LIG d   1      11.603  12.786  -3.166  0.00  0.00     0.056 H 
BRANCH  21  24
ATOM     24  C   LIG d   1      10.095  11.305  -3.577  0.00  0.00    -0.032 C 
ATOM     25  H   LIG d   1      10.352  11.575  -4.602  0.00  0.00     0.029 H 
ATOM     26  H   LIG d   1      10.269  10.239  -3.428  0.00  0.00     0.029 H 
BRANCH  24  27
ATOM     27  C   LIG d   1       8.619  11.622  -3.321  0.00  0.00    -0.063 C 
ATOM     28  H   LIG d   1       8.148  10.775  -2.822  0.00  0.00     0.023 H 
ATOM     29  H   LIG d   1       8.542  12.506  -2.688  0.00  0.00     0.023 H 
ATOM     30  H   LIG d   1       8.119  11.809  -4.271  0.00  0.00     0.023 H 
ENDBRANCH  24  27
ENDBRANCH  21  24
ENDBRANCH  20  21
ENDBRANCH  17  20
ENDBRANCH   1  17
BRANCH   6  31
ATOM     31  C   LIG d   1      12.594   5.735  -2.515  0.00  0.00    -0.019 C 
ATOM     32  H   LIG d   1      12.905   4.815  -3.011  0.00  0.00     0.027 H 
ATOM     33  H   LIG d   1      13.057   5.790  -1.529  0.00  0.00     0.027 H 
ATOM     34  H   LIG d   1      12.905   6.592  -3.111  0.00  0.00     0.027 H 
ENDBRANCH   6  31
BRANCH   6  35
ATOM     35  C   LIG d   1      10.441   4.801  -3.358  0.00  0.00     0.094 A 
ATOM     36  N   LIG d   1      10.007   3.612  -2.982  0.00  0.00    -0.226 NA
ATOM     37  C   LIG d   1       9.450   2.784  -3.844  0.00  0.00     0.156 A 
ATOM     38  S   LIG d   1       9.525   3.692  -5.323  0.00  0.00    -0.061 SA
ATOM     39  C   LIG d   1      10.311   5.154  -4.660  0.00  0.00     0.004 A 
ATOM     40  H   LIG d   1      10.603   6.065  -5.159  0.00  0.00     0.071 H 
BRANCH  37  41
ATOM     41  N   LIG d   1       8.940   1.514  -3.627  0.00  0.00    -0.338 N 
ATOM     42  H   LIG d   1       9.505   0.737  -3.754  0.00  0.00     0.144 HD
ATOM     43  H   LIG d   1       8.018   1.403  -3.348  0.00  0.00     0.144 HD
ENDBRANCH  37  41
ENDBRANCH   6  35
TORSDOF 8
ENDMDL
