MODEL 1
REMARK VINA RESULT:      -7.1      0.000      0.000
REMARK  6 active torsions:
REMARK  status: ('A' for Active; 'I' for Inactive)
REMARK    1  A    between atoms: C_3  and  C_6 
REMARK    2  A    between atoms: C_6  and  N_7 
REMARK    3  A    between atoms: C_16  and  C_18 
REMARK    4  A    between atoms: C_20  and  C_23 
REMARK    5  A    between atoms: C_26  and  O_29 
REMARK    6  A    between atoms: O_29  and  C_30 
ROOT
ATOM      1  N   LIG d   1       5.414  -0.201  -6.572  0.00  0.00    -0.278 N 
ATOM      2  C   LIG d   1       4.474  -0.972  -7.403  0.00  0.00     0.066 C 
ATOM      3  C   LIG d   1       4.297  -0.249  -8.714  0.00  0.00     0.159 A 
ATOM      4  C   LIG d   1       5.144   0.711  -9.152  0.00  0.00     0.148 A 
ATOM      5  N   LIG d   1       4.679   1.139 -10.354  0.00  0.00    -0.247 N 
ATOM      6  H   LIG d   1       5.214   1.927 -10.903  0.00  0.00     0.310 HD
ATOM      7  C   LIG d   1       3.557   0.424 -10.621  0.00  0.00     0.243 A 
ATOM      8  N   LIG d   1       3.340  -0.403  -9.631  0.00  0.00    -0.246 N 
ATOM      9  C   LIG d   1       6.358   1.162  -8.382  0.00  0.00     0.037 C 
ATOM     10  C   LIG d   1       6.650   0.109  -7.304  0.00  0.00     0.098 C 
ATOM     11  H   LIG d   1       7.014  -0.826  -7.752  0.00  0.00     0.057 H 
ATOM     12  H   LIG d   1       4.882  -1.979  -7.580  0.00  0.00     0.051 H 
ATOM     13  H   LIG d   1       3.508  -1.054  -6.884  0.00  0.00     0.051 H 
ATOM     14  H   LIG d   1       2.944   0.521 -11.505  0.00  0.00     0.158 H 
ATOM     15  H   LIG d   1       7.214   1.252  -9.068  0.00  0.00     0.037 H 
ATOM     16  H   LIG d   1       6.157   2.139  -7.918  0.00  0.00     0.037 H 
ATOM     17  H   LIG d   1       2.541  -1.142  -9.473  0.00  0.00     0.310 HD
ENDROOT
BRANCH  10  18
ATOM     18  C   LIG d   1       7.680   0.647  -6.344  0.00  0.00     0.245 A 
ATOM     19  O   LIG d   1       8.650  -0.051  -5.746  0.00  0.00    -0.336 OA
ATOM     20  N   LIG d   1       9.310   0.677  -5.036  0.00  0.00    -0.056 NA
ATOM     21  C   LIG d   1       8.848   1.900  -5.094  0.00  0.00     0.202 A 
ATOM     22  N   LIG d   1       7.796   1.889  -5.944  0.00  0.00    -0.190 NA
BRANCH  21  23
ATOM     23  C   LIG d   1       9.382   3.079  -4.369  0.00  0.00     0.023 A 
ATOM     24  C   LIG d   1       9.217   4.358  -4.899  0.00  0.00    -0.048 A 
ATOM     25  C   LIG d   1       9.714   5.452  -4.223  0.00  0.00    -0.019 A 
ATOM     26  H   LIG d   1       8.701   4.491  -5.838  0.00  0.00     0.063 H 
ATOM     27  C   LIG d   1      10.377   5.281  -3.014  0.00  0.00     0.130 A 
ATOM     28  H   LIG d   1       9.586   6.443  -4.632  0.00  0.00     0.065 H 
ATOM     29  C   LIG d   1      10.543   4.008  -2.485  0.00  0.00    -0.019 A 
ATOM     30  C   LIG d   1      10.042   2.911  -3.154  0.00  0.00    -0.048 A 
ATOM     31  H   LIG d   1      11.059   3.878  -1.544  0.00  0.00     0.065 H 
ATOM     32  H   LIG d   1      10.167   1.922  -2.738  0.00  0.00     0.063 H 
BRANCH  27  33
ATOM     33  O   LIG d   1      10.865   6.361  -2.350  0.00  0.00    -0.406 OA
BRANCH  33  34
ATOM     34  C   LIG d   1      10.086   6.860  -1.262  0.00  0.00     0.575 C 
ATOM     35  F   LIG d   1      10.182   5.981  -0.177  0.00  0.00    -0.133 F 
ATOM     36  F   LIG d   1      10.564   8.119  -0.885  0.00  0.00    -0.133 F 
ATOM     37  F   LIG d   1       8.748   6.968  -1.656  0.00  0.00    -0.133 F 
ENDBRANCH  33  34
ENDBRANCH  27  33
ENDBRANCH  21  23
ENDBRANCH  10  18
BRANCH   1  38
ATOM     38  C   LIG d   1       5.708  -0.906  -5.317  0.00  0.00     0.032 C 
ATOM     39  H   LIG d   1       6.797  -0.963  -5.174  0.00  0.00     0.048 H 
ATOM     40  H   LIG d   1       5.290  -1.923  -5.361  0.00  0.00     0.048 H 
BRANCH  38  41
ATOM     41  C   LIG d   1       5.088  -0.158  -4.164  0.00  0.00     0.004 A 
ATOM     42  C   LIG d   1       5.685   0.355  -3.060  0.00  0.00    -0.050 A 
ATOM     43  C   LIG d   1       4.908   1.012  -2.124  0.00  0.00    -0.054 A 
ATOM     44  H   LIG d   1       6.749   0.255  -2.916  0.00  0.00     0.063 H 
ATOM     45  C   LIG d   1       3.573   1.114  -2.332  0.00  0.00    -0.024 A 
ATOM     46  H   LIG d   1       5.359   1.436  -1.238  0.00  0.00     0.062 H 
ATOM     47  S   LIG d   1       3.377   0.272  -3.893  0.00  0.00    -0.100 SA
ATOM     48  H   LIG d   1       2.822   1.584  -1.713  0.00  0.00     0.069 H 
ENDBRANCH  38  41
ENDBRANCH   1  38
TORSDOF 6
ENDMDL
MODEL 2
REMARK VINA RESULT:      -6.9      6.719      8.712
REMARK  6 active torsions:
REMARK  status: ('A' for Active; 'I' for Inactive)
REMARK    1  A    between atoms: C_3  and  C_6 
REMARK    2  A    between atoms: C_6  and  N_7 
REMARK    3  A    between atoms: C_16  and  C_18 
REMARK    4  A    between atoms: C_20  and  C_23 
REMARK    5  A    between atoms: C_26  and  O_29 
REMARK    6  A    between atoms: O_29  and  C_30 
ROOT
ATOM      1  N   LIG d   1       7.420  -7.928  -4.960  0.00  0.00    -0.278 N 
ATOM      2  C   LIG d   1       7.650  -9.382  -4.994  0.00  0.00     0.066 C 
ATOM      3  C   LIG d   1       6.318 -10.077  -4.866  0.00  0.00     0.159 A 
ATOM      4  C   LIG d   1       5.134  -9.453  -5.069  0.00  0.00     0.148 A 
ATOM      5  N   LIG d   1       4.156 -10.373  -4.867  0.00  0.00    -0.247 N 
ATOM      6  H   LIG d   1       3.100 -10.088  -4.976  0.00  0.00     0.310 HD
ATOM      7  C   LIG d   1       4.771 -11.540  -4.549  0.00  0.00     0.243 A 
ATOM      8  N   LIG d   1       6.065 -11.348  -4.552  0.00  0.00    -0.246 N 
ATOM      9  C   LIG d   1       5.015  -7.999  -5.445  0.00  0.00     0.037 C 
ATOM     10  C   LIG d   1       6.392  -7.523  -5.928  0.00  0.00     0.098 C 
ATOM     11  H   LIG d   1       6.651  -7.976  -6.896  0.00  0.00     0.057 H 
ATOM     12  H   LIG d   1       8.128  -9.656  -5.947  0.00  0.00     0.051 H 
ATOM     13  H   LIG d   1       8.306  -9.669  -4.160  0.00  0.00     0.051 H 
ATOM     14  H   LIG d   1       4.275 -12.473  -4.329  0.00  0.00     0.158 H 
ATOM     15  H   LIG d   1       4.270  -7.889  -6.249  0.00  0.00     0.037 H 
ATOM     16  H   LIG d   1       4.695  -7.417  -4.568  0.00  0.00     0.037 H 
ATOM     17  H   LIG d   1       6.895 -12.040  -4.347  0.00  0.00     0.310 HD
ENDROOT
BRANCH  10  18
ATOM     18  C   LIG d   1       6.387  -6.021  -6.056  0.00  0.00     0.245 A 
ATOM     19  O   LIG d   1       6.846  -5.310  -7.090  0.00  0.00    -0.336 OA
ATOM     20  N   LIG d   1       6.693  -4.125  -6.881  0.00  0.00    -0.056 NA
ATOM     21  C   LIG d   1       6.131  -3.944  -5.713  0.00  0.00     0.202 A 
ATOM     22  N   LIG d   1       5.925  -5.168  -5.175  0.00  0.00    -0.190 NA
BRANCH  21  23
ATOM     23  C   LIG d   1       5.781  -2.641  -5.096  0.00  0.00     0.023 A 
ATOM     24  C   LIG d   1       6.405  -2.237  -3.917  0.00  0.00    -0.048 A 
ATOM     25  C   LIG d   1       6.079  -1.025  -3.346  0.00  0.00    -0.019 A 
ATOM     26  H   LIG d   1       7.144  -2.872  -3.452  0.00  0.00     0.063 H 
ATOM     27  C   LIG d   1       5.130  -0.207  -3.945  0.00  0.00     0.130 A 
ATOM     28  H   LIG d   1       6.562  -0.712  -2.433  0.00  0.00     0.065 H 
ATOM     29  C   LIG d   1       4.506  -0.608  -5.119  0.00  0.00    -0.019 A 
ATOM     30  C   LIG d   1       4.834  -1.815  -5.698  0.00  0.00    -0.048 A 
ATOM     31  H   LIG d   1       3.768   0.031  -5.583  0.00  0.00     0.065 H 
ATOM     32  H   LIG d   1       4.351  -2.124  -6.615  0.00  0.00     0.063 H 
BRANCH  27  33
ATOM     33  O   LIG d   1       4.809   0.986  -3.380  0.00  0.00    -0.406 OA
BRANCH  33  34
ATOM     34  C   LIG d   1       3.963   0.953  -2.230  0.00  0.00     0.575 C 
ATOM     35  F   LIG d   1       3.090   2.047  -2.262  0.00  0.00    -0.133 F 
ATOM     36  F   LIG d   1       3.223  -0.234  -2.229  0.00  0.00    -0.133 F 
ATOM     37  F   LIG d   1       4.745   1.015  -1.072  0.00  0.00    -0.133 F 
ENDBRANCH  33  34
ENDBRANCH  27  33
ENDBRANCH  21  23
ENDBRANCH  10  18
BRANCH   1  38
ATOM     38  C   LIG d   1       8.672  -7.191  -5.181  0.00  0.00     0.032 C 
ATOM     39  H   LIG d   1       8.525  -6.451  -5.981  0.00  0.00     0.048 H 
ATOM     40  H   LIG d   1       9.465  -7.895  -5.474  0.00  0.00     0.048 H 
BRANCH  38  41
ATOM     41  C   LIG d   1       9.071  -6.486  -3.910  0.00  0.00     0.004 A 
ATOM     42  C   LIG d   1       9.206  -5.158  -3.678  0.00  0.00    -0.050 A 
ATOM     43  C   LIG d   1       9.584  -4.734  -2.417  0.00  0.00    -0.054 A 
ATOM     44  H   LIG d   1       9.018  -4.442  -4.463  0.00  0.00     0.063 H 
ATOM     45  C   LIG d   1       9.819  -5.659  -1.455  0.00  0.00    -0.024 A 
ATOM     46  H   LIG d   1       9.694  -3.680  -2.203  0.00  0.00     0.062 H 
ATOM     47  S   LIG d   1       9.498  -7.184  -2.324  0.00  0.00    -0.100 SA
ATOM     48  H   LIG d   1      10.123  -5.511  -0.429  0.00  0.00     0.069 H 
ENDBRANCH  38  41
ENDBRANCH   1  38
TORSDOF 6
ENDMDL
MODEL 3
REMARK VINA RESULT:      -6.8      5.035      8.517
REMARK  6 active torsions:
REMARK  status: ('A' for Active; 'I' for Inactive)
REMARK    1  A    between atoms: C_3  and  C_6 
REMARK    2  A    between atoms: C_6  and  N_7 
REMARK    3  A    between atoms: C_16  and  C_18 
REMARK    4  A    between atoms: C_20  and  C_23 
REMARK    5  A    between atoms: C_26  and  O_29 
REMARK    6  A    between atoms: O_29  and  C_30 
ROOT
ATOM      1  N   LIG d   1      10.518   6.232  -3.911  0.00  0.00    -0.278 N 
ATOM      2  C   LIG d   1      10.695   7.601  -4.424  0.00  0.00     0.066 C 
ATOM      3  C   LIG d   1      11.671   7.555  -5.573  0.00  0.00     0.159 A 
ATOM      4  C   LIG d   1      12.001   6.413  -6.220  0.00  0.00     0.148 A 
ATOM      5  N   LIG d   1      12.898   6.743  -7.185  0.00  0.00    -0.247 N 
ATOM      6  H   LIG d   1      13.311   5.965  -7.842  0.00  0.00     0.310 HD
ATOM      7  C   LIG d   1      13.090   8.083  -7.103  0.00  0.00     0.243 A 
ATOM      8  N   LIG d   1      12.349   8.557  -6.134  0.00  0.00    -0.246 N 
ATOM      9  C   LIG d   1      11.430   5.063  -5.868  0.00  0.00     0.037 C 
ATOM     10  C   LIG d   1      10.190   5.291  -4.991  0.00  0.00     0.098 C 
ATOM     11  H   LIG d   1       9.367   5.728  -5.574  0.00  0.00     0.057 H 
ATOM     12  H   LIG d   1       9.726   7.992  -4.769  0.00  0.00     0.051 H 
ATOM     13  H   LIG d   1      11.086   8.245  -3.623  0.00  0.00     0.051 H 
ATOM     14  H   LIG d   1      13.746   8.665  -7.734  0.00  0.00     0.158 H 
ATOM     15  H   LIG d   1      11.152   4.531  -6.791  0.00  0.00     0.037 H 
ATOM     16  H   LIG d   1      12.183   4.477  -5.321  0.00  0.00     0.037 H 
ATOM     17  H   LIG d   1      12.227   9.583  -5.758  0.00  0.00     0.310 HD
ENDROOT
BRANCH  10  18
ATOM     18  C   LIG d   1       9.750   3.978  -4.396  0.00  0.00     0.245 A 
ATOM     19  O   LIG d   1      10.447   3.219  -3.544  0.00  0.00    -0.336 OA
ATOM     20  N   LIG d   1       9.810   2.228  -3.254  0.00  0.00    -0.056 NA
ATOM     21  C   LIG d   1       8.658   2.237  -3.874  0.00  0.00     0.202 A 
ATOM     22  N   LIG d   1       8.610   3.371  -4.611  0.00  0.00    -0.190 NA
BRANCH  21  23
ATOM     23  C   LIG d   1       7.600   1.201  -3.782  0.00  0.00     0.023 A 
ATOM     24  C   LIG d   1       6.315   1.550  -3.370  0.00  0.00    -0.048 A 
ATOM     25  C   LIG d   1       5.334   0.585  -3.286  0.00  0.00    -0.019 A 
ATOM     26  H   LIG d   1       6.089   2.575  -3.117  0.00  0.00     0.063 H 
ATOM     27  C   LIG d   1       5.624  -0.733  -3.612  0.00  0.00     0.130 A 
ATOM     28  H   LIG d   1       4.338   0.856  -2.967  0.00  0.00     0.065 H 
ATOM     29  C   LIG d   1       6.903  -1.083  -4.022  0.00  0.00    -0.019 A 
ATOM     30  C   LIG d   1       7.887  -0.121  -4.114  0.00  0.00    -0.048 A 
ATOM     31  H   LIG d   1       7.127  -2.110  -4.275  0.00  0.00     0.065 H 
ATOM     32  H   LIG d   1       8.881  -0.395  -4.439  0.00  0.00     0.063 H 
BRANCH  27  33
ATOM     33  O   LIG d   1       4.655  -1.682  -3.528  0.00  0.00    -0.406 OA
BRANCH  33  34
ATOM     34  C   LIG d   1       3.850  -1.684  -2.348  0.00  0.00     0.575 C 
ATOM     35  F   LIG d   1       3.518  -3.002  -2.014  0.00  0.00    -0.133 F 
ATOM     36  F   LIG d   1       4.564  -1.103  -1.296  0.00  0.00    -0.133 F 
ATOM     37  F   LIG d   1       2.681  -0.953  -2.579  0.00  0.00    -0.133 F 
ENDBRANCH  33  34
ENDBRANCH  27  33
ENDBRANCH  21  23
ENDBRANCH  10  18
BRANCH   1  38
ATOM     38  C   LIG d   1       9.500   6.194  -2.853  0.00  0.00     0.032 C 
ATOM     39  H   LIG d   1       9.001   5.213  -2.858  0.00  0.00     0.048 H 
ATOM     40  H   LIG d   1       8.756   6.985  -3.031  0.00  0.00     0.048 H 
BRANCH  38  41
ATOM     41  C   LIG d   1      10.157   6.416  -1.515  0.00  0.00     0.004 A 
ATOM     42  C   LIG d   1      10.818   5.530  -0.731  0.00  0.00    -0.050 A 
ATOM     43  C   LIG d   1      11.348   5.964   0.470  0.00  0.00    -0.054 A 
ATOM     44  H   LIG d   1      10.931   4.503  -1.040  0.00  0.00     0.063 H 
ATOM     45  C   LIG d   1      11.183   7.260   0.832  0.00  0.00    -0.024 A 
ATOM     46  H   LIG d   1      11.884   5.280   1.111  0.00  0.00     0.062 H 
ATOM     47  S   LIG d   1      10.260   7.914  -0.548  0.00  0.00    -0.100 SA
ATOM     48  H   LIG d   1      11.522   7.764   1.725  0.00  0.00     0.069 H 
ENDBRANCH  38  41
ENDBRANCH   1  38
TORSDOF 6
ENDMDL
MODEL 4
REMARK VINA RESULT:      -6.7      4.983      8.628
REMARK  6 active torsions:
REMARK  status: ('A' for Active; 'I' for Inactive)
REMARK    1  A    between atoms: C_3  and  C_6 
REMARK    2  A    between atoms: C_6  and  N_7 
REMARK    3  A    between atoms: C_16  and  C_18 
REMARK    4  A    between atoms: C_20  and  C_23 
REMARK    5  A    between atoms: C_26  and  O_29 
REMARK    6  A    between atoms: O_29  and  C_30 
ROOT
ATOM      1  N   LIG d   1      10.507   5.751  -4.983  0.00  0.00    -0.278 N 
ATOM      2  C   LIG d   1      11.200   7.051  -4.969  0.00  0.00     0.066 C 
ATOM      3  C   LIG d   1      10.632   7.880  -3.845  0.00  0.00     0.159 A 
ATOM      4  C   LIG d   1       9.903   7.356  -2.833  0.00  0.00     0.148 A 
ATOM      5  N   LIG d   1       9.557   8.382  -2.013  0.00  0.00    -0.247 N 
ATOM      6  H   LIG d   1       8.954   8.190  -1.114  0.00  0.00     0.310 HD
ATOM      7  C   LIG d   1      10.090   9.509  -2.547  0.00  0.00     0.243 A 
ATOM      8  N   LIG d   1      10.731   9.195  -3.643  0.00  0.00    -0.246 N 
ATOM      9  C   LIG d   1       9.579   5.888  -2.715  0.00  0.00     0.037 C 
ATOM     10  C   LIG d   1      10.519   5.122  -3.656  0.00  0.00     0.098 C 
ATOM     11  H   LIG d   1      11.554   5.144  -3.287  0.00  0.00     0.057 H 
ATOM     12  H   LIG d   1      12.277   6.891  -4.813  0.00  0.00     0.051 H 
ATOM     13  H   LIG d   1      11.041   7.562  -5.931  0.00  0.00     0.051 H 
ATOM     14  H   LIG d   1      10.001  10.504  -2.135  0.00  0.00     0.158 H 
ATOM     15  H   LIG d   1       9.731   5.562  -1.675  0.00  0.00     0.037 H 
ATOM     16  H   LIG d   1       8.530   5.720  -3.001  0.00  0.00     0.037 H 
ATOM     17  H   LIG d   1      11.290   9.820  -4.354  0.00  0.00     0.310 HD
ENDROOT
BRANCH  10  18
ATOM     18  C   LIG d   1      10.053   3.693  -3.775  0.00  0.00     0.245 A 
ATOM     19  O   LIG d   1      10.814   2.630  -4.053  0.00  0.00    -0.336 OA
ATOM     20  N   LIG d   1      10.134   1.626  -4.074  0.00  0.00    -0.056 NA
ATOM     21  C   LIG d   1       8.885   1.923  -3.818  0.00  0.00     0.202 A 
ATOM     22  N   LIG d   1       8.827   3.260  -3.617  0.00  0.00    -0.190 NA
BRANCH  21  23
ATOM     23  C   LIG d   1       7.748   0.973  -3.754  0.00  0.00     0.023 A 
ATOM     24  C   LIG d   1       6.477   1.428  -3.409  0.00  0.00    -0.048 A 
ATOM     25  C   LIG d   1       5.422   0.542  -3.350  0.00  0.00    -0.019 A 
ATOM     26  H   LIG d   1       6.319   2.473  -3.188  0.00  0.00     0.063 H 
ATOM     27  C   LIG d   1       5.624  -0.802  -3.636  0.00  0.00     0.130 A 
ATOM     28  H   LIG d   1       4.436   0.894  -3.084  0.00  0.00     0.065 H 
ATOM     29  C   LIG d   1       6.890  -1.257  -3.979  0.00  0.00    -0.019 A 
ATOM     30  C   LIG d   1       7.948  -0.375  -4.045  0.00  0.00    -0.048 A 
ATOM     31  H   LIG d   1       7.045  -2.304  -4.201  0.00  0.00     0.065 H 
ATOM     32  H   LIG d   1       8.931  -0.730  -4.318  0.00  0.00     0.063 H 
BRANCH  27  33
ATOM     33  O   LIG d   1       4.583  -1.672  -3.578  0.00  0.00    -0.406 OA
BRANCH  33  34
ATOM     34  C   LIG d   1       3.810  -1.680  -2.376  0.00  0.00     0.575 C 
ATOM     35  F   LIG d   1       2.631  -0.954  -2.577  0.00  0.00    -0.133 F 
ATOM     36  F   LIG d   1       3.494  -2.998  -2.033  0.00  0.00    -0.133 F 
ATOM     37  F   LIG d   1       4.548  -1.093  -1.343  0.00  0.00    -0.133 F 
ENDBRANCH  33  34
ENDBRANCH  27  33
ENDBRANCH  21  23
ENDBRANCH  10  18
BRANCH   1  38
ATOM     38  C   LIG d   1      11.085   4.857  -5.996  0.00  0.00     0.032 C 
ATOM     39  H   LIG d   1      11.170   3.842  -5.582  0.00  0.00     0.048 H 
ATOM     40  H   LIG d   1      12.084   5.222  -6.280  0.00  0.00     0.048 H 
BRANCH  38  41
ATOM     41  C   LIG d   1      10.195   4.833  -7.211  0.00  0.00     0.004 A 
ATOM     42  C   LIG d   1       9.511   3.793  -7.747  0.00  0.00    -0.050 A 
ATOM     43  C   LIG d   1       8.745   4.007  -8.879  0.00  0.00    -0.054 A 
ATOM     44  H   LIG d   1       9.560   2.814  -7.296  0.00  0.00     0.063 H 
ATOM     45  C   LIG d   1       8.710   5.248  -9.424  0.00  0.00    -0.024 A 
ATOM     46  H   LIG d   1       8.185   3.197  -9.323  0.00  0.00     0.062 H 
ATOM     47  S   LIG d   1       9.776   6.164  -8.324  0.00  0.00    -0.100 SA
ATOM     48  H   LIG d   1       8.176   5.591 -10.298  0.00  0.00     0.069 H 
ENDBRANCH  38  41
ENDBRANCH   1  38
TORSDOF 6
ENDMDL
MODEL 5
REMARK VINA RESULT:      -6.7      4.784      8.090
REMARK  6 active torsions:
REMARK  status: ('A' for Active; 'I' for Inactive)
REMARK    1  A    between atoms: C_3  and  C_6 
REMARK    2  A    between atoms: C_6  and  N_7 
REMARK    3  A    between atoms: C_16  and  C_18 
REMARK    4  A    between atoms: C_20  and  C_23 
REMARK    5  A    between atoms: C_26  and  O_29 
REMARK    6  A    between atoms: O_29  and  C_30 
ROOT
ATOM      1  N   LIG d   1      10.323   5.039  -6.508  0.00  0.00    -0.278 N 
ATOM      2  C   LIG d   1      10.996   6.213  -7.090  0.00  0.00     0.066 C 
ATOM      3  C   LIG d   1      10.299   7.455  -6.594  0.00  0.00     0.159 A 
ATOM      4  C   LIG d   1       9.469   7.462  -5.526  0.00  0.00     0.148 A 
ATOM      5  N   LIG d   1       9.026   8.737  -5.371  0.00  0.00    -0.247 N 
ATOM      6  H   LIG d   1       8.329   8.983  -4.557  0.00  0.00     0.310 HD
ATOM      7  C   LIG d   1       9.601   9.477  -6.351  0.00  0.00     0.243 A 
ATOM      8  N   LIG d   1      10.362   8.697  -7.076  0.00  0.00    -0.246 N 
ATOM      9  C   LIG d   1       9.149   6.234  -4.712  0.00  0.00     0.037 C 
ATOM     10  C   LIG d   1      10.195   5.162  -5.049  0.00  0.00     0.098 C 
ATOM     11  H   LIG d   1      11.183   5.433  -4.651  0.00  0.00     0.057 H 
ATOM     12  H   LIG d   1      12.051   6.222  -6.779  0.00  0.00     0.051 H 
ATOM     13  H   LIG d   1      10.938   6.161  -8.187  0.00  0.00     0.051 H 
ATOM     14  H   LIG d   1       9.457  10.535  -6.507  0.00  0.00     0.158 H 
ATOM     15  H   LIG d   1       9.190   6.484  -3.641  0.00  0.00     0.037 H 
ATOM     16  H   LIG d   1       8.140   5.878  -4.967  0.00  0.00     0.037 H 
ATOM     17  H   LIG d   1      10.989   8.917  -7.953  0.00  0.00     0.310 HD
ENDROOT
BRANCH  10  18
ATOM     18  C   LIG d   1       9.760   3.840  -4.472  0.00  0.00     0.245 A 
ATOM     19  O   LIG d   1      10.485   3.039  -3.684  0.00  0.00    -0.336 OA
ATOM     20  N   LIG d   1       9.845   2.052  -3.390  0.00  0.00    -0.056 NA
ATOM     21  C   LIG d   1       8.660   2.105  -3.944  0.00  0.00     0.202 A 
ATOM     22  N   LIG d   1       8.596   3.262  -4.641  0.00  0.00    -0.190 NA
BRANCH  21  23
ATOM     23  C   LIG d   1       7.586   1.088  -3.825  0.00  0.00     0.023 A 
ATOM     24  C   LIG d   1       7.851  -0.245  -4.136  0.00  0.00    -0.048 A 
ATOM     25  C   LIG d   1       6.851  -1.189  -4.025  0.00  0.00    -0.019 A 
ATOM     26  H   LIG d   1       8.837  -0.539  -4.463  0.00  0.00     0.063 H 
ATOM     27  C   LIG d   1       5.583  -0.812  -3.603  0.00  0.00     0.130 A 
ATOM     28  H   LIG d   1       7.055  -2.221  -4.264  0.00  0.00     0.065 H 
ATOM     29  C   LIG d   1       5.317   0.515  -3.294  0.00  0.00    -0.019 A 
ATOM     30  C   LIG d   1       6.315   1.462  -3.397  0.00  0.00    -0.048 A 
ATOM     31  H   LIG d   1       4.329   0.806  -2.966  0.00  0.00     0.065 H 
ATOM     32  H   LIG d   1       6.108   2.494  -3.151  0.00  0.00     0.063 H 
BRANCH  27  33
ATOM     33  O   LIG d   1       4.599  -1.743  -3.494  0.00  0.00    -0.406 OA
BRANCH  33  34
ATOM     34  C   LIG d   1       3.787  -1.695  -2.320  0.00  0.00     0.575 C 
ATOM     35  F   LIG d   1       2.618  -0.975  -2.592  0.00  0.00    -0.133 F 
ATOM     36  F   LIG d   1       3.453  -2.996  -1.931  0.00  0.00    -0.133 F 
ATOM     37  F   LIG d   1       4.493  -1.066  -1.290  0.00  0.00    -0.133 F 
ENDBRANCH  33  34
ENDBRANCH  27  33
ENDBRANCH  21  23
ENDBRANCH  10  18
BRANCH   1  38
ATOM     38  C   LIG d   1      11.017   3.798  -6.874  0.00  0.00     0.032 C 
ATOM     39  H   LIG d   1      11.050   3.126  -6.003  0.00  0.00     0.048 H 
ATOM     40  H   LIG d   1      12.043   4.033  -7.195  0.00  0.00     0.048 H 
BRANCH  38  41
ATOM     41  C   LIG d   1      10.280   3.123  -8.002  0.00  0.00     0.004 A 
ATOM     42  C   LIG d   1       8.945   3.014  -8.204  0.00  0.00    -0.050 A 
ATOM     43  C   LIG d   1       8.490   2.345  -9.326  0.00  0.00    -0.054 A 
ATOM     44  H   LIG d   1       8.247   3.445  -7.503  0.00  0.00     0.063 H 
ATOM     45  C   LIG d   1       9.393   1.810 -10.183  0.00  0.00    -0.024 A 
ATOM     46  H   LIG d   1       7.430   2.248  -9.514  0.00  0.00     0.062 H 
ATOM     47  S   LIG d   1      10.941   2.253  -9.414  0.00  0.00    -0.100 SA
ATOM     48  H   LIG d   1       9.219   1.258 -11.095  0.00  0.00     0.069 H 
ENDBRANCH  38  41
ENDBRANCH   1  38
TORSDOF 6
ENDMDL
MODEL 6
REMARK VINA RESULT:      -6.6      5.001      9.269
REMARK  6 active torsions:
REMARK  status: ('A' for Active; 'I' for Inactive)
REMARK    1  A    between atoms: C_3  and  C_6 
REMARK    2  A    between atoms: C_6  and  N_7 
REMARK    3  A    between atoms: C_16  and  C_18 
REMARK    4  A    between atoms: C_20  and  C_23 
REMARK    5  A    between atoms: C_26  and  O_29 
REMARK    6  A    between atoms: O_29  and  C_30 
ROOT
ATOM      1  N   LIG d   1       9.693   6.099  -3.298  0.00  0.00    -0.278 N 
ATOM      2  C   LIG d   1      10.365   7.381  -3.024  0.00  0.00     0.066 C 
ATOM      3  C   LIG d   1      11.075   7.270  -1.697  0.00  0.00     0.159 A 
ATOM      4  C   LIG d   1      11.337   6.088  -1.093  0.00  0.00     0.148 A 
ATOM      5  N   LIG d   1      11.977   6.367   0.072  0.00  0.00    -0.247 N 
ATOM      6  H   LIG d   1      12.289   5.549   0.738  0.00  0.00     0.310 HD
ATOM      7  C   LIG d   1      12.092   7.716   0.147  0.00  0.00     0.243 A 
ATOM      8  N   LIG d   1      11.548   8.245  -0.919  0.00  0.00    -0.246 N 
ATOM      9  C   LIG d   1      10.952   4.753  -1.676  0.00  0.00     0.037 C 
ATOM     10  C   LIG d   1      10.618   4.966  -3.159  0.00  0.00     0.098 C 
ATOM     11  H   LIG d   1      11.521   5.202  -3.739  0.00  0.00     0.057 H 
ATOM     12  H   LIG d   1      11.091   7.592  -3.823  0.00  0.00     0.051 H 
ATOM     13  H   LIG d   1       9.618   8.186  -2.985  0.00  0.00     0.051 H 
ATOM     14  H   LIG d   1      12.557   8.264   0.953  0.00  0.00     0.158 H 
ATOM     15  H   LIG d   1      11.794   4.052  -1.572  0.00  0.00     0.037 H 
ATOM     16  H   LIG d   1      10.077   4.357  -1.140  0.00  0.00     0.037 H 
ATOM     17  H   LIG d   1      11.441   9.295  -1.226  0.00  0.00     0.310 HD
ENDROOT
BRANCH  10  18
ATOM     18  C   LIG d   1       9.971   3.721  -3.711  0.00  0.00     0.245 A 
ATOM     19  O   LIG d   1      10.366   3.030  -4.785  0.00  0.00    -0.336 OA
ATOM     20  N   LIG d   1       9.634   2.079  -4.960  0.00  0.00    -0.056 NA
ATOM     21  C   LIG d   1       8.705   2.052  -4.038  0.00  0.00     0.202 A 
ATOM     22  N   LIG d   1       8.921   3.109  -3.222  0.00  0.00    -0.190 NA
BRANCH  21  23
ATOM     23  C   LIG d   1       7.622   1.047  -3.909  0.00  0.00     0.023 A 
ATOM     24  C   LIG d   1       6.358   1.436  -3.467  0.00  0.00    -0.048 A 
ATOM     25  C   LIG d   1       5.353   0.500  -3.348  0.00  0.00    -0.019 A 
ATOM     26  H   LIG d   1       6.167   2.469  -3.218  0.00  0.00     0.063 H 
ATOM     27  C   LIG d   1       5.597  -0.829  -3.669  0.00  0.00     0.130 A 
ATOM     28  H   LIG d   1       4.374   0.801  -3.006  0.00  0.00     0.065 H 
ATOM     29  C   LIG d   1       6.855  -1.219  -4.109  0.00  0.00    -0.019 A 
ATOM     30  C   LIG d   1       7.862  -0.286  -4.236  0.00  0.00    -0.048 A 
ATOM     31  H   LIG d   1       7.043  -2.253  -4.358  0.00  0.00     0.065 H 
ATOM     32  H   LIG d   1       8.840  -0.590  -4.584  0.00  0.00     0.063 H 
BRANCH  27  33
ATOM     33  O   LIG d   1       4.605  -1.749  -3.551  0.00  0.00    -0.406 OA
BRANCH  33  34
ATOM     34  C   LIG d   1       3.837  -1.724  -2.346  0.00  0.00     0.575 C 
ATOM     35  F   LIG d   1       3.494  -3.032  -1.986  0.00  0.00    -0.133 F 
ATOM     36  F   LIG d   1       4.593  -1.142  -1.324  0.00  0.00    -0.133 F 
ATOM     37  F   LIG d   1       2.673  -0.977  -2.550  0.00  0.00    -0.133 F 
ENDBRANCH  33  34
ENDBRANCH  27  33
ENDBRANCH  21  23
ENDBRANCH  10  18
BRANCH   1  38
ATOM     38  C   LIG d   1       9.064   6.108  -4.625  0.00  0.00     0.032 C 
ATOM     39  H   LIG d   1       7.996   6.349  -4.524  0.00  0.00     0.048 H 
ATOM     40  H   LIG d   1       9.174   5.115  -5.089  0.00  0.00     0.048 H 
BRANCH  38  41
ATOM     41  C   LIG d   1       9.735   7.142  -5.492  0.00  0.00     0.004 A 
ATOM     42  C   LIG d   1       9.271   8.351  -5.891  0.00  0.00    -0.050 A 
ATOM     43  C   LIG d   1      10.071   9.145  -6.692  0.00  0.00    -0.054 A 
ATOM     44  H   LIG d   1       8.293   8.691  -5.586  0.00  0.00     0.063 H 
ATOM     45  C   LIG d   1      11.291   8.685  -7.063  0.00  0.00    -0.024 A 
ATOM     46  H   LIG d   1       9.728  10.115  -7.020  0.00  0.00     0.062 H 
ATOM     47  S   LIG d   1      11.343   7.089  -6.266  0.00  0.00    -0.100 SA
ATOM     48  H   LIG d   1      12.038   9.162  -7.681  0.00  0.00     0.069 H 
ENDBRANCH  38  41
ENDBRANCH   1  38
TORSDOF 6
ENDMDL
MODEL 7
REMARK VINA RESULT:      -6.6      8.193     11.435
REMARK  6 active torsions:
REMARK  status: ('A' for Active; 'I' for Inactive)
REMARK    1  A    between atoms: C_3  and  C_6 
REMARK    2  A    between atoms: C_6  and  N_7 
REMARK    3  A    between atoms: C_16  and  C_18 
REMARK    4  A    between atoms: C_20  and  C_23 
REMARK    5  A    between atoms: C_26  and  O_29 
REMARK    6  A    between atoms: O_29  and  C_30 
ROOT
ATOM      1  N   LIG d   1       4.724  -1.579  -5.650  0.00  0.00    -0.278 N 
ATOM      2  C   LIG d   1       5.300  -0.272  -5.288  0.00  0.00     0.066 C 
ATOM      3  C   LIG d   1       4.991  -0.002  -3.837  0.00  0.00     0.159 A 
ATOM      4  C   LIG d   1       4.594  -0.963  -2.972  0.00  0.00     0.148 A 
ATOM      5  N   LIG d   1       4.404  -0.366  -1.768  0.00  0.00    -0.247 N 
ATOM      6  H   LIG d   1       4.075  -0.960  -0.904  0.00  0.00     0.310 HD
ATOM      7  C   LIG d   1       4.694   0.949  -1.929  0.00  0.00     0.243 A 
ATOM      8  N   LIG d   1       5.044   1.154  -3.173  0.00  0.00    -0.246 N 
ATOM      9  C   LIG d   1       4.419  -2.409  -3.359  0.00  0.00     0.037 C 
ATOM     10  C   LIG d   1       5.130  -2.626  -4.703  0.00  0.00     0.098 C 
ATOM     11  H   LIG d   1       6.222  -2.564  -4.587  0.00  0.00     0.057 H 
ATOM     12  H   LIG d   1       6.389  -0.297  -5.443  0.00  0.00     0.051 H 
ATOM     13  H   LIG d   1       4.857   0.511  -5.920  0.00  0.00     0.051 H 
ATOM     14  H   LIG d   1       4.646   1.704  -1.158  0.00  0.00     0.158 H 
ATOM     15  H   LIG d   1       4.864  -3.052  -2.584  0.00  0.00     0.037 H 
ATOM     16  H   LIG d   1       3.347  -2.637  -3.453  0.00  0.00     0.037 H 
ATOM     17  H   LIG d   1       5.349   2.074  -3.693  0.00  0.00     0.310 HD
ENDROOT
BRANCH  10  18
ATOM     18  C   LIG d   1       4.754  -3.976  -5.256  0.00  0.00     0.245 A 
ATOM     19  O   LIG d   1       3.616  -4.288  -5.885  0.00  0.00    -0.336 OA
ATOM     20  N   LIG d   1       3.625  -5.458  -6.207  0.00  0.00    -0.056 NA
ATOM     21  C   LIG d   1       4.746  -6.018  -5.830  0.00  0.00     0.202 A 
ATOM     22  N   LIG d   1       5.484  -5.063  -5.218  0.00  0.00    -0.190 NA
BRANCH  21  23
ATOM     23  C   LIG d   1       5.136  -7.434  -6.038  0.00  0.00     0.023 A 
ATOM     24  C   LIG d   1       4.572  -8.168  -7.081  0.00  0.00    -0.048 A 
ATOM     25  C   LIG d   1       4.936  -9.483  -7.272  0.00  0.00    -0.019 A 
ATOM     26  H   LIG d   1       3.850  -7.705  -7.738  0.00  0.00     0.063 H 
ATOM     27  C   LIG d   1       5.865 -10.078  -6.428  0.00  0.00     0.130 A 
ATOM     28  H   LIG d   1       4.500 -10.052  -8.080  0.00  0.00     0.065 H 
ATOM     29  C   LIG d   1       6.428  -9.350  -5.389  0.00  0.00    -0.019 A 
ATOM     30  C   LIG d   1       6.072  -8.032  -5.197  0.00  0.00    -0.048 A 
ATOM     31  H   LIG d   1       7.150  -9.815  -4.733  0.00  0.00     0.065 H 
ATOM     32  H   LIG d   1       6.515  -7.464  -4.390  0.00  0.00     0.063 H 
BRANCH  27  33
ATOM     33  O   LIG d   1       6.223 -11.375  -6.619  0.00  0.00    -0.406 OA
BRANCH  33  34
ATOM     34  C   LIG d   1       5.689 -12.336  -5.707  0.00  0.00     0.575 C 
ATOM     35  F   LIG d   1       6.556 -12.475  -4.617  0.00  0.00    -0.133 F 
ATOM     36  F   LIG d   1       4.438 -11.905  -5.255  0.00  0.00    -0.133 F 
ATOM     37  F   LIG d   1       5.553 -13.568  -6.354  0.00  0.00    -0.133 F 
ENDBRANCH  33  34
ENDBRANCH  27  33
ENDBRANCH  21  23
ENDBRANCH  10  18
BRANCH   1  38
ATOM     38  C   LIG d   1       5.077  -1.948  -7.027  0.00  0.00     0.032 C 
ATOM     39  H   LIG d   1       5.321  -3.020  -7.068  0.00  0.00     0.048 H 
ATOM     40  H   LIG d   1       5.950  -1.361  -7.351  0.00  0.00     0.048 H 
BRANCH  38  41
ATOM     41  C   LIG d   1       3.912  -1.661  -7.939  0.00  0.00     0.004 A 
ATOM     42  C   LIG d   1       3.127  -0.558  -7.999  0.00  0.00    -0.050 A 
ATOM     43  C   LIG d   1       2.106  -0.513  -8.930  0.00  0.00    -0.054 A 
ATOM     44  H   LIG d   1       3.299   0.274  -7.333  0.00  0.00     0.063 H 
ATOM     45  C   LIG d   1       1.913  -1.578  -9.747  0.00  0.00    -0.024 A 
ATOM     46  H   LIG d   1       1.469   0.356  -9.003  0.00  0.00     0.062 H 
ATOM     47  S   LIG d   1       3.203  -2.690  -9.214  0.00  0.00    -0.100 SA
ATOM     48  H   LIG d   1       1.171  -1.716 -10.519  0.00  0.00     0.069 H 
ENDBRANCH  38  41
ENDBRANCH   1  38
TORSDOF 6
ENDMDL
MODEL 8
REMARK VINA RESULT:      -6.5      5.365      7.715
REMARK  6 active torsions:
REMARK  status: ('A' for Active; 'I' for Inactive)
REMARK    1  A    between atoms: C_3  and  C_6 
REMARK    2  A    between atoms: C_6  and  N_7 
REMARK    3  A    between atoms: C_16  and  C_18 
REMARK    4  A    between atoms: C_20  and  C_23 
REMARK    5  A    between atoms: C_26  and  O_29 
REMARK    6  A    between atoms: O_29  and  C_30 
ROOT
ATOM      1  N   LIG d   1       3.590  -2.462 -12.085  0.00  0.00    -0.278 N 
ATOM      2  C   LIG d   1       4.307  -3.048 -13.231  0.00  0.00     0.066 C 
ATOM      3  C   LIG d   1       4.546  -1.960 -14.247  0.00  0.00     0.159 A 
ATOM      4  C   LIG d   1       4.448  -0.642 -13.960  0.00  0.00     0.148 A 
ATOM      5  N   LIG d   1       4.723   0.040 -15.102  0.00  0.00    -0.247 N 
ATOM      6  H   LIG d   1       4.700   1.139 -15.106  0.00  0.00     0.310 HD
ATOM      7  C   LIG d   1       4.987  -0.884 -16.059  0.00  0.00     0.243 A 
ATOM      8  N   LIG d   1       4.878  -2.077 -15.534  0.00  0.00    -0.246 N 
ATOM      9  C   LIG d   1       4.090  -0.113 -12.594  0.00  0.00     0.037 C 
ATOM     10  C   LIG d   1       4.267  -1.258 -11.586  0.00  0.00     0.098 C 
ATOM     11  H   LIG d   1       5.329  -1.506 -11.450  0.00  0.00     0.057 H 
ATOM     12  H   LIG d   1       5.268  -3.462 -12.889  0.00  0.00     0.051 H 
ATOM     13  H   LIG d   1       3.699  -3.850 -13.673  0.00  0.00     0.051 H 
ATOM     14  H   LIG d   1       5.245  -0.670 -17.085  0.00  0.00     0.158 H 
ATOM     15  H   LIG d   1       4.757   0.725 -12.340  0.00  0.00     0.037 H 
ATOM     16  H   LIG d   1       3.047   0.236 -12.597  0.00  0.00     0.037 H 
ATOM     17  H   LIG d   1       5.013  -3.074 -15.979  0.00  0.00     0.310 HD
ENDROOT
BRANCH  10  18
ATOM     18  C   LIG d   1       3.666  -0.857 -10.263  0.00  0.00     0.245 A 
ATOM     19  O   LIG d   1       2.459  -0.315 -10.071  0.00  0.00    -0.336 OA
ATOM     20  N   LIG d   1       2.278  -0.112  -8.888  0.00  0.00    -0.056 NA
ATOM     21  C   LIG d   1       3.325  -0.493  -8.202  0.00  0.00     0.202 A 
ATOM     22  N   LIG d   1       4.226  -0.981  -9.085  0.00  0.00    -0.190 NA
BRANCH  21  23
ATOM     23  C   LIG d   1       3.491  -0.409  -6.730  0.00  0.00     0.023 A 
ATOM     24  C   LIG d   1       2.557   0.283  -5.960  0.00  0.00    -0.048 A 
ATOM     25  C   LIG d   1       2.714   0.359  -4.593  0.00  0.00    -0.019 A 
ATOM     26  H   LIG d   1       1.712   0.758  -6.435  0.00  0.00     0.063 H 
ATOM     27  C   LIG d   1       3.800  -0.253  -3.982  0.00  0.00     0.130 A 
ATOM     28  H   LIG d   1       1.990   0.894  -3.996  0.00  0.00     0.065 H 
ATOM     29  C   LIG d   1       4.732  -0.942  -4.746  0.00  0.00    -0.019 A 
ATOM     30  C   LIG d   1       4.577  -1.027  -6.114  0.00  0.00    -0.048 A 
ATOM     31  H   LIG d   1       5.577  -1.418  -4.268  0.00  0.00     0.065 H 
ATOM     32  H   LIG d   1       5.300  -1.568  -6.707  0.00  0.00     0.063 H 
BRANCH  27  33
ATOM     33  O   LIG d   1       3.953  -0.176  -2.634  0.00  0.00    -0.406 OA
BRANCH  33  34
ATOM     34  C   LIG d   1       4.321   1.094  -2.094  0.00  0.00     0.575 C 
ATOM     35  F   LIG d   1       5.286   1.687  -2.916  0.00  0.00    -0.133 F 
ATOM     36  F   LIG d   1       3.194   1.918  -2.029  0.00  0.00    -0.133 F 
ATOM     37  F   LIG d   1       4.847   0.920  -0.809  0.00  0.00    -0.133 F 
ENDBRANCH  33  34
ENDBRANCH  27  33
ENDBRANCH  21  23
ENDBRANCH  10  18
BRANCH   1  38
ATOM     38  C   LIG d   1       3.415  -3.451 -11.012  0.00  0.00     0.032 C 
ATOM     39  H   LIG d   1       3.507  -2.953 -10.036  0.00  0.00     0.048 H 
ATOM     40  H   LIG d   1       4.187  -4.230 -11.102  0.00  0.00     0.048 H 
BRANCH  38  41
ATOM     41  C   LIG d   1       2.051  -4.081 -11.128  0.00  0.00     0.004 A 
ATOM     42  C   LIG d   1       0.875  -3.678 -10.588  0.00  0.00    -0.050 A 
ATOM     43  C   LIG d   1      -0.265  -4.421 -10.834  0.00  0.00    -0.054 A 
ATOM     44  H   LIG d   1       0.829  -2.790  -9.976  0.00  0.00     0.063 H 
ATOM     45  C   LIG d   1      -0.171  -5.534 -11.601  0.00  0.00    -0.024 A 
ATOM     46  H   LIG d   1      -1.216  -4.119 -10.420  0.00  0.00     0.062 H 
ATOM     47  S   LIG d   1       1.566  -5.558 -12.007  0.00  0.00    -0.100 SA
ATOM     48  H   LIG d   1      -0.948  -6.228 -11.890  0.00  0.00     0.069 H 
ENDBRANCH  38  41
ENDBRANCH   1  38
TORSDOF 6
ENDMDL
MODEL 9
REMARK VINA RESULT:      -6.5      5.813      7.316
REMARK  6 active torsions:
REMARK  status: ('A' for Active; 'I' for Inactive)
REMARK    1  A    between atoms: C_3  and  C_6 
REMARK    2  A    between atoms: C_6  and  N_7 
REMARK    3  A    between atoms: C_16  and  C_18 
REMARK    4  A    between atoms: C_20  and  C_23 
REMARK    5  A    between atoms: C_26  and  O_29 
REMARK    6  A    between atoms: O_29  and  C_30 
ROOT
ATOM      1  N   LIG d   1       3.809  -0.434  -6.587  0.00  0.00    -0.278 N 
ATOM      2  C   LIG d   1       2.921   0.633  -7.081  0.00  0.00     0.066 C 
ATOM      3  C   LIG d   1       3.438   1.097  -8.420  0.00  0.00     0.159 A 
ATOM      4  C   LIG d   1       4.318   0.387  -9.162  0.00  0.00     0.148 A 
ATOM      5  N   LIG d   1       4.560   1.102 -10.291  0.00  0.00    -0.247 N 
ATOM      6  H   LIG d   1       5.255   0.715 -11.050  0.00  0.00     0.310 HD
ATOM      7  C   LIG d   1       3.814   2.232 -10.210  0.00  0.00     0.243 A 
ATOM      8  N   LIG d   1       3.147   2.217  -9.085  0.00  0.00    -0.246 N 
ATOM      9  C   LIG d   1       4.880  -0.945  -8.736  0.00  0.00     0.037 C 
ATOM     10  C   LIG d   1       4.002  -1.483  -7.597  0.00  0.00     0.098 C 
ATOM     11  H   LIG d   1       3.009  -1.776  -7.966  0.00  0.00     0.057 H 
ATOM     12  H   LIG d   1       1.899   0.240  -7.187  0.00  0.00     0.051 H 
ATOM     13  H   LIG d   1       2.921   1.469  -6.367  0.00  0.00     0.051 H 
ATOM     14  H   LIG d   1       3.777   3.015 -10.952  0.00  0.00     0.158 H 
ATOM     15  H   LIG d   1       4.864  -1.639  -9.590  0.00  0.00     0.037 H 
ATOM     16  H   LIG d   1       5.916  -0.814  -8.391  0.00  0.00     0.037 H 
ATOM     17  H   LIG d   1       2.441   2.944  -8.657  0.00  0.00     0.310 HD
ENDROOT
BRANCH  10  18
ATOM     18  C   LIG d   1       4.679  -2.671  -6.962  0.00  0.00     0.245 A 
ATOM     19  O   LIG d   1       4.243  -3.935  -6.976  0.00  0.00    -0.336 OA
ATOM     20  N   LIG d   1       5.018  -4.649  -6.377  0.00  0.00    -0.056 NA
ATOM     21  C   LIG d   1       6.019  -3.941  -5.919  0.00  0.00     0.202 A 
ATOM     22  N   LIG d   1       5.809  -2.660  -6.299  0.00  0.00    -0.190 NA
BRANCH  21  23
ATOM     23  C   LIG d   1       7.171  -4.449  -5.134  0.00  0.00     0.023 A 
ATOM     24  C   LIG d   1       7.840  -3.603  -4.251  0.00  0.00    -0.048 A 
ATOM     25  C   LIG d   1       8.911  -4.078  -3.522  0.00  0.00    -0.019 A 
ATOM     26  H   LIG d   1       7.520  -2.579  -4.137  0.00  0.00     0.063 H 
ATOM     27  C   LIG d   1       9.322  -5.396  -3.668  0.00  0.00     0.130 A 
ATOM     28  H   LIG d   1       9.429  -3.423  -2.837  0.00  0.00     0.065 H 
ATOM     29  C   LIG d   1       8.657  -6.240  -4.548  0.00  0.00    -0.019 A 
ATOM     30  C   LIG d   1       7.582  -5.773  -5.274  0.00  0.00    -0.048 A 
ATOM     31  H   LIG d   1       8.979  -7.265  -4.659  0.00  0.00     0.065 H 
ATOM     32  H   LIG d   1       7.062  -6.432  -5.955  0.00  0.00     0.063 H 
BRANCH  27  33
ATOM     33  O   LIG d   1      10.377  -5.861  -2.949  0.00  0.00    -0.406 OA
BRANCH  33  34
ATOM     34  C   LIG d   1      10.088  -6.453  -1.681  0.00  0.00     0.575 C 
ATOM     35  F   LIG d   1      11.242  -7.064  -1.178  0.00  0.00    -0.133 F 
ATOM     36  F   LIG d   1       9.658  -5.464  -0.792  0.00  0.00    -0.133 F 
ATOM     37  F   LIG d   1       9.082  -7.413  -1.833  0.00  0.00    -0.133 F 
ENDBRANCH  33  34
ENDBRANCH  27  33
ENDBRANCH  21  23
ENDBRANCH  10  18
BRANCH   1  38
ATOM     38  C   LIG d   1       3.302  -1.000  -5.330  0.00  0.00     0.032 C 
ATOM     39  H   LIG d   1       3.624  -2.048  -5.243  0.00  0.00     0.048 H 
ATOM     40  H   LIG d   1       2.203  -0.952  -5.322  0.00  0.00     0.048 H 
BRANCH  38  41
ATOM     41  C   LIG d   1       3.846  -0.210  -4.168  0.00  0.00     0.004 A 
ATOM     42  C   LIG d   1       3.173   0.451  -3.195  0.00  0.00    -0.050 A 
ATOM     43  C   LIG d   1       3.890   1.114  -2.216  0.00  0.00    -0.054 A 
ATOM     44  H   LIG d   1       2.094   0.458  -3.183  0.00  0.00     0.063 H 
ATOM     45  C   LIG d   1       5.244   1.091  -2.263  0.00  0.00    -0.024 A 
ATOM     46  H   LIG d   1       3.378   1.644  -1.426  0.00  0.00     0.062 H 
ATOM     47  S   LIG d   1       5.546   0.106  -3.721  0.00  0.00    -0.100 SA
ATOM     48  H   LIG d   1       5.956   1.550  -1.593  0.00  0.00     0.069 H 
ENDBRANCH  38  41
ENDBRANCH   1  38
TORSDOF 6
ENDMDL
MODEL 10
REMARK VINA RESULT:      -6.5      6.696      9.367
REMARK  6 active torsions:
REMARK  status: ('A' for Active; 'I' for Inactive)
REMARK    1  A    between atoms: C_3  and  C_6 
REMARK    2  A    between atoms: C_6  and  N_7 
REMARK    3  A    between atoms: C_16  and  C_18 
REMARK    4  A    between atoms: C_20  and  C_23 
REMARK    5  A    between atoms: C_26  and  O_29 
REMARK    6  A    between atoms: O_29  and  C_30 
ROOT
ATOM      1  N   LIG d   1      11.536  -5.612  -3.409  0.00  0.00    -0.278 N 
ATOM      2  C   LIG d   1      12.579  -6.587  -3.045  0.00  0.00     0.066 C 
ATOM      3  C   LIG d   1      12.168  -7.263  -1.761  0.00  0.00     0.159 A 
ATOM      4  C   LIG d   1      10.906  -7.230  -1.276  0.00  0.00     0.148 A 
ATOM      5  N   LIG d   1      10.903  -7.934  -0.114  0.00  0.00    -0.247 N 
ATOM      6  H   LIG d   1       9.973  -8.041   0.463  0.00  0.00     0.310 HD
ATOM      7  C   LIG d   1      12.168  -8.383   0.078  0.00  0.00     0.243 A 
ATOM      8  N   LIG d   1      12.916  -7.974  -0.915  0.00  0.00    -0.246 N 
ATOM      9  C   LIG d   1       9.770  -6.517  -1.963  0.00  0.00     0.037 C 
ATOM     10  C   LIG d   1      10.202  -6.227  -3.408  0.00  0.00     0.098 C 
ATOM     11  H   LIG d   1      10.262  -7.153  -3.996  0.00  0.00     0.057 H 
ATOM     12  H   LIG d   1      12.681  -7.332  -3.847  0.00  0.00     0.051 H 
ATOM     13  H   LIG d   1      13.536  -6.064  -2.905  0.00  0.00     0.051 H 
ATOM     14  H   LIG d   1      12.504  -8.980   0.913  0.00  0.00     0.158 H 
ATOM     15  H   LIG d   1       8.875  -7.158  -1.954  0.00  0.00     0.037 H 
ATOM     16  H   LIG d   1       9.552  -5.577  -1.434  0.00  0.00     0.037 H 
ATOM     17  H   LIG d   1      13.985  -8.129  -1.122  0.00  0.00     0.310 HD
ENDROOT
BRANCH  10  18
ATOM     18  C   LIG d   1       9.215  -5.284  -4.046  0.00  0.00     0.245 A 
ATOM     19  O   LIG d   1       8.820  -5.291  -5.323  0.00  0.00    -0.336 OA
ATOM     20  N   LIG d   1       8.016  -4.403  -5.516  0.00  0.00    -0.056 NA
ATOM     21  C   LIG d   1       7.808  -3.738  -4.408  0.00  0.00     0.202 A 
ATOM     22  N   LIG d   1       8.577  -4.306  -3.451  0.00  0.00    -0.190 NA
BRANCH  21  23
ATOM     23  C   LIG d   1       6.897  -2.581  -4.234  0.00  0.00     0.023 A 
ATOM     24  C   LIG d   1       5.516  -2.774  -4.231  0.00  0.00    -0.048 A 
ATOM     25  C   LIG d   1       4.671  -1.697  -4.068  0.00  0.00    -0.019 A 
ATOM     26  H   LIG d   1       5.109  -3.766  -4.356  0.00  0.00     0.063 H 
ATOM     27  C   LIG d   1       5.194  -0.420  -3.906  0.00  0.00     0.130 A 
ATOM     28  H   LIG d   1       3.602  -1.846  -4.065  0.00  0.00     0.065 H 
ATOM     29  C   LIG d   1       6.569  -0.225  -3.910  0.00  0.00    -0.019 A 
ATOM     30  C   LIG d   1       7.418  -1.300  -4.065  0.00  0.00    -0.048 A 
ATOM     31  H   LIG d   1       6.973   0.769  -3.784  0.00  0.00     0.065 H 
ATOM     32  H   LIG d   1       8.488  -1.147  -4.062  0.00  0.00     0.063 H 
BRANCH  27  33
ATOM     33  O   LIG d   1       4.359   0.640  -3.746  0.00  0.00    -0.406 OA
BRANCH  33  34
ATOM     34  C   LIG d   1       3.658   0.732  -2.505  0.00  0.00     0.575 C 
ATOM     35  F   LIG d   1       2.543  -0.113  -2.536  0.00  0.00    -0.133 F 
ATOM     36  F   LIG d   1       4.505   0.347  -1.461  0.00  0.00    -0.133 F 
ATOM     37  F   LIG d   1       3.238   2.050  -2.303  0.00  0.00    -0.133 F 
ENDBRANCH  33  34
ENDBRANCH  27  33
ENDBRANCH  21  23
ENDBRANCH  10  18
BRANCH   1  38
ATOM     38  C   LIG d   1      11.828  -4.989  -4.707  0.00  0.00     0.032 C 
ATOM     39  H   LIG d   1      10.942  -5.058  -5.355  0.00  0.00     0.048 H 
ATOM     40  H   LIG d   1      12.672  -5.511  -5.183  0.00  0.00     0.048 H 
BRANCH  38  41
ATOM     41  C   LIG d   1      12.187  -3.540  -4.499  0.00  0.00     0.004 A 
ATOM     42  C   LIG d   1      13.290  -3.009  -3.918  0.00  0.00    -0.050 A 
ATOM     43  C   LIG d   1      13.409  -1.634  -3.840  0.00  0.00    -0.054 A 
ATOM     44  H   LIG d   1      14.064  -3.649  -3.525  0.00  0.00     0.063 H 
ATOM     45  C   LIG d   1      12.415  -0.858  -4.337  0.00  0.00    -0.024 A 
ATOM     46  H   LIG d   1      14.281  -1.184  -3.387  0.00  0.00     0.062 H 
ATOM     47  S   LIG d   1      11.265  -2.078  -4.947  0.00  0.00    -0.100 SA
ATOM     48  H   LIG d   1      12.340   0.219  -4.358  0.00  0.00     0.069 H 
ENDBRANCH  38  41
ENDBRANCH   1  38
TORSDOF 6
ENDMDL
