MODEL 1
REMARK VINA RESULT:      -7.5      0.000      0.000
REMARK  9 active torsions:
REMARK  status: ('A' for Active; 'I' for Inactive)
REMARK    1  A    between atoms: C_6  and  O_7 
REMARK    2  A    between atoms: O_7  and  C_8 
REMARK    3  A    between atoms: C_8  and  C_9 
REMARK       I    between atoms: C_9  and  N_11 
REMARK    4  A    between atoms: N_11  and  CA_12 
REMARK    5  A    between atoms: CA_12  and  C_14 
REMARK    6  A    between atoms: CA_12  and  C_21 
REMARK    7  A    between atoms: C_14  and  C_15 
REMARK    8  A    between atoms: C_15  and  C_16 
REMARK    9  A    between atoms: C_16  and  N_17 
REMARK       I    between atoms: N_17  and  C_18 
REMARK       I    between atoms: C_18  and  N_20 
ROOT
ATOM      1  C   LIG d   1       9.421   4.056  -4.883  0.00  0.00     0.165 C 
ATOM      2  H   LIG d   1       9.577   4.573  -5.831  0.00  0.00     0.080 H 
ATOM      3  H   LIG d   1       8.372   4.132  -4.598  0.00  0.00     0.080 H 
ENDROOT
BRANCH   1   4
ATOM      4  O   LIG d   1       9.778   2.680  -5.027  0.00  0.00    -0.483 OA
BRANCH   4   5
ATOM      5  C   LIG d   1       8.847   1.760  -4.666  0.00  0.00     0.125 A 
ATOM      6  C   LIG d   1       8.951   0.452  -5.133  0.00  0.00    -0.019 A 
ATOM      7  C   LIG d   1       8.022  -0.485  -4.779  0.00  0.00    -0.047 A 
ATOM      8  H   LIG d   1       9.771   0.176  -5.778  0.00  0.00     0.065 H 
ATOM      9  C   LIG d   1       6.959  -0.127  -3.943  0.00  0.00     0.021 A 
ATOM     10  H   LIG d   1       8.107  -1.497  -5.145  0.00  0.00     0.063 H 
ATOM     11  C   LIG d   1       5.947  -1.110  -3.549  0.00  0.00    -0.027 A 
ATOM     12  C   LIG d   1       6.849   1.194  -3.468  0.00  0.00     0.143 A 
ATOM     13  C   LIG d   1       4.942  -0.709  -2.731  0.00  0.00     0.041 A 
ATOM     14  C   LIG d   1       5.795  -2.574  -3.889  0.00  0.00    -0.026 C 
ATOM     15  C   LIG d   1       4.893   0.635  -2.296  0.00  0.00     0.341 A 
ATOM     16  C   LIG d   1       4.008  -1.867  -2.451  0.00  0.00    -0.020 C 
ATOM     17  O   LIG d   1       5.821   1.532  -2.660  0.00  0.00    -0.422 OA
ATOM     18  O   LIG d   1       3.984   0.988  -1.566  0.00  0.00    -0.245 OA
ATOM     19  C   LIG d   1       4.332  -2.918  -3.536  0.00  0.00    -0.045 C 
ATOM     20  H   LIG d   1       2.969  -1.547  -2.531  0.00  0.00     0.032 H 
ATOM     21  H   LIG d   1       4.203  -2.276  -1.459  0.00  0.00     0.032 H 
ATOM     22  H   LIG d   1       3.683  -2.795  -4.402  0.00  0.00     0.027 H 
ATOM     23  H   LIG d   1       4.257  -3.928  -3.133  0.00  0.00     0.027 H 
ATOM     24  H   LIG d   1       5.976  -2.736  -4.951  0.00  0.00     0.031 H 
ATOM     25  H   LIG d   1       6.481  -3.175  -3.293  0.00  0.00     0.031 H 
ATOM     26  C   LIG d   1       7.801   2.131  -3.836  0.00  0.00     0.023 A 
ATOM     27  H   LIG d   1       7.727   3.147  -3.478  0.00  0.00     0.069 H 
ENDBRANCH   4   5
ENDBRANCH   1   4
BRANCH   1  28
ATOM     28  C   LIG d   1      10.278   4.689  -3.818  0.00  0.00     0.251 C 
ATOM     29  O   LIG d   1      11.271   4.118  -3.420  0.00  0.00    -0.272 OA
ATOM     30  N   LIG d   1       9.941   5.891  -3.306  0.00  0.00    -0.304 N 
ATOM     31  H   LIG d   1       9.146   6.347  -3.625  0.00  0.00     0.149 HD
BRANCH  30  32
ATOM     32  CA  LIG d   1      10.774   6.506  -2.271  0.00  0.00     0.063 C 
ATOM     33  HA  LIG d   1      11.517   5.786  -1.928  0.00  0.00     0.056 H 
BRANCH  32  34
ATOM     34  C   LIG d   1      11.481   7.733  -2.849  0.00  0.00    -0.028 C 
ATOM     35  H   LIG d   1      11.467   8.540  -2.116  0.00  0.00     0.029 H 
ATOM     36  H   LIG d   1      12.514   7.479  -3.087  0.00  0.00     0.029 H 
BRANCH  34  37
ATOM     37  C   LIG d   1      10.761   8.185  -4.121  0.00  0.00    -0.035 C 
ATOM     38  H   LIG d   1      11.330   7.864  -4.994  0.00  0.00     0.028 H 
ATOM     39  H   LIG d   1       9.767   7.741  -4.152  0.00  0.00     0.028 H 
BRANCH  37  40
ATOM     40  C   LIG d   1      10.640   9.709  -4.124  0.00  0.00     0.013 C 
ATOM     41  H   LIG d   1      11.569  10.149  -3.760  0.00  0.00     0.046 H 
ATOM     42  H   LIG d   1      10.448  10.056  -5.140  0.00  0.00     0.046 H 
BRANCH  40  43
ATOM     43  N   LIG d   1       9.534  10.114  -3.252  0.00  0.00    -0.300 N 
ATOM     44  C   LIG d   1       8.711  11.113  -3.628  0.00  0.00     0.297 C 
ATOM     45  O   LIG d   1       8.886  11.680  -4.688  0.00  0.00    -0.253 OA
ATOM     46  N   LIG d   1       7.694  11.485  -2.826  0.00  0.00    -0.313 N 
ATOM     47  H   LIG d   1       7.554  11.033  -1.978  0.00  0.00     0.146 HD
ATOM     48  H   LIG d   1       7.101  12.204  -3.095  0.00  0.00     0.146 HD
ATOM     49  H   LIG d   1       9.394   9.662  -2.406  0.00  0.00     0.150 HD
ENDBRANCH  40  43
ENDBRANCH  37  40
ENDBRANCH  34  37
ENDBRANCH  32  34
BRANCH  32  50
ATOM     50  C   LIG d   1       9.907   6.924  -1.111  0.00  0.00     0.062 C 
ATOM     51  O   LIG d   1       8.881   7.529  -1.312  0.00  0.00    -0.548 OA
ATOM     52  OXT LIG d   1      10.276   6.626   0.144  0.00  0.00    -0.548 OA
ENDBRANCH  32  50
ENDBRANCH  30  32
ENDBRANCH   1  28
TORSDOF 9
ENDMDL
MODEL 2
REMARK VINA RESULT:      -7.5      3.501      9.316
REMARK  9 active torsions:
REMARK  status: ('A' for Active; 'I' for Inactive)
REMARK    1  A    between atoms: C_6  and  O_7 
REMARK    2  A    between atoms: O_7  and  C_8 
REMARK    3  A    between atoms: C_8  and  C_9 
REMARK       I    between atoms: C_9  and  N_11 
REMARK    4  A    between atoms: N_11  and  CA_12 
REMARK    5  A    between atoms: CA_12  and  C_14 
REMARK    6  A    between atoms: CA_12  and  C_21 
REMARK    7  A    between atoms: C_14  and  C_15 
REMARK    8  A    between atoms: C_15  and  C_16 
REMARK    9  A    between atoms: C_16  and  N_17 
REMARK       I    between atoms: N_17  and  C_18 
REMARK       I    between atoms: C_18  and  N_20 
ROOT
ATOM      1  C   LIG d   1       9.395   2.053  -3.825  0.00  0.00     0.165 C 
ATOM      2  H   LIG d   1      10.150   1.336  -4.149  0.00  0.00     0.080 H 
ATOM      3  H   LIG d   1       9.503   2.234  -2.756  0.00  0.00     0.080 H 
ENDROOT
BRANCH   1   4
ATOM      4  O   LIG d   1       9.570   3.280  -4.536  0.00  0.00    -0.483 OA
BRANCH   4   5
ATOM      5  C   LIG d   1       9.710   4.408  -3.793  0.00  0.00     0.125 A 
ATOM      6  C   LIG d   1       9.336   5.639  -4.330  0.00  0.00    -0.019 A 
ATOM      7  C   LIG d   1       9.470   6.782  -3.595  0.00  0.00    -0.047 A 
ATOM      8  H   LIG d   1       8.936   5.689  -5.331  0.00  0.00     0.065 H 
ATOM      9  C   LIG d   1       9.988   6.718  -2.297  0.00  0.00     0.021 A 
ATOM     10  H   LIG d   1       9.180   7.734  -4.016  0.00  0.00     0.063 H 
ATOM     11  C   LIG d   1      10.146   7.928  -1.487  0.00  0.00    -0.027 A 
ATOM     12  C   LIG d   1      10.367   5.477  -1.751  0.00  0.00     0.143 A 
ATOM     13  C   LIG d   1      10.647   7.805  -0.233  0.00  0.00     0.041 A 
ATOM     14  C   LIG d   1       9.836   9.375  -1.790  0.00  0.00    -0.026 C 
ATOM     15  C   LIG d   1      11.012   6.526   0.248  0.00  0.00     0.341 A 
ATOM     16  C   LIG d   1      10.733   9.165   0.427  0.00  0.00    -0.020 C 
ATOM     17  O   LIG d   1      10.865   5.421  -0.497  0.00  0.00    -0.422 OA
ATOM     18  O   LIG d   1      11.466   6.426   1.374  0.00  0.00    -0.245 OA
ATOM     19  C   LIG d   1      10.616  10.182  -0.729  0.00  0.00    -0.045 C 
ATOM     20  H   LIG d   1      11.688   9.280   0.939  0.00  0.00     0.032 H 
ATOM     21  H   LIG d   1       9.909   9.294   1.129  0.00  0.00     0.032 H 
ATOM     22  H   LIG d   1      11.602  10.463  -1.101  0.00  0.00     0.027 H 
ATOM     23  H   LIG d   1      10.053  11.062  -0.418  0.00  0.00     0.027 H 
ATOM     24  H   LIG d   1      10.179   9.635  -2.791  0.00  0.00     0.031 H 
ATOM     25  H   LIG d   1       8.766   9.561  -1.697  0.00  0.00     0.031 H 
ATOM     26  C   LIG d   1      10.223   4.326  -2.510  0.00  0.00     0.023 A 
ATOM     27  H   LIG d   1      10.511   3.369  -2.101  0.00  0.00     0.069 H 
ENDBRANCH   4   5
ENDBRANCH   1   4
BRANCH   1  28
ATOM     28  C   LIG d   1       8.022   1.500  -4.106  0.00  0.00     0.251 C 
ATOM     29  O   LIG d   1       7.455   1.783  -5.140  0.00  0.00    -0.272 OA
ATOM     30  N   LIG d   1       7.424   0.691  -3.208  0.00  0.00    -0.304 N 
ATOM     31  H   LIG d   1       7.879   0.465  -2.381  0.00  0.00     0.149 HD
BRANCH  30  32
ATOM     32  CA  LIG d   1       6.089   0.153  -3.482  0.00  0.00     0.063 C 
ATOM     33  HA  LIG d   1       5.917   0.140  -4.557  0.00  0.00     0.056 H 
BRANCH  32  34
ATOM     34  C   LIG d   1       5.991  -1.270  -2.931  0.00  0.00    -0.028 C 
ATOM     35  H   LIG d   1       6.952  -1.773  -3.047  0.00  0.00     0.029 H 
ATOM     36  H   LIG d   1       5.727  -1.233  -1.874  0.00  0.00     0.029 H 
BRANCH  34  37
ATOM     37  C   LIG d   1       4.916  -2.042  -3.698  0.00  0.00    -0.035 C 
ATOM     38  H   LIG d   1       4.956  -3.096  -3.420  0.00  0.00     0.028 H 
ATOM     39  H   LIG d   1       3.934  -1.639  -3.451  0.00  0.00     0.028 H 
BRANCH  37  40
ATOM     40  C   LIG d   1       5.162  -1.902  -5.201  0.00  0.00     0.013 C 
ATOM     41  H   LIG d   1       5.869  -1.092  -5.379  0.00  0.00     0.046 H 
ATOM     42  H   LIG d   1       5.572  -2.834  -5.590  0.00  0.00     0.046 H 
BRANCH  40  43
ATOM     43  N   LIG d   1       3.897  -1.604  -5.878  0.00  0.00    -0.300 N 
ATOM     44  C   LIG d   1       3.763  -0.464  -6.583  0.00  0.00     0.297 C 
ATOM     45  O   LIG d   1       4.690   0.318  -6.658  0.00  0.00    -0.253 OA
ATOM     46  N   LIG d   1       2.599  -0.190  -7.206  0.00  0.00    -0.313 N 
ATOM     47  H   LIG d   1       1.858  -0.813  -7.146  0.00  0.00     0.146 HD
ATOM     48  H   LIG d   1       2.503   0.631  -7.714  0.00  0.00     0.146 HD
ATOM     49  H   LIG d   1       3.156  -2.228  -5.818  0.00  0.00     0.150 HD
ENDBRANCH  40  43
ENDBRANCH  37  40
ENDBRANCH  34  37
ENDBRANCH  32  34
BRANCH  32  50
ATOM     50  C   LIG d   1       5.052   1.023  -2.818  0.00  0.00     0.062 C 
ATOM     51  O   LIG d   1       4.283   1.667  -3.490  0.00  0.00    -0.548 OA
ATOM     52  OXT LIG d   1       4.984   1.081  -1.479  0.00  0.00    -0.548 OA
ENDBRANCH  32  50
ENDBRANCH  30  32
ENDBRANCH   1  28
TORSDOF 9
ENDMDL
MODEL 3
REMARK VINA RESULT:      -7.4      1.588      1.996
REMARK  9 active torsions:
REMARK  status: ('A' for Active; 'I' for Inactive)
REMARK    1  A    between atoms: C_6  and  O_7 
REMARK    2  A    between atoms: O_7  and  C_8 
REMARK    3  A    between atoms: C_8  and  C_9 
REMARK       I    between atoms: C_9  and  N_11 
REMARK    4  A    between atoms: N_11  and  CA_12 
REMARK    5  A    between atoms: CA_12  and  C_14 
REMARK    6  A    between atoms: CA_12  and  C_21 
REMARK    7  A    between atoms: C_14  and  C_15 
REMARK    8  A    between atoms: C_15  and  C_16 
REMARK    9  A    between atoms: C_16  and  N_17 
REMARK       I    between atoms: N_17  and  C_18 
REMARK       I    between atoms: C_18  and  N_20 
ROOT
ATOM      1  C   LIG d   1      11.163   2.477  -4.050  0.00  0.00     0.165 C 
ATOM      2  H   LIG d   1      11.018   1.795  -3.211  0.00  0.00     0.080 H 
ATOM      3  H   LIG d   1      12.080   2.213  -4.577  0.00  0.00     0.080 H 
ENDROOT
BRANCH   1   4
ATOM      4  O   LIG d   1      10.053   2.373  -4.944  0.00  0.00    -0.483 OA
BRANCH   4   5
ATOM      5  C   LIG d   1       9.054   1.524  -4.592  0.00  0.00     0.125 A 
ATOM      6  C   LIG d   1       9.084   0.203  -5.034  0.00  0.00    -0.019 A 
ATOM      7  C   LIG d   1       8.087  -0.664  -4.688  0.00  0.00    -0.047 A 
ATOM      8  H   LIG d   1       9.899  -0.139  -5.653  0.00  0.00     0.065 H 
ATOM      9  C   LIG d   1       7.029  -0.222  -3.885  0.00  0.00     0.021 A 
ATOM     10  H   LIG d   1       8.113  -1.687  -5.033  0.00  0.00     0.063 H 
ATOM     11  C   LIG d   1       5.945  -1.129  -3.500  0.00  0.00    -0.027 A 
ATOM     12  C   LIG d   1       6.995   1.112  -3.436  0.00  0.00     0.143 A 
ATOM     13  C   LIG d   1       4.949  -0.648  -2.715  0.00  0.00     0.041 A 
ATOM     14  C   LIG d   1       5.706  -2.586  -3.819  0.00  0.00    -0.026 C 
ATOM     15  C   LIG d   1       4.978   0.705  -2.305  0.00  0.00     0.341 A 
ATOM     16  C   LIG d   1       3.935  -1.737  -2.439  0.00  0.00    -0.020 C 
ATOM     17  O   LIG d   1       5.972   1.531  -2.660  0.00  0.00    -0.422 OA
ATOM     18  O   LIG d   1       4.077   1.130  -1.605  0.00  0.00    -0.245 OA
ATOM     19  C   LIG d   1       4.215  -2.827  -3.497  0.00  0.00    -0.045 C 
ATOM     20  H   LIG d   1       2.921  -1.351  -2.552  0.00  0.00     0.032 H 
ATOM     21  H   LIG d   1       4.078  -2.138  -1.436  0.00  0.00     0.032 H 
ATOM     22  H   LIG d   1       3.596  -2.678  -4.382  0.00  0.00     0.027 H 
ATOM     23  H   LIG d   1       4.063  -3.822  -3.080  0.00  0.00     0.027 H 
ATOM     24  H   LIG d   1       5.901  -2.779  -4.873  0.00  0.00     0.031 H 
ATOM     25  H   LIG d   1       6.336  -3.219  -3.195  0.00  0.00     0.031 H 
ATOM     26  C   LIG d   1       8.016   1.978  -3.796  0.00  0.00     0.023 A 
ATOM     27  H   LIG d   1       8.000   3.003  -3.457  0.00  0.00     0.069 H 
ENDBRANCH   4   5
ENDBRANCH   1   4
BRANCH   1  28
ATOM     28  C   LIG d   1      11.266   3.890  -3.539  0.00  0.00     0.251 C 
ATOM     29  O   LIG d   1      11.050   4.822  -4.284  0.00  0.00    -0.272 OA
ATOM     30  N   LIG d   1      11.599   4.119  -2.252  0.00  0.00    -0.304 N 
ATOM     31  H   LIG d   1      11.773   3.373  -1.657  0.00  0.00     0.149 HD
BRANCH  30  32
ATOM     32  CA  LIG d   1      11.699   5.494  -1.755  0.00  0.00     0.063 C 
ATOM     33  HA  LIG d   1      11.810   6.177  -2.596  0.00  0.00     0.056 H 
BRANCH  32  34
ATOM     34  C   LIG d   1      10.431   5.846  -0.974  0.00  0.00    -0.028 C 
ATOM     35  H   LIG d   1       9.779   4.974  -0.928  0.00  0.00     0.029 H 
ATOM     36  H   LIG d   1      10.701   6.151   0.036  0.00  0.00     0.029 H 
BRANCH  34  37
ATOM     37  C   LIG d   1       9.702   6.993  -1.676  0.00  0.00    -0.035 C 
ATOM     38  H   LIG d   1      10.230   7.252  -2.594  0.00  0.00     0.028 H 
ATOM     39  H   LIG d   1       8.685   6.683  -1.917  0.00  0.00     0.028 H 
BRANCH  37  40
ATOM     40  C   LIG d   1       9.659   8.211  -0.752  0.00  0.00     0.013 C 
ATOM     41  H   LIG d   1       9.357   7.898   0.248  0.00  0.00     0.046 H 
ATOM     42  H   LIG d   1      10.647   8.668  -0.707  0.00  0.00     0.046 H 
BRANCH  40  43
ATOM     43  N   LIG d   1       8.694   9.184  -1.271  0.00  0.00    -0.300 N 
ATOM     44  C   LIG d   1       9.128  10.296  -1.896  0.00  0.00     0.297 C 
ATOM     45  O   LIG d   1      10.320  10.494  -2.029  0.00  0.00    -0.253 OA
ATOM     46  N   LIG d   1       8.240  11.191  -2.373  0.00  0.00    -0.313 N 
ATOM     47  H   LIG d   1       7.289  11.035  -2.266  0.00  0.00     0.146 HD
ATOM     48  H   LIG d   1       8.553  11.992  -2.823  0.00  0.00     0.146 HD
ATOM     49  H   LIG d   1       7.742   9.027  -1.165  0.00  0.00     0.150 HD
ENDBRANCH  40  43
ENDBRANCH  37  40
ENDBRANCH  34  37
ENDBRANCH  32  34
BRANCH  32  50
ATOM     50  C   LIG d   1      12.898   5.614  -0.849  0.00  0.00     0.062 C 
ATOM     51  O   LIG d   1      13.950   5.114  -1.170  0.00  0.00    -0.548 OA
ATOM     52  OXT LIG d   1      12.796   6.276   0.313  0.00  0.00    -0.548 OA
ENDBRANCH  32  50
ENDBRANCH  30  32
ENDBRANCH   1  28
TORSDOF 9
ENDMDL
MODEL 4
REMARK VINA RESULT:      -7.4      3.510      9.382
REMARK  9 active torsions:
REMARK  status: ('A' for Active; 'I' for Inactive)
REMARK    1  A    between atoms: C_6  and  O_7 
REMARK    2  A    between atoms: O_7  and  C_8 
REMARK    3  A    between atoms: C_8  and  C_9 
REMARK       I    between atoms: C_9  and  N_11 
REMARK    4  A    between atoms: N_11  and  CA_12 
REMARK    5  A    between atoms: CA_12  and  C_14 
REMARK    6  A    between atoms: CA_12  and  C_21 
REMARK    7  A    between atoms: C_14  and  C_15 
REMARK    8  A    between atoms: C_15  and  C_16 
REMARK    9  A    between atoms: C_16  and  N_17 
REMARK       I    between atoms: N_17  and  C_18 
REMARK       I    between atoms: C_18  and  N_20 
ROOT
ATOM      1  C   LIG d   1       8.734   3.115  -4.757  0.00  0.00     0.165 C 
ATOM      2  H   LIG d   1       7.938   3.766  -4.393  0.00  0.00     0.080 H 
ATOM      3  H   LIG d   1       8.875   3.278  -5.826  0.00  0.00     0.080 H 
ENDROOT
BRANCH   1   4
ATOM      4  O   LIG d   1       9.948   3.415  -4.065  0.00  0.00    -0.483 OA
BRANCH   4   5
ATOM      5  C   LIG d   1      10.000   4.594  -3.394  0.00  0.00     0.125 A 
ATOM      6  C   LIG d   1       9.587   5.766  -4.025  0.00  0.00    -0.019 A 
ATOM      7  C   LIG d   1       9.633   6.960  -3.364  0.00  0.00    -0.047 A 
ATOM      8  H   LIG d   1       9.228   5.731  -5.042  0.00  0.00     0.065 H 
ATOM      9  C   LIG d   1      10.099   7.007  -2.045  0.00  0.00     0.021 A 
ATOM     10  H   LIG d   1       9.314   7.866  -3.857  0.00  0.00     0.063 H 
ATOM     11  C   LIG d   1      10.162   8.273  -1.312  0.00  0.00    -0.027 A 
ATOM     12  C   LIG d   1      10.517   5.825  -1.403  0.00  0.00     0.143 A 
ATOM     13  C   LIG d   1      10.615   8.258  -0.034  0.00  0.00     0.041 A 
ATOM     14  C   LIG d   1       9.792   9.679  -1.722  0.00  0.00    -0.026 C 
ATOM     15  C   LIG d   1      11.023   7.034   0.545  0.00  0.00     0.341 A 
ATOM     16  C   LIG d   1      10.605   9.660   0.537  0.00  0.00    -0.020 C 
ATOM     17  O   LIG d   1      10.963   5.877  -0.130  0.00  0.00    -0.422 OA
ATOM     18  O   LIG d   1      11.434   7.030   1.692  0.00  0.00    -0.245 OA
ATOM     19  C   LIG d   1      10.486  10.593  -0.688  0.00  0.00    -0.045 C 
ATOM     20  H   LIG d   1      11.531   9.858   1.077  0.00  0.00     0.032 H 
ATOM     21  H   LIG d   1       9.746   9.790   1.197  0.00  0.00     0.032 H 
ATOM     22  H   LIG d   1      11.471  10.901  -1.039  0.00  0.00     0.027 H 
ATOM     23  H   LIG d   1       9.866  11.460  -0.457  0.00  0.00     0.027 H 
ATOM     24  H   LIG d   1      10.164   9.892  -2.724  0.00  0.00     0.031 H 
ATOM     25  H   LIG d   1       8.712   9.815  -1.682  0.00  0.00     0.031 H 
ATOM     26  C   LIG d   1      10.462   4.622  -2.089  0.00  0.00     0.023 A 
ATOM     27  H   LIG d   1      10.780   3.709  -1.607  0.00  0.00     0.069 H 
ENDBRANCH   4   5
ENDBRANCH   1   4
BRANCH   1  28
ATOM     28  C   LIG d   1       8.359   1.676  -4.514  0.00  0.00     0.251 C 
ATOM     29  O   LIG d   1       9.202   0.809  -4.592  0.00  0.00    -0.272 OA
ATOM     30  N   LIG d   1       7.086   1.354  -4.208  0.00  0.00    -0.304 N 
ATOM     31  H   LIG d   1       6.412   2.049  -4.145  0.00  0.00     0.149 HD
BRANCH  30  32
ATOM     32  CA  LIG d   1       6.721  -0.045  -3.971  0.00  0.00     0.063 C 
ATOM     33  HA  LIG d   1       7.616  -0.617  -3.730  0.00  0.00     0.056 H 
BRANCH  32  34
ATOM     34  C   LIG d   1       5.735  -0.123  -2.803  0.00  0.00    -0.028 C 
ATOM     35  H   LIG d   1       4.883  -0.740  -3.088  0.00  0.00     0.029 H 
ATOM     36  H   LIG d   1       6.230  -0.566  -1.939  0.00  0.00     0.029 H 
BRANCH  34  37
ATOM     37  C   LIG d   1       5.251   1.284  -2.449  0.00  0.00    -0.035 C 
ATOM     38  H   LIG d   1       5.556   1.527  -1.430  0.00  0.00     0.028 H 
ATOM     39  H   LIG d   1       5.689   2.003  -3.140  0.00  0.00     0.028 H 
BRANCH  37  40
ATOM     40  C   LIG d   1       3.727   1.340  -2.551  0.00  0.00     0.013 C 
ATOM     41  H   LIG d   1       3.293   0.529  -1.965  0.00  0.00     0.046 H 
ATOM     42  H   LIG d   1       3.372   2.296  -2.166  0.00  0.00     0.046 H 
BRANCH  40  43
ATOM     43  N   LIG d   1       3.325   1.199  -3.953  0.00  0.00    -0.300 N 
ATOM     44  C   LIG d   1       2.600   0.132  -4.342  0.00  0.00     0.297 C 
ATOM     45  O   LIG d   1       2.279  -0.714  -3.531  0.00  0.00    -0.253 OA
ATOM     46  N   LIG d   1       2.231   0.003  -5.632  0.00  0.00    -0.313 N 
ATOM     47  H   LIG d   1       2.487   0.677  -6.280  0.00  0.00     0.146 HD
ATOM     48  H   LIG d   1       1.709  -0.766  -5.912  0.00  0.00     0.146 HD
ATOM     49  H   LIG d   1       3.581   1.874  -4.601  0.00  0.00     0.150 HD
ENDBRANCH  40  43
ENDBRANCH  37  40
ENDBRANCH  34  37
ENDBRANCH  32  34
BRANCH  32  50
ATOM     50  C   LIG d   1       6.080  -0.614  -5.210  0.00  0.00     0.062 C 
ATOM     51  O   LIG d   1       5.484   0.113  -5.970  0.00  0.00    -0.548 OA
ATOM     52  OXT LIG d   1       6.169  -1.927  -5.470  0.00  0.00    -0.548 OA
ENDBRANCH  32  50
ENDBRANCH  30  32
ENDBRANCH   1  28
TORSDOF 9
ENDMDL
MODEL 5
REMARK VINA RESULT:      -7.3      1.952      2.097
REMARK  9 active torsions:
REMARK  status: ('A' for Active; 'I' for Inactive)
REMARK    1  A    between atoms: C_6  and  O_7 
REMARK    2  A    between atoms: O_7  and  C_8 
REMARK    3  A    between atoms: C_8  and  C_9 
REMARK       I    between atoms: C_9  and  N_11 
REMARK    4  A    between atoms: N_11  and  CA_12 
REMARK    5  A    between atoms: CA_12  and  C_14 
REMARK    6  A    between atoms: CA_12  and  C_21 
REMARK    7  A    between atoms: C_14  and  C_15 
REMARK    8  A    between atoms: C_15  and  C_16 
REMARK    9  A    between atoms: C_16  and  N_17 
REMARK       I    between atoms: N_17  and  C_18 
REMARK       I    between atoms: C_18  and  N_20 
ROOT
ATOM      1  C   LIG d   1      11.112   2.795  -4.159  0.00  0.00     0.165 C 
ATOM      2  H   LIG d   1      10.998   2.131  -3.301  0.00  0.00     0.080 H 
ATOM      3  H   LIG d   1      11.968   2.476  -4.753  0.00  0.00     0.080 H 
ENDROOT
BRANCH   1   4
ATOM      4  O   LIG d   1       9.929   2.744  -4.960  0.00  0.00    -0.483 OA
BRANCH   4   5
ATOM      5  C   LIG d   1       8.990   1.826  -4.615  0.00  0.00     0.125 A 
ATOM      6  C   LIG d   1       9.102   0.516  -5.078  0.00  0.00    -0.019 A 
ATOM      7  C   LIG d   1       8.167  -0.419  -4.740  0.00  0.00    -0.047 A 
ATOM      8  H   LIG d   1       9.935   0.239  -5.707  0.00  0.00     0.065 H 
ATOM      9  C   LIG d   1       7.088  -0.059  -3.925  0.00  0.00     0.021 A 
ATOM     10  H   LIG d   1       8.257  -1.432  -5.102  0.00  0.00     0.063 H 
ATOM     11  C   LIG d   1       6.067  -1.040  -3.548  0.00  0.00    -0.027 A 
ATOM     12  C   LIG d   1       6.970   1.263  -3.454  0.00  0.00     0.143 A 
ATOM     13  C   LIG d   1       5.047  -0.638  -2.750  0.00  0.00     0.041 A 
ATOM     14  C   LIG d   1       5.921  -2.505  -3.889  0.00  0.00    -0.026 C 
ATOM     15  C   LIG d   1       4.991   0.708  -2.319  0.00  0.00     0.341 A 
ATOM     16  C   LIG d   1       4.107  -1.795  -2.486  0.00  0.00    -0.020 C 
ATOM     17  O   LIG d   1       5.927   1.603  -2.667  0.00  0.00    -0.422 OA
ATOM     18  O   LIG d   1       4.068   1.062  -1.607  0.00  0.00    -0.245 OA
ATOM     19  C   LIG d   1       4.451  -2.848  -3.563  0.00  0.00    -0.045 C 
ATOM     20  H   LIG d   1       3.071  -1.474  -2.587  0.00  0.00     0.032 H 
ATOM     21  H   LIG d   1       4.283  -2.201  -1.490  0.00  0.00     0.032 H 
ATOM     22  H   LIG d   1       3.818  -2.725  -4.442  0.00  0.00     0.027 H 
ATOM     23  H   LIG d   1       4.367  -3.857  -3.160  0.00  0.00     0.027 H 
ATOM     24  H   LIG d   1       6.122  -2.669  -4.947  0.00  0.00     0.031 H 
ATOM     25  H   LIG d   1       6.595  -3.105  -3.278  0.00  0.00     0.031 H 
ATOM     26  C   LIG d   1       7.929   2.199  -3.806  0.00  0.00     0.023 A 
ATOM     27  H   LIG d   1       7.849   3.215  -3.451  0.00  0.00     0.069 H 
ENDBRANCH   4   5
ENDBRANCH   1   4
BRANCH   1  28
ATOM     28  C   LIG d   1      11.332   4.206  -3.678  0.00  0.00     0.251 C 
ATOM     29  O   LIG d   1      12.457   4.655  -3.612  0.00  0.00    -0.272 OA
ATOM     30  N   LIG d   1      10.280   4.969  -3.321  0.00  0.00    -0.304 N 
ATOM     31  H   LIG d   1       9.380   4.609  -3.374  0.00  0.00     0.149 HD
BRANCH  30  32
ATOM     32  CA  LIG d   1      10.495   6.341  -2.854  0.00  0.00     0.063 C 
ATOM     33  HA  LIG d   1      11.563   6.527  -2.754  0.00  0.00     0.056 H 
BRANCH  32  34
ATOM     34  C   LIG d   1       9.898   7.322  -3.865  0.00  0.00    -0.028 C 
ATOM     35  H   LIG d   1       9.054   7.843  -3.412  0.00  0.00     0.029 H 
ATOM     36  H   LIG d   1      10.657   8.048  -4.158  0.00  0.00     0.029 H 
BRANCH  34  37
ATOM     37  C   LIG d   1       9.421   6.556  -5.100  0.00  0.00    -0.035 C 
ATOM     38  H   LIG d   1       9.492   5.484  -4.913  0.00  0.00     0.028 H 
ATOM     39  H   LIG d   1       8.386   6.820  -5.314  0.00  0.00     0.028 H 
BRANCH  37  40
ATOM     40  C   LIG d   1      10.298   6.923  -6.298  0.00  0.00     0.013 C 
ATOM     41  H   LIG d   1      10.949   7.756  -6.030  0.00  0.00     0.046 H 
ATOM     42  H   LIG d   1      10.906   6.063  -6.580  0.00  0.00     0.046 H 
BRANCH  40  43
ATOM     43  N   LIG d   1       9.447   7.310  -7.426  0.00  0.00    -0.300 N 
ATOM     44  C   LIG d   1       9.160   8.610  -7.638  0.00  0.00     0.297 C 
ATOM     45  O   LIG d   1       9.606   9.461  -6.893  0.00  0.00    -0.253 OA
ATOM     46  N   LIG d   1       8.378   8.966  -8.676  0.00  0.00    -0.313 N 
ATOM     47  H   LIG d   1       8.021   8.288  -9.270  0.00  0.00     0.146 HD
ATOM     48  H   LIG d   1       8.171   9.902  -8.828  0.00  0.00     0.146 HD
ATOM     49  H   LIG d   1       9.091   6.632  -8.021  0.00  0.00     0.150 HD
ENDBRANCH  40  43
ENDBRANCH  37  40
ENDBRANCH  34  37
ENDBRANCH  32  34
BRANCH  32  50
ATOM     50  C   LIG d   1       9.825   6.527  -1.517  0.00  0.00     0.062 C 
ATOM     51  O   LIG d   1       8.861   7.248  -1.419  0.00  0.00    -0.548 OA
ATOM     52  OXT LIG d   1      10.300   5.891  -0.435  0.00  0.00    -0.548 OA
ENDBRANCH  32  50
ENDBRANCH  30  32
ENDBRANCH   1  28
TORSDOF 9
ENDMDL
MODEL 6
REMARK VINA RESULT:      -7.0      1.831      3.031
REMARK  9 active torsions:
REMARK  status: ('A' for Active; 'I' for Inactive)
REMARK    1  A    between atoms: C_6  and  O_7 
REMARK    2  A    between atoms: O_7  and  C_8 
REMARK    3  A    between atoms: C_8  and  C_9 
REMARK       I    between atoms: C_9  and  N_11 
REMARK    4  A    between atoms: N_11  and  CA_12 
REMARK    5  A    between atoms: CA_12  and  C_14 
REMARK    6  A    between atoms: CA_12  and  C_21 
REMARK    7  A    between atoms: C_14  and  C_15 
REMARK    8  A    between atoms: C_15  and  C_16 
REMARK    9  A    between atoms: C_16  and  N_17 
REMARK       I    between atoms: N_17  and  C_18 
REMARK       I    between atoms: C_18  and  N_20 
ROOT
ATOM      1  C   LIG d   1       9.406   4.006  -4.979  0.00  0.00     0.165 C 
ATOM      2  H   LIG d   1       9.743   4.507  -5.888  0.00  0.00     0.080 H 
ATOM      3  H   LIG d   1       8.321   4.081  -4.905  0.00  0.00     0.080 H 
ENDROOT
BRANCH   1   4
ATOM      4  O   LIG d   1       9.787   2.630  -5.026  0.00  0.00    -0.483 OA
BRANCH   4   5
ATOM      5  C   LIG d   1       8.850   1.717  -4.662  0.00  0.00     0.125 A 
ATOM      6  C   LIG d   1       8.952   0.404  -5.115  0.00  0.00    -0.019 A 
ATOM      7  C   LIG d   1       8.017  -0.525  -4.757  0.00  0.00    -0.047 A 
ATOM      8  H   LIG d   1       9.775   0.118  -5.751  0.00  0.00     0.065 H 
ATOM      9  C   LIG d   1       6.950  -0.155  -3.931  0.00  0.00     0.021 A 
ATOM     10  H   LIG d   1       8.100  -1.541  -5.112  0.00  0.00     0.063 H 
ATOM     11  C   LIG d   1       5.931  -1.129  -3.534  0.00  0.00    -0.027 A 
ATOM     12  C   LIG d   1       6.842   1.171  -3.471  0.00  0.00     0.143 A 
ATOM     13  C   LIG d   1       4.922  -0.716  -2.727  0.00  0.00     0.041 A 
ATOM     14  C   LIG d   1       5.776  -2.596  -3.860  0.00  0.00    -0.026 C 
ATOM     15  C   LIG d   1       4.875   0.633  -2.307  0.00  0.00     0.341 A 
ATOM     16  C   LIG d   1       3.982  -1.867  -2.441  0.00  0.00    -0.020 C 
ATOM     17  O   LIG d   1       5.810   1.522  -2.673  0.00  0.00    -0.422 OA
ATOM     18  O   LIG d   1       3.963   0.997  -1.587  0.00  0.00    -0.245 OA
ATOM     19  C   LIG d   1       4.308  -2.931  -3.513  0.00  0.00    -0.045 C 
ATOM     20  H   LIG d   1       2.945  -1.544  -2.532  0.00  0.00     0.032 H 
ATOM     21  H   LIG d   1       4.169  -2.266  -1.444  0.00  0.00     0.032 H 
ATOM     22  H   LIG d   1       3.665  -2.814  -4.385  0.00  0.00     0.027 H 
ATOM     23  H   LIG d   1       4.226  -3.936  -3.101  0.00  0.00     0.027 H 
ATOM     24  H   LIG d   1       5.963  -2.770  -4.920  0.00  0.00     0.031 H 
ATOM     25  H   LIG d   1       6.455  -3.194  -3.253  0.00  0.00     0.031 H 
ATOM     26  C   LIG d   1       7.800   2.101  -3.843  0.00  0.00     0.023 A 
ATOM     27  H   LIG d   1       7.728   3.121  -3.496  0.00  0.00     0.069 H 
ENDBRANCH   4   5
ENDBRANCH   1   4
BRANCH   1  28
ATOM     28  C   LIG d   1      10.038   4.662  -3.779  0.00  0.00     0.251 C 
ATOM     29  O   LIG d   1      10.624   3.989  -2.958  0.00  0.00    -0.272 OA
ATOM     30  N   LIG d   1       9.953   5.998  -3.618  0.00  0.00    -0.304 N 
ATOM     31  H   LIG d   1       9.484   6.537  -4.275  0.00  0.00     0.149 HD
BRANCH  30  32
ATOM     32  CA  LIG d   1      10.568   6.636  -2.451  0.00  0.00     0.063 C 
ATOM     33  HA  LIG d   1      10.675   5.904  -1.652  0.00  0.00     0.056 H 
BRANCH  32  34
ATOM     34  C   LIG d   1      11.947   7.178  -2.835  0.00  0.00    -0.028 C 
ATOM     35  H   LIG d   1      12.090   7.079  -3.911  0.00  0.00     0.029 H 
ATOM     36  H   LIG d   1      12.014   8.229  -2.555  0.00  0.00     0.029 H 
BRANCH  34  37
ATOM     37  C   LIG d   1      13.030   6.386  -2.101  0.00  0.00    -0.035 C 
ATOM     38  H   LIG d   1      12.840   5.318  -2.217  0.00  0.00     0.028 H 
ATOM     39  H   LIG d   1      14.005   6.629  -2.520  0.00  0.00     0.028 H 
BRANCH  37  40
ATOM     40  C   LIG d   1      13.008   6.748  -0.615  0.00  0.00     0.013 C 
ATOM     41  H   LIG d   1      14.031   6.834  -0.247  0.00  0.00     0.046 H 
ATOM     42  H   LIG d   1      12.492   7.698  -0.480  0.00  0.00     0.046 H 
BRANCH  40  43
ATOM     43  N   LIG d   1      12.307   5.701   0.133  0.00  0.00    -0.300 N 
ATOM     44  C   LIG d   1      11.372   6.035   1.044  0.00  0.00     0.297 C 
ATOM     45  O   LIG d   1      11.110   7.205   1.246  0.00  0.00    -0.253 OA
ATOM     46  N   LIG d   1      10.727   5.072   1.732  0.00  0.00    -0.313 N 
ATOM     47  H   LIG d   1      10.937   4.138   1.572  0.00  0.00     0.146 HD
ATOM     48  H   LIG d   1      10.054   5.313   2.388  0.00  0.00     0.146 HD
ATOM     49  H   LIG d   1      12.516   4.767  -0.027  0.00  0.00     0.150 HD
ENDBRANCH  40  43
ENDBRANCH  37  40
ENDBRANCH  34  37
ENDBRANCH  32  34
BRANCH  32  50
ATOM     50  C   LIG d   1       9.695   7.770  -1.980  0.00  0.00     0.062 C 
ATOM     51  O   LIG d   1       9.874   8.887  -2.404  0.00  0.00    -0.548 OA
ATOM     52  OXT LIG d   1       8.718   7.539  -1.089  0.00  0.00    -0.548 OA
ENDBRANCH  32  50
ENDBRANCH  30  32
ENDBRANCH   1  28
TORSDOF 9
ENDMDL
MODEL 7
REMARK VINA RESULT:      -6.9      2.318      3.761
REMARK  9 active torsions:
REMARK  status: ('A' for Active; 'I' for Inactive)
REMARK    1  A    between atoms: C_6  and  O_7 
REMARK    2  A    between atoms: O_7  and  C_8 
REMARK    3  A    between atoms: C_8  and  C_9 
REMARK       I    between atoms: C_9  and  N_11 
REMARK    4  A    between atoms: N_11  and  CA_12 
REMARK    5  A    between atoms: CA_12  and  C_14 
REMARK    6  A    between atoms: CA_12  and  C_21 
REMARK    7  A    between atoms: C_14  and  C_15 
REMARK    8  A    between atoms: C_15  and  C_16 
REMARK    9  A    between atoms: C_16  and  N_17 
REMARK       I    between atoms: N_17  and  C_18 
REMARK       I    between atoms: C_18  and  N_20 
ROOT
ATOM      1  C   LIG d   1       9.743   2.683  -7.134  0.00  0.00     0.165 C 
ATOM      2  H   LIG d   1      10.630   2.297  -7.638  0.00  0.00     0.080 H 
ATOM      3  H   LIG d   1       8.855   2.202  -7.543  0.00  0.00     0.080 H 
ENDROOT
BRANCH   1   4
ATOM      4  O   LIG d   1       9.833   2.406  -5.735  0.00  0.00    -0.483 OA
BRANCH   4   5
ATOM      5  C   LIG d   1       8.901   1.570  -5.210  0.00  0.00     0.125 A 
ATOM      6  C   LIG d   1       8.841   0.246  -5.640  0.00  0.00    -0.019 A 
ATOM      7  C   LIG d   1       7.909  -0.607  -5.122  0.00  0.00    -0.047 A 
ATOM      8  H   LIG d   1       9.536  -0.109  -6.385  0.00  0.00     0.065 H 
ATOM      9  C   LIG d   1       7.008  -0.148  -4.155  0.00  0.00     0.021 A 
ATOM     10  H   LIG d   1       7.866  -1.632  -5.458  0.00  0.00     0.063 H 
ATOM     11  C   LIG d   1       5.996  -1.040  -3.584  0.00  0.00    -0.027 A 
ATOM     12  C   LIG d   1       7.064   1.189  -3.718  0.00  0.00     0.143 A 
ATOM     13  C   LIG d   1       5.153  -0.542  -2.645  0.00  0.00     0.041 A 
ATOM     14  C   LIG d   1       5.691  -2.496  -3.845  0.00  0.00    -0.026 C 
ATOM     15  C   LIG d   1       5.264   0.813  -2.258  0.00  0.00     0.341 A 
ATOM     16  C   LIG d   1       4.189  -1.618  -2.192  0.00  0.00    -0.020 C 
ATOM     17  O   LIG d   1       6.192   1.625  -2.784  0.00  0.00    -0.422 OA
ATOM     18  O   LIG d   1       4.499   1.253  -1.418  0.00  0.00    -0.245 OA
ATOM     19  C   LIG d   1       4.274  -2.718  -3.273  0.00  0.00    -0.045 C 
ATOM     20  H   LIG d   1       3.175  -1.221  -2.134  0.00  0.00     0.032 H 
ATOM     21  H   LIG d   1       4.496  -2.014  -1.224  0.00  0.00     0.032 H 
ATOM     22  H   LIG d   1       3.516  -2.568  -4.041  0.00  0.00     0.027 H 
ATOM     23  H   LIG d   1       4.185  -3.709  -2.827  0.00  0.00     0.027 H 
ATOM     24  H   LIG d   1       5.703  -2.699  -4.916  0.00  0.00     0.031 H 
ATOM     25  H   LIG d   1       6.412  -3.133  -3.332  0.00  0.00     0.031 H 
ATOM     26  C   LIG d   1       8.017   2.041  -4.254  0.00  0.00     0.023 A 
ATOM     27  H   LIG d   1       8.069   3.069  -3.926  0.00  0.00     0.069 H 
ENDBRANCH   4   5
ENDBRANCH   1   4
BRANCH   1  28
ATOM     28  C   LIG d   1       9.652   4.172  -7.347  0.00  0.00     0.251 C 
ATOM     29  O   LIG d   1       9.245   4.609  -8.402  0.00  0.00    -0.272 OA
ATOM     30  N   LIG d   1      10.022   5.017  -6.364  0.00  0.00    -0.304 N 
ATOM     31  H   LIG d   1      10.348   4.667  -5.520  0.00  0.00     0.149 HD
BRANCH  30  32
ATOM     32  CA  LIG d   1       9.932   6.465  -6.571  0.00  0.00     0.063 C 
ATOM     33  HA  LIG d   1       9.291   6.670  -7.427  0.00  0.00     0.056 H 
BRANCH  32  34
ATOM     34  C   LIG d   1       9.343   7.122  -5.322  0.00  0.00    -0.028 C 
ATOM     35  H   LIG d   1      10.027   7.890  -4.958  0.00  0.00     0.029 H 
ATOM     36  H   LIG d   1       8.385   7.578  -5.569  0.00  0.00     0.029 H 
BRANCH  34  37
ATOM     37  C   LIG d   1       9.140   6.064  -4.236  0.00  0.00    -0.035 C 
ATOM     38  H   LIG d   1       8.082   5.810  -4.170  0.00  0.00     0.028 H 
ATOM     39  H   LIG d   1       9.713   5.172  -4.486  0.00  0.00     0.028 H 
BRANCH  37  40
ATOM     40  C   LIG d   1       9.616   6.615  -2.891  0.00  0.00     0.013 C 
ATOM     41  H   LIG d   1      10.188   7.529  -3.055  0.00  0.00     0.046 H 
ATOM     42  H   LIG d   1       8.753   6.835  -2.262  0.00  0.00     0.046 H 
BRANCH  40  43
ATOM     43  N   LIG d   1      10.463   5.621  -2.227  0.00  0.00    -0.300 N 
ATOM     44  C   LIG d   1      10.644   5.672  -0.893  0.00  0.00     0.297 C 
ATOM     45  O   LIG d   1      10.104   6.543  -0.239  0.00  0.00    -0.253 OA
ATOM     46  N   LIG d   1      11.423   4.757  -0.283  0.00  0.00    -0.313 N 
ATOM     47  H   LIG d   1      11.855   4.062  -0.805  0.00  0.00     0.146 HD
ATOM     48  H   LIG d   1      11.553   4.794   0.678  0.00  0.00     0.146 HD
ATOM     49  H   LIG d   1      10.894   4.925  -2.749  0.00  0.00     0.150 HD
ENDBRANCH  40  43
ENDBRANCH  37  40
ENDBRANCH  34  37
ENDBRANCH  32  34
BRANCH  32  50
ATOM     50  C   LIG d   1      11.309   7.021  -6.831  0.00  0.00     0.062 C 
ATOM     51  O   LIG d   1      12.276   6.500  -6.328  0.00  0.00    -0.548 OA
ATOM     52  OXT LIG d   1      11.460   8.095  -7.620  0.00  0.00    -0.548 OA
ENDBRANCH  32  50
ENDBRANCH  30  32
ENDBRANCH   1  28
TORSDOF 9
ENDMDL
MODEL 8
REMARK VINA RESULT:      -6.9      3.856      9.938
REMARK  9 active torsions:
REMARK  status: ('A' for Active; 'I' for Inactive)
REMARK    1  A    between atoms: C_6  and  O_7 
REMARK    2  A    between atoms: O_7  and  C_8 
REMARK    3  A    between atoms: C_8  and  C_9 
REMARK       I    between atoms: C_9  and  N_11 
REMARK    4  A    between atoms: N_11  and  CA_12 
REMARK    5  A    between atoms: CA_12  and  C_14 
REMARK    6  A    between atoms: CA_12  and  C_21 
REMARK    7  A    between atoms: C_14  and  C_15 
REMARK    8  A    between atoms: C_15  and  C_16 
REMARK    9  A    between atoms: C_16  and  N_17 
REMARK       I    between atoms: N_17  and  C_18 
REMARK       I    between atoms: C_18  and  N_20 
ROOT
ATOM      1  C   LIG d   1       8.781   1.032  -4.712  0.00  0.00     0.165 C 
ATOM      2  H   LIG d   1       8.921   1.601  -5.631  0.00  0.00     0.080 H 
ATOM      3  H   LIG d   1       9.383   0.124  -4.753  0.00  0.00     0.080 H 
ENDROOT
BRANCH   1   4
ATOM      4  O   LIG d   1       9.188   1.824  -3.594  0.00  0.00    -0.483 OA
BRANCH   4   5
ATOM      5  C   LIG d   1       9.358   3.153  -3.810  0.00  0.00     0.125 A 
ATOM      6  C   LIG d   1       9.099   3.686  -5.071  0.00  0.00    -0.019 A 
ATOM      7  C   LIG d   1       9.265   5.022  -5.305  0.00  0.00    -0.047 A 
ATOM      8  H   LIG d   1       8.764   3.041  -5.869  0.00  0.00     0.065 H 
ATOM      9  C   LIG d   1       9.698   5.859  -4.271  0.00  0.00     0.021 A 
ATOM     10  H   LIG d   1       9.064   5.430  -6.284  0.00  0.00     0.063 H 
ATOM     11  C   LIG d   1       9.888   7.294  -4.493  0.00  0.00    -0.027 A 
ATOM     12  C   LIG d   1       9.961   5.325  -2.995  0.00  0.00     0.143 A 
ATOM     13  C   LIG d   1      10.303   8.060  -3.453  0.00  0.00     0.041 A 
ATOM     14  C   LIG d   1       9.693   8.145  -5.726  0.00  0.00    -0.026 C 
ATOM     15  C   LIG d   1      10.553   7.454  -2.200  0.00  0.00     0.341 A 
ATOM     16  C   LIG d   1      10.439   9.502  -3.892  0.00  0.00    -0.020 C 
ATOM     17  O   LIG d   1      10.378   6.139  -2.001  0.00  0.00    -0.422 OA
ATOM     18  O   LIG d   1      10.931   8.148  -1.273  0.00  0.00    -0.245 OA
ATOM     19  C   LIG d   1      10.460   9.454  -5.436  0.00  0.00    -0.045 C 
ATOM     20  H   LIG d   1      11.368   9.929  -3.513  0.00  0.00     0.032 H 
ATOM     21  H   LIG d   1       9.585  10.083  -3.543  0.00  0.00     0.032 H 
ATOM     22  H   LIG d   1      11.482   9.397  -5.809  0.00  0.00     0.027 H 
ATOM     23  H   LIG d   1       9.938  10.312  -5.858  0.00  0.00     0.027 H 
ATOM     24  H   LIG d   1      10.112   7.647  -6.600  0.00  0.00     0.031 H 
ATOM     25  H   LIG d   1       8.634   8.352  -5.880  0.00  0.00     0.031 H 
ATOM     26  C   LIG d   1       9.787   3.968  -2.775  0.00  0.00     0.023 A 
ATOM     27  H   LIG d   1       9.985   3.548  -1.801  0.00  0.00     0.069 H 
ENDBRANCH   4   5
ENDBRANCH   1   4
BRANCH   1  28
ATOM     28  C   LIG d   1       7.327   0.664  -4.564  0.00  0.00     0.251 C 
ATOM     29  O   LIG d   1       6.609   0.628  -5.540  0.00  0.00    -0.272 OA
ATOM     30  N   LIG d   1       6.825   0.375  -3.346  0.00  0.00    -0.304 N 
ATOM     31  H   LIG d   1       7.400   0.404  -2.566  0.00  0.00     0.149 HD
BRANCH  30  32
ATOM     32  CA  LIG d   1       5.412   0.017  -3.203  0.00  0.00     0.063 C 
ATOM     33  HA  LIG d   1       4.979  -0.153  -4.188  0.00  0.00     0.056 H 
BRANCH  32  34
ATOM     34  C   LIG d   1       5.291  -1.257  -2.366  0.00  0.00    -0.028 C 
ATOM     35  H   LIG d   1       6.280  -1.696  -2.226  0.00  0.00     0.029 H 
ATOM     36  H   LIG d   1       4.862  -1.014  -1.394  0.00  0.00     0.029 H 
BRANCH  34  37
ATOM     37  C   LIG d   1       4.386  -2.258  -3.086  0.00  0.00    -0.035 C 
ATOM     38  H   LIG d   1       4.137  -3.076  -2.408  0.00  0.00     0.028 H 
ATOM     39  H   LIG d   1       3.472  -1.758  -3.403  0.00  0.00     0.028 H 
BRANCH  37  40
ATOM     40  C   LIG d   1       5.114  -2.815  -4.310  0.00  0.00     0.013 C 
ATOM     41  H   LIG d   1       5.708  -2.025  -4.771  0.00  0.00     0.046 H 
ATOM     42  H   LIG d   1       5.769  -3.631  -4.004  0.00  0.00     0.046 H 
BRANCH  40  43
ATOM     43  N   LIG d   1       4.132  -3.315  -5.277  0.00  0.00    -0.300 N 
ATOM     44  C   LIG d   1       4.300  -4.526  -5.843  0.00  0.00     0.297 C 
ATOM     45  O   LIG d   1       5.267  -5.204  -5.554  0.00  0.00    -0.253 OA
ATOM     46  N   LIG d   1       3.398  -4.985  -6.732  0.00  0.00    -0.313 N 
ATOM     47  H   LIG d   1       2.627  -4.444  -6.965  0.00  0.00     0.146 HD
ATOM     48  H   LIG d   1       3.519  -5.857  -7.140  0.00  0.00     0.146 HD
ATOM     49  H   LIG d   1       3.361  -2.774  -5.509  0.00  0.00     0.150 HD
ENDBRANCH  40  43
ENDBRANCH  37  40
ENDBRANCH  34  37
ENDBRANCH  32  34
BRANCH  32  50
ATOM     50  C   LIG d   1       4.676   1.141  -2.518  0.00  0.00     0.062 C 
ATOM     51  O   LIG d   1       4.739   1.260  -1.318  0.00  0.00    -0.548 OA
ATOM     52  OXT LIG d   1       3.952   2.007  -3.242  0.00  0.00    -0.548 OA
ENDBRANCH  32  50
ENDBRANCH  30  32
ENDBRANCH   1  28
TORSDOF 9
ENDMDL
MODEL 9
REMARK VINA RESULT:      -6.8      1.570      2.223
REMARK  9 active torsions:
REMARK  status: ('A' for Active; 'I' for Inactive)
REMARK    1  A    between atoms: C_6  and  O_7 
REMARK    2  A    between atoms: O_7  and  C_8 
REMARK    3  A    between atoms: C_8  and  C_9 
REMARK       I    between atoms: C_9  and  N_11 
REMARK    4  A    between atoms: N_11  and  CA_12 
REMARK    5  A    between atoms: CA_12  and  C_14 
REMARK    6  A    between atoms: CA_12  and  C_21 
REMARK    7  A    between atoms: C_14  and  C_15 
REMARK    8  A    between atoms: C_15  and  C_16 
REMARK    9  A    between atoms: C_16  and  N_17 
REMARK       I    between atoms: N_17  and  C_18 
REMARK       I    between atoms: C_18  and  N_20 
ROOT
ATOM      1  C   LIG d   1       9.611   3.851  -4.718  0.00  0.00     0.165 C 
ATOM      2  H   LIG d   1       9.948   4.329  -5.638  0.00  0.00     0.080 H 
ATOM      3  H   LIG d   1       8.545   4.036  -4.582  0.00  0.00     0.080 H 
ENDROOT
BRANCH   1   4
ATOM      4  O   LIG d   1       9.843   2.443  -4.801  0.00  0.00    -0.483 OA
BRANCH   4   5
ATOM      5  C   LIG d   1       8.807   1.627  -4.478  0.00  0.00     0.125 A 
ATOM      6  C   LIG d   1       7.737   2.129  -3.740  0.00  0.00    -0.019 A 
ATOM      7  C   LIG d   1       6.687   1.321  -3.407  0.00  0.00    -0.047 A 
ATOM      8  H   LIG d   1       7.737   3.162  -3.429  0.00  0.00     0.065 H 
ATOM      9  C   LIG d   1       6.687  -0.019  -3.810  0.00  0.00     0.021 A 
ATOM     10  H   LIG d   1       5.861   1.714  -2.834  0.00  0.00     0.063 H 
ATOM     11  C   LIG d   1       5.577  -0.910  -3.466  0.00  0.00    -0.027 A 
ATOM     12  C   LIG d   1       7.766  -0.531  -4.557  0.00  0.00     0.143 A 
ATOM     13  C   LIG d   1       5.626  -2.198  -3.889  0.00  0.00     0.041 A 
ATOM     14  C   LIG d   1       4.304  -0.660  -2.691  0.00  0.00    -0.026 C 
ATOM     15  C   LIG d   1       6.744  -2.643  -4.631  0.00  0.00     0.341 A 
ATOM     16  C   LIG d   1       4.393  -2.943  -3.427  0.00  0.00    -0.020 C 
ATOM     17  O   LIG d   1       7.759  -1.825  -4.944  0.00  0.00    -0.422 OA
ATOM     18  O   LIG d   1       6.783  -3.803  -5.002  0.00  0.00    -0.245 OA
ATOM     19  C   LIG d   1       3.783  -2.064  -2.312  0.00  0.00    -0.045 C 
ATOM     20  H   LIG d   1       4.665  -3.922  -3.031  0.00  0.00     0.032 H 
ATOM     21  H   LIG d   1       3.688  -3.051  -4.251  0.00  0.00     0.032 H 
ATOM     22  H   LIG d   1       4.153  -2.365  -1.333  0.00  0.00     0.027 H 
ATOM     23  H   LIG d   1       2.694  -2.096  -2.344  0.00  0.00     0.027 H 
ATOM     24  H   LIG d   1       4.516  -0.080  -1.793  0.00  0.00     0.031 H 
ATOM     25  H   LIG d   1       3.576  -0.140  -3.314  0.00  0.00     0.031 H 
ATOM     26  C   LIG d   1       8.823   0.304  -4.886  0.00  0.00     0.023 A 
ATOM     27  H   LIG d   1       9.655  -0.078  -5.458  0.00  0.00     0.069 H 
ENDBRANCH   4   5
ENDBRANCH   1   4
BRANCH   1  28
ATOM     28  C   LIG d   1      10.372   4.418  -3.547  0.00  0.00     0.251 C 
ATOM     29  O   LIG d   1      11.010   3.682  -2.826  0.00  0.00    -0.272 OA
ATOM     30  N   LIG d   1      10.343   5.743  -3.302  0.00  0.00    -0.304 N 
ATOM     31  H   LIG d   1       9.831   6.332  -3.880  0.00  0.00     0.149 HD
BRANCH  30  32
ATOM     32  CA  LIG d   1      11.083   6.294  -2.164  0.00  0.00     0.063 C 
ATOM     33  HA  LIG d   1      11.857   5.591  -1.860  0.00  0.00     0.056 H 
BRANCH  32  34
ATOM     34  C   LIG d   1      11.728   7.620  -2.570  0.00  0.00    -0.028 C 
ATOM     35  H   LIG d   1      11.359   8.417  -1.925  0.00  0.00     0.029 H 
ATOM     36  H   LIG d   1      12.811   7.543  -2.469  0.00  0.00     0.029 H 
BRANCH  34  37
ATOM     37  C   LIG d   1      11.374   7.936  -4.025  0.00  0.00    -0.035 C 
ATOM     38  H   LIG d   1      12.278   7.907  -4.634  0.00  0.00     0.028 H 
ATOM     39  H   LIG d   1      10.664   7.196  -4.394  0.00  0.00     0.028 H 
BRANCH  37  40
ATOM     40  C   LIG d   1      10.749   9.329  -4.107  0.00  0.00     0.013 C 
ATOM     41  H   LIG d   1      11.484  10.075  -3.803  0.00  0.00     0.046 H 
ATOM     42  H   LIG d   1      10.433   9.526  -5.131  0.00  0.00     0.046 H 
BRANCH  40  43
ATOM     43  N   LIG d   1       9.587   9.397  -3.216  0.00  0.00    -0.300 N 
ATOM     44  C   LIG d   1       9.432  10.450  -2.391  0.00  0.00     0.297 C 
ATOM     45  O   LIG d   1      10.256  11.344  -2.383  0.00  0.00    -0.253 OA
ATOM     46  N   LIG d   1       8.363  10.513  -1.572  0.00  0.00    -0.313 N 
ATOM     47  H   LIG d   1       7.706   9.799  -1.576  0.00  0.00     0.146 HD
ATOM     48  H   LIG d   1       8.252  11.271  -0.977  0.00  0.00     0.146 HD
ATOM     49  H   LIG d   1       8.930   8.684  -3.221  0.00  0.00     0.150 HD
ENDBRANCH  40  43
ENDBRANCH  37  40
ENDBRANCH  34  37
ENDBRANCH  32  34
BRANCH  32  50
ATOM     50  C   LIG d   1      10.136   6.527  -1.015  0.00  0.00     0.062 C 
ATOM     51  O   LIG d   1      10.357   6.025   0.062  0.00  0.00    -0.548 OA
ATOM     52  OXT LIG d   1       9.046   7.291  -1.188  0.00  0.00    -0.548 OA
ENDBRANCH  32  50
ENDBRANCH  30  32
ENDBRANCH   1  28
TORSDOF 9
ENDMDL
