MODEL 1
REMARK VINA RESULT:      -6.9      0.000      0.000
REMARK  1 active torsions:
REMARK  status: ('A' for Active; 'I' for Inactive)
REMARK    1  A    between atoms: C_7  and  C_11 
ROOT
ATOM      1  C   LIG d   1       3.033   0.166  -2.664  0.00  0.00    -0.061 A 
ATOM      2  C   LIG d   1       3.944   1.122  -2.237  0.00  0.00    -0.060 A 
ATOM      3  C   LIG d   1       5.298   0.914  -2.385  0.00  0.00    -0.038 A 
ATOM      4  C   LIG d   1       5.762  -0.262  -2.966  0.00  0.00     0.047 A 
ATOM      5  C   LIG d   1       4.838  -1.227  -3.396  0.00  0.00     0.007 A 
ATOM      6  C   LIG d   1       3.472  -1.005  -3.242  0.00  0.00    -0.052 A 
ATOM      7  C   LIG d   1       5.638  -2.334  -3.956  0.00  0.00     0.002 A 
ATOM      8  C   LIG d   1       6.958  -1.960  -3.824  0.00  0.00     0.010 A 
ATOM      9  N   LIG d   1       7.027  -0.740  -3.240  0.00  0.00    -0.360 N 
ATOM     10  H   LIG d   1       7.851  -0.267  -3.043  0.00  0.00     0.165 HD
ATOM     11  H   LIG d   1       1.973   0.340  -2.540  0.00  0.00     0.062 H 
ATOM     12  H   LIG d   1       3.588   2.036  -1.786  0.00  0.00     0.062 H 
ATOM     13  H   LIG d   1       5.999   1.665  -2.051  0.00  0.00     0.064 H 
ATOM     14  H   LIG d   1       2.761  -1.746  -3.574  0.00  0.00     0.062 H 
ATOM     15  H   LIG d   1       7.808  -2.550  -4.138  0.00  0.00     0.081 H 
ENDROOT
BRANCH   7  16
ATOM     16  C   LIG d   1       5.146  -3.539  -4.517  0.00  0.00    -0.031 C 
ATOM     17  C   LIG d   1       4.705  -3.560  -5.821  0.00  0.00     0.044 A 
ATOM     18  N   LIG d   1       4.805  -2.531  -6.765  0.00  0.00    -0.267 N 
ATOM     19  C   LIG d   1       4.050  -4.624  -6.483  0.00  0.00     0.003 A 
ATOM     20  C   LIG d   1       4.247  -2.986  -7.903  0.00  0.00     0.327 A 
ATOM     21  H   LIG d   1       5.202  -1.656  -6.625  0.00  0.00     0.157 HD
ATOM     22  N   LIG d   1       3.801  -4.227  -7.721  0.00  0.00    -0.177 NA
ATOM     23  O   LIG d   1       4.160  -2.354  -8.944  0.00  0.00    -0.250 OA
ATOM     24  O   LIG d   1       3.736  -5.827  -5.949  0.00  0.00    -0.861 OA
ATOM     25  H   LIG d   1       5.118  -4.440  -3.923  0.00  0.00     0.064 H 
ENDBRANCH   7  16
TORSDOF 1
ENDMDL
MODEL 2
REMARK VINA RESULT:      -6.4      3.138      3.994
REMARK  1 active torsions:
REMARK  status: ('A' for Active; 'I' for Inactive)
REMARK    1  A    between atoms: C_7  and  C_11 
ROOT
ATOM      1  C   LIG d   1       3.359   1.125  -2.663  0.00  0.00    -0.061 A 
ATOM      2  C   LIG d   1       4.310   0.539  -1.842  0.00  0.00    -0.060 A 
ATOM      3  C   LIG d   1       5.183  -0.404  -2.342  0.00  0.00    -0.038 A 
ATOM      4  C   LIG d   1       5.113  -0.774  -3.681  0.00  0.00     0.047 A 
ATOM      5  C   LIG d   1       4.149  -0.179  -4.510  0.00  0.00     0.007 A 
ATOM      6  C   LIG d   1       3.274   0.772  -3.992  0.00  0.00    -0.052 A 
ATOM      7  C   LIG d   1       4.336  -0.778  -5.846  0.00  0.00     0.002 A 
ATOM      8  C   LIG d   1       5.379  -1.672  -5.725  0.00  0.00     0.010 A 
ATOM      9  N   LIG d   1       5.834  -1.667  -4.449  0.00  0.00    -0.360 N 
ATOM     10  H   LIG d   1       6.564  -2.213  -4.121  0.00  0.00     0.165 HD
ATOM     11  H   LIG d   1       2.678   1.861  -2.258  0.00  0.00     0.062 H 
ATOM     12  H   LIG d   1       4.369   0.823  -0.802  0.00  0.00     0.062 H 
ATOM     13  H   LIG d   1       5.921  -0.854  -1.695  0.00  0.00     0.064 H 
ATOM     14  H   LIG d   1       2.533   1.231  -4.629  0.00  0.00     0.062 H 
ATOM     15  H   LIG d   1       5.773  -2.282  -6.525  0.00  0.00     0.081 H 
ENDROOT
BRANCH   7  16
ATOM     16  C   LIG d   1       3.592  -0.491  -7.017  0.00  0.00    -0.031 C 
ATOM     17  C   LIG d   1       4.070   0.425  -7.927  0.00  0.00     0.044 A 
ATOM     18  N   LIG d   1       5.323   1.048  -7.922  0.00  0.00    -0.267 N 
ATOM     19  C   LIG d   1       3.392   0.936  -9.059  0.00  0.00     0.003 A 
ATOM     20  C   LIG d   1       5.362   1.862  -8.994  0.00  0.00     0.327 A 
ATOM     21  H   LIG d   1       6.030   0.918  -7.270  0.00  0.00     0.157 HD
ATOM     22  N   LIG d   1       4.209   1.788  -9.658  0.00  0.00    -0.177 NA
ATOM     23  O   LIG d   1       6.309   2.565  -9.309  0.00  0.00    -0.250 OA
ATOM     24  O   LIG d   1       2.139   0.614  -9.455  0.00  0.00    -0.861 OA
ATOM     25  H   LIG d   1       2.652  -0.991  -7.197  0.00  0.00     0.064 H 
ENDBRANCH   7  16
TORSDOF 1
ENDMDL
MODEL 3
REMARK VINA RESULT:      -6.3      3.978      5.366
REMARK  1 active torsions:
REMARK  status: ('A' for Active; 'I' for Inactive)
REMARK    1  A    between atoms: C_7  and  C_11 
ROOT
ATOM      1  C   LIG d   1       2.430   1.145  -9.042  0.00  0.00    -0.061 A 
ATOM      2  C   LIG d   1       3.301   1.960  -9.750  0.00  0.00    -0.060 A 
ATOM      3  C   LIG d   1       4.643   1.992  -9.436  0.00  0.00    -0.038 A 
ATOM      4  C   LIG d   1       5.133   1.203  -8.400  0.00  0.00     0.047 A 
ATOM      5  C   LIG d   1       4.248   0.380  -7.685  0.00  0.00     0.007 A 
ATOM      6  C   LIG d   1       2.896   0.356  -8.013  0.00  0.00    -0.052 A 
ATOM      7  C   LIG d   1       5.068  -0.314  -6.672  0.00  0.00     0.002 A 
ATOM      8  C   LIG d   1       6.361   0.134  -6.850  0.00  0.00     0.010 A 
ATOM      9  N   LIG d   1       6.394   1.028  -7.868  0.00  0.00    -0.360 N 
ATOM     10  H   LIG d   1       7.193   1.480  -8.180  0.00  0.00     0.165 HD
ATOM     11  H   LIG d   1       1.379   1.131  -9.297  0.00  0.00     0.062 H 
ATOM     12  H   LIG d   1       2.925   2.573 -10.555  0.00  0.00     0.062 H 
ATOM     13  H   LIG d   1       5.312   2.629  -9.994  0.00  0.00     0.064 H 
ATOM     14  H   LIG d   1       2.216  -0.277  -7.464  0.00  0.00     0.062 H 
ATOM     15  H   LIG d   1       7.215  -0.179  -6.267  0.00  0.00     0.081 H 
ENDROOT
BRANCH   7  16
ATOM     16  C   LIG d   1       4.617  -1.252  -5.712  0.00  0.00    -0.031 C 
ATOM     17  C   LIG d   1       4.249  -0.826  -4.455  0.00  0.00     0.044 A 
ATOM     18  N   LIG d   1       4.124   0.496  -4.013  0.00  0.00    -0.267 N 
ATOM     19  C   LIG d   1       3.925  -1.635  -3.341  0.00  0.00     0.003 A 
ATOM     20  C   LIG d   1       3.741   0.444  -2.723  0.00  0.00     0.327 A 
ATOM     21  H   LIG d   1       4.282   1.297  -4.537  0.00  0.00     0.157 HD
ATOM     22  N   LIG d   1       3.630  -0.826  -2.336  0.00  0.00    -0.177 NA
ATOM     23  O   LIG d   1       3.532   1.415  -2.013  0.00  0.00    -0.250 OA
ATOM     24  O   LIG d   1       3.918  -2.988  -3.309  0.00  0.00    -0.861 OA
ATOM     25  H   LIG d   1       4.561  -2.300  -5.964  0.00  0.00     0.064 H 
ENDBRANCH   7  16
TORSDOF 1
ENDMDL
MODEL 4
REMARK VINA RESULT:      -6.3      3.089      4.034
REMARK  1 active torsions:
REMARK  status: ('A' for Active; 'I' for Inactive)
REMARK    1  A    between atoms: C_7  and  C_11 
ROOT
ATOM      1  C   LIG d   1       4.342  -0.692  -1.701  0.00  0.00    -0.061 A 
ATOM      2  C   LIG d   1       4.495   0.686  -1.759  0.00  0.00    -0.060 A 
ATOM      3  C   LIG d   1       5.291   1.263  -2.725  0.00  0.00    -0.038 A 
ATOM      4  C   LIG d   1       5.949   0.462  -3.653  0.00  0.00     0.047 A 
ATOM      5  C   LIG d   1       5.793  -0.932  -3.592  0.00  0.00     0.007 A 
ATOM      6  C   LIG d   1       4.985  -1.502  -2.611  0.00  0.00    -0.052 A 
ATOM      7  C   LIG d   1       6.606  -1.481  -4.694  0.00  0.00     0.002 A 
ATOM      8  C   LIG d   1       7.181  -0.398  -5.326  0.00  0.00     0.010 A 
ATOM      9  N   LIG d   1       6.792   0.744  -4.709  0.00  0.00    -0.360 N 
ATOM     10  H   LIG d   1       7.066   1.636  -4.974  0.00  0.00     0.165 HD
ATOM     11  H   LIG d   1       3.717  -1.132  -0.937  0.00  0.00     0.062 H 
ATOM     12  H   LIG d   1       3.986   1.312  -1.042  0.00  0.00     0.062 H 
ATOM     13  H   LIG d   1       5.402   2.336  -2.762  0.00  0.00     0.064 H 
ATOM     14  H   LIG d   1       4.864  -2.573  -2.564  0.00  0.00     0.062 H 
ATOM     15  H   LIG d   1       7.840  -0.451  -6.180  0.00  0.00     0.081 H 
ENDROOT
BRANCH   7  16
ATOM     16  C   LIG d   1       6.764  -2.847  -5.035  0.00  0.00    -0.031 C 
ATOM     17  C   LIG d   1       7.754  -3.594  -4.438  0.00  0.00     0.044 A 
ATOM     18  N   LIG d   1       8.588  -3.205  -3.384  0.00  0.00    -0.267 N 
ATOM     19  C   LIG d   1       8.144  -4.913  -4.769  0.00  0.00     0.003 A 
ATOM     20  C   LIG d   1       9.402  -4.246  -3.121  0.00  0.00     0.327 A 
ATOM     21  H   LIG d   1       8.581  -2.348  -2.927  0.00  0.00     0.157 HD
ATOM     22  N   LIG d   1       9.130  -5.251  -3.953  0.00  0.00    -0.177 NA
ATOM     23  O   LIG d   1      10.262  -4.264  -2.255  0.00  0.00    -0.250 OA
ATOM     24  O   LIG d   1       7.609  -5.686  -5.742  0.00  0.00    -0.861 OA
ATOM     25  H   LIG d   1       6.108  -3.302  -5.761  0.00  0.00     0.064 H 
ENDBRANCH   7  16
TORSDOF 1
ENDMDL
MODEL 5
REMARK VINA RESULT:      -6.3      3.054      4.169
REMARK  1 active torsions:
REMARK  status: ('A' for Active; 'I' for Inactive)
REMARK    1  A    between atoms: C_7  and  C_11 
ROOT
ATOM      1  C   LIG d   1       4.976   0.320  -2.322  0.00  0.00    -0.061 A 
ATOM      2  C   LIG d   1       4.293  -0.738  -1.739  0.00  0.00    -0.060 A 
ATOM      3  C   LIG d   1       3.965  -1.853  -2.479  0.00  0.00    -0.038 A 
ATOM      4  C   LIG d   1       4.318  -1.925  -3.822  0.00  0.00     0.047 A 
ATOM      5  C   LIG d   1       5.009  -0.854  -4.410  0.00  0.00     0.007 A 
ATOM      6  C   LIG d   1       5.336   0.267  -3.651  0.00  0.00    -0.052 A 
ATOM      7  C   LIG d   1       5.231  -1.236  -5.818  0.00  0.00     0.002 A 
ATOM      8  C   LIG d   1       4.668  -2.486  -5.971  0.00  0.00     0.010 A 
ATOM      9  N   LIG d   1       4.131  -2.888  -4.794  0.00  0.00    -0.360 N 
ATOM     10  H   LIG d   1       3.680  -3.734  -4.653  0.00  0.00     0.165 HD
ATOM     11  H   LIG d   1       5.225   1.190  -1.732  0.00  0.00     0.062 H 
ATOM     12  H   LIG d   1       4.017  -0.686  -0.697  0.00  0.00     0.062 H 
ATOM     13  H   LIG d   1       3.433  -2.671  -2.015  0.00  0.00     0.064 H 
ATOM     14  H   LIG d   1       5.868   1.091  -4.102  0.00  0.00     0.062 H 
ATOM     15  H   LIG d   1       4.656  -3.057  -6.888  0.00  0.00     0.081 H 
ENDROOT
BRANCH   7  16
ATOM     16  C   LIG d   1       5.890  -0.473  -6.813  0.00  0.00    -0.031 C 
ATOM     17  C   LIG d   1       5.163   0.354  -7.639  0.00  0.00     0.044 A 
ATOM     18  N   LIG d   1       3.802   0.665  -7.539  0.00  0.00    -0.267 N 
ATOM     19  C   LIG d   1       5.636   1.062  -8.769  0.00  0.00     0.003 A 
ATOM     20  C   LIG d   1       3.517   1.508  -8.550  0.00  0.00     0.327 A 
ATOM     21  H   LIG d   1       3.182   0.335  -6.869  0.00  0.00     0.157 HD
ATOM     22  N   LIG d   1       4.613   1.733  -9.273  0.00  0.00    -0.177 NA
ATOM     23  O   LIG d   1       2.418   1.991  -8.772  0.00  0.00    -0.250 OA
ATOM     24  O   LIG d   1       6.902   1.053  -9.246  0.00  0.00    -0.861 OA
ATOM     25  H   LIG d   1       6.962  -0.538  -6.922  0.00  0.00     0.064 H 
ENDBRANCH   7  16
TORSDOF 1
ENDMDL
MODEL 6
REMARK VINA RESULT:      -6.1      2.877      4.005
REMARK  1 active torsions:
REMARK  status: ('A' for Active; 'I' for Inactive)
REMARK    1  A    between atoms: C_7  and  C_11 
ROOT
ATOM      1  C   LIG d   1       4.707   1.006  -2.101  0.00  0.00    -0.061 A 
ATOM      2  C   LIG d   1       3.354   0.786  -2.318  0.00  0.00    -0.060 A 
ATOM      3  C   LIG d   1       2.925  -0.343  -2.982  0.00  0.00    -0.038 A 
ATOM      4  C   LIG d   1       3.851  -1.273  -3.442  0.00  0.00     0.047 A 
ATOM      5  C   LIG d   1       5.220  -1.048  -3.221  0.00  0.00     0.007 A 
ATOM      6  C   LIG d   1       5.640   0.096  -2.548  0.00  0.00    -0.052 A 
ATOM      7  C   LIG d   1       5.923  -2.199  -3.820  0.00  0.00     0.002 A 
ATOM      8  C   LIG d   1       4.944  -3.017  -4.346  0.00  0.00     0.010 A 
ATOM      9  N   LIG d   1       3.726  -2.467  -4.122  0.00  0.00    -0.360 N 
ATOM     10  H   LIG d   1       2.884  -2.859  -4.399  0.00  0.00     0.165 HD
ATOM     11  H   LIG d   1       5.030   1.896  -1.581  0.00  0.00     0.062 H 
ATOM     12  H   LIG d   1       2.632   1.505  -1.962  0.00  0.00     0.062 H 
ATOM     13  H   LIG d   1       1.870  -0.504  -3.145  0.00  0.00     0.064 H 
ATOM     14  H   LIG d   1       6.691   0.269  -2.377  0.00  0.00     0.062 H 
ATOM     15  H   LIG d   1       5.121  -3.951  -4.859  0.00  0.00     0.081 H 
ENDROOT
BRANCH   7  16
ATOM     16  C   LIG d   1       7.322  -2.420  -3.848  0.00  0.00    -0.031 C 
ATOM     17  C   LIG d   1       8.089  -1.843  -4.835  0.00  0.00     0.044 A 
ATOM     18  N   LIG d   1       7.675  -0.908  -5.790  0.00  0.00    -0.267 N 
ATOM     19  C   LIG d   1       9.458  -2.079  -5.097  0.00  0.00     0.003 A 
ATOM     20  C   LIG d   1       8.749  -0.619  -6.548  0.00  0.00     0.327 A 
ATOM     21  H   LIG d   1       6.783  -0.537  -5.886  0.00  0.00     0.157 HD
ATOM     22  N   LIG d   1       9.799  -1.323  -6.129  0.00  0.00    -0.177 NA
ATOM     23  O   LIG d   1       8.759   0.166  -7.483  0.00  0.00    -0.250 OA
ATOM     24  O   LIG d   1      10.271  -2.922  -4.419  0.00  0.00    -0.861 OA
ATOM     25  H   LIG d   1       7.786  -3.039  -3.095  0.00  0.00     0.064 H 
ENDBRANCH   7  16
TORSDOF 1
ENDMDL
MODEL 7
REMARK VINA RESULT:      -6.0      3.710      5.274
REMARK  1 active torsions:
REMARK  status: ('A' for Active; 'I' for Inactive)
REMARK    1  A    between atoms: C_7  and  C_11 
ROOT
ATOM      1  C   LIG d   1       3.216   0.510  -2.610  0.00  0.00    -0.061 A 
ATOM      2  C   LIG d   1       2.884  -0.837  -2.596  0.00  0.00    -0.060 A 
ATOM      3  C   LIG d   1       3.830  -1.796  -2.887  0.00  0.00    -0.038 A 
ATOM      4  C   LIG d   1       5.131  -1.416  -3.199  0.00  0.00     0.047 A 
ATOM      5  C   LIG d   1       5.465  -0.052  -3.213  0.00  0.00     0.007 A 
ATOM      6  C   LIG d   1       4.500   0.906  -2.916  0.00  0.00    -0.052 A 
ATOM      7  C   LIG d   1       6.895   0.013  -3.573  0.00  0.00     0.002 A 
ATOM      8  C   LIG d   1       7.308  -1.292  -3.746  0.00  0.00     0.010 A 
ATOM      9  N   LIG d   1       6.266  -2.130  -3.525  0.00  0.00    -0.360 N 
ATOM     10  H   LIG d   1       6.313  -3.096  -3.587  0.00  0.00     0.165 HD
ATOM     11  H   LIG d   1       2.464   1.252  -2.383  0.00  0.00     0.062 H 
ATOM     12  H   LIG d   1       1.875  -1.137  -2.354  0.00  0.00     0.062 H 
ATOM     13  H   LIG d   1       3.561  -2.841  -2.872  0.00  0.00     0.064 H 
ATOM     14  H   LIG d   1       4.756   1.955  -2.925  0.00  0.00     0.062 H 
ATOM     15  H   LIG d   1       8.308  -1.599  -4.017  0.00  0.00     0.081 H 
ENDROOT
BRANCH   7  16
ATOM     16  C   LIG d   1       7.684   1.181  -3.713  0.00  0.00    -0.031 C 
ATOM     17  C   LIG d   1       8.015   1.640  -4.968  0.00  0.00     0.044 A 
ATOM     18  N   LIG d   1       7.543   1.163  -6.195  0.00  0.00    -0.267 N 
ATOM     19  C   LIG d   1       8.910   2.689  -5.283  0.00  0.00     0.003 A 
ATOM     20  C   LIG d   1       8.128   1.903  -7.156  0.00  0.00     0.327 A 
ATOM     21  H   LIG d   1       6.913   0.436  -6.329  0.00  0.00     0.157 HD
ATOM     22  N   LIG d   1       8.939   2.802  -6.602  0.00  0.00    -0.177 NA
ATOM     23  O   LIG d   1       7.946   1.768  -8.356  0.00  0.00    -0.250 OA
ATOM     24  O   LIG d   1       9.609   3.439  -4.399  0.00  0.00    -0.861 OA
ATOM     25  H   LIG d   1       8.024   1.711  -2.836  0.00  0.00     0.064 H 
ENDBRANCH   7  16
TORSDOF 1
ENDMDL
MODEL 8
REMARK VINA RESULT:      -6.0      3.334      4.556
REMARK  1 active torsions:
REMARK  status: ('A' for Active; 'I' for Inactive)
REMARK    1  A    between atoms: C_7  and  C_11 
ROOT
ATOM      1  C   LIG d   1       5.909  -2.136  -4.340  0.00  0.00    -0.061 A 
ATOM      2  C   LIG d   1       5.853  -1.591  -3.066  0.00  0.00    -0.060 A 
ATOM      3  C   LIG d   1       4.972  -0.572  -2.776  0.00  0.00    -0.038 A 
ATOM      4  C   LIG d   1       4.130  -0.079  -3.768  0.00  0.00     0.047 A 
ATOM      5  C   LIG d   1       4.189  -0.631  -5.057  0.00  0.00     0.007 A 
ATOM      6  C   LIG d   1       5.083  -1.662  -5.336  0.00  0.00    -0.052 A 
ATOM      7  C   LIG d   1       3.187   0.099  -5.858  0.00  0.00     0.002 A 
ATOM      8  C   LIG d   1       2.610   1.019  -5.008  0.00  0.00     0.010 A 
ATOM      9  N   LIG d   1       3.168   0.911  -3.778  0.00  0.00    -0.360 N 
ATOM     10  H   LIG d   1       2.925   1.453  -3.012  0.00  0.00     0.165 HD
ATOM     11  H   LIG d   1       6.606  -2.933  -4.555  0.00  0.00     0.062 H 
ATOM     12  H   LIG d   1       6.505  -1.971  -2.293  0.00  0.00     0.062 H 
ATOM     13  H   LIG d   1       4.937  -0.156  -1.781  0.00  0.00     0.064 H 
ATOM     14  H   LIG d   1       5.128  -2.088  -6.327  0.00  0.00     0.062 H 
ATOM     15  H   LIG d   1       1.832   1.718  -5.280  0.00  0.00     0.081 H 
ENDROOT
BRANCH   7  16
ATOM     16  C   LIG d   1       2.879  -0.105  -7.226  0.00  0.00    -0.031 C 
ATOM     17  C   LIG d   1       3.598   0.554  -8.198  0.00  0.00     0.044 A 
ATOM     18  N   LIG d   1       4.742   1.340  -8.017  0.00  0.00    -0.267 N 
ATOM     19  C   LIG d   1       3.328   0.583  -9.586  0.00  0.00     0.003 A 
ATOM     20  C   LIG d   1       5.109   1.785  -9.234  0.00  0.00     0.327 A 
ATOM     21  H   LIG d   1       5.186   1.528  -7.175  0.00  0.00     0.157 HD
ATOM     22  N   LIG d   1       4.260   1.331 -10.154  0.00  0.00    -0.177 NA
ATOM     23  O   LIG d   1       6.073   2.499  -9.459  0.00  0.00    -0.250 OA
ATOM     24  O   LIG d   1       2.305  -0.039 -10.216  0.00  0.00    -0.861 OA
ATOM     25  H   LIG d   1       2.083  -0.779  -7.506  0.00  0.00     0.064 H 
ENDBRANCH   7  16
TORSDOF 1
ENDMDL
MODEL 9
REMARK VINA RESULT:      -5.9      2.324      2.838
REMARK  1 active torsions:
REMARK  status: ('A' for Active; 'I' for Inactive)
REMARK    1  A    between atoms: C_7  and  C_11 
ROOT
ATOM      1  C   LIG d   1       3.179  -1.532  -2.628  0.00  0.00    -0.061 A 
ATOM      2  C   LIG d   1       2.871  -0.182  -2.723  0.00  0.00    -0.060 A 
ATOM      3  C   LIG d   1       3.841   0.736  -3.064  0.00  0.00    -0.038 A 
ATOM      4  C   LIG d   1       5.142   0.312  -3.315  0.00  0.00     0.047 A 
ATOM      5  C   LIG d   1       5.451  -1.055  -3.217  0.00  0.00     0.007 A 
ATOM      6  C   LIG d   1       4.461  -1.971  -2.873  0.00  0.00    -0.052 A 
ATOM      7  C   LIG d   1       6.887  -1.170  -3.539  0.00  0.00     0.002 A 
ATOM      8  C   LIG d   1       7.327   0.110  -3.802  0.00  0.00     0.010 A 
ATOM      9  N   LIG d   1       6.296   0.980  -3.668  0.00  0.00    -0.360 N 
ATOM     10  H   LIG d   1       6.361   1.937  -3.804  0.00  0.00     0.165 HD
ATOM     11  H   LIG d   1       2.410  -2.241  -2.356  0.00  0.00     0.062 H 
ATOM     12  H   LIG d   1       1.863   0.151  -2.529  0.00  0.00     0.062 H 
ATOM     13  H   LIG d   1       3.590   1.783  -3.136  0.00  0.00     0.064 H 
ATOM     14  H   LIG d   1       4.698  -3.022  -2.799  0.00  0.00     0.062 H 
ATOM     15  H   LIG d   1       8.338   0.379  -4.072  0.00  0.00     0.081 H 
ENDROOT
BRANCH   7  16
ATOM     16  C   LIG d   1       7.657  -2.359  -3.572  0.00  0.00    -0.031 C 
ATOM     17  C   LIG d   1       7.496  -3.254  -4.605  0.00  0.00     0.044 A 
ATOM     18  N   LIG d   1       6.731  -3.079  -5.764  0.00  0.00    -0.267 N 
ATOM     19  C   LIG d   1       8.065  -4.544  -4.713  0.00  0.00     0.003 A 
ATOM     20  C   LIG d   1       6.864  -4.202  -6.496  0.00  0.00     0.327 A 
ATOM     21  H   LIG d   1       6.206  -2.297  -5.997  0.00  0.00     0.157 HD
ATOM     22  N   LIG d   1       7.655  -5.064  -5.859  0.00  0.00    -0.177 NA
ATOM     23  O   LIG d   1       6.335  -4.402  -7.577  0.00  0.00    -0.250 OA
ATOM     24  O   LIG d   1       8.879  -5.138  -3.810  0.00  0.00    -0.861 OA
ATOM     25  H   LIG d   1       8.370  -2.562  -2.787  0.00  0.00     0.064 H 
ENDBRANCH   7  16
TORSDOF 1
ENDMDL
MODEL 10
REMARK VINA RESULT:      -5.7      3.622      5.922
REMARK  1 active torsions:
REMARK  status: ('A' for Active; 'I' for Inactive)
REMARK    1  A    between atoms: C_7  and  C_11 
ROOT
ATOM      1  C   LIG d   1       3.186   1.368  -8.748  0.00  0.00    -0.061 A 
ATOM      2  C   LIG d   1       2.402   0.409  -9.373  0.00  0.00    -0.060 A 
ATOM      3  C   LIG d   1       2.517  -0.921  -9.033  0.00  0.00    -0.038 A 
ATOM      4  C   LIG d   1       3.426  -1.312  -8.056  0.00  0.00     0.047 A 
ATOM      5  C   LIG d   1       4.219  -0.340  -7.425  0.00  0.00     0.007 A 
ATOM      6  C   LIG d   1       4.092   1.001  -7.778  0.00  0.00    -0.052 A 
ATOM      7  C   LIG d   1       5.062  -1.069  -6.457  0.00  0.00     0.002 A 
ATOM      8  C   LIG d   1       4.720  -2.400  -6.573  0.00  0.00     0.010 A 
ATOM      9  N   LIG d   1       3.757  -2.539  -7.516  0.00  0.00    -0.360 N 
ATOM     10  H   LIG d   1       3.355  -3.383  -7.775  0.00  0.00     0.165 HD
ATOM     11  H   LIG d   1       3.088   2.408  -9.027  0.00  0.00     0.062 H 
ATOM     12  H   LIG d   1       1.694   0.708 -10.132  0.00  0.00     0.062 H 
ATOM     13  H   LIG d   1       1.901  -1.659  -9.524  0.00  0.00     0.064 H 
ATOM     14  H   LIG d   1       4.701   1.749  -7.293  0.00  0.00     0.062 H 
ATOM     15  H   LIG d   1       5.154  -3.208  -6.001  0.00  0.00     0.081 H 
ENDROOT
BRANCH   7  16
ATOM     16  C   LIG d   1       6.027  -0.511  -5.583  0.00  0.00    -0.031 C 
ATOM     17  C   LIG d   1       5.624   0.155  -4.448  0.00  0.00     0.044 A 
ATOM     18  N   LIG d   1       4.323   0.247  -3.938  0.00  0.00    -0.267 N 
ATOM     19  C   LIG d   1       6.438   0.894  -3.558  0.00  0.00     0.003 A 
ATOM     20  C   LIG d   1       4.392   0.989  -2.816  0.00  0.00     0.327 A 
ATOM     21  H   LIG d   1       3.524  -0.149  -4.321  0.00  0.00     0.157 HD
ATOM     22  N   LIG d   1       5.651   1.369  -2.604  0.00  0.00    -0.177 NA
ATOM     23  O   LIG d   1       3.444   1.274  -2.103  0.00  0.00    -0.250 OA
ATOM     24  O   LIG d   1       7.773   1.081  -3.661  0.00  0.00    -0.861 OA
ATOM     25  H   LIG d   1       7.079  -0.609  -5.806  0.00  0.00     0.064 H 
ENDBRANCH   7  16
TORSDOF 1
ENDMDL
