MODEL 1
REMARK VINA RESULT:      -6.0      0.000      0.000
REMARK  7 active torsions:
REMARK  status: ('A' for Active; 'I' for Inactive)
REMARK    1  A    between atoms: C_1  and  C_2 
REMARK    2  A    between atoms: C_5  and  N_46 
REMARK    3  A    between atoms: C_8  and  C_9 
REMARK    4  A    between atoms: C_8  and  N_46 
REMARK    5  A    between atoms: C_9  and  O_17 
REMARK    6  A    between atoms: C_13  and  C_15 
REMARK    7  A    between atoms: C_13  and  C_16 
ROOT
ATOM      1  C   LIG d   1       2.671  -0.134  -5.996  0.00  0.00    -0.004 C 
ATOM      2  H   LIG d   1       1.713   0.102  -5.531  0.00  0.00     0.084 H 
ATOM      3  H   LIG d   1       2.541  -0.961  -6.695  0.00  0.00     0.084 H 
ENDROOT
BRANCH   1   4
ATOM      4  C   LIG d   1       3.677  -0.534  -4.914  0.00  0.00     0.110 C 
ATOM      5  C   LIG d   1       3.573   0.436  -3.734  0.00  0.00     0.010 C 
ATOM      6  C   LIG d   1       4.637   0.076  -2.693  0.00  0.00     0.067 C 
ATOM      7  H   LIG d   1       3.737   1.454  -4.084  0.00  0.00     0.032 H 
ATOM      8  H   LIG d   1       2.583   0.359  -3.285  0.00  0.00     0.032 H 
ATOM      9  O   LIG d   1       5.930   0.120  -3.299  0.00  0.00    -0.374 OA
ATOM     10  C   LIG d   1       6.100  -0.802  -4.379  0.00  0.00     0.051 C 
ATOM     11  C   LIG d   1       5.096  -0.476  -5.488  0.00  0.00     0.005 C 
ATOM     12  H   LIG d   1       5.929  -1.817  -4.021  0.00  0.00     0.056 H 
ATOM     13  H   LIG d   1       7.114  -0.721  -4.771  0.00  0.00     0.056 H 
ATOM     14  H   LIG d   1       5.193  -1.205  -6.293  0.00  0.00     0.032 H 
ATOM     15  H   LIG d   1       5.292   0.524  -5.875  0.00  0.00     0.032 H 
BRANCH   6  16
ATOM     16  C   LIG d   1       4.370  -1.332  -2.159  0.00  0.00    -0.036 C 
ATOM     17  H   LIG d   1       4.412  -1.321  -1.069  0.00  0.00     0.026 H 
ATOM     18  H   LIG d   1       3.383  -1.662  -2.482  0.00  0.00     0.026 H 
ATOM     19  H   LIG d   1       5.126  -2.016  -2.545  0.00  0.00     0.026 H 
ENDBRANCH   6  16
BRANCH   6  20
ATOM     20  C   LIG d   1       4.581   1.079  -1.539  0.00  0.00    -0.036 C 
ATOM     21  H   LIG d   1       5.518   1.634  -1.495  0.00  0.00     0.026 H 
ATOM     22  H   LIG d   1       3.756   1.772  -1.699  0.00  0.00     0.026 H 
ATOM     23  H   LIG d   1       4.431   0.545  -0.601  0.00  0.00     0.026 H 
ENDBRANCH   6  20
BRANCH   4  24
ATOM     24  O   LIG d   1       3.395  -1.862  -4.469  0.00  0.00    -0.383 OA
ATOM     25  H   LIG d   1       2.566  -1.945  -3.976  0.00  0.00     0.210 HD
ENDBRANCH   4  24
ENDBRANCH   1   4
BRANCH   1  26
ATOM     26  N   LIG d   1       3.177   1.049  -6.716  0.00  0.00     0.231 N 
ATOM     27  H   LIG d   1       2.703   1.889  -6.364  0.00  0.00     0.202 HD
ATOM     28  H   LIG d   1       4.188   1.135  -6.556  0.00  0.00     0.202 HD
BRANCH  26  29
ATOM     29  C   LIG d   1       2.923   0.916  -8.162  0.00  0.00    -0.022 C 
ATOM     30  C   LIG d   1       2.430  -0.500  -8.466  0.00  0.00    -0.009 C 
ATOM     31  C   LIG d   1       2.175  -0.640  -9.968  0.00  0.00    -0.045 C 
ATOM     32  H   LIG d   1       3.186  -1.223  -8.157  0.00  0.00     0.032 H 
ATOM     33  H   LIG d   1       1.504  -0.686  -7.922  0.00  0.00     0.032 H 
ATOM     34  C   LIG d   1       3.475  -0.378 -10.733  0.00  0.00    -0.043 C 
ATOM     35  H   LIG d   1       1.420   0.082 -10.278  0.00  0.00     0.027 H 
ATOM     36  H   LIG d   1       1.824  -1.649 -10.185  0.00  0.00     0.027 H 
ATOM     37  C   LIG d   1       3.968   1.038 -10.429  0.00  0.00    -0.045 C 
ATOM     38  H   LIG d   1       4.230  -1.100 -10.423  0.00  0.00     0.030 H 
ATOM     39  C   LIG d   1       4.223   1.178  -8.927  0.00  0.00    -0.009 C 
ATOM     40  H   LIG d   1       4.894   1.224 -10.974  0.00  0.00     0.027 H 
ATOM     41  H   LIG d   1       3.213   1.760 -10.738  0.00  0.00     0.027 H 
ATOM     42  H   LIG d   1       4.978   0.456  -8.618  0.00  0.00     0.032 H 
ATOM     43  H   LIG d   1       4.575   2.187  -8.710  0.00  0.00     0.032 H 
ATOM     44  H   LIG d   1       2.167   1.638  -8.472  0.00  0.00     0.085 H 
BRANCH  34  45
ATOM     45  C   LIG d   1       3.220  -0.519 -12.235  0.00  0.00    -0.062 C 
ATOM     46  H   LIG d   1       4.173  -0.601 -12.759  0.00  0.00     0.023 H 
ATOM     47  H   LIG d   1       2.626  -1.413 -12.420  0.00  0.00     0.023 H 
ATOM     48  H   LIG d   1       2.681   0.357 -12.595  0.00  0.00     0.023 H 
ENDBRANCH  34  45
ENDBRANCH  26  29
ENDBRANCH   1  26
TORSDOF 7
ENDMDL
MODEL 2
REMARK VINA RESULT:      -5.8      1.196      2.299
REMARK  7 active torsions:
REMARK  status: ('A' for Active; 'I' for Inactive)
REMARK    1  A    between atoms: C_1  and  C_2 
REMARK    2  A    between atoms: C_5  and  N_46 
REMARK    3  A    between atoms: C_8  and  C_9 
REMARK    4  A    between atoms: C_8  and  N_46 
REMARK    5  A    between atoms: C_9  and  O_17 
REMARK    6  A    between atoms: C_13  and  C_15 
REMARK    7  A    between atoms: C_13  and  C_16 
ROOT
ATOM      1  C   LIG d   1       2.499   0.158  -5.399  0.00  0.00    -0.004 C 
ATOM      2  H   LIG d   1       1.490   0.209  -4.988  0.00  0.00     0.084 H 
ATOM      3  H   LIG d   1       2.607  -0.757  -5.981  0.00  0.00     0.084 H 
ENDROOT
BRANCH   1   4
ATOM      4  C   LIG d   1       3.515   0.157  -4.254  0.00  0.00     0.110 C 
ATOM      5  C   LIG d   1       4.854  -0.387  -4.757  0.00  0.00     0.010 C 
ATOM      6  C   LIG d   1       5.839  -0.459  -3.588  0.00  0.00     0.067 C 
ATOM      7  H   LIG d   1       4.710  -1.384  -5.172  0.00  0.00     0.032 H 
ATOM      8  H   LIG d   1       5.250   0.274  -5.528  0.00  0.00     0.032 H 
ATOM      9  O   LIG d   1       5.292  -1.279  -2.553  0.00  0.00    -0.374 OA
ATOM     10  C   LIG d   1       4.062  -0.792  -2.011  0.00  0.00     0.051 C 
ATOM     11  C   LIG d   1       3.006  -0.736  -3.118  0.00  0.00     0.005 C 
ATOM     12  H   LIG d   1       4.215   0.207  -1.604  0.00  0.00     0.056 H 
ATOM     13  H   LIG d   1       3.723  -1.460  -1.219  0.00  0.00     0.056 H 
ATOM     14  H   LIG d   1       2.080  -0.323  -2.717  0.00  0.00     0.032 H 
ATOM     15  H   LIG d   1       2.822  -1.741  -3.499  0.00  0.00     0.032 H 
BRANCH   6  16
ATOM     16  C   LIG d   1       6.087   0.949  -3.044  0.00  0.00    -0.036 C 
ATOM     17  H   LIG d   1       5.242   1.254  -2.426  0.00  0.00     0.026 H 
ATOM     18  H   LIG d   1       6.997   0.953  -2.444  0.00  0.00     0.026 H 
ATOM     19  H   LIG d   1       6.198   1.645  -3.876  0.00  0.00     0.026 H 
ENDBRANCH   6  16
BRANCH   6  20
ATOM     20  C   LIG d   1       7.161  -1.060  -4.069  0.00  0.00    -0.036 C 
ATOM     21  H   LIG d   1       7.425  -0.630  -5.036  0.00  0.00     0.026 H 
ATOM     22  H   LIG d   1       7.946  -0.837  -3.346  0.00  0.00     0.026 H 
ATOM     23  H   LIG d   1       7.055  -2.140  -4.169  0.00  0.00     0.026 H 
ENDBRANCH   6  20
BRANCH   4  24
ATOM     24  O   LIG d   1       3.690   1.491  -3.772  0.00  0.00    -0.383 OA
ATOM     25  H   LIG d   1       4.326   1.567  -3.047  0.00  0.00     0.210 HD
ENDBRANCH   4  24
ENDBRANCH   1   4
BRANCH   1  26
ATOM     26  N   LIG d   1       2.742   1.328  -6.262  0.00  0.00     0.231 N 
ATOM     27  H   LIG d   1       1.859   1.832  -6.406  0.00  0.00     0.202 HD
ATOM     28  H   LIG d   1       3.420   1.950  -5.805  0.00  0.00     0.202 HD
BRANCH  26  29
ATOM     29  C   LIG d   1       3.277   0.899  -7.567  0.00  0.00    -0.022 C 
ATOM     30  C   LIG d   1       2.999   1.979  -8.614  0.00  0.00    -0.009 C 
ATOM     31  C   LIG d   1       3.545   1.529  -9.970  0.00  0.00    -0.045 C 
ATOM     32  H   LIG d   1       1.923   2.142  -8.692  0.00  0.00     0.032 H 
ATOM     33  H   LIG d   1       3.487   2.907  -8.317  0.00  0.00     0.032 H 
ATOM     34  C   LIG d   1       2.861   0.225 -10.389  0.00  0.00    -0.043 C 
ATOM     35  H   LIG d   1       4.620   1.366  -9.893  0.00  0.00     0.027 H 
ATOM     36  H   LIG d   1       3.347   2.298 -10.716  0.00  0.00     0.027 H 
ATOM     37  C   LIG d   1       3.139  -0.855  -9.342  0.00  0.00    -0.045 C 
ATOM     38  H   LIG d   1       1.786   0.388 -10.466  0.00  0.00     0.030 H 
ATOM     39  C   LIG d   1       2.593  -0.405  -7.986  0.00  0.00    -0.009 C 
ATOM     40  H   LIG d   1       2.652  -1.784  -9.640  0.00  0.00     0.027 H 
ATOM     41  H   LIG d   1       4.214  -1.018  -9.264  0.00  0.00     0.027 H 
ATOM     42  H   LIG d   1       1.518  -0.242  -8.063  0.00  0.00     0.032 H 
ATOM     43  H   LIG d   1       2.790  -1.175  -7.240  0.00  0.00     0.032 H 
ATOM     44  H   LIG d   1       4.352   0.736  -7.491  0.00  0.00     0.085 H 
BRANCH  34  45
ATOM     45  C   LIG d   1       3.408  -0.225 -11.745  0.00  0.00    -0.062 C 
ATOM     46  H   LIG d   1       2.643  -0.086 -12.509  0.00  0.00     0.023 H 
ATOM     47  H   LIG d   1       4.286   0.369 -11.998  0.00  0.00     0.023 H 
ATOM     48  H   LIG d   1       3.683  -1.278 -11.694  0.00  0.00     0.023 H 
ENDBRANCH  34  45
ENDBRANCH  26  29
ENDBRANCH   1  26
TORSDOF 7
ENDMDL
MODEL 3
REMARK VINA RESULT:      -5.8      1.518      1.980
REMARK  7 active torsions:
REMARK  status: ('A' for Active; 'I' for Inactive)
REMARK    1  A    between atoms: C_1  and  C_2 
REMARK    2  A    between atoms: C_5  and  N_46 
REMARK    3  A    between atoms: C_8  and  C_9 
REMARK    4  A    between atoms: C_8  and  N_46 
REMARK    5  A    between atoms: C_9  and  O_17 
REMARK    6  A    between atoms: C_13  and  C_15 
REMARK    7  A    between atoms: C_13  and  C_16 
ROOT
ATOM      1  C   LIG d   1       3.897  -0.768  -6.325  0.00  0.00    -0.004 C 
ATOM      2  H   LIG d   1       4.463   0.057  -6.759  0.00  0.00     0.084 H 
ATOM      3  H   LIG d   1       2.852  -0.477  -6.224  0.00  0.00     0.084 H 
ENDROOT
BRANCH   1   4
ATOM      4  C   LIG d   1       4.469  -1.104  -4.945  0.00  0.00     0.110 C 
ATOM      5  C   LIG d   1       4.165   0.037  -3.972  0.00  0.00     0.010 C 
ATOM      6  C   LIG d   1       4.809  -0.273  -2.618  0.00  0.00     0.067 C 
ATOM      7  H   LIG d   1       4.574   0.968  -4.364  0.00  0.00     0.032 H 
ATOM      8  H   LIG d   1       3.087   0.135  -3.849  0.00  0.00     0.032 H 
ATOM      9  O   LIG d   1       6.215  -0.459  -2.790  0.00  0.00    -0.374 OA
ATOM     10  C   LIG d   1       6.558  -1.546  -3.654  0.00  0.00     0.051 C 
ATOM     11  C   LIG d   1       5.986  -1.285  -5.050  0.00  0.00     0.005 C 
ATOM     12  H   LIG d   1       6.142  -2.471  -3.257  0.00  0.00     0.056 H 
ATOM     13  H   LIG d   1       7.643  -1.632  -3.716  0.00  0.00     0.056 H 
ATOM     14  H   LIG d   1       6.208  -2.133  -5.699  0.00  0.00     0.032 H 
ATOM     15  H   LIG d   1       6.433  -0.381  -5.465  0.00  0.00     0.032 H 
BRANCH   6  16
ATOM     16  C   LIG d   1       4.192  -1.548  -2.041  0.00  0.00    -0.036 C 
ATOM     17  H   LIG d   1       4.091  -2.292  -2.832  0.00  0.00     0.026 H 
ATOM     18  H   LIG d   1       4.836  -1.940  -1.253  0.00  0.00     0.026 H 
ATOM     19  H   LIG d   1       3.209  -1.321  -1.628  0.00  0.00     0.026 H 
ENDBRANCH   6  16
BRANCH   6  20
ATOM     20  C   LIG d   1       4.564   0.892  -1.657  0.00  0.00    -0.036 C 
ATOM     21  H   LIG d   1       4.891   1.822  -2.122  0.00  0.00     0.026 H 
ATOM     22  H   LIG d   1       3.500   0.956  -1.427  0.00  0.00     0.026 H 
ATOM     23  H   LIG d   1       5.125   0.729  -0.737  0.00  0.00     0.026 H 
ENDBRANCH   6  20
BRANCH   4  24
ATOM     24  O   LIG d   1       3.875  -2.313  -4.466  0.00  0.00    -0.383 OA
ATOM     25  H   LIG d   1       4.505  -3.034  -4.327  0.00  0.00     0.210 HD
ENDBRANCH   4  24
ENDBRANCH   1   4
BRANCH   1  26
ATOM     26  N   LIG d   1       4.002  -1.953  -7.196  0.00  0.00     0.231 N 
ATOM     27  H   LIG d   1       4.982  -2.255  -7.241  0.00  0.00     0.202 HD
ATOM     28  H   LIG d   1       3.429  -2.711  -6.805  0.00  0.00     0.202 HD
BRANCH  26  29
ATOM     29  C   LIG d   1       3.527  -1.634  -8.554  0.00  0.00    -0.022 C 
ATOM     30  C   LIG d   1       2.417  -0.585  -8.474  0.00  0.00    -0.009 C 
ATOM     31  C   LIG d   1       1.918  -0.260  -9.883  0.00  0.00    -0.045 C 
ATOM     32  H   LIG d   1       1.591  -0.973  -7.877  0.00  0.00     0.032 H 
ATOM     33  H   LIG d   1       2.806   0.321  -8.010  0.00  0.00     0.032 H 
ATOM     34  C   LIG d   1       1.371  -1.532 -10.536  0.00  0.00    -0.043 C 
ATOM     35  H   LIG d   1       2.742   0.128 -10.481  0.00  0.00     0.027 H 
ATOM     36  H   LIG d   1       1.127   0.487  -9.826  0.00  0.00     0.027 H 
ATOM     37  C   LIG d   1       2.481  -2.581 -10.616  0.00  0.00    -0.045 C 
ATOM     38  H   LIG d   1       0.546  -1.921  -9.939  0.00  0.00     0.030 H 
ATOM     39  C   LIG d   1       2.980  -2.906  -9.207  0.00  0.00    -0.009 C 
ATOM     40  H   LIG d   1       2.091  -3.487 -11.081  0.00  0.00     0.027 H 
ATOM     41  H   LIG d   1       3.306  -2.194 -11.213  0.00  0.00     0.027 H 
ATOM     42  H   LIG d   1       2.155  -3.294  -8.610  0.00  0.00     0.032 H 
ATOM     43  H   LIG d   1       3.771  -3.654  -9.264  0.00  0.00     0.032 H 
ATOM     44  H   LIG d   1       4.351  -1.245  -9.152  0.00  0.00     0.085 H 
BRANCH  34  45
ATOM     45  C   LIG d   1       0.872  -1.208 -11.945  0.00  0.00    -0.062 C 
ATOM     46  H   LIG d   1       1.352  -1.873 -12.663  0.00  0.00     0.023 H 
ATOM     47  H   LIG d   1      -0.208  -1.346 -11.989  0.00  0.00     0.023 H 
ATOM     48  H   LIG d   1       1.116  -0.174 -12.188  0.00  0.00     0.023 H 
ENDBRANCH  34  45
ENDBRANCH  26  29
ENDBRANCH   1  26
TORSDOF 7
ENDMDL
MODEL 4
REMARK VINA RESULT:      -5.6      2.424      6.370
REMARK  7 active torsions:
REMARK  status: ('A' for Active; 'I' for Inactive)
REMARK    1  A    between atoms: C_1  and  C_2 
REMARK    2  A    between atoms: C_5  and  N_46 
REMARK    3  A    between atoms: C_8  and  C_9 
REMARK    4  A    between atoms: C_8  and  N_46 
REMARK    5  A    between atoms: C_9  and  O_17 
REMARK    6  A    between atoms: C_13  and  C_15 
REMARK    7  A    between atoms: C_13  and  C_16 
ROOT
ATOM      1  C   LIG d   1       2.677   0.107  -7.042  0.00  0.00    -0.004 C 
ATOM      2  H   LIG d   1       1.643  -0.211  -7.172  0.00  0.00     0.084 H 
ATOM      3  H   LIG d   1       2.719   0.920  -6.317  0.00  0.00     0.084 H 
ENDROOT
BRANCH   1   4
ATOM      4  C   LIG d   1       3.231   0.592  -8.384  0.00  0.00     0.110 C 
ATOM      5  C   LIG d   1       4.732   0.297  -8.456  0.00  0.00     0.010 C 
ATOM      6  C   LIG d   1       5.292   0.857  -9.767  0.00  0.00     0.067 C 
ATOM      7  H   LIG d   1       5.237   0.769  -7.615  0.00  0.00     0.032 H 
ATOM      8  H   LIG d   1       4.893  -0.780  -8.421  0.00  0.00     0.032 H 
ATOM      9  O   LIG d   1       5.026   2.259  -9.838  0.00  0.00    -0.374 OA
ATOM     10  C   LIG d   1       3.635   2.591  -9.823  0.00  0.00     0.051 C 
ATOM     11  C   LIG d   1       3.011   2.103  -8.514  0.00  0.00     0.005 C 
ATOM     12  H   LIG d   1       3.138   2.111 -10.664  0.00  0.00     0.056 H 
ATOM     13  H   LIG d   1       3.519   3.672  -9.900  0.00  0.00     0.056 H 
ATOM     14  H   LIG d   1       1.941   2.315  -8.519  0.00  0.00     0.032 H 
ATOM     15  H   LIG d   1       3.480   2.613  -7.672  0.00  0.00     0.032 H 
BRANCH   6  16
ATOM     16  C   LIG d   1       4.624   0.150 -10.948  0.00  0.00    -0.036 C 
ATOM     17  H   LIG d   1       5.289   0.178 -11.812  0.00  0.00     0.026 H 
ATOM     18  H   LIG d   1       4.416  -0.886 -10.682  0.00  0.00     0.026 H 
ATOM     19  H   LIG d   1       3.689   0.657 -11.193  0.00  0.00     0.026 H 
ENDBRANCH   6  16
BRANCH   6  20
ATOM     20  C   LIG d   1       6.802   0.620  -9.819  0.00  0.00    -0.036 C 
ATOM     21  H   LIG d   1       7.177   0.443  -8.811  0.00  0.00     0.026 H 
ATOM     22  H   LIG d   1       7.013  -0.248 -10.443  0.00  0.00     0.026 H 
ATOM     23  H   LIG d   1       7.293   1.498 -10.240  0.00  0.00     0.026 H 
ENDBRANCH   6  20
BRANCH   4  24
ATOM     24  O   LIG d   1       2.558  -0.082  -9.449  0.00  0.00    -0.383 OA
ATOM     25  H   LIG d   1       3.119  -0.266 -10.216  0.00  0.00     0.210 HD
ENDBRANCH   4  24
ENDBRANCH   1   4
BRANCH   1  26
ATOM     26  N   LIG d   1       3.490  -1.027  -6.564  0.00  0.00     0.231 N 
ATOM     27  H   LIG d   1       2.976  -1.902  -6.724  0.00  0.00     0.202 HD
ATOM     28  H   LIG d   1       4.376  -1.050  -7.083  0.00  0.00     0.202 HD
BRANCH  26  29
ATOM     29  C   LIG d   1       3.771  -0.883  -5.124  0.00  0.00    -0.022 C 
ATOM     30  C   LIG d   1       2.751   0.067  -4.496  0.00  0.00    -0.009 C 
ATOM     31  C   LIG d   1       3.049   0.223  -3.004  0.00  0.00    -0.045 C 
ATOM     32  H   LIG d   1       2.813   1.041  -4.983  0.00  0.00     0.032 H 
ATOM     33  H   LIG d   1       1.748  -0.340  -4.625  0.00  0.00     0.032 H 
ATOM     34  C   LIG d   1       4.457   0.795  -2.822  0.00  0.00    -0.043 C 
ATOM     35  H   LIG d   1       2.987  -0.750  -2.516  0.00  0.00     0.027 H 
ATOM     36  H   LIG d   1       2.322   0.901  -2.556  0.00  0.00     0.027 H 
ATOM     37  C   LIG d   1       5.478  -0.155  -3.450  0.00  0.00    -0.045 C 
ATOM     38  H   LIG d   1       4.520   1.768  -3.309  0.00  0.00     0.030 H 
ATOM     39  C   LIG d   1       5.179  -0.312  -4.942  0.00  0.00    -0.009 C 
ATOM     40  H   LIG d   1       6.481   0.252  -3.321  0.00  0.00     0.027 H 
ATOM     41  H   LIG d   1       5.416  -1.128  -2.964  0.00  0.00     0.027 H 
ATOM     42  H   LIG d   1       5.242   0.662  -5.429  0.00  0.00     0.032 H 
ATOM     43  H   LIG d   1       5.907  -0.989  -5.390  0.00  0.00     0.032 H 
ATOM     44  H   LIG d   1       3.709  -1.856  -4.636  0.00  0.00     0.085 H 
BRANCH  34  45
ATOM     45  C   LIG d   1       4.755   0.951  -1.330  0.00  0.00    -0.062 C 
ATOM     46  H   LIG d   1       5.511   1.725  -1.189  0.00  0.00     0.023 H 
ATOM     47  H   LIG d   1       3.844   1.234  -0.805  0.00  0.00     0.023 H 
ATOM     48  H   LIG d   1       5.125   0.006  -0.932  0.00  0.00     0.023 H 
ENDBRANCH  34  45
ENDBRANCH  26  29
ENDBRANCH   1  26
TORSDOF 7
ENDMDL
MODEL 5
REMARK VINA RESULT:      -5.5      4.917      7.343
REMARK  7 active torsions:
REMARK  status: ('A' for Active; 'I' for Inactive)
REMARK    1  A    between atoms: C_1  and  C_2 
REMARK    2  A    between atoms: C_5  and  N_46 
REMARK    3  A    between atoms: C_8  and  C_9 
REMARK    4  A    between atoms: C_8  and  N_46 
REMARK    5  A    between atoms: C_9  and  O_17 
REMARK    6  A    between atoms: C_13  and  C_15 
REMARK    7  A    between atoms: C_13  and  C_16 
ROOT
ATOM      1  C   LIG d   1       5.378  -4.121  -5.645  0.00  0.00    -0.004 C 
ATOM      2  H   LIG d   1       5.624  -3.625  -6.584  0.00  0.00     0.084 H 
ATOM      3  H   LIG d   1       6.230  -4.061  -4.968  0.00  0.00     0.084 H 
ENDROOT
BRANCH   1   4
ATOM      4  C   LIG d   1       5.046  -5.590  -5.918  0.00  0.00     0.110 C 
ATOM      5  C   LIG d   1       6.295  -6.448  -5.696  0.00  0.00     0.010 C 
ATOM      6  C   LIG d   1       5.974  -7.903  -6.048  0.00  0.00     0.067 C 
ATOM      7  H   LIG d   1       7.101  -6.089  -6.335  0.00  0.00     0.032 H 
ATOM      8  H   LIG d   1       6.600  -6.384  -4.652  0.00  0.00     0.032 H 
ATOM      9  O   LIG d   1       5.517  -7.976  -7.401  0.00  0.00    -0.374 OA
ATOM     10  C   LIG d   1       4.323  -7.231  -7.654  0.00  0.00     0.051 C 
ATOM     11  C   LIG d   1       4.579  -5.749  -7.368  0.00  0.00     0.005 C 
ATOM     12  H   LIG d   1       3.524  -7.593  -7.008  0.00  0.00     0.056 H 
ATOM     13  H   LIG d   1       4.032  -7.355  -8.697  0.00  0.00     0.056 H 
ATOM     14  H   LIG d   1       3.659  -5.185  -7.518  0.00  0.00     0.032 H 
ATOM     15  H   LIG d   1       5.350  -5.375  -8.042  0.00  0.00     0.032 H 
BRANCH   6  16
ATOM     16  C   LIG d   1       4.882  -8.424  -5.112  0.00  0.00    -0.036 C 
ATOM     17  H   LIG d   1       4.784  -9.504  -5.234  0.00  0.00     0.026 H 
ATOM     18  H   LIG d   1       5.150  -8.198  -4.080  0.00  0.00     0.026 H 
ATOM     19  H   LIG d   1       3.935  -7.943  -5.356  0.00  0.00     0.026 H 
ENDBRANCH   6  16
BRANCH   6  20
ATOM     20  C   LIG d   1       7.233  -8.757  -5.889  0.00  0.00    -0.036 C 
ATOM     21  H   LIG d   1       8.102  -8.186  -6.218  0.00  0.00     0.026 H 
ATOM     22  H   LIG d   1       7.355  -9.033  -4.842  0.00  0.00     0.026 H 
ATOM     23  H   LIG d   1       7.141  -9.658  -6.495  0.00  0.00     0.026 H 
ENDBRANCH   6  20
BRANCH   4  24
ATOM     24  O   LIG d   1       4.009  -6.017  -5.032  0.00  0.00    -0.383 OA
ATOM     25  H   LIG d   1       4.015  -6.966  -4.846  0.00  0.00     0.210 HD
ENDBRANCH   4  24
ENDBRANCH   1   4
BRANCH   1  26
ATOM     26  N   LIG d   1       4.208  -3.466  -5.030  0.00  0.00     0.231 N 
ATOM     27  H   LIG d   1       3.598  -3.099  -5.770  0.00  0.00     0.202 HD
ATOM     28  H   LIG d   1       3.691  -4.155  -4.470  0.00  0.00     0.202 HD
BRANCH  26  29
ATOM     29  C   LIG d   1       4.641  -2.357  -4.160  0.00  0.00    -0.022 C 
ATOM     30  C   LIG d   1       3.982  -2.497  -2.788  0.00  0.00    -0.009 C 
ATOM     31  C   LIG d   1       4.424  -1.340  -1.889  0.00  0.00    -0.045 C 
ATOM     32  H   LIG d   1       2.897  -2.474  -2.901  0.00  0.00     0.032 H 
ATOM     33  H   LIG d   1       4.281  -3.442  -2.335  0.00  0.00     0.032 H 
ATOM     34  C   LIG d   1       4.005  -0.012  -2.523  0.00  0.00    -0.043 C 
ATOM     35  H   LIG d   1       5.508  -1.362  -1.775  0.00  0.00     0.027 H 
ATOM     36  H   LIG d   1       3.954  -1.439  -0.911  0.00  0.00     0.027 H 
ATOM     37  C   LIG d   1       4.664   0.128  -3.896  0.00  0.00    -0.045 C 
ATOM     38  H   LIG d   1       2.921   0.010  -2.637  0.00  0.00     0.030 H 
ATOM     39  C   LIG d   1       4.222  -1.029  -4.795  0.00  0.00    -0.009 C 
ATOM     40  H   LIG d   1       4.365   1.074  -4.348  0.00  0.00     0.027 H 
ATOM     41  H   LIG d   1       5.748   0.106  -3.783  0.00  0.00     0.027 H 
ATOM     42  H   LIG d   1       3.138  -1.007  -4.908  0.00  0.00     0.032 H 
ATOM     43  H   LIG d   1       4.692  -0.929  -5.774  0.00  0.00     0.032 H 
ATOM     44  H   LIG d   1       5.725  -2.379  -4.046  0.00  0.00     0.085 H 
BRANCH  34  45
ATOM     45  C   LIG d   1       4.447   1.145  -1.624  0.00  0.00    -0.062 C 
ATOM     46  H   LIG d   1       5.299   1.651  -2.077  0.00  0.00     0.023 H 
ATOM     47  H   LIG d   1       3.625   1.850  -1.509  0.00  0.00     0.023 H 
ATOM     48  H   LIG d   1       4.732   0.756  -0.647  0.00  0.00     0.023 H 
ENDBRANCH  34  45
ENDBRANCH  26  29
ENDBRANCH   1  26
TORSDOF 7
ENDMDL
MODEL 6
REMARK VINA RESULT:      -5.3      2.274      6.396
REMARK  7 active torsions:
REMARK  status: ('A' for Active; 'I' for Inactive)
REMARK    1  A    between atoms: C_1  and  C_2 
REMARK    2  A    between atoms: C_5  and  N_46 
REMARK    3  A    between atoms: C_8  and  C_9 
REMARK    4  A    between atoms: C_8  and  N_46 
REMARK    5  A    between atoms: C_9  and  O_17 
REMARK    6  A    between atoms: C_13  and  C_15 
REMARK    7  A    between atoms: C_13  and  C_16 
ROOT
ATOM      1  C   LIG d   1       5.347  -1.267  -7.072  0.00  0.00    -0.004 C 
ATOM      2  H   LIG d   1       5.950  -0.665  -6.391  0.00  0.00     0.084 H 
ATOM      3  H   LIG d   1       5.978  -2.017  -7.548  0.00  0.00     0.084 H 
ENDROOT
BRANCH   1   4
ATOM      4  C   LIG d   1       4.734  -0.362  -8.143  0.00  0.00     0.110 C 
ATOM      5  C   LIG d   1       3.338  -0.872  -8.509  0.00  0.00     0.010 C 
ATOM      6  C   LIG d   1       2.766  -0.009  -9.637  0.00  0.00     0.067 C 
ATOM      7  H   LIG d   1       3.405  -1.907  -8.842  0.00  0.00     0.032 H 
ATOM      8  H   LIG d   1       2.688  -0.811  -7.637  0.00  0.00     0.032 H 
ATOM      9  O   LIG d   1       3.651  -0.043 -10.758  0.00  0.00    -0.374 OA
ATOM     10  C   LIG d   1       4.959   0.468 -10.487  0.00  0.00     0.051 C 
ATOM     11  C   LIG d   1       5.618  -0.378  -9.395  0.00  0.00     0.005 C 
ATOM     12  H   LIG d   1       4.882   1.501 -10.149  0.00  0.00     0.056 H 
ATOM     13  H   LIG d   1       5.562   0.425 -11.394  0.00  0.00     0.056 H 
ATOM     14  H   LIG d   1       6.597   0.037  -9.154  0.00  0.00     0.032 H 
ATOM     15  H   LIG d   1       5.733  -1.403  -9.746  0.00  0.00     0.032 H 
BRANCH   6  16
ATOM     16  C   LIG d   1       2.618   1.433  -9.148  0.00  0.00    -0.036 C 
ATOM     17  H   LIG d   1       2.435   1.435  -8.073  0.00  0.00     0.026 H 
ATOM     18  H   LIG d   1       3.533   1.986  -9.362  0.00  0.00     0.026 H 
ATOM     19  H   LIG d   1       1.780   1.906  -9.660  0.00  0.00     0.026 H 
ENDBRANCH   6  16
BRANCH   6  20
ATOM     20  C   LIG d   1       1.397  -0.550 -10.051  0.00  0.00    -0.036 C 
ATOM     21  H   LIG d   1       0.980  -1.144  -9.237  0.00  0.00     0.026 H 
ATOM     22  H   LIG d   1       0.729   0.282 -10.272  0.00  0.00     0.026 H 
ATOM     23  H   LIG d   1       1.506  -1.175 -10.937  0.00  0.00     0.026 H 
ENDBRANCH   6  20
BRANCH   4  24
ATOM     24  O   LIG d   1       4.640   0.973  -7.642  0.00  0.00    -0.383 OA
ATOM     25  H   LIG d   1       3.750   1.350  -7.689  0.00  0.00     0.210 HD
ENDBRANCH   4  24
ENDBRANCH   1   4
BRANCH   1  26
ATOM     26  N   LIG d   1       4.265  -1.931  -6.322  0.00  0.00     0.231 N 
ATOM     27  H   LIG d   1       3.362  -1.694  -6.749  0.00  0.00     0.202 HD
ATOM     28  H   LIG d   1       4.404  -2.948  -6.358  0.00  0.00     0.202 HD
BRANCH  26  29
ATOM     29  C   LIG d   1       4.271  -1.488  -4.916  0.00  0.00    -0.022 C 
ATOM     30  C   LIG d   1       3.221  -0.393  -4.721  0.00  0.00    -0.009 C 
ATOM     31  C   LIG d   1       3.234   0.073  -3.264  0.00  0.00    -0.045 C 
ATOM     32  H   LIG d   1       3.449   0.450  -5.374  0.00  0.00     0.032 H 
ATOM     33  H   LIG d   1       2.235  -0.787  -4.966  0.00  0.00     0.032 H 
ATOM     34  C   LIG d   1       4.618   0.627  -2.917  0.00  0.00    -0.043 C 
ATOM     35  H   LIG d   1       3.006  -0.769  -2.610  0.00  0.00     0.027 H 
ATOM     36  H   LIG d   1       2.486   0.854  -3.125  0.00  0.00     0.027 H 
ATOM     37  C   LIG d   1       5.668  -0.468  -3.112  0.00  0.00    -0.045 C 
ATOM     38  H   LIG d   1       4.846   1.469  -3.570  0.00  0.00     0.030 H 
ATOM     39  C   LIG d   1       5.655  -0.934  -4.569  0.00  0.00    -0.009 C 
ATOM     40  H   LIG d   1       6.654  -0.073  -2.866  0.00  0.00     0.027 H 
ATOM     41  H   LIG d   1       5.441  -1.310  -2.460  0.00  0.00     0.027 H 
ATOM     42  H   LIG d   1       5.883  -0.092  -5.222  0.00  0.00     0.032 H 
ATOM     43  H   LIG d   1       6.404  -1.714  -4.709  0.00  0.00     0.032 H 
ATOM     44  H   LIG d   1       4.043  -2.330  -4.262  0.00  0.00     0.085 H 
BRANCH  34  45
ATOM     45  C   LIG d   1       4.631   1.093  -1.460  0.00  0.00    -0.062 C 
ATOM     46  H   LIG d   1       5.511   0.691  -0.958  0.00  0.00     0.023 H 
ATOM     47  H   LIG d   1       4.661   2.182  -1.428  0.00  0.00     0.023 H 
ATOM     48  H   LIG d   1       3.732   0.739  -0.958  0.00  0.00     0.023 H 
ENDBRANCH  34  45
ENDBRANCH  26  29
ENDBRANCH   1  26
TORSDOF 7
ENDMDL
MODEL 7
REMARK VINA RESULT:      -5.3      4.004      5.956
REMARK  7 active torsions:
REMARK  status: ('A' for Active; 'I' for Inactive)
REMARK    1  A    between atoms: C_1  and  C_2 
REMARK    2  A    between atoms: C_5  and  N_46 
REMARK    3  A    between atoms: C_8  and  C_9 
REMARK    4  A    between atoms: C_8  and  N_46 
REMARK    5  A    between atoms: C_9  and  O_17 
REMARK    6  A    between atoms: C_13  and  C_15 
REMARK    7  A    between atoms: C_13  and  C_16 
ROOT
ATOM      1  C   LIG d   1       6.853   0.161  -4.726  0.00  0.00    -0.004 C 
ATOM      2  H   LIG d   1       6.684   1.110  -5.236  0.00  0.00     0.084 H 
ATOM      3  H   LIG d   1       6.855  -0.648  -5.456  0.00  0.00     0.084 H 
ENDROOT
BRANCH   1   4
ATOM      4  C   LIG d   1       5.735  -0.075  -3.708  0.00  0.00     0.110 C 
ATOM      5  C   LIG d   1       4.391  -0.174  -4.435  0.00  0.00     0.010 C 
ATOM      6  C   LIG d   1       3.271  -0.329  -3.402  0.00  0.00     0.067 C 
ATOM      7  H   LIG d   1       4.225   0.732  -5.017  0.00  0.00     0.032 H 
ATOM      8  H   LIG d   1       4.398  -1.038  -5.099  0.00  0.00     0.032 H 
ATOM      9  O   LIG d   1       3.301   0.775  -2.496  0.00  0.00    -0.374 OA
ATOM     10  C   LIG d   1       4.518   0.888  -1.753  0.00  0.00     0.051 C 
ATOM     11  C   LIG d   1       5.686   1.094  -2.720  0.00  0.00     0.005 C 
ATOM     12  H   LIG d   1       4.678  -0.024  -1.179  0.00  0.00     0.056 H 
ATOM     13  H   LIG d   1       4.452   1.739  -1.075  0.00  0.00     0.056 H 
ATOM     14  H   LIG d   1       6.620   1.136  -2.159  0.00  0.00     0.032 H 
ATOM     15  H   LIG d   1       5.548   2.027  -3.267  0.00  0.00     0.032 H 
BRANCH   6  16
ATOM     16  C   LIG d   1       3.473  -1.632  -2.626  0.00  0.00    -0.036 C 
ATOM     17  H   LIG d   1       3.420  -1.429  -1.555  0.00  0.00     0.026 H 
ATOM     18  H   LIG d   1       2.695  -2.343  -2.900  0.00  0.00     0.026 H 
ATOM     19  H   LIG d   1       4.450  -2.051  -2.868  0.00  0.00     0.026 H 
ENDBRANCH   6  16
BRANCH   6  20
ATOM     20  C   LIG d   1       1.919  -0.366  -4.117  0.00  0.00    -0.036 C 
ATOM     21  H   LIG d   1       1.515   0.644  -4.180  0.00  0.00     0.026 H 
ATOM     22  H   LIG d   1       2.050  -0.769  -5.121  0.00  0.00     0.026 H 
ATOM     23  H   LIG d   1       1.230  -0.998  -3.558  0.00  0.00     0.026 H 
ENDBRANCH   6  20
BRANCH   4  24
ATOM     24  O   LIG d   1       5.985  -1.290  -2.998  0.00  0.00    -0.383 OA
ATOM     25  H   LIG d   1       5.417  -1.421  -2.227  0.00  0.00     0.210 HD
ENDBRANCH   4  24
ENDBRANCH   1   4
BRANCH   1  26
ATOM     26  N   LIG d   1       8.149   0.199  -4.023  0.00  0.00     0.231 N 
ATOM     27  H   LIG d   1       7.986   0.366  -3.023  0.00  0.00     0.202 HD
ATOM     28  H   LIG d   1       8.627  -0.701  -4.147  0.00  0.00     0.202 HD
BRANCH  26  29
ATOM     29  C   LIG d   1       8.993   1.279  -4.566  0.00  0.00    -0.022 C 
ATOM     30  C   LIG d   1       9.134   2.390  -3.525  0.00  0.00    -0.009 C 
ATOM     31  C   LIG d   1      10.003   3.514  -4.092  0.00  0.00    -0.045 C 
ATOM     32  H   LIG d   1       8.148   2.783  -3.276  0.00  0.00     0.032 H 
ATOM     33  H   LIG d   1       9.603   1.988  -2.627  0.00  0.00     0.032 H 
ATOM     34  C   LIG d   1       9.346   4.079  -5.354  0.00  0.00    -0.043 C 
ATOM     35  H   LIG d   1      10.989   3.122  -4.341  0.00  0.00     0.027 H 
ATOM     36  H   LIG d   1      10.104   4.306  -3.351  0.00  0.00     0.027 H 
ATOM     37  C   LIG d   1       9.205   2.968  -6.396  0.00  0.00    -0.045 C 
ATOM     38  H   LIG d   1       8.360   4.472  -5.106  0.00  0.00     0.030 H 
ATOM     39  C   LIG d   1       8.336   1.844  -5.828  0.00  0.00    -0.009 C 
ATOM     40  H   LIG d   1       8.736   3.370  -7.295  0.00  0.00     0.027 H 
ATOM     41  H   LIG d   1      10.190   2.575  -6.645  0.00  0.00     0.027 H 
ATOM     42  H   LIG d   1       7.350   2.236  -5.580  0.00  0.00     0.032 H 
ATOM     43  H   LIG d   1       8.235   1.052  -6.571  0.00  0.00     0.032 H 
ATOM     44  H   LIG d   1       9.979   0.887  -4.815  0.00  0.00     0.085 H 
BRANCH  34  45
ATOM     45  C   LIG d   1      10.214   5.204  -5.922  0.00  0.00    -0.062 C 
ATOM     46  H   LIG d   1      10.676   5.755  -5.102  0.00  0.00     0.023 H 
ATOM     47  H   LIG d   1      10.992   4.777  -6.555  0.00  0.00     0.023 H 
ATOM     48  H   LIG d   1       9.595   5.879  -6.511  0.00  0.00     0.023 H 
ENDBRANCH  34  45
ENDBRANCH  26  29
ENDBRANCH   1  26
TORSDOF 7
ENDMDL
MODEL 8
REMARK VINA RESULT:      -5.2      5.098      7.299
REMARK  7 active torsions:
REMARK  status: ('A' for Active; 'I' for Inactive)
REMARK    1  A    between atoms: C_1  and  C_2 
REMARK    2  A    between atoms: C_5  and  N_46 
REMARK    3  A    between atoms: C_8  and  C_9 
REMARK    4  A    between atoms: C_8  and  N_46 
REMARK    5  A    between atoms: C_9  and  O_17 
REMARK    6  A    between atoms: C_13  and  C_15 
REMARK    7  A    between atoms: C_13  and  C_16 
ROOT
ATOM      1  C   LIG d   1       8.703   1.305  -4.448  0.00  0.00    -0.004 C 
ATOM      2  H   LIG d   1       8.971   0.395  -3.911  0.00  0.00     0.084 H 
ATOM      3  H   LIG d   1       8.711   1.109  -5.521  0.00  0.00     0.084 H 
ENDROOT
BRANCH   1   4
ATOM      4  C   LIG d   1       9.718   2.404  -4.123  0.00  0.00     0.110 C 
ATOM      5  C   LIG d   1       9.035   3.772  -4.204  0.00  0.00     0.010 C 
ATOM      6  C   LIG d   1      10.075   4.868  -3.956  0.00  0.00     0.067 C 
ATOM      7  H   LIG d   1       8.599   3.903  -5.194  0.00  0.00     0.032 H 
ATOM      8  H   LIG d   1       8.252   3.834  -3.449  0.00  0.00     0.032 H 
ATOM      9  O   LIG d   1      11.132   4.748  -4.911  0.00  0.00    -0.374 OA
ATOM     10  C   LIG d   1      11.837   3.505  -4.847  0.00  0.00     0.051 C 
ATOM     11  C   LIG d   1      10.868   2.356  -5.134  0.00  0.00     0.005 C 
ATOM     12  H   LIG d   1      12.265   3.380  -3.853  0.00  0.00     0.056 H 
ATOM     13  H   LIG d   1      12.635   3.502  -5.590  0.00  0.00     0.056 H 
ATOM     14  H   LIG d   1      11.393   1.405  -5.042  0.00  0.00     0.032 H 
ATOM     15  H   LIG d   1      10.469   2.457  -6.143  0.00  0.00     0.032 H 
BRANCH   6  16
ATOM     16  C   LIG d   1      10.644   4.718  -2.544  0.00  0.00    -0.036 C 
ATOM     17  H   LIG d   1      11.254   5.590  -2.303  0.00  0.00     0.026 H 
ATOM     18  H   LIG d   1       9.826   4.638  -1.829  0.00  0.00     0.026 H 
ATOM     19  H   LIG d   1      11.260   3.820  -2.494  0.00  0.00     0.026 H 
ENDBRANCH   6  16
BRANCH   6  20
ATOM     20  C   LIG d   1       9.415   6.241  -4.097  0.00  0.00    -0.036 C 
ATOM     21  H   LIG d   1       9.704   6.687  -5.049  0.00  0.00     0.026 H 
ATOM     22  H   LIG d   1       8.332   6.127  -4.063  0.00  0.00     0.026 H 
ATOM     23  H   LIG d   1       9.739   6.885  -3.280  0.00  0.00     0.026 H 
ENDBRANCH   6  20
BRANCH   4  24
ATOM     24  O   LIG d   1      10.231   2.203  -2.805  0.00  0.00    -0.383 OA
ATOM     25  H   LIG d   1      11.054   2.679  -2.625  0.00  0.00     0.210 HD
ENDBRANCH   4  24
ENDBRANCH   1   4
BRANCH   1  26
ATOM     26  N   LIG d   1       7.359   1.748  -4.035  0.00  0.00     0.231 N 
ATOM     27  H   LIG d   1       7.445   2.584  -3.445  0.00  0.00     0.202 HD
ATOM     28  H   LIG d   1       6.806   1.973  -4.870  0.00  0.00     0.202 HD
BRANCH  26  29
ATOM     29  C   LIG d   1       6.681   0.683  -3.273  0.00  0.00    -0.022 C 
ATOM     30  C   LIG d   1       6.494  -0.544  -4.167  0.00  0.00    -0.009 C 
ATOM     31  C   LIG d   1       5.782  -1.646  -3.380  0.00  0.00    -0.045 C 
ATOM     32  H   LIG d   1       5.894  -0.273  -5.037  0.00  0.00     0.032 H 
ATOM     33  H   LIG d   1       7.468  -0.906  -4.496  0.00  0.00     0.032 H 
ATOM     34  C   LIG d   1       4.414  -1.139  -2.917  0.00  0.00    -0.043 C 
ATOM     35  H   LIG d   1       6.381  -1.917  -2.511  0.00  0.00     0.027 H 
ATOM     36  H   LIG d   1       5.649  -2.520  -4.017  0.00  0.00     0.027 H 
ATOM     37  C   LIG d   1       4.601   0.088  -2.023  0.00  0.00    -0.045 C 
ATOM     38  H   LIG d   1       3.814  -0.868  -3.786  0.00  0.00     0.030 H 
ATOM     39  C   LIG d   1       5.313   1.189  -2.811  0.00  0.00    -0.009 C 
ATOM     40  H   LIG d   1       3.626   0.449  -1.694  0.00  0.00     0.027 H 
ATOM     41  H   LIG d   1       5.200  -0.183  -1.155  0.00  0.00     0.027 H 
ATOM     42  H   LIG d   1       4.713   1.460  -3.679  0.00  0.00     0.032 H 
ATOM     43  H   LIG d   1       5.446   2.064  -2.174  0.00  0.00     0.032 H 
ATOM     44  H   LIG d   1       7.280   0.411  -2.404  0.00  0.00     0.085 H 
BRANCH  34  45
ATOM     45  C   LIG d   1       3.702  -2.241  -2.130  0.00  0.00    -0.062 C 
ATOM     46  H   LIG d   1       3.950  -2.150  -1.072  0.00  0.00     0.023 H 
ATOM     47  H   LIG d   1       2.625  -2.142  -2.260  0.00  0.00     0.023 H 
ATOM     48  H   LIG d   1       4.024  -3.215  -2.496  0.00  0.00     0.023 H 
ENDBRANCH  34  45
ENDBRANCH  26  29
ENDBRANCH   1  26
TORSDOF 7
ENDMDL
MODEL 9
REMARK VINA RESULT:      -5.1      4.608      7.032
REMARK  7 active torsions:
REMARK  status: ('A' for Active; 'I' for Inactive)
REMARK    1  A    between atoms: C_1  and  C_2 
REMARK    2  A    between atoms: C_5  and  N_46 
REMARK    3  A    between atoms: C_8  and  C_9 
REMARK    4  A    between atoms: C_8  and  N_46 
REMARK    5  A    between atoms: C_9  and  O_17 
REMARK    6  A    between atoms: C_13  and  C_15 
REMARK    7  A    between atoms: C_13  and  C_16 
ROOT
ATOM      1  C   LIG d   1       8.142   1.082  -4.997  0.00  0.00    -0.004 C 
ATOM      2  H   LIG d   1       7.840   2.053  -5.390  0.00  0.00     0.084 H 
ATOM      3  H   LIG d   1       8.666   0.524  -5.772  0.00  0.00     0.084 H 
ENDROOT
BRANCH   1   4
ATOM      4  C   LIG d   1       6.900   0.302  -4.559  0.00  0.00     0.110 C 
ATOM      5  C   LIG d   1       6.253   0.999  -3.359  0.00  0.00     0.010 C 
ATOM      6  C   LIG d   1       5.059   0.169  -2.880  0.00  0.00     0.067 C 
ATOM      7  H   LIG d   1       6.981   1.087  -2.554  0.00  0.00     0.032 H 
ATOM      8  H   LIG d   1       5.912   1.991  -3.654  0.00  0.00     0.032 H 
ATOM      9  O   LIG d   1       5.498  -1.151  -2.550  0.00  0.00    -0.374 OA
ATOM     10  C   LIG d   1       6.068  -1.868  -3.648  0.00  0.00     0.051 C 
ATOM     11  C   LIG d   1       7.303  -1.120  -4.157  0.00  0.00     0.005 C 
ATOM     12  H   LIG d   1       5.335  -1.946  -4.451  0.00  0.00     0.056 H 
ATOM     13  H   LIG d   1       6.357  -2.866  -3.320  0.00  0.00     0.056 H 
ATOM     14  H   LIG d   1       7.713  -1.641  -5.022  0.00  0.00     0.032 H 
ATOM     15  H   LIG d   1       8.054  -1.075  -3.368  0.00  0.00     0.032 H 
BRANCH   6  16
ATOM     16  C   LIG d   1       4.011   0.095  -3.992  0.00  0.00    -0.036 C 
ATOM     17  H   LIG d   1       4.506   0.155  -4.962  0.00  0.00     0.026 H 
ATOM     18  H   LIG d   1       3.468  -0.846  -3.917  0.00  0.00     0.026 H 
ATOM     19  H   LIG d   1       3.313   0.927  -3.888  0.00  0.00     0.026 H 
ENDBRANCH   6  16
BRANCH   6  20
ATOM     20  C   LIG d   1       4.445   0.826  -1.642  0.00  0.00    -0.036 C 
ATOM     21  H   LIG d   1       5.007   1.726  -1.392  0.00  0.00     0.026 H 
ATOM     22  H   LIG d   1       3.408   1.090  -1.848  0.00  0.00     0.026 H 
ATOM     23  H   LIG d   1       4.483   0.130  -0.805  0.00  0.00     0.026 H 
ENDBRANCH   6  20
BRANCH   4  24
ATOM     24  O   LIG d   1       5.967   0.246  -5.641  0.00  0.00    -0.383 OA
ATOM     25  H   LIG d   1       5.342   0.985  -5.661  0.00  0.00     0.210 HD
ENDBRANCH   4  24
ENDBRANCH   1   4
BRANCH   1  26
ATOM     26  N   LIG d   1       9.029   1.272  -3.835  0.00  0.00     0.231 N 
ATOM     27  H   LIG d   1       8.618   0.810  -3.016  0.00  0.00     0.202 HD
ATOM     28  H   LIG d   1       9.946   0.855  -4.038  0.00  0.00     0.202 HD
BRANCH  26  29
ATOM     29  C   LIG d   1       9.199   2.708  -3.550  0.00  0.00    -0.022 C 
ATOM     30  C   LIG d   1       9.182   3.495  -4.862  0.00  0.00    -0.009 C 
ATOM     31  C   LIG d   1       9.368   4.984  -4.567  0.00  0.00    -0.045 C 
ATOM     32  H   LIG d   1       9.991   3.148  -5.505  0.00  0.00     0.032 H 
ATOM     33  H   LIG d   1       8.227   3.341  -5.364  0.00  0.00     0.032 H 
ATOM     34  C   LIG d   1      10.708   5.201  -3.861  0.00  0.00    -0.043 C 
ATOM     35  H   LIG d   1       8.559   5.332  -3.924  0.00  0.00     0.027 H 
ATOM     36  H   LIG d   1       9.355   5.545  -5.501  0.00  0.00     0.027 H 
ATOM     37  C   LIG d   1      10.726   4.415  -2.549  0.00  0.00    -0.045 C 
ATOM     38  H   LIG d   1      11.517   4.854  -4.503  0.00  0.00     0.030 H 
ATOM     39  C   LIG d   1      10.540   2.925  -2.844  0.00  0.00    -0.009 C 
ATOM     40  H   LIG d   1      11.681   4.569  -2.047  0.00  0.00     0.027 H 
ATOM     41  H   LIG d   1       9.918   4.761  -1.906  0.00  0.00     0.027 H 
ATOM     42  H   LIG d   1      11.349   2.578  -3.487  0.00  0.00     0.032 H 
ATOM     43  H   LIG d   1      10.554   2.364  -1.910  0.00  0.00     0.032 H 
ATOM     44  H   LIG d   1       8.391   3.056  -2.907  0.00  0.00     0.085 H 
BRANCH  34  45
ATOM     45  C   LIG d   1      10.894   6.691  -3.566  0.00  0.00    -0.062 C 
ATOM     46  H   LIG d   1      10.168   7.268  -4.138  0.00  0.00     0.023 H 
ATOM     47  H   LIG d   1      10.745   6.871  -2.502  0.00  0.00     0.023 H 
ATOM     48  H   LIG d   1      11.902   6.994  -3.848  0.00  0.00     0.023 H 
ENDBRANCH  34  45
ENDBRANCH  26  29
ENDBRANCH   1  26
TORSDOF 7
ENDMDL
