MODEL 1
REMARK VINA RESULT:      -7.4      0.000      0.000
REMARK  12 active torsions:
REMARK  status: ('A' for Active; 'I' for Inactive)
REMARK    1  A    between atoms: C_1  and  C_2 
REMARK    2  A    between atoms: C_2  and  C_4 
REMARK    3  A    between atoms: C_2  and  N_10 
REMARK    4  A    between atoms: C_4  and  C_5 
REMARK    5  A    between atoms: C_5  and  C_6 
REMARK    6  A    between atoms: C_6  and  C_7 
REMARK    7  A    between atoms: C_7  and  C_8 
REMARK    8  A    between atoms: C_7  and  C_9 
REMARK       I    between atoms: N_10  and  C_11 
REMARK    9  A    between atoms: C_11  and  C_13 
REMARK   10  A    between atoms: C_13  and  C_14 
REMARK   11  A    between atoms: C_14  and  C_15 
REMARK   12  A    between atoms: C_15  and  N_16 
REMARK       I    between atoms: N_16  and  C_17 
REMARK       I    between atoms: C_17  and  N_19 
ROOT
ATOM      1  C   LIG d   1       7.846  -0.527  -5.133  0.00  0.00    -0.029 C 
ATOM      2  H   LIG d   1       7.591  -1.532  -4.801  0.00  0.00     0.029 H 
ATOM      3  H   LIG d   1       8.927  -0.446  -5.251  0.00  0.00     0.029 H 
ENDROOT
BRANCH   1   4
ATOM      4  C   LIG d   1       7.164  -0.244  -6.474  0.00  0.00     0.025 C 
ATOM      5  H   LIG d   1       7.698  -0.764  -7.270  0.00  0.00     0.036 H 
ATOM      6  H   LIG d   1       7.176   0.828  -6.669  0.00  0.00     0.036 H 
BRANCH   4   7
ATOM      7  C   LIG d   1       5.739  -0.730  -6.426  0.00  0.00     0.213 C 
ATOM      8  N   LIG d   1       4.726   0.158  -6.388  0.00  0.00    -0.313 N 
ATOM      9  H   LIG d   1       4.914   1.110  -6.393  0.00  0.00     0.149 HD
ATOM     10  O   LIG d   1       5.503  -1.919  -6.421  0.00  0.00    -0.276 OA
BRANCH   8  11
ATOM     11  C   LIG d   1       3.340  -0.313  -6.341  0.00  0.00     0.020 C 
ATOM     12  H   LIG d   1       3.319  -1.345  -5.991  0.00  0.00     0.050 H 
BRANCH  11  13
ATOM     13  C   LIG d   1       2.728  -0.239  -7.742  0.00  0.00    -0.047 C 
ATOM     14  H   LIG d   1       2.707  -1.236  -8.183  0.00  0.00     0.025 H 
ATOM     15  H   LIG d   1       1.711   0.148  -7.674  0.00  0.00     0.025 H 
ATOM     16  H   LIG d   1       3.328   0.422  -8.366  0.00  0.00     0.025 H 
ENDBRANCH  11  13
BRANCH  11  17
ATOM     17  C   LIG d   1       2.533   0.568  -5.385  0.00  0.00    -0.035 C 
ATOM     18  H   LIG d   1       2.522   1.592  -5.756  0.00  0.00     0.028 H 
ATOM     19  H   LIG d   1       1.512   0.193  -5.321  0.00  0.00     0.028 H 
BRANCH  17  20
ATOM     20  C   LIG d   1       3.176   0.535  -3.997  0.00  0.00    -0.051 C 
ATOM     21  H   LIG d   1       4.261   0.527  -4.099  0.00  0.00     0.027 H 
ATOM     22  H   LIG d   1       2.869   1.416  -3.434  0.00  0.00     0.027 H 
BRANCH  20  23
ATOM     23  C   LIG d   1       2.725  -0.726  -3.257  0.00  0.00    -0.051 C 
ATOM     24  H   LIG d   1       1.805  -0.518  -2.712  0.00  0.00     0.027 H 
ATOM     25  H   LIG d   1       2.550  -1.526  -3.976  0.00  0.00     0.027 H 
BRANCH  23  26
ATOM     26  C   LIG d   1       3.814  -1.155  -2.271  0.00  0.00    -0.047 C 
ATOM     27  H   LIG d   1       3.362  -1.708  -1.448  0.00  0.00     0.029 H 
BRANCH  26  28
ATOM     28  C   LIG d   1       4.828  -2.049  -2.989  0.00  0.00    -0.063 C 
ATOM     29  H   LIG d   1       4.322  -2.930  -3.382  0.00  0.00     0.023 H 
ATOM     30  H   LIG d   1       5.283  -1.494  -3.810  0.00  0.00     0.023 H 
ATOM     31  H   LIG d   1       5.602  -2.357  -2.286  0.00  0.00     0.023 H 
ENDBRANCH  26  28
BRANCH  26  32
ATOM     32  C   LIG d   1       4.525   0.084  -1.724  0.00  0.00    -0.063 C 
ATOM     33  H   LIG d   1       4.870   0.701  -2.554  0.00  0.00     0.023 H 
ATOM     34  H   LIG d   1       3.832   0.659  -1.109  0.00  0.00     0.023 H 
ATOM     35  H   LIG d   1       5.379  -0.222  -1.120  0.00  0.00     0.023 H 
ENDBRANCH  26  32
ENDBRANCH  23  26
ENDBRANCH  20  23
ENDBRANCH  17  20
ENDBRANCH  11  17
ENDBRANCH   8  11
ENDBRANCH   4   7
ENDBRANCH   1   4
BRANCH   1  36
ATOM     36  C   LIG d   1       7.368   0.490  -4.095  0.00  0.00     0.013 C 
ATOM     37  H   LIG d   1       6.547   1.075  -4.509  0.00  0.00     0.046 H 
ATOM     38  H   LIG d   1       7.027  -0.034  -3.203  0.00  0.00     0.046 H 
BRANCH  36  39
ATOM     39  N   LIG d   1       8.475   1.385  -3.743  0.00  0.00    -0.299 N 
ATOM     40  C   LIG d   1       8.677   2.515  -4.448  0.00  0.00     0.302 C 
ATOM     41  O   LIG d   1       8.001   2.747  -5.431  0.00  0.00    -0.253 OA
ATOM     42  N   LIG d   1       9.628   3.389  -4.062  0.00  0.00    -0.280 N 
ATOM     43  C   LIG d   1      10.529   3.077  -2.939  0.00  0.00     0.057 C 
ATOM     44  C   LIG d   1       9.790   4.680  -4.747  0.00  0.00     0.021 C 
ATOM     45  C   LIG d   1      10.629   4.310  -2.075  0.00  0.00     0.038 A 
ATOM     46  H   LIG d   1      10.122   2.250  -2.356  0.00  0.00     0.053 H 
ATOM     47  H   LIG d   1      11.516   2.813  -3.318  0.00  0.00     0.053 H 
ATOM     48  C   LIG d   1      10.161   5.521  -2.448  0.00  0.00    -0.016 A 
ATOM     49  N   LIG d   1      11.191   4.390  -0.828  0.00  0.00    -0.356 N 
ATOM     50  C   LIG d   1       9.476   5.810  -3.759  0.00  0.00    -0.009 C 
ATOM     51  C   LIG d   1      10.447   6.438  -1.364  0.00  0.00     0.003 A 
ATOM     52  H   LIG d   1       9.840   6.756  -4.160  0.00  0.00     0.033 H 
ATOM     53  H   LIG d   1       8.399   5.870  -3.605  0.00  0.00     0.033 H 
ATOM     54  C   LIG d   1      10.200   7.802  -1.186  0.00  0.00    -0.052 A 
ATOM     55  C   LIG d   1      11.099   5.671  -0.363  0.00  0.00     0.047 A 
ATOM     56  C   LIG d   1      10.618   8.359  -0.003  0.00  0.00    -0.061 A 
ATOM     57  H   LIG d   1       9.704   8.390  -1.944  0.00  0.00     0.062 H 
ATOM     58  C   LIG d   1      11.256   7.616   0.977  0.00  0.00    -0.060 A 
ATOM     59  H   LIG d   1      10.444   9.411   0.169  0.00  0.00     0.062 H 
ATOM     60  C   LIG d   1      11.512   6.264   0.827  0.00  0.00    -0.038 A 
ATOM     61  H   LIG d   1      11.562   8.108   1.887  0.00  0.00     0.062 H 
ATOM     62  H   LIG d   1      12.010   5.695   1.598  0.00  0.00     0.064 H 
ATOM     63  H   LIG d   1      11.592   3.649  -0.349  0.00  0.00     0.166 HD
ATOM     64  H   LIG d   1      10.816   4.779  -5.101  0.00  0.00     0.047 H 
ATOM     65  H   LIG d   1       9.104   4.732  -5.593  0.00  0.00     0.047 H 
ATOM     66  H   LIG d   1       9.061   1.162  -3.003  0.00  0.00     0.150 HD
ENDBRANCH  36  39
ENDBRANCH   1  36
TORSDOF 12
ENDMDL
MODEL 2
REMARK VINA RESULT:      -7.2      1.576      3.271
REMARK  12 active torsions:
REMARK  status: ('A' for Active; 'I' for Inactive)
REMARK    1  A    between atoms: C_1  and  C_2 
REMARK    2  A    between atoms: C_2  and  C_4 
REMARK    3  A    between atoms: C_2  and  N_10 
REMARK    4  A    between atoms: C_4  and  C_5 
REMARK    5  A    between atoms: C_5  and  C_6 
REMARK    6  A    between atoms: C_6  and  C_7 
REMARK    7  A    between atoms: C_7  and  C_8 
REMARK    8  A    between atoms: C_7  and  C_9 
REMARK       I    between atoms: N_10  and  C_11 
REMARK    9  A    between atoms: C_11  and  C_13 
REMARK   10  A    between atoms: C_13  and  C_14 
REMARK   11  A    between atoms: C_14  and  C_15 
REMARK   12  A    between atoms: C_15  and  N_16 
REMARK       I    between atoms: N_16  and  C_17 
REMARK       I    between atoms: C_17  and  N_19 
ROOT
ATOM      1  C   LIG d   1       6.480  -0.093  -3.116  0.00  0.00    -0.029 C 
ATOM      2  H   LIG d   1       6.838   0.531  -2.298  0.00  0.00     0.029 H 
ATOM      3  H   LIG d   1       6.306  -1.106  -2.752  0.00  0.00     0.029 H 
ENDROOT
BRANCH   1   4
ATOM      4  C   LIG d   1       5.171   0.484  -3.662  0.00  0.00     0.025 C 
ATOM      5  H   LIG d   1       5.362   1.460  -4.106  0.00  0.00     0.036 H 
ATOM      6  H   LIG d   1       4.453   0.588  -2.848  0.00  0.00     0.036 H 
BRANCH   4   7
ATOM      7  C   LIG d   1       4.612  -0.444  -4.709  0.00  0.00     0.213 C 
ATOM      8  N   LIG d   1       4.464  -0.016  -5.978  0.00  0.00    -0.313 N 
ATOM      9  H   LIG d   1       4.718   0.888  -6.219  0.00  0.00     0.149 HD
ATOM     10  O   LIG d   1       4.295  -1.576  -4.410  0.00  0.00    -0.276 OA
BRANCH   8  11
ATOM     11  C   LIG d   1       3.921  -0.918  -6.997  0.00  0.00     0.020 C 
ATOM     12  H   LIG d   1       3.518  -1.810  -6.515  0.00  0.00     0.050 H 
BRANCH  11  13
ATOM     13  C   LIG d   1       5.033  -1.322  -7.967  0.00  0.00    -0.047 C 
ATOM     14  H   LIG d   1       5.558  -2.194  -7.575  0.00  0.00     0.025 H 
ATOM     15  H   LIG d   1       4.599  -1.565  -8.937  0.00  0.00     0.025 H 
ATOM     16  H   LIG d   1       5.735  -0.496  -8.079  0.00  0.00     0.025 H 
ENDBRANCH  11  13
BRANCH  11  17
ATOM     17  C   LIG d   1       2.807  -0.206  -7.767  0.00  0.00    -0.035 C 
ATOM     18  H   LIG d   1       2.772  -0.583  -8.788  0.00  0.00     0.028 H 
ATOM     19  H   LIG d   1       1.851  -0.393  -7.277  0.00  0.00     0.028 H 
BRANCH  17  20
ATOM     20  C   LIG d   1       3.083   1.299  -7.787  0.00  0.00    -0.051 C 
ATOM     21  H   LIG d   1       2.569   1.774  -6.951  0.00  0.00     0.027 H 
ATOM     22  H   LIG d   1       4.155   1.472  -7.700  0.00  0.00     0.027 H 
BRANCH  20  23
ATOM     23  C   LIG d   1       2.575   1.892  -9.102  0.00  0.00    -0.051 C 
ATOM     24  H   LIG d   1       1.920   1.175  -9.596  0.00  0.00     0.027 H 
ATOM     25  H   LIG d   1       2.021   2.809  -8.897  0.00  0.00     0.027 H 
BRANCH  23  26
ATOM     26  C   LIG d   1       3.764   2.208 -10.013  0.00  0.00    -0.047 C 
ATOM     27  H   LIG d   1       3.591   3.156 -10.521  0.00  0.00     0.029 H 
BRANCH  26  28
ATOM     28  C   LIG d   1       5.038   2.305  -9.172  0.00  0.00    -0.063 C 
ATOM     29  H   LIG d   1       5.904   2.091  -9.798  0.00  0.00     0.023 H 
ATOM     30  H   LIG d   1       5.127   3.311  -8.761  0.00  0.00     0.023 H 
ATOM     31  H   LIG d   1       4.991   1.584  -8.356  0.00  0.00     0.023 H 
ENDBRANCH  26  28
BRANCH  26  32
ATOM     32  C   LIG d   1       3.922   1.095 -11.050  0.00  0.00    -0.063 C 
ATOM     33  H   LIG d   1       4.615   0.342 -10.673  0.00  0.00     0.023 H 
ATOM     34  H   LIG d   1       2.952   0.632 -11.238  0.00  0.00     0.023 H 
ATOM     35  H   LIG d   1       4.310   1.513 -11.978  0.00  0.00     0.023 H 
ENDBRANCH  26  32
ENDBRANCH  23  26
ENDBRANCH  20  23
ENDBRANCH  17  20
ENDBRANCH  11  17
ENDBRANCH   8  11
ENDBRANCH   4   7
ENDBRANCH   1   4
BRANCH   1  36
ATOM     36  C   LIG d   1       7.527  -0.124  -4.231  0.00  0.00     0.013 C 
ATOM     37  H   LIG d   1       7.973  -1.118  -4.283  0.00  0.00     0.046 H 
ATOM     38  H   LIG d   1       7.052   0.110  -5.183  0.00  0.00     0.046 H 
BRANCH  36  39
ATOM     39  N   LIG d   1       8.571   0.865  -3.949  0.00  0.00    -0.299 N 
ATOM     40  C   LIG d   1       8.647   1.992  -4.683  0.00  0.00     0.302 C 
ATOM     41  O   LIG d   1       7.910   2.146  -5.637  0.00  0.00    -0.253 OA
ATOM     42  N   LIG d   1       9.539   2.949  -4.359  0.00  0.00    -0.280 N 
ATOM     43  C   LIG d   1      10.513   2.737  -3.275  0.00  0.00     0.057 C 
ATOM     44  C   LIG d   1       9.562   4.233  -5.074  0.00  0.00     0.021 C 
ATOM     45  C   LIG d   1      10.551   3.993  -2.439  0.00  0.00     0.038 A 
ATOM     46  H   LIG d   1      10.203   1.893  -2.658  0.00  0.00     0.053 H 
ATOM     47  H   LIG d   1      11.500   2.546  -3.696  0.00  0.00     0.053 H 
ATOM     48  C   LIG d   1       9.967   5.153  -2.812  0.00  0.00    -0.016 A 
ATOM     49  N   LIG d   1      11.160   4.146  -1.222  0.00  0.00    -0.356 N 
ATOM     50  C   LIG d   1       9.201   5.356  -4.094  0.00  0.00    -0.009 C 
ATOM     51  C   LIG d   1      10.226   6.114  -1.759  0.00  0.00     0.003 A 
ATOM     52  H   LIG d   1       9.467   6.319  -4.529  0.00  0.00     0.033 H 
ATOM     53  H   LIG d   1       8.131   5.331  -3.890  0.00  0.00     0.033 H 
ATOM     54  C   LIG d   1       9.875   7.457  -1.595  0.00  0.00    -0.052 A 
ATOM     55  C   LIG d   1      10.985   5.425  -0.777  0.00  0.00     0.047 A 
ATOM     56  C   LIG d   1      10.300   8.073  -0.444  0.00  0.00    -0.061 A 
ATOM     57  H   LIG d   1       9.299   7.985  -2.339  0.00  0.00     0.062 H 
ATOM     58  C   LIG d   1      11.041   7.405   0.518  0.00  0.00    -0.060 A 
ATOM     59  H   LIG d   1      10.048   9.110  -0.282  0.00  0.00     0.062 H 
ATOM     60  C   LIG d   1      11.401   6.076   0.381  0.00  0.00    -0.038 A 
ATOM     61  H   LIG d   1      11.347   7.941   1.404  0.00  0.00     0.062 H 
ATOM     62  H   LIG d   1      11.979   5.567   1.138  0.00  0.00     0.064 H 
ATOM     63  H   LIG d   1      11.643   3.451  -0.749  0.00  0.00     0.166 HD
ATOM     64  H   LIG d   1      10.559   4.409  -5.479  0.00  0.00     0.047 H 
ATOM     65  H   LIG d   1       8.836   4.210  -5.888  0.00  0.00     0.047 H 
ATOM     66  H   LIG d   1       9.207   0.708  -3.234  0.00  0.00     0.150 HD
ENDBRANCH  36  39
ENDBRANCH   1  36
TORSDOF 12
ENDMDL
MODEL 3
REMARK VINA RESULT:      -7.0      5.814      7.981
REMARK  12 active torsions:
REMARK  status: ('A' for Active; 'I' for Inactive)
REMARK    1  A    between atoms: C_1  and  C_2 
REMARK    2  A    between atoms: C_2  and  C_4 
REMARK    3  A    between atoms: C_2  and  N_10 
REMARK    4  A    between atoms: C_4  and  C_5 
REMARK    5  A    between atoms: C_5  and  C_6 
REMARK    6  A    between atoms: C_6  and  C_7 
REMARK    7  A    between atoms: C_7  and  C_8 
REMARK    8  A    between atoms: C_7  and  C_9 
REMARK       I    between atoms: N_10  and  C_11 
REMARK    9  A    between atoms: C_11  and  C_13 
REMARK   10  A    between atoms: C_13  and  C_14 
REMARK   11  A    between atoms: C_14  and  C_15 
REMARK   12  A    between atoms: C_15  and  N_16 
REMARK       I    between atoms: N_16  and  C_17 
REMARK       I    between atoms: C_17  and  N_19 
ROOT
ATOM      1  C   LIG d   1       5.030  -5.010  -9.924  0.00  0.00    -0.029 C 
ATOM      2  H   LIG d   1       4.797  -5.826 -10.607  0.00  0.00     0.029 H 
ATOM      3  H   LIG d   1       5.343  -4.136 -10.496  0.00  0.00     0.029 H 
ENDROOT
BRANCH   1   4
ATOM      4  C   LIG d   1       3.788  -4.663  -9.101  0.00  0.00     0.025 C 
ATOM      5  H   LIG d   1       3.919  -5.017  -8.079  0.00  0.00     0.036 H 
ATOM      6  H   LIG d   1       2.914  -5.143  -9.542  0.00  0.00     0.036 H 
BRANCH   4   7
ATOM      7  C   LIG d   1       3.590  -3.169  -9.095  0.00  0.00     0.213 C 
ATOM      8  N   LIG d   1       2.997  -2.565 -10.143  0.00  0.00    -0.313 N 
ATOM      9  H   LIG d   1       2.697  -3.090 -10.901  0.00  0.00     0.149 HD
ATOM     10  O   LIG d   1       3.964  -2.512  -8.147  0.00  0.00    -0.276 OA
BRANCH   8  11
ATOM     11  C   LIG d   1       2.804  -1.112 -10.137  0.00  0.00     0.020 C 
ATOM     12  H   LIG d   1       3.290  -0.685  -9.260  0.00  0.00     0.050 H 
BRANCH  11  13
ATOM     13  C   LIG d   1       1.308  -0.796 -10.095  0.00  0.00    -0.047 C 
ATOM     14  H   LIG d   1       1.164   0.247  -9.810  0.00  0.00     0.025 H 
ATOM     15  H   LIG d   1       0.873  -0.965 -11.080  0.00  0.00     0.025 H 
ATOM     16  H   LIG d   1       0.820  -1.443  -9.366  0.00  0.00     0.025 H 
ENDBRANCH  11  13
BRANCH  11  17
ATOM     17  C   LIG d   1       3.417  -0.511 -11.404  0.00  0.00    -0.035 C 
ATOM     18  H   LIG d   1       3.909  -1.296 -11.977  0.00  0.00     0.028 H 
ATOM     19  H   LIG d   1       2.631  -0.058 -12.007  0.00  0.00     0.028 H 
BRANCH  17  20
ATOM     20  C   LIG d   1       4.442   0.557 -11.017  0.00  0.00    -0.051 C 
ATOM     21  H   LIG d   1       5.023   0.210 -10.162  0.00  0.00     0.027 H 
ATOM     22  H   LIG d   1       5.109   0.741 -11.859  0.00  0.00     0.027 H 
BRANCH  20  23
ATOM     23  C   LIG d   1       3.715   1.851 -10.649  0.00  0.00    -0.051 C 
ATOM     24  H   LIG d   1       3.982   2.633 -11.358  0.00  0.00     0.027 H 
ATOM     25  H   LIG d   1       2.638   1.684 -10.680  0.00  0.00     0.027 H 
BRANCH  23  26
ATOM     26  C   LIG d   1       4.123   2.282  -9.238  0.00  0.00    -0.047 C 
ATOM     27  H   LIG d   1       4.441   3.325  -9.255  0.00  0.00     0.029 H 
BRANCH  26  28
ATOM     28  C   LIG d   1       2.930   2.128  -8.292  0.00  0.00    -0.063 C 
ATOM     29  H   LIG d   1       2.667   3.101  -7.878  0.00  0.00     0.023 H 
ATOM     30  H   LIG d   1       2.080   1.725  -8.843  0.00  0.00     0.023 H 
ATOM     31  H   LIG d   1       3.194   1.447  -7.483  0.00  0.00     0.023 H 
ENDBRANCH  26  28
BRANCH  26  32
ATOM     32  C   LIG d   1       5.277   1.404  -8.751  0.00  0.00    -0.063 C 
ATOM     33  H   LIG d   1       6.139   2.031  -8.521  0.00  0.00     0.023 H 
ATOM     34  H   LIG d   1       4.971   0.866  -7.853  0.00  0.00     0.023 H 
ATOM     35  H   LIG d   1       5.545   0.690  -9.528  0.00  0.00     0.023 H 
ENDBRANCH  26  32
ENDBRANCH  23  26
ENDBRANCH  20  23
ENDBRANCH  17  20
ENDBRANCH  11  17
ENDBRANCH   8  11
ENDBRANCH   4   7
ENDBRANCH   1   4
BRANCH   1  36
ATOM     36  C   LIG d   1       6.161  -5.437  -8.986  0.00  0.00     0.013 C 
ATOM     37  H   LIG d   1       6.291  -6.518  -9.042  0.00  0.00     0.046 H 
ATOM     38  H   LIG d   1       7.086  -4.944  -9.284  0.00  0.00     0.046 H 
BRANCH  36  39
ATOM     39  N   LIG d   1       5.824  -5.056  -7.611  0.00  0.00    -0.299 N 
ATOM     40  C   LIG d   1       6.803  -4.745  -6.740  0.00  0.00     0.302 C 
ATOM     41  O   LIG d   1       7.968  -4.868  -7.065  0.00  0.00    -0.253 OA
ATOM     42  N   LIG d   1       6.492  -4.296  -5.508  0.00  0.00    -0.280 N 
ATOM     43  C   LIG d   1       5.090  -4.241  -5.056  0.00  0.00     0.057 C 
ATOM     44  C   LIG d   1       7.539  -3.843  -4.581  0.00  0.00     0.021 C 
ATOM     45  C   LIG d   1       4.880  -2.913  -4.371  0.00  0.00     0.038 A 
ATOM     46  H   LIG d   1       4.421  -4.324  -5.914  0.00  0.00     0.053 H 
ATOM     47  H   LIG d   1       4.896  -5.051  -4.354  0.00  0.00     0.053 H 
ATOM     48  C   LIG d   1       5.889  -2.079  -4.040  0.00  0.00    -0.016 A 
ATOM     49  N   LIG d   1       3.681  -2.371  -3.992  0.00  0.00    -0.356 N 
ATOM     50  C   LIG d   1       7.349  -2.346  -4.307  0.00  0.00    -0.009 C 
ATOM     51  C   LIG d   1       5.291  -0.924  -3.402  0.00  0.00     0.003 A 
ATOM     52  H   LIG d   1       7.938  -2.057  -3.437  0.00  0.00     0.033 H 
ATOM     53  H   LIG d   1       7.673  -1.772  -5.175  0.00  0.00     0.033 H 
ATOM     54  C   LIG d   1       5.832   0.245  -2.859  0.00  0.00    -0.052 A 
ATOM     55  C   LIG d   1       3.891  -1.160  -3.397  0.00  0.00     0.047 A 
ATOM     56  C   LIG d   1       4.946   1.148  -2.323  0.00  0.00    -0.061 A 
ATOM     57  H   LIG d   1       6.896   0.429  -2.860  0.00  0.00     0.062 H 
ATOM     58  C   LIG d   1       3.579   0.923  -2.316  0.00  0.00    -0.060 A 
ATOM     59  H   LIG d   1       5.328   2.063  -1.894  0.00  0.00     0.062 H 
ATOM     60  C   LIG d   1       3.018  -0.225  -2.847  0.00  0.00    -0.038 A 
ATOM     61  H   LIG d   1       2.931   1.668  -1.881  0.00  0.00     0.062 H 
ATOM     62  H   LIG d   1       1.950  -0.389  -2.835  0.00  0.00     0.064 H 
ATOM     63  H   LIG d   1       2.815  -2.784  -4.126  0.00  0.00     0.166 HD
ATOM     64  H   LIG d   1       7.466  -4.397  -3.646  0.00  0.00     0.047 H 
ATOM     65  H   LIG d   1       8.519  -4.010  -5.030  0.00  0.00     0.047 H 
ATOM     66  H   LIG d   1       4.897  -5.029  -7.329  0.00  0.00     0.150 HD
ENDBRANCH  36  39
ENDBRANCH   1  36
TORSDOF 12
ENDMDL
MODEL 4
REMARK VINA RESULT:      -6.8      6.116      9.271
REMARK  12 active torsions:
REMARK  status: ('A' for Active; 'I' for Inactive)
REMARK    1  A    between atoms: C_1  and  C_2 
REMARK    2  A    between atoms: C_2  and  C_4 
REMARK    3  A    between atoms: C_2  and  N_10 
REMARK    4  A    between atoms: C_4  and  C_5 
REMARK    5  A    between atoms: C_5  and  C_6 
REMARK    6  A    between atoms: C_6  and  C_7 
REMARK    7  A    between atoms: C_7  and  C_8 
REMARK    8  A    between atoms: C_7  and  C_9 
REMARK       I    between atoms: N_10  and  C_11 
REMARK    9  A    between atoms: C_11  and  C_13 
REMARK   10  A    between atoms: C_13  and  C_14 
REMARK   11  A    between atoms: C_14  and  C_15 
REMARK   12  A    between atoms: C_15  and  N_16 
REMARK       I    between atoms: N_16  and  C_17 
REMARK       I    between atoms: C_17  and  N_19 
ROOT
ATOM      1  C   LIG d   1       4.748  -6.543  -6.079  0.00  0.00    -0.029 C 
ATOM      2  H   LIG d   1       4.939  -7.401  -5.436  0.00  0.00     0.029 H 
ATOM      3  H   LIG d   1       3.796  -6.088  -5.805  0.00  0.00     0.029 H 
ENDROOT
BRANCH   1   4
ATOM      4  C   LIG d   1       5.872  -5.518  -5.908  0.00  0.00     0.025 C 
ATOM      5  H   LIG d   1       6.297  -5.279  -6.883  0.00  0.00     0.036 H 
ATOM      6  H   LIG d   1       6.648  -5.933  -5.265  0.00  0.00     0.036 H 
BRANCH   4   7
ATOM      7  C   LIG d   1       5.317  -4.265  -5.281  0.00  0.00     0.213 C 
ATOM      8  N   LIG d   1       6.008  -3.111  -5.358  0.00  0.00    -0.313 N 
ATOM      9  H   LIG d   1       6.862  -3.086  -5.817  0.00  0.00     0.149 HD
ATOM     10  O   LIG d   1       4.249  -4.295  -4.708  0.00  0.00    -0.276 OA
BRANCH   8  11
ATOM     11  C   LIG d   1       5.469  -1.892  -4.749  0.00  0.00     0.020 C 
ATOM     12  H   LIG d   1       4.380  -1.923  -4.778  0.00  0.00     0.050 H 
BRANCH  11  13
ATOM     13  C   LIG d   1       5.966  -0.671  -5.525  0.00  0.00    -0.047 C 
ATOM     14  H   LIG d   1       6.640  -0.994  -6.319  0.00  0.00     0.025 H 
ATOM     15  H   LIG d   1       5.115  -0.148  -5.963  0.00  0.00     0.025 H 
ATOM     16  H   LIG d   1       6.495  -0.001  -4.848  0.00  0.00     0.025 H 
ENDBRANCH  11  13
BRANCH  11  17
ATOM     17  C   LIG d   1       5.938  -1.798  -3.296  0.00  0.00    -0.035 C 
ATOM     18  H   LIG d   1       6.471  -2.709  -3.025  0.00  0.00     0.028 H 
ATOM     19  H   LIG d   1       6.604  -0.941  -3.184  0.00  0.00     0.028 H 
BRANCH  17  20
ATOM     20  C   LIG d   1       4.726  -1.624  -2.379  0.00  0.00    -0.051 C 
ATOM     21  H   LIG d   1       3.816  -1.860  -2.931  0.00  0.00     0.027 H 
ATOM     22  H   LIG d   1       4.818  -2.294  -1.525  0.00  0.00     0.027 H 
BRANCH  20  23
ATOM     23  C   LIG d   1       4.663  -0.177  -1.887  0.00  0.00    -0.051 C 
ATOM     24  H   LIG d   1       4.738  -0.158  -0.800  0.00  0.00     0.027 H 
ATOM     25  H   LIG d   1       5.487   0.390  -2.319  0.00  0.00     0.027 H 
BRANCH  23  26
ATOM     26  C   LIG d   1       3.333   0.450  -2.316  0.00  0.00    -0.047 C 
ATOM     27  H   LIG d   1       2.742   0.687  -1.432  0.00  0.00     0.029 H 
BRANCH  26  28
ATOM     28  C   LIG d   1       3.605   1.731  -3.106  0.00  0.00    -0.063 C 
ATOM     29  H   LIG d   1       4.349   2.331  -2.581  0.00  0.00     0.023 H 
ATOM     30  H   LIG d   1       3.980   1.474  -4.097  0.00  0.00     0.023 H 
ATOM     31  H   LIG d   1       2.681   2.301  -3.204  0.00  0.00     0.023 H 
ENDBRANCH  26  28
BRANCH  26  32
ATOM     32  C   LIG d   1       2.565  -0.538  -3.196  0.00  0.00    -0.063 C 
ATOM     33  H   LIG d   1       2.699  -1.549  -2.810  0.00  0.00     0.023 H 
ATOM     34  H   LIG d   1       1.504  -0.284  -3.187  0.00  0.00     0.023 H 
ATOM     35  H   LIG d   1       2.942  -0.486  -4.217  0.00  0.00     0.023 H 
ENDBRANCH  26  32
ENDBRANCH  23  26
ENDBRANCH  20  23
ENDBRANCH  17  20
ENDBRANCH  11  17
ENDBRANCH   8  11
ENDBRANCH   4   7
ENDBRANCH   1   4
BRANCH   1  36
ATOM     36  C   LIG d   1       4.693  -7.000  -7.538  0.00  0.00     0.013 C 
ATOM     37  H   LIG d   1       5.549  -7.641  -7.750  0.00  0.00     0.046 H 
ATOM     38  H   LIG d   1       3.772  -7.556  -7.710  0.00  0.00     0.046 H 
BRANCH  36  39
ATOM     39  N   LIG d   1       4.730  -5.830  -8.419  0.00  0.00    -0.299 N 
ATOM     40  C   LIG d   1       3.601  -5.400  -9.016  0.00  0.00     0.302 C 
ATOM     41  O   LIG d   1       2.572  -6.037  -8.898  0.00  0.00    -0.253 OA
ATOM     42  N   LIG d   1       3.612  -4.265  -9.742  0.00  0.00    -0.280 N 
ATOM     43  C   LIG d   1       4.870  -3.538  -9.987  0.00  0.00     0.057 C 
ATOM     44  C   LIG d   1       2.370  -3.718 -10.307  0.00  0.00     0.021 C 
ATOM     45  C   LIG d   1       4.600  -2.069  -9.769  0.00  0.00     0.038 A 
ATOM     46  H   LIG d   1       5.637  -3.879  -9.290  0.00  0.00     0.053 H 
ATOM     47  H   LIG d   1       5.199  -3.702 -11.012  0.00  0.00     0.053 H 
ATOM     48  C   LIG d   1       3.360  -1.553  -9.627  0.00  0.00    -0.016 A 
ATOM     49  N   LIG d   1       5.534  -1.071  -9.688  0.00  0.00    -0.356 N 
ATOM     50  C   LIG d   1       2.085  -2.357  -9.658  0.00  0.00    -0.009 C 
ATOM     51  C   LIG d   1       3.514  -0.124  -9.444  0.00  0.00     0.003 A 
ATOM     52  H   LIG d   1       1.333  -1.826 -10.241  0.00  0.00     0.033 H 
ATOM     53  H   LIG d   1       1.721  -2.507  -8.642  0.00  0.00     0.033 H 
ATOM     54  C   LIG d   1       2.596   0.911  -9.251  0.00  0.00    -0.052 A 
ATOM     55  C   LIG d   1       4.910   0.128  -9.491  0.00  0.00     0.047 A 
ATOM     56  C   LIG d   1       3.109   2.178  -9.111  0.00  0.00    -0.061 A 
ATOM     57  H   LIG d   1       1.533   0.725  -9.216  0.00  0.00     0.062 H 
ATOM     58  C   LIG d   1       4.470   2.430  -9.157  0.00  0.00    -0.060 A 
ATOM     59  H   LIG d   1       2.429   3.003  -8.961  0.00  0.00     0.062 H 
ATOM     60  C   LIG d   1       5.401   1.423  -9.345  0.00  0.00    -0.038 A 
ATOM     61  H   LIG d   1       4.816   3.446  -9.041  0.00  0.00     0.062 H 
ATOM     62  H   LIG d   1       6.460   1.633  -9.379  0.00  0.00     0.064 H 
ATOM     63  H   LIG d   1       6.492  -1.197  -9.759  0.00  0.00     0.166 HD
ATOM     64  H   LIG d   1       2.482  -3.592 -11.384  0.00  0.00     0.047 H 
ATOM     65  H   LIG d   1       1.545  -4.400 -10.102  0.00  0.00     0.047 H 
ATOM     66  H   LIG d   1       5.567  -5.364  -8.572  0.00  0.00     0.150 HD
ENDBRANCH  36  39
ENDBRANCH   1  36
TORSDOF 12
ENDMDL
MODEL 5
REMARK VINA RESULT:      -6.8      3.891      6.149
REMARK  12 active torsions:
REMARK  status: ('A' for Active; 'I' for Inactive)
REMARK    1  A    between atoms: C_1  and  C_2 
REMARK    2  A    between atoms: C_2  and  C_4 
REMARK    3  A    between atoms: C_2  and  N_10 
REMARK    4  A    between atoms: C_4  and  C_5 
REMARK    5  A    between atoms: C_5  and  C_6 
REMARK    6  A    between atoms: C_6  and  C_7 
REMARK    7  A    between atoms: C_7  and  C_8 
REMARK    8  A    between atoms: C_7  and  C_9 
REMARK       I    between atoms: N_10  and  C_11 
REMARK    9  A    between atoms: C_11  and  C_13 
REMARK   10  A    between atoms: C_13  and  C_14 
REMARK   11  A    between atoms: C_14  and  C_15 
REMARK   12  A    between atoms: C_15  and  N_16 
REMARK       I    between atoms: N_16  and  C_17 
REMARK       I    between atoms: C_17  and  N_19 
ROOT
ATOM      1  C   LIG d   1       8.774   1.550  -9.828  0.00  0.00    -0.029 C 
ATOM      2  H   LIG d   1       9.009   2.256 -10.624  0.00  0.00     0.029 H 
ATOM      3  H   LIG d   1       8.078   2.013  -9.127  0.00  0.00     0.029 H 
ENDROOT
BRANCH   1   4
ATOM      4  C   LIG d   1       8.134   0.297 -10.429  0.00  0.00     0.025 C 
ATOM      5  H   LIG d   1       8.719  -0.579 -10.151  0.00  0.00     0.036 H 
ATOM      6  H   LIG d   1       8.108   0.388 -11.516  0.00  0.00     0.036 H 
BRANCH   4   7
ATOM      7  C   LIG d   1       6.729   0.150  -9.905  0.00  0.00     0.213 C 
ATOM      8  N   LIG d   1       5.682   0.261 -10.745  0.00  0.00    -0.313 N 
ATOM      9  H   LIG d   1       5.831   0.436 -11.687  0.00  0.00     0.149 HD
ATOM     10  O   LIG d   1       6.541  -0.069  -8.727  0.00  0.00    -0.276 OA
BRANCH   8  11
ATOM     11  C   LIG d   1       4.315   0.118 -10.236  0.00  0.00     0.020 C 
ATOM     12  H   LIG d   1       4.338  -0.399  -9.276  0.00  0.00     0.050 H 
BRANCH  11  13
ATOM     13  C   LIG d   1       3.482  -0.693 -11.231  0.00  0.00    -0.047 C 
ATOM     14  H   LIG d   1       4.054  -0.842 -12.148  0.00  0.00     0.025 H 
ATOM     15  H   LIG d   1       3.236  -1.661 -10.795  0.00  0.00     0.025 H 
ATOM     16  H   LIG d   1       2.563  -0.153 -11.460  0.00  0.00     0.025 H 
ENDBRANCH  11  13
BRANCH  11  17
ATOM     17  C   LIG d   1       3.690   1.502 -10.056  0.00  0.00    -0.035 C 
ATOM     18  H   LIG d   1       4.344   2.256 -10.492  0.00  0.00     0.028 H 
ATOM     19  H   LIG d   1       2.720   1.530 -10.554  0.00  0.00     0.028 H 
BRANCH  17  20
ATOM     20  C   LIG d   1       3.505   1.788  -8.565  0.00  0.00    -0.051 C 
ATOM     21  H   LIG d   1       4.479   1.951  -8.102  0.00  0.00     0.027 H 
ATOM     22  H   LIG d   1       2.889   2.679  -8.439  0.00  0.00     0.027 H 
BRANCH  20  23
ATOM     23  C   LIG d   1       2.817   0.595  -7.898  0.00  0.00    -0.051 C 
ATOM     24  H   LIG d   1       1.794   0.863  -7.637  0.00  0.00     0.027 H 
ATOM     25  H   LIG d   1       2.808  -0.250  -8.587  0.00  0.00     0.027 H 
BRANCH  23  26
ATOM     26  C   LIG d   1       3.582   0.209  -6.629  0.00  0.00    -0.047 C 
ATOM     27  H   LIG d   1       4.441   0.868  -6.509  0.00  0.00     0.029 H 
BRANCH  26  28
ATOM     28  C   LIG d   1       2.660   0.347  -5.416  0.00  0.00    -0.063 C 
ATOM     29  H   LIG d   1       3.189   0.027  -4.519  0.00  0.00     0.023 H 
ATOM     30  H   LIG d   1       2.357   1.389  -5.307  0.00  0.00     0.023 H 
ATOM     31  H   LIG d   1       1.776  -0.275  -5.560  0.00  0.00     0.023 H 
ENDBRANCH  26  28
BRANCH  26  32
ATOM     32  C   LIG d   1       4.061  -1.239  -6.743  0.00  0.00    -0.063 C 
ATOM     33  H   LIG d   1       3.951  -1.578  -7.774  0.00  0.00     0.023 H 
ATOM     34  H   LIG d   1       5.110  -1.300  -6.451  0.00  0.00     0.023 H 
ATOM     35  H   LIG d   1       3.464  -1.873  -6.088  0.00  0.00     0.023 H 
ENDBRANCH  26  32
ENDBRANCH  23  26
ENDBRANCH  20  23
ENDBRANCH  17  20
ENDBRANCH  11  17
ENDBRANCH   8  11
ENDBRANCH   4   7
ENDBRANCH   1   4
BRANCH   1  36
ATOM     36  C   LIG d   1      10.059   1.164  -9.093  0.00  0.00     0.013 C 
ATOM     37  H   LIG d   1      10.607   0.429  -9.681  0.00  0.00     0.046 H 
ATOM     38  H   LIG d   1      10.676   2.050  -8.950  0.00  0.00     0.046 H 
BRANCH  36  39
ATOM     39  N   LIG d   1       9.720   0.589  -7.787  0.00  0.00    -0.299 N 
ATOM     40  C   LIG d   1       9.794   1.349  -6.677  0.00  0.00     0.302 C 
ATOM     41  O   LIG d   1      10.228   2.482  -6.744  0.00  0.00    -0.253 OA
ATOM     42  N   LIG d   1       9.384   0.853  -5.493  0.00  0.00    -0.280 N 
ATOM     43  C   LIG d   1       8.956  -0.551  -5.369  0.00  0.00     0.057 C 
ATOM     44  C   LIG d   1       9.349   1.699  -4.291  0.00  0.00     0.021 C 
ATOM     45  C   LIG d   1       7.693  -0.575  -4.545  0.00  0.00     0.038 A 
ATOM     46  H   LIG d   1       8.759  -0.967  -6.358  0.00  0.00     0.053 H 
ATOM     47  H   LIG d   1       9.732  -1.132  -4.871  0.00  0.00     0.053 H 
ATOM     48  C   LIG d   1       7.230   0.494  -3.861  0.00  0.00    -0.016 A 
ATOM     49  N   LIG d   1       6.855  -1.643  -4.365  0.00  0.00    -0.356 N 
ATOM     50  C   LIG d   1       7.894   1.847  -3.829  0.00  0.00    -0.009 C 
ATOM     51  C   LIG d   1       6.012   0.076  -3.198  0.00  0.00     0.003 A 
ATOM     52  H   LIG d   1       7.872   2.240  -2.813  0.00  0.00     0.033 H 
ATOM     53  H   LIG d   1       7.367   2.530  -4.495  0.00  0.00     0.033 H 
ATOM     54  C   LIG d   1       5.110   0.744  -2.364  0.00  0.00    -0.052 A 
ATOM     55  C   LIG d   1       5.820  -1.285  -3.550  0.00  0.00     0.047 A 
ATOM     56  C   LIG d   1       4.037   0.021  -1.905  0.00  0.00    -0.061 A 
ATOM     57  H   LIG d   1       5.252   1.779  -2.093  0.00  0.00     0.062 H 
ATOM     58  C   LIG d   1       3.845  -1.308  -2.246  0.00  0.00    -0.060 A 
ATOM     59  H   LIG d   1       3.319   0.503  -1.259  0.00  0.00     0.062 H 
ATOM     60  C   LIG d   1       4.721  -1.993  -3.070  0.00  0.00    -0.038 A 
ATOM     61  H   LIG d   1       2.982  -1.827  -1.855  0.00  0.00     0.062 H 
ATOM     62  H   LIG d   1       4.561  -3.029  -3.328  0.00  0.00     0.064 H 
ATOM     63  H   LIG d   1       6.978  -2.521  -4.758  0.00  0.00     0.166 HD
ATOM     64  H   LIG d   1       9.938   1.236  -3.500  0.00  0.00     0.047 H 
ATOM     65  H   LIG d   1       9.759   2.683  -4.526  0.00  0.00     0.047 H 
ATOM     66  H   LIG d   1       9.444  -0.339  -7.724  0.00  0.00     0.150 HD
ENDBRANCH  36  39
ENDBRANCH   1  36
TORSDOF 12
ENDMDL
MODEL 6
REMARK VINA RESULT:      -6.4      4.030      6.402
REMARK  12 active torsions:
REMARK  status: ('A' for Active; 'I' for Inactive)
REMARK    1  A    between atoms: C_1  and  C_2 
REMARK    2  A    between atoms: C_2  and  C_4 
REMARK    3  A    between atoms: C_2  and  N_10 
REMARK    4  A    between atoms: C_4  and  C_5 
REMARK    5  A    between atoms: C_5  and  C_6 
REMARK    6  A    between atoms: C_6  and  C_7 
REMARK    7  A    between atoms: C_7  and  C_8 
REMARK    8  A    between atoms: C_7  and  C_9 
REMARK       I    between atoms: N_10  and  C_11 
REMARK    9  A    between atoms: C_11  and  C_13 
REMARK   10  A    between atoms: C_13  and  C_14 
REMARK   11  A    between atoms: C_14  and  C_15 
REMARK   12  A    between atoms: C_15  and  N_16 
REMARK       I    between atoms: N_16  and  C_17 
REMARK       I    between atoms: C_17  and  N_19 
ROOT
ATOM      1  C   LIG d   1       8.504   0.695 -10.303  0.00  0.00    -0.029 C 
ATOM      2  H   LIG d   1       8.758   0.159 -11.217  0.00  0.00     0.029 H 
ATOM      3  H   LIG d   1       8.043   1.650 -10.559  0.00  0.00     0.029 H 
ENDROOT
BRANCH   1   4
ATOM      4  C   LIG d   1       7.523  -0.140  -9.478  0.00  0.00     0.025 C 
ATOM      5  H   LIG d   1       7.726   0.004  -8.417  0.00  0.00     0.036 H 
ATOM      6  H   LIG d   1       7.641  -1.194  -9.730  0.00  0.00     0.036 H 
BRANCH   4   7
ATOM      7  C   LIG d   1       6.113   0.295  -9.783  0.00  0.00     0.213 C 
ATOM      8  N   LIG d   1       5.381   0.918  -8.839  0.00  0.00    -0.313 N 
ATOM      9  H   LIG d   1       5.761   1.088  -7.963  0.00  0.00     0.149 HD
ATOM     10  O   LIG d   1       5.637   0.084 -10.878  0.00  0.00    -0.276 OA
BRANCH   8  11
ATOM     11  C   LIG d   1       4.010   1.342  -9.135  0.00  0.00     0.020 C 
ATOM     12  H   LIG d   1       3.686   0.890 -10.073  0.00  0.00     0.050 H 
BRANCH  11  13
ATOM     13  C   LIG d   1       3.962   2.866  -9.261  0.00  0.00    -0.047 C 
ATOM     14  H   LIG d   1       4.172   3.153 -10.292  0.00  0.00     0.025 H 
ATOM     15  H   LIG d   1       2.972   3.222  -8.979  0.00  0.00     0.025 H 
ATOM     16  H   LIG d   1       4.709   3.308  -8.601  0.00  0.00     0.025 H 
ENDBRANCH  11  13
BRANCH  11  17
ATOM     17  C   LIG d   1       3.082   0.894  -8.005  0.00  0.00    -0.035 C 
ATOM     18  H   LIG d   1       3.648   0.825  -7.076  0.00  0.00     0.028 H 
ATOM     19  H   LIG d   1       2.277   1.619  -7.888  0.00  0.00     0.028 H 
BRANCH  17  20
ATOM     20  C   LIG d   1       2.490  -0.475  -8.343  0.00  0.00    -0.051 C 
ATOM     21  H   LIG d   1       3.296  -1.198  -8.475  0.00  0.00     0.027 H 
ATOM     22  H   LIG d   1       1.839  -0.800  -7.532  0.00  0.00     0.027 H 
BRANCH  20  23
ATOM     23  C   LIG d   1       1.680  -0.375  -9.637  0.00  0.00    -0.051 C 
ATOM     24  H   LIG d   1       0.616  -0.397  -9.403  0.00  0.00     0.027 H 
ATOM     25  H   LIG d   1       1.922   0.560 -10.145  0.00  0.00     0.027 H 
BRANCH  23  26
ATOM     26  C   LIG d   1       2.026  -1.555 -10.549  0.00  0.00    -0.047 C 
ATOM     27  H   LIG d   1       1.157  -2.204 -10.648  0.00  0.00     0.029 H 
BRANCH  26  28
ATOM     28  C   LIG d   1       2.431  -1.031 -11.928  0.00  0.00    -0.063 C 
ATOM     29  H   LIG d   1       3.357  -0.463 -11.844  0.00  0.00     0.023 H 
ATOM     30  H   LIG d   1       2.581  -1.872 -12.606  0.00  0.00     0.023 H 
ATOM     31  H   LIG d   1       1.643  -0.387 -12.318  0.00  0.00     0.023 H 
ENDBRANCH  26  28
BRANCH  26  32
ATOM     32  C   LIG d   1       3.187  -2.344  -9.942  0.00  0.00    -0.063 C 
ATOM     33  H   LIG d   1       3.702  -1.726  -9.206  0.00  0.00     0.023 H 
ATOM     34  H   LIG d   1       2.802  -3.242  -9.457  0.00  0.00     0.023 H 
ATOM     35  H   LIG d   1       3.885  -2.628 -10.729  0.00  0.00     0.023 H 
ENDBRANCH  26  32
ENDBRANCH  23  26
ENDBRANCH  20  23
ENDBRANCH  17  20
ENDBRANCH  11  17
ENDBRANCH   8  11
ENDBRANCH   4   7
ENDBRANCH   1   4
BRANCH   1  36
ATOM     36  C   LIG d   1       9.774   0.944  -9.487  0.00  0.00     0.013 C 
ATOM     37  H   LIG d   1      10.601   0.381  -9.920  0.00  0.00     0.046 H 
ATOM     38  H   LIG d   1      10.012   2.007  -9.500  0.00  0.00     0.046 H 
BRANCH  36  39
ATOM     39  N   LIG d   1       9.559   0.508  -8.104  0.00  0.00    -0.299 N 
ATOM     40  C   LIG d   1       9.678   1.392  -7.094  0.00  0.00     0.302 C 
ATOM     41  O   LIG d   1      10.054   2.526  -7.319  0.00  0.00    -0.253 OA
ATOM     42  N   LIG d   1       9.380   1.018  -5.833  0.00  0.00    -0.280 N 
ATOM     43  C   LIG d   1       9.028  -0.378  -5.523  0.00  0.00     0.057 C 
ATOM     44  C   LIG d   1       9.393   1.993  -4.733  0.00  0.00     0.021 C 
ATOM     45  C   LIG d   1       7.831  -0.356  -4.605  0.00  0.00     0.038 A 
ATOM     46  H   LIG d   1       8.778  -0.910  -6.442  0.00  0.00     0.053 H 
ATOM     47  H   LIG d   1       9.864  -0.869  -5.025  0.00  0.00     0.053 H 
ATOM     48  C   LIG d   1       7.370   0.765  -4.009  0.00  0.00    -0.016 A 
ATOM     49  N   LIG d   1       7.058  -1.428  -4.244  0.00  0.00    -0.356 N 
ATOM     50  C   LIG d   1       7.971   2.137  -4.178  0.00  0.00    -0.009 C 
ATOM     51  C   LIG d   1       6.224   0.380  -3.211  0.00  0.00     0.003 A 
ATOM     52  H   LIG d   1       8.005   2.642  -3.213  0.00  0.00     0.033 H 
ATOM     53  H   LIG d   1       7.366   2.720  -4.873  0.00  0.00     0.033 H 
ATOM     54  C   LIG d   1       5.356   1.103  -2.389  0.00  0.00    -0.052 A 
ATOM     55  C   LIG d   1       6.070  -1.019  -3.395  0.00  0.00     0.047 A 
ATOM     56  C   LIG d   1       4.353   0.396  -1.771  0.00  0.00    -0.061 A 
ATOM     57  H   LIG d   1       5.468   2.167  -2.245  0.00  0.00     0.062 H 
ATOM     58  C   LIG d   1       4.199  -0.969  -1.946  0.00  0.00    -0.060 A 
ATOM     59  H   LIG d   1       3.663   0.922  -1.127  0.00  0.00     0.062 H 
ATOM     60  C   LIG d   1       5.043  -1.709  -2.756  0.00  0.00    -0.038 A 
ATOM     61  H   LIG d   1       3.392  -1.472  -1.435  0.00  0.00     0.062 H 
ATOM     62  H   LIG d   1       4.913  -2.773  -2.884  0.00  0.00     0.064 H 
ATOM     63  H   LIG d   1       7.193  -2.339  -4.546  0.00  0.00     0.166 HD
ATOM     64  H   LIG d   1      10.060   1.646  -3.944  0.00  0.00     0.047 H 
ATOM     65  H   LIG d   1       9.739   2.958  -5.106  0.00  0.00     0.047 H 
ATOM     66  H   LIG d   1       9.331  -0.416  -7.917  0.00  0.00     0.150 HD
ENDBRANCH  36  39
ENDBRANCH   1  36
TORSDOF 12
ENDMDL
MODEL 7
REMARK VINA RESULT:      -6.3      2.922      4.369
REMARK  12 active torsions:
REMARK  status: ('A' for Active; 'I' for Inactive)
REMARK    1  A    between atoms: C_1  and  C_2 
REMARK    2  A    between atoms: C_2  and  C_4 
REMARK    3  A    between atoms: C_2  and  N_10 
REMARK    4  A    between atoms: C_4  and  C_5 
REMARK    5  A    between atoms: C_5  and  C_6 
REMARK    6  A    between atoms: C_6  and  C_7 
REMARK    7  A    between atoms: C_7  and  C_8 
REMARK    8  A    between atoms: C_7  and  C_9 
REMARK       I    between atoms: N_10  and  C_11 
REMARK    9  A    between atoms: C_11  and  C_13 
REMARK   10  A    between atoms: C_13  and  C_14 
REMARK   11  A    between atoms: C_14  and  C_15 
REMARK   12  A    between atoms: C_15  and  N_16 
REMARK       I    between atoms: N_16  and  C_17 
REMARK       I    between atoms: C_17  and  N_19 
ROOT
ATOM      1  C   LIG d   1      10.184  -3.850  -2.751  0.00  0.00    -0.029 C 
ATOM      2  H   LIG d   1       9.930  -2.856  -2.386  0.00  0.00     0.029 H 
ATOM      3  H   LIG d   1      10.431  -4.495  -1.908  0.00  0.00     0.029 H 
ENDROOT
BRANCH   1   4
ATOM      4  C   LIG d   1       8.989  -4.435  -3.508  0.00  0.00     0.025 C 
ATOM      5  H   LIG d   1       8.300  -4.893  -2.798  0.00  0.00     0.036 H 
ATOM      6  H   LIG d   1       9.340  -5.189  -4.213  0.00  0.00     0.036 H 
BRANCH   4   7
ATOM      7  C   LIG d   1       8.282  -3.336  -4.258  0.00  0.00     0.213 C 
ATOM      8  N   LIG d   1       7.833  -2.252  -3.597  0.00  0.00    -0.313 N 
ATOM      9  H   LIG d   1       7.964  -2.177  -2.639  0.00  0.00     0.149 HD
ATOM     10  O   LIG d   1       8.118  -3.428  -5.455  0.00  0.00    -0.276 OA
BRANCH   8  11
ATOM     11  C   LIG d   1       7.145  -1.182  -4.326  0.00  0.00     0.020 C 
ATOM     12  H   LIG d   1       7.411  -1.234  -5.382  0.00  0.00     0.050 H 
BRANCH  11  13
ATOM     13  C   LIG d   1       7.568   0.175  -3.760  0.00  0.00    -0.047 C 
ATOM     14  H   LIG d   1       7.695   0.095  -2.680  0.00  0.00     0.025 H 
ATOM     15  H   LIG d   1       8.511   0.480  -4.214  0.00  0.00     0.025 H 
ATOM     16  H   LIG d   1       6.801   0.916  -3.982  0.00  0.00     0.025 H 
ENDBRANCH  11  13
BRANCH  11  17
ATOM     17  C   LIG d   1       5.633  -1.350  -4.171  0.00  0.00    -0.035 C 
ATOM     18  H   LIG d   1       5.150  -0.376  -4.235  0.00  0.00     0.028 H 
ATOM     19  H   LIG d   1       5.256  -1.995  -4.966  0.00  0.00     0.028 H 
BRANCH  17  20
ATOM     20  C   LIG d   1       5.326  -1.984  -2.813  0.00  0.00    -0.051 C 
ATOM     21  H   LIG d   1       4.815  -2.935  -2.963  0.00  0.00     0.027 H 
ATOM     22  H   LIG d   1       6.258  -2.153  -2.273  0.00  0.00     0.027 H 
BRANCH  20  23
ATOM     23  C   LIG d   1       4.430  -1.045  -2.003  0.00  0.00    -0.051 C 
ATOM     24  H   LIG d   1       3.669  -1.626  -1.484  0.00  0.00     0.027 H 
ATOM     25  H   LIG d   1       5.035  -0.504  -1.275  0.00  0.00     0.027 H 
BRANCH  23  26
ATOM     26  C   LIG d   1       3.753  -0.047  -2.946  0.00  0.00    -0.047 C 
ATOM     27  H   LIG d   1       4.323   0.021  -3.872  0.00  0.00     0.029 H 
BRANCH  26  28
ATOM     28  C   LIG d   1       2.331  -0.521  -3.255  0.00  0.00    -0.063 C 
ATOM     29  H   LIG d   1       2.220  -1.560  -2.948  0.00  0.00     0.023 H 
ATOM     30  H   LIG d   1       1.616   0.097  -2.712  0.00  0.00     0.023 H 
ATOM     31  H   LIG d   1       2.145  -0.435  -4.325  0.00  0.00     0.023 H 
ENDBRANCH  26  28
BRANCH  26  32
ATOM     32  C   LIG d   1       3.698   1.328  -2.278  0.00  0.00    -0.063 C 
ATOM     33  H   LIG d   1       4.603   1.483  -1.690  0.00  0.00     0.023 H 
ATOM     34  H   LIG d   1       3.625   2.102  -3.043  0.00  0.00     0.023 H 
ATOM     35  H   LIG d   1       2.828   1.381  -1.624  0.00  0.00     0.023 H 
ENDBRANCH  26  32
ENDBRANCH  23  26
ENDBRANCH  20  23
ENDBRANCH  17  20
ENDBRANCH  11  17
ENDBRANCH   8  11
ENDBRANCH   4   7
ENDBRANCH   1   4
BRANCH   1  36
ATOM     36  C   LIG d   1      11.387  -3.757  -3.692  0.00  0.00     0.013 C 
ATOM     37  H   LIG d   1      12.217  -4.329  -3.279  0.00  0.00     0.046 H 
ATOM     38  H   LIG d   1      11.118  -4.161  -4.667  0.00  0.00     0.046 H 
BRANCH  36  39
ATOM     39  N   LIG d   1      11.785  -2.354  -3.838  0.00  0.00    -0.299 N 
ATOM     40  C   LIG d   1      11.633  -1.730  -5.022  0.00  0.00     0.302 C 
ATOM     41  O   LIG d   1      11.251  -2.354  -5.993  0.00  0.00    -0.253 OA
ATOM     42  N   LIG d   1      11.901  -0.413  -5.130  0.00  0.00    -0.280 N 
ATOM     43  C   LIG d   1      12.466   0.337  -3.996  0.00  0.00     0.057 C 
ATOM     44  C   LIG d   1      11.634   0.312  -6.381  0.00  0.00     0.021 C 
ATOM     45  C   LIG d   1      11.717   1.643  -3.891  0.00  0.00     0.038 A 
ATOM     46  H   LIG d   1      12.342  -0.234  -3.075  0.00  0.00     0.053 H 
ATOM     47  H   LIG d   1      13.523   0.534  -4.171  0.00  0.00     0.053 H 
ATOM     48  C   LIG d   1      10.870   2.094  -4.842  0.00  0.00    -0.016 A 
ATOM     49  N   LIG d   1      11.779   2.539  -2.857  0.00  0.00    -0.356 N 
ATOM     50  C   LIG d   1      10.551   1.367  -6.123  0.00  0.00    -0.009 C 
ATOM     51  C   LIG d   1      10.358   3.369  -4.382  0.00  0.00     0.003 A 
ATOM     52  H   LIG d   1      10.530   2.076  -6.950  0.00  0.00     0.033 H 
ATOM     53  H   LIG d   1       9.581   0.879  -6.036  0.00  0.00     0.033 H 
ATOM     54  C   LIG d   1       9.461   4.285  -4.938  0.00  0.00    -0.052 A 
ATOM     55  C   LIG d   1      10.965   3.604  -3.121  0.00  0.00     0.047 A 
ATOM     56  C   LIG d   1       9.199   5.418  -4.207  0.00  0.00    -0.061 A 
ATOM     57  H   LIG d   1       8.997   4.112  -5.897  0.00  0.00     0.062 H 
ATOM     58  C   LIG d   1       9.789   5.652  -2.975  0.00  0.00    -0.060 A 
ATOM     59  H   LIG d   1       8.511   6.149  -4.604  0.00  0.00     0.062 H 
ATOM     60  C   LIG d   1      10.680   4.761  -2.402  0.00  0.00    -0.038 A 
ATOM     61  H   LIG d   1       9.545   6.561  -2.445  0.00  0.00     0.062 H 
ATOM     62  H   LIG d   1      11.133   4.956  -1.442  0.00  0.00     0.064 H 
ATOM     63  H   LIG d   1      12.319   2.433  -2.059  0.00  0.00     0.166 HD
ATOM     64  H   LIG d   1      12.546   0.801  -6.722  0.00  0.00     0.047 H 
ATOM     65  H   LIG d   1      11.288  -0.389  -7.141  0.00  0.00     0.047 H 
ATOM     66  H   LIG d   1      12.159  -1.875  -3.082  0.00  0.00     0.150 HD
ENDBRANCH  36  39
ENDBRANCH   1  36
TORSDOF 12
ENDMDL
MODEL 8
REMARK VINA RESULT:      -6.3      3.758      6.046
REMARK  12 active torsions:
REMARK  status: ('A' for Active; 'I' for Inactive)
REMARK    1  A    between atoms: C_1  and  C_2 
REMARK    2  A    between atoms: C_2  and  C_4 
REMARK    3  A    between atoms: C_2  and  N_10 
REMARK    4  A    between atoms: C_4  and  C_5 
REMARK    5  A    between atoms: C_5  and  C_6 
REMARK    6  A    between atoms: C_6  and  C_7 
REMARK    7  A    between atoms: C_7  and  C_8 
REMARK    8  A    between atoms: C_7  and  C_9 
REMARK       I    between atoms: N_10  and  C_11 
REMARK    9  A    between atoms: C_11  and  C_13 
REMARK   10  A    between atoms: C_13  and  C_14 
REMARK   11  A    between atoms: C_14  and  C_15 
REMARK   12  A    between atoms: C_15  and  N_16 
REMARK       I    between atoms: N_16  and  C_17 
REMARK       I    between atoms: C_17  and  N_19 
ROOT
ATOM      1  C   LIG d   1       9.320   0.591  -9.975  0.00  0.00    -0.029 C 
ATOM      2  H   LIG d   1       9.553   0.980 -10.965  0.00  0.00     0.029 H 
ATOM      3  H   LIG d   1       8.382   1.024  -9.626  0.00  0.00     0.029 H 
ENDROOT
BRANCH   1   4
ATOM      4  C   LIG d   1       9.184  -0.931 -10.044  0.00  0.00     0.025 C 
ATOM      5  H   LIG d   1      10.169  -1.388  -9.947  0.00  0.00     0.036 H 
ATOM      6  H   LIG d   1       8.745  -1.214 -11.001  0.00  0.00     0.036 H 
BRANCH   4   7
ATOM      7  C   LIG d   1       8.296  -1.408  -8.924  0.00  0.00     0.213 C 
ATOM      8  N   LIG d   1       7.051  -0.910  -8.794  0.00  0.00    -0.313 N 
ATOM      9  H   LIG d   1       6.726  -0.245  -9.421  0.00  0.00     0.149 HD
ATOM     10  O   LIG d   1       8.702  -2.240  -8.141  0.00  0.00    -0.276 OA
BRANCH   8  11
ATOM     11  C   LIG d   1       6.187  -1.374  -7.706  0.00  0.00     0.020 C 
ATOM     12  H   LIG d   1       6.798  -1.829  -6.926  0.00  0.00     0.050 H 
BRANCH  11  13
ATOM     13  C   LIG d   1       5.196  -2.408  -8.245  0.00  0.00    -0.047 C 
ATOM     14  H   LIG d   1       4.515  -1.926  -8.947  0.00  0.00     0.025 H 
ATOM     15  H   LIG d   1       5.742  -3.201  -8.756  0.00  0.00     0.025 H 
ATOM     16  H   LIG d   1       4.627  -2.831  -7.418  0.00  0.00     0.025 H 
ENDBRANCH  11  13
BRANCH  11  17
ATOM     17  C   LIG d   1       5.418  -0.186  -7.124  0.00  0.00    -0.035 C 
ATOM     18  H   LIG d   1       6.035   0.318  -6.382  0.00  0.00     0.028 H 
ATOM     19  H   LIG d   1       5.168   0.511  -7.924  0.00  0.00     0.028 H 
BRANCH  17  20
ATOM     20  C   LIG d   1       4.132  -0.686  -6.463  0.00  0.00    -0.051 C 
ATOM     21  H   LIG d   1       3.918  -1.699  -6.804  0.00  0.00     0.027 H 
ATOM     22  H   LIG d   1       4.256  -0.686  -5.380  0.00  0.00     0.027 H 
BRANCH  20  23
ATOM     23  C   LIG d   1       2.972   0.236  -6.844  0.00  0.00    -0.051 C 
ATOM     24  H   LIG d   1       2.028  -0.291  -6.709  0.00  0.00     0.027 H 
ATOM     25  H   LIG d   1       2.988   1.122  -6.208  0.00  0.00     0.027 H 
BRANCH  23  26
ATOM     26  C   LIG d   1       3.114   0.657  -8.309  0.00  0.00    -0.047 C 
ATOM     27  H   LIG d   1       4.135   0.473  -8.642  0.00  0.00     0.029 H 
BRANCH  26  28
ATOM     28  C   LIG d   1       2.143  -0.154  -9.169  0.00  0.00    -0.063 C 
ATOM     29  H   LIG d   1       2.582  -1.125  -9.396  0.00  0.00     0.023 H 
ATOM     30  H   LIG d   1       1.208  -0.296  -8.626  0.00  0.00     0.023 H 
ATOM     31  H   LIG d   1       1.946   0.383 -10.097  0.00  0.00     0.023 H 
ENDBRANCH  26  28
BRANCH  26  32
ATOM     32  C   LIG d   1       2.794   2.147  -8.444  0.00  0.00    -0.063 C 
ATOM     33  H   LIG d   1       2.763   2.417  -9.500  0.00  0.00     0.023 H 
ATOM     34  H   LIG d   1       1.824   2.353  -7.989  0.00  0.00     0.023 H 
ATOM     35  H   LIG d   1       3.563   2.732  -7.942  0.00  0.00     0.023 H 
ENDBRANCH  26  32
ENDBRANCH  23  26
ENDBRANCH  20  23
ENDBRANCH  17  20
ENDBRANCH  11  17
ENDBRANCH   8  11
ENDBRANCH   4   7
ENDBRANCH   1   4
BRANCH   1  36
ATOM     36  C   LIG d   1      10.444   0.960  -9.004  0.00  0.00     0.013 C 
ATOM     37  H   LIG d   1      11.360   0.446  -9.297  0.00  0.00     0.046 H 
ATOM     38  H   LIG d   1      10.607   2.036  -9.029  0.00  0.00     0.046 H 
BRANCH  36  39
ATOM     39  N   LIG d   1      10.069   0.553  -7.647  0.00  0.00    -0.299 N 
ATOM     40  C   LIG d   1      10.023   1.467  -6.659  0.00  0.00     0.302 C 
ATOM     41  O   LIG d   1      10.380   2.610  -6.871  0.00  0.00    -0.253 OA
ATOM     42  N   LIG d   1       9.579   1.116  -5.435  0.00  0.00    -0.280 N 
ATOM     43  C   LIG d   1       9.245  -0.285  -5.127  0.00  0.00     0.057 C 
ATOM     44  C   LIG d   1       9.413   2.121  -4.375  0.00  0.00     0.021 C 
ATOM     45  C   LIG d   1       7.939  -0.289  -4.371  0.00  0.00     0.038 A 
ATOM     46  H   LIG d   1       9.136  -0.852  -6.053  0.00  0.00     0.053 H 
ATOM     47  H   LIG d   1      10.028  -0.726  -4.511  0.00  0.00     0.053 H 
ATOM     48  C   LIG d   1       7.362   0.827  -3.876  0.00  0.00    -0.016 A 
ATOM     49  N   LIG d   1       7.169  -1.383  -4.077  0.00  0.00    -0.356 N 
ATOM     50  C   LIG d   1       7.926   2.219  -4.011  0.00  0.00    -0.009 C 
ATOM     51  C   LIG d   1       6.139   0.415  -3.218  0.00  0.00     0.003 A 
ATOM     52  H   LIG d   1       7.816   2.750  -3.066  0.00  0.00     0.033 H 
ATOM     53  H   LIG d   1       7.393   2.755  -4.796  0.00  0.00     0.033 H 
ATOM     54  C   LIG d   1       5.144   1.123  -2.537  0.00  0.00    -0.052 A 
ATOM     55  C   LIG d   1       6.064  -0.994  -3.375  0.00  0.00     0.047 A 
ATOM     56  C   LIG d   1       4.099   0.391  -2.030  0.00  0.00    -0.061 A 
ATOM     57  H   LIG d   1       5.196   2.194  -2.415  0.00  0.00     0.062 H 
ATOM     58  C   LIG d   1       4.022  -0.984  -2.180  0.00  0.00    -0.060 A 
ATOM     59  H   LIG d   1       3.312   0.904  -1.497  0.00  0.00     0.062 H 
ATOM     60  C   LIG d   1       4.991  -1.709  -2.850  0.00  0.00    -0.038 A 
ATOM     61  H   LIG d   1       3.176  -1.507  -1.759  0.00  0.00     0.062 H 
ATOM     62  H   LIG d   1       4.920  -2.781  -2.960  0.00  0.00     0.064 H 
ATOM     63  H   LIG d   1       7.377  -2.295  -4.330  0.00  0.00     0.166 HD
ATOM     64  H   LIG d   1       9.985   1.823  -3.496  0.00  0.00     0.047 H 
ATOM     65  H   LIG d   1       9.766   3.089  -4.732  0.00  0.00     0.047 H 
ATOM     66  H   LIG d   1       9.856  -0.375  -7.461  0.00  0.00     0.150 HD
ENDBRANCH  36  39
ENDBRANCH   1  36
TORSDOF 12
ENDMDL
MODEL 9
REMARK VINA RESULT:      -6.1      1.982      2.348
REMARK  12 active torsions:
REMARK  status: ('A' for Active; 'I' for Inactive)
REMARK    1  A    between atoms: C_1  and  C_2 
REMARK    2  A    between atoms: C_2  and  C_4 
REMARK    3  A    between atoms: C_2  and  N_10 
REMARK    4  A    between atoms: C_4  and  C_5 
REMARK    5  A    between atoms: C_5  and  C_6 
REMARK    6  A    between atoms: C_6  and  C_7 
REMARK    7  A    between atoms: C_7  and  C_8 
REMARK    8  A    between atoms: C_7  and  C_9 
REMARK       I    between atoms: N_10  and  C_11 
REMARK    9  A    between atoms: C_11  and  C_13 
REMARK   10  A    between atoms: C_13  and  C_14 
REMARK   11  A    between atoms: C_14  and  C_15 
REMARK   12  A    between atoms: C_15  and  N_16 
REMARK       I    between atoms: N_16  and  C_17 
REMARK       I    between atoms: C_17  and  N_19 
ROOT
ATOM      1  C   LIG d   1       7.725   0.991  -6.109  0.00  0.00    -0.029 C 
ATOM      2  H   LIG d   1       6.893   1.666  -5.915  0.00  0.00     0.029 H 
ATOM      3  H   LIG d   1       8.183   0.697  -5.164  0.00  0.00     0.029 H 
ENDROOT
BRANCH   1   4
ATOM      4  C   LIG d   1       7.213  -0.254  -6.837  0.00  0.00     0.025 C 
ATOM      5  H   LIG d   1       7.947  -0.569  -7.579  0.00  0.00     0.036 H 
ATOM      6  H   LIG d   1       6.270  -0.022  -7.333  0.00  0.00     0.036 H 
BRANCH   4   7
ATOM      7  C   LIG d   1       6.996  -1.364  -5.841  0.00  0.00     0.213 C 
ATOM      8  N   LIG d   1       5.766  -1.885  -5.671  0.00  0.00    -0.313 N 
ATOM      9  H   LIG d   1       5.019  -1.547  -6.189  0.00  0.00     0.149 HD
ATOM     10  O   LIG d   1       7.929  -1.788  -5.194  0.00  0.00    -0.276 OA
BRANCH   8  11
ATOM     11  C   LIG d   1       5.554  -2.965  -4.704  0.00  0.00     0.020 C 
ATOM     12  H   LIG d   1       6.507  -3.234  -4.246  0.00  0.00     0.050 H 
BRANCH  11  13
ATOM     13  C   LIG d   1       4.972  -4.185  -5.420  0.00  0.00    -0.047 C 
ATOM     14  H   LIG d   1       4.979  -5.041  -4.744  0.00  0.00     0.025 H 
ATOM     15  H   LIG d   1       3.948  -3.972  -5.726  0.00  0.00     0.025 H 
ATOM     16  H   LIG d   1       5.575  -4.413  -6.299  0.00  0.00     0.025 H 
ENDBRANCH  11  13
BRANCH  11  17
ATOM     17  C   LIG d   1       4.580  -2.497  -3.621  0.00  0.00    -0.035 C 
ATOM     18  H   LIG d   1       3.770  -1.933  -4.081  0.00  0.00     0.028 H 
ATOM     19  H   LIG d   1       4.172  -3.363  -3.101  0.00  0.00     0.028 H 
BRANCH  17  20
ATOM     20  C   LIG d   1       5.320  -1.605  -2.622  0.00  0.00    -0.051 C 
ATOM     21  H   LIG d   1       5.901  -2.227  -1.940  0.00  0.00     0.027 H 
ATOM     22  H   LIG d   1       5.988  -0.933  -3.160  0.00  0.00     0.027 H 
BRANCH  20  23
ATOM     23  C   LIG d   1       4.305  -0.784  -1.823  0.00  0.00    -0.051 C 
ATOM     24  H   LIG d   1       3.305  -0.957  -2.219  0.00  0.00     0.027 H 
ATOM     25  H   LIG d   1       4.339  -1.085  -0.776  0.00  0.00     0.027 H 
BRANCH  23  26
ATOM     26  C   LIG d   1       4.649   0.703  -1.938  0.00  0.00    -0.047 C 
ATOM     27  H   LIG d   1       4.908   1.092  -0.953  0.00  0.00     0.029 H 
BRANCH  26  28
ATOM     28  C   LIG d   1       5.837   0.880  -2.885  0.00  0.00    -0.063 C 
ATOM     29  H   LIG d   1       6.627   0.182  -2.612  0.00  0.00     0.023 H 
ATOM     30  H   LIG d   1       5.517   0.684  -3.909  0.00  0.00     0.023 H 
ATOM     31  H   LIG d   1       6.211   1.901  -2.811  0.00  0.00     0.023 H 
ENDBRANCH  26  28
BRANCH  26  32
ATOM     32  C   LIG d   1       3.441   1.464  -2.486  0.00  0.00    -0.063 C 
ATOM     33  H   LIG d   1       3.584   1.653  -3.551  0.00  0.00     0.023 H 
ATOM     34  H   LIG d   1       2.539   0.869  -2.342  0.00  0.00     0.023 H 
ATOM     35  H   LIG d   1       3.338   2.413  -1.960  0.00  0.00     0.023 H 
ENDBRANCH  26  32
ENDBRANCH  23  26
ENDBRANCH  20  23
ENDBRANCH  17  20
ENDBRANCH  11  17
ENDBRANCH   8  11
ENDBRANCH   4   7
ENDBRANCH   1   4
BRANCH   1  36
ATOM     36  C   LIG d   1       8.765   1.699  -6.980  0.00  0.00     0.013 C 
ATOM     37  H   LIG d   1       9.297   0.963  -7.582  0.00  0.00     0.046 H 
ATOM     38  H   LIG d   1       8.265   2.411  -7.636  0.00  0.00     0.046 H 
BRANCH  36  39
ATOM     39  N   LIG d   1       9.718   2.410  -6.123  0.00  0.00    -0.299 N 
ATOM     40  C   LIG d   1       9.991   3.709  -6.353  0.00  0.00     0.302 C 
ATOM     41  O   LIG d   1       9.518   4.267  -7.324  0.00  0.00    -0.253 OA
ATOM     42  N   LIG d   1      10.786   4.391  -5.504  0.00  0.00    -0.280 N 
ATOM     43  C   LIG d   1      11.455   3.708  -4.383  0.00  0.00     0.057 C 
ATOM     44  C   LIG d   1      11.006   5.835  -5.670  0.00  0.00     0.021 C 
ATOM     45  C   LIG d   1      11.299   4.576  -3.159  0.00  0.00     0.038 A 
ATOM     46  H   LIG d   1      10.989   2.738  -4.209  0.00  0.00     0.053 H 
ATOM     47  H   LIG d   1      12.513   3.577  -4.608  0.00  0.00     0.053 H 
ATOM     48  C   LIG d   1      10.844   5.847  -3.200  0.00  0.00    -0.016 A 
ATOM     49  N   LIG d   1      11.586   4.225  -1.867  0.00  0.00    -0.356 N 
ATOM     50  C   LIG d   1      10.426   6.570  -4.456  0.00  0.00    -0.009 C 
ATOM     51  C   LIG d   1      10.843   6.341  -1.838  0.00  0.00     0.003 A 
ATOM     52  H   LIG d   1      10.805   7.591  -4.432  0.00  0.00     0.033 H 
ATOM     53  H   LIG d   1       9.338   6.586  -4.524  0.00  0.00     0.033 H 
ATOM     54  C   LIG d   1      10.481   7.568  -1.276  0.00  0.00    -0.052 A 
ATOM     55  C   LIG d   1      11.322   5.274  -1.034  0.00  0.00     0.047 A 
ATOM     56  C   LIG d   1      10.612   7.689   0.086  0.00  0.00    -0.061 A 
ATOM     57  H   LIG d   1      10.117   8.383  -1.883  0.00  0.00     0.062 H 
ATOM     58  C   LIG d   1      11.080   6.651   0.876  0.00  0.00    -0.060 A 
ATOM     59  H   LIG d   1      10.342   8.623   0.556  0.00  0.00     0.062 H 
ATOM     60  C   LIG d   1      11.444   5.426   0.345  0.00  0.00    -0.038 A 
ATOM     61  H   LIG d   1      11.162   6.804   1.941  0.00  0.00     0.062 H 
ATOM     62  H   LIG d   1      11.807   4.625   0.971  0.00  0.00     0.064 H 
ATOM     63  H   LIG d   1      11.926   3.361  -1.586  0.00  0.00     0.166 HD
ATOM     64  H   LIG d   1      12.074   6.037  -5.743  0.00  0.00     0.047 H 
ATOM     65  H   LIG d   1      10.506   6.177  -6.577  0.00  0.00     0.047 H 
ATOM     66  H   LIG d   1      10.152   1.944  -5.392  0.00  0.00     0.150 HD
ENDBRANCH  36  39
ENDBRANCH   1  36
TORSDOF 12
ENDMDL
