MODEL 1
REMARK VINA RESULT:      -4.8      0.000      0.000
REMARK  11 active torsions:
REMARK  status: ('A' for Active; 'I' for Inactive)
REMARK    1  A    between atoms: C_1  and  C_2 
REMARK    2  A    between atoms: C_2  and  C_3 
REMARK    3  A    between atoms: C_3  and  C_4 
REMARK    4  A    between atoms: C_4  and  C_5 
REMARK    5  A    between atoms: C_5  and  C_6 
REMARK    6  A    between atoms: C_6  and  O_7 
REMARK    7  A    between atoms: O_7  and  C_8 
REMARK    8  A    between atoms: C_8  and  C_10 
REMARK    9  A    between atoms: C_10  and  C_11 
REMARK   10  A    between atoms: C_11  and  C_12 
REMARK   11  A    between atoms: C_11  and  C_13 
ROOT
ATOM      1  C   LIG d   1       5.167  -2.003  -4.482  0.00  0.00     0.092 C 
ATOM      2  H   LIG d   1       5.960  -2.715  -4.712  0.00  0.00     0.070 H 
ATOM      3  H   LIG d   1       5.606  -1.080  -4.103  0.00  0.00     0.070 H 
ENDROOT
BRANCH   1   4
ATOM      4  C   LIG d   1       4.238  -2.599  -3.422  0.00  0.00    -0.018 C 
ATOM      5  H   LIG d   1       3.288  -2.868  -3.882  0.00  0.00     0.030 H 
ATOM      6  H   LIG d   1       4.700  -3.490  -2.995  0.00  0.00     0.030 H 
BRANCH   4   7
ATOM      7  C   LIG d   1       3.997  -1.570  -2.317  0.00  0.00    -0.050 C 
ATOM      8  H   LIG d   1       3.715  -2.084  -1.397  0.00  0.00     0.027 H 
ATOM      9  H   LIG d   1       4.908  -0.997  -2.148  0.00  0.00     0.027 H 
BRANCH   7  10
ATOM     10  C   LIG d   1       2.870  -0.624  -2.737  0.00  0.00    -0.053 C 
ATOM     11  H   LIG d   1       2.581  -0.838  -3.766  0.00  0.00     0.026 H 
ATOM     12  H   LIG d   1       2.011  -0.768  -2.081  0.00  0.00     0.026 H 
BRANCH  10  13
ATOM     13  C   LIG d   1       3.354   0.823  -2.633  0.00  0.00    -0.056 C 
ATOM     14  H   LIG d   1       3.622   1.189  -3.625  0.00  0.00     0.026 H 
ATOM     15  H   LIG d   1       2.559   1.444  -2.220  0.00  0.00     0.026 H 
BRANCH  13  16
ATOM     16  C   LIG d   1       4.579   0.886  -1.719  0.00  0.00    -0.065 C 
ATOM     17  H   LIG d   1       4.303   0.559  -0.717  0.00  0.00     0.023 H 
ATOM     18  H   LIG d   1       5.358   0.233  -2.111  0.00  0.00     0.023 H 
ATOM     19  H   LIG d   1       4.950   1.910  -1.678  0.00  0.00     0.023 H 
ENDBRANCH  13  16
ENDBRANCH  10  13
ENDBRANCH   7  10
ENDBRANCH   4   7
ENDBRANCH   1   4
BRANCH   1  20
ATOM     20  O   LIG d   1       4.407  -1.718  -5.686  0.00  0.00    -0.465 OA
BRANCH  20  21
ATOM     21  C   LIG d   1       4.350  -0.437  -6.082  0.00  0.00     0.307 C 
ATOM     22  O   LIG d   1       5.333   0.262  -6.013  0.00  0.00    -0.251 OA
BRANCH  21  23
ATOM     23  C   LIG d   1       3.056   0.132  -6.605  0.00  0.00     0.047 C 
ATOM     24  H   LIG d   1       2.250  -0.582  -6.434  0.00  0.00     0.038 H 
ATOM     25  H   LIG d   1       2.833   1.064  -6.087  0.00  0.00     0.038 H 
BRANCH  23  26
ATOM     26  C   LIG d   1       3.188   0.403  -8.106  0.00  0.00    -0.037 C 
ATOM     27  H   LIG d   1       4.199   0.161  -8.431  0.00  0.00     0.030 H 
BRANCH  26  28
ATOM     28  C   LIG d   1       2.185  -0.464  -8.870  0.00  0.00    -0.062 C 
ATOM     29  H   LIG d   1       2.279  -0.270  -9.939  0.00  0.00     0.023 H 
ATOM     30  H   LIG d   1       2.389  -1.516  -8.672  0.00  0.00     0.023 H 
ATOM     31  H   LIG d   1       1.174  -0.222  -8.544  0.00  0.00     0.023 H 
ENDBRANCH  26  28
BRANCH  26  32
ATOM     32  C   LIG d   1       2.902   1.880  -8.384  0.00  0.00    -0.062 C 
ATOM     33  H   LIG d   1       3.709   2.298  -8.987  0.00  0.00     0.023 H 
ATOM     34  H   LIG d   1       1.961   1.972  -8.925  0.00  0.00     0.023 H 
ATOM     35  H   LIG d   1       2.835   2.421  -7.442  0.00  0.00     0.023 H 
ENDBRANCH  26  32
ENDBRANCH  23  26
ENDBRANCH  21  23
ENDBRANCH  20  21
ENDBRANCH   1  20
TORSDOF 11
ENDMDL
MODEL 2
REMARK VINA RESULT:      -4.8      1.427      5.402
REMARK  11 active torsions:
REMARK  status: ('A' for Active; 'I' for Inactive)
REMARK    1  A    between atoms: C_1  and  C_2 
REMARK    2  A    between atoms: C_2  and  C_3 
REMARK    3  A    between atoms: C_3  and  C_4 
REMARK    4  A    between atoms: C_4  and  C_5 
REMARK    5  A    between atoms: C_5  and  C_6 
REMARK    6  A    between atoms: C_6  and  O_7 
REMARK    7  A    between atoms: O_7  and  C_8 
REMARK    8  A    between atoms: C_8  and  C_10 
REMARK    9  A    between atoms: C_10  and  C_11 
REMARK   10  A    between atoms: C_11  and  C_12 
REMARK   11  A    between atoms: C_11  and  C_13 
ROOT
ATOM      1  C   LIG d   1       4.152  -0.977  -6.282  0.00  0.00     0.092 C 
ATOM      2  H   LIG d   1       5.064  -1.547  -6.102  0.00  0.00     0.070 H 
ATOM      3  H   LIG d   1       3.292  -1.547  -5.932  0.00  0.00     0.070 H 
ENDROOT
BRANCH   1   4
ATOM      4  C   LIG d   1       4.008  -0.705  -7.781  0.00  0.00    -0.018 C 
ATOM      5  H   LIG d   1       4.655   0.125  -8.062  0.00  0.00     0.030 H 
ATOM      6  H   LIG d   1       4.296  -1.596  -8.340  0.00  0.00     0.030 H 
BRANCH   4   7
ATOM      7  C   LIG d   1       2.555  -0.351  -8.099  0.00  0.00    -0.050 C 
ATOM      8  H   LIG d   1       2.039  -1.235  -8.476  0.00  0.00     0.027 H 
ATOM      9  H   LIG d   1       2.060   0.000  -7.194  0.00  0.00     0.027 H 
BRANCH   7  10
ATOM     10  C   LIG d   1       2.519   0.751  -9.160  0.00  0.00    -0.053 C 
ATOM     11  H   LIG d   1       3.231   0.516  -9.951  0.00  0.00     0.026 H 
ATOM     12  H   LIG d   1       1.515   0.816  -9.582  0.00  0.00     0.026 H 
BRANCH  10  13
ATOM     13  C   LIG d   1       2.891   2.089  -8.520  0.00  0.00    -0.056 C 
ATOM     14  H   LIG d   1       2.033   2.761  -8.557  0.00  0.00     0.026 H 
ATOM     15  H   LIG d   1       3.181   1.928  -7.482  0.00  0.00     0.026 H 
BRANCH  13  16
ATOM     16  C   LIG d   1       4.060   2.713  -9.285  0.00  0.00    -0.065 C 
ATOM     17  H   LIG d   1       3.866   3.774  -9.444  0.00  0.00     0.023 H 
ATOM     18  H   LIG d   1       4.976   2.594  -8.708  0.00  0.00     0.023 H 
ATOM     19  H   LIG d   1       4.170   2.215 -10.248  0.00  0.00     0.023 H 
ENDBRANCH  13  16
ENDBRANCH  10  13
ENDBRANCH   7  10
ENDBRANCH   4   7
ENDBRANCH   1   4
BRANCH   1  20
ATOM     20  O   LIG d   1       4.220   0.284  -5.565  0.00  0.00    -0.465 OA
BRANCH  20  21
ATOM     21  C   LIG d   1       3.208   0.567  -4.731  0.00  0.00     0.307 C 
ATOM     22  O   LIG d   1       2.470   1.494  -4.967  0.00  0.00    -0.251 OA
BRANCH  21  23
ATOM     23  C   LIG d   1       2.997  -0.268  -3.494  0.00  0.00     0.047 C 
ATOM     24  H   LIG d   1       2.219   0.185  -2.878  0.00  0.00     0.038 H 
ATOM     25  H   LIG d   1       2.693  -1.274  -3.781  0.00  0.00     0.038 H 
BRANCH  23  26
ATOM     26  C   LIG d   1       4.302  -0.338  -2.697  0.00  0.00    -0.037 C 
ATOM     27  H   LIG d   1       5.148  -0.309  -3.382  0.00  0.00     0.030 H 
BRANCH  26  28
ATOM     28  C   LIG d   1       4.380   0.853  -1.740  0.00  0.00    -0.062 C 
ATOM     29  H   LIG d   1       4.138   1.769  -2.279  0.00  0.00     0.023 H 
ATOM     30  H   LIG d   1       3.669   0.712  -0.925  0.00  0.00     0.023 H 
ATOM     31  H   LIG d   1       5.388   0.926  -1.334  0.00  0.00     0.023 H 
ENDBRANCH  26  28
BRANCH  26  32
ATOM     32  C   LIG d   1       4.340  -1.641  -1.894  0.00  0.00    -0.062 C 
ATOM     33  H   LIG d   1       4.722  -1.439  -0.894  0.00  0.00     0.023 H 
ATOM     34  H   LIG d   1       3.334  -2.052  -1.822  0.00  0.00     0.023 H 
ATOM     35  H   LIG d   1       4.990  -2.357  -2.395  0.00  0.00     0.023 H 
ENDBRANCH  26  32
ENDBRANCH  23  26
ENDBRANCH  21  23
ENDBRANCH  20  21
ENDBRANCH   1  20
TORSDOF 11
ENDMDL
MODEL 3
REMARK VINA RESULT:      -4.7      1.771      2.937
REMARK  11 active torsions:
REMARK  status: ('A' for Active; 'I' for Inactive)
REMARK    1  A    between atoms: C_1  and  C_2 
REMARK    2  A    between atoms: C_2  and  C_3 
REMARK    3  A    between atoms: C_3  and  C_4 
REMARK    4  A    between atoms: C_4  and  C_5 
REMARK    5  A    between atoms: C_5  and  C_6 
REMARK    6  A    between atoms: C_6  and  O_7 
REMARK    7  A    between atoms: O_7  and  C_8 
REMARK    8  A    between atoms: C_8  and  C_10 
REMARK    9  A    between atoms: C_10  and  C_11 
REMARK   10  A    between atoms: C_11  and  C_12 
REMARK   11  A    between atoms: C_11  and  C_13 
ROOT
ATOM      1  C   LIG d   1       3.365  -0.098  -5.833  0.00  0.00     0.092 C 
ATOM      2  H   LIG d   1       2.933  -0.982  -6.305  0.00  0.00     0.070 H 
ATOM      3  H   LIG d   1       4.308  -0.366  -5.356  0.00  0.00     0.070 H 
ENDROOT
BRANCH   1   4
ATOM      4  C   LIG d   1       2.395   0.442  -4.781  0.00  0.00    -0.018 C 
ATOM      5  H   LIG d   1       2.654   1.474  -4.544  0.00  0.00     0.030 H 
ATOM      6  H   LIG d   1       1.377   0.402  -5.170  0.00  0.00     0.030 H 
BRANCH   4   7
ATOM      7  C   LIG d   1       2.490  -0.410  -3.514  0.00  0.00    -0.050 C 
ATOM      8  H   LIG d   1       1.503  -0.490  -3.055  0.00  0.00     0.027 H 
ATOM      9  H   LIG d   1       2.852  -1.405  -3.771  0.00  0.00     0.027 H 
BRANCH   7  10
ATOM     10  C   LIG d   1       3.458   0.247  -2.528  0.00  0.00    -0.053 C 
ATOM     11  H   LIG d   1       4.085   0.963  -3.058  0.00  0.00     0.026 H 
ATOM     12  H   LIG d   1       2.892   0.763  -1.752  0.00  0.00     0.026 H 
BRANCH  10  13
ATOM     13  C   LIG d   1       4.341  -0.827  -1.888  0.00  0.00    -0.056 C 
ATOM     14  H   LIG d   1       5.383  -0.646  -2.153  0.00  0.00     0.026 H 
ATOM     15  H   LIG d   1       4.230  -0.791  -0.804  0.00  0.00     0.026 H 
BRANCH  13  16
ATOM     16  C   LIG d   1       3.917  -2.205  -2.399  0.00  0.00    -0.065 C 
ATOM     17  H   LIG d   1       2.833  -2.298  -2.339  0.00  0.00     0.023 H 
ATOM     18  H   LIG d   1       4.233  -2.321  -3.435  0.00  0.00     0.023 H 
ATOM     19  H   LIG d   1       4.383  -2.978  -1.788  0.00  0.00     0.023 H 
ENDBRANCH  13  16
ENDBRANCH  10  13
ENDBRANCH   7  10
ENDBRANCH   4   7
ENDBRANCH   1   4
BRANCH   1  20
ATOM     20  O   LIG d   1       3.603   0.920  -6.840  0.00  0.00    -0.465 OA
BRANCH  20  21
ATOM     21  C   LIG d   1       3.005   0.752  -8.030  0.00  0.00     0.307 C 
ATOM     22  O   LIG d   1       2.717  -0.358  -8.411  0.00  0.00    -0.251 OA
BRANCH  21  23
ATOM     23  C   LIG d   1       2.698   1.947  -8.894  0.00  0.00     0.047 C 
ATOM     24  H   LIG d   1       1.784   1.762  -9.460  0.00  0.00     0.038 H 
ATOM     25  H   LIG d   1       2.564   2.826  -8.265  0.00  0.00     0.038 H 
BRANCH  23  26
ATOM     26  C   LIG d   1       3.857   2.188  -9.864  0.00  0.00    -0.037 C 
ATOM     27  H   LIG d   1       3.759   3.177 -10.309  0.00  0.00     0.030 H 
BRANCH  26  28
ATOM     28  C   LIG d   1       5.183   2.099  -9.105  0.00  0.00    -0.062 C 
ATOM     29  H   LIG d   1       5.570   1.082  -9.168  0.00  0.00     0.023 H 
ATOM     30  H   LIG d   1       5.902   2.789  -9.548  0.00  0.00     0.023 H 
ATOM     31  H   LIG d   1       5.022   2.363  -8.060  0.00  0.00     0.023 H 
ENDBRANCH  26  28
BRANCH  26  32
ATOM     32  C   LIG d   1       3.829   1.127 -10.966  0.00  0.00    -0.062 C 
ATOM     33  H   LIG d   1       4.195   0.180 -10.568  0.00  0.00     0.023 H 
ATOM     34  H   LIG d   1       2.807   1.000 -11.322  0.00  0.00     0.023 H 
ATOM     35  H   LIG d   1       4.464   1.444 -11.792  0.00  0.00     0.023 H 
ENDBRANCH  26  32
ENDBRANCH  23  26
ENDBRANCH  21  23
ENDBRANCH  20  21
ENDBRANCH   1  20
TORSDOF 11
ENDMDL
MODEL 4
REMARK VINA RESULT:      -4.5      1.968      6.353
REMARK  11 active torsions:
REMARK  status: ('A' for Active; 'I' for Inactive)
REMARK    1  A    between atoms: C_1  and  C_2 
REMARK    2  A    between atoms: C_2  and  C_3 
REMARK    3  A    between atoms: C_3  and  C_4 
REMARK    4  A    between atoms: C_4  and  C_5 
REMARK    5  A    between atoms: C_5  and  C_6 
REMARK    6  A    between atoms: C_6  and  O_7 
REMARK    7  A    between atoms: O_7  and  C_8 
REMARK    8  A    between atoms: C_8  and  C_10 
REMARK    9  A    between atoms: C_10  and  C_11 
REMARK   10  A    between atoms: C_11  and  C_12 
REMARK   11  A    between atoms: C_11  and  C_13 
ROOT
ATOM      1  C   LIG d   1       3.024   0.641  -7.172  0.00  0.00     0.092 C 
ATOM      2  H   LIG d   1       4.016   0.210  -7.308  0.00  0.00     0.070 H 
ATOM      3  H   LIG d   1       2.270  -0.133  -7.311  0.00  0.00     0.070 H 
ENDROOT
BRANCH   1   4
ATOM      4  C   LIG d   1       2.808   1.755  -8.199  0.00  0.00    -0.018 C 
ATOM      5  H   LIG d   1       1.983   1.485  -8.858  0.00  0.00     0.030 H 
ATOM      6  H   LIG d   1       2.572   2.685  -7.682  0.00  0.00     0.030 H 
BRANCH   4   7
ATOM      7  C   LIG d   1       4.081   1.940  -9.027  0.00  0.00    -0.050 C 
ATOM      8  H   LIG d   1       4.535   2.902  -8.785  0.00  0.00     0.027 H 
ATOM      9  H   LIG d   1       4.784   1.139  -8.797  0.00  0.00     0.027 H 
BRANCH   7  10
ATOM     10  C   LIG d   1       3.732   1.901 -10.516  0.00  0.00    -0.053 C 
ATOM     11  H   LIG d   1       2.651   1.970 -10.637  0.00  0.00     0.026 H 
ATOM     12  H   LIG d   1       4.209   2.741 -11.023  0.00  0.00     0.026 H 
BRANCH  10  13
ATOM     13  C   LIG d   1       4.231   0.589 -11.123  0.00  0.00    -0.056 C 
ATOM     14  H   LIG d   1       4.714   0.791 -12.079  0.00  0.00     0.026 H 
ATOM     15  H   LIG d   1       4.946   0.123 -10.446  0.00  0.00     0.026 H 
BRANCH  13  16
ATOM     16  C   LIG d   1       3.046  -0.354 -11.341  0.00  0.00    -0.065 C 
ATOM     17  H   LIG d   1       3.202  -0.931 -12.252  0.00  0.00     0.023 H 
ATOM     18  H   LIG d   1       2.961  -1.033 -10.492  0.00  0.00     0.023 H 
ATOM     19  H   LIG d   1       2.130   0.229 -11.431  0.00  0.00     0.023 H 
ENDBRANCH  13  16
ENDBRANCH  10  13
ENDBRANCH   7  10
ENDBRANCH   4   7
ENDBRANCH   1   4
BRANCH   1  20
ATOM     20  O   LIG d   1       2.914   1.190  -5.833  0.00  0.00    -0.465 OA
BRANCH  20  21
ATOM     21  C   LIG d   1       2.808   0.313  -4.822  0.00  0.00     0.307 C 
ATOM     22  O   LIG d   1       1.725  -0.125  -4.514  0.00  0.00    -0.251 OA
BRANCH  21  23
ATOM     23  C   LIG d   1       4.039  -0.118  -4.067  0.00  0.00     0.047 C 
ATOM     24  H   LIG d   1       4.374  -1.086  -4.440  0.00  0.00     0.038 H 
ATOM     25  H   LIG d   1       4.829   0.619  -4.207  0.00  0.00     0.038 H 
BRANCH  23  26
ATOM     26  C   LIG d   1       3.709  -0.232  -2.576  0.00  0.00    -0.037 C 
ATOM     27  H   LIG d   1       2.628  -0.198  -2.440  0.00  0.00     0.030 H 
BRANCH  26  28
ATOM     28  C   LIG d   1       4.250  -1.557  -2.034  0.00  0.00    -0.062 C 
ATOM     29  H   LIG d   1       3.466  -2.313  -2.076  0.00  0.00     0.023 H 
ATOM     30  H   LIG d   1       5.098  -1.878  -2.640  0.00  0.00     0.023 H 
ATOM     31  H   LIG d   1       4.571  -1.422  -1.001  0.00  0.00     0.023 H 
ENDBRANCH  26  28
BRANCH  26  32
ATOM     32  C   LIG d   1       4.355   0.931  -1.820  0.00  0.00    -0.062 C 
ATOM     33  H   LIG d   1       4.057   0.891  -0.772  0.00  0.00     0.023 H 
ATOM     34  H   LIG d   1       5.439   0.853  -1.893  0.00  0.00     0.023 H 
ATOM     35  H   LIG d   1       4.028   1.874  -2.256  0.00  0.00     0.023 H 
ENDBRANCH  26  32
ENDBRANCH  23  26
ENDBRANCH  21  23
ENDBRANCH  20  21
ENDBRANCH   1  20
TORSDOF 11
ENDMDL
MODEL 5
REMARK VINA RESULT:      -4.5      0.898      1.531
REMARK  11 active torsions:
REMARK  status: ('A' for Active; 'I' for Inactive)
REMARK    1  A    between atoms: C_1  and  C_2 
REMARK    2  A    between atoms: C_2  and  C_3 
REMARK    3  A    between atoms: C_3  and  C_4 
REMARK    4  A    between atoms: C_4  and  C_5 
REMARK    5  A    between atoms: C_5  and  C_6 
REMARK    6  A    between atoms: C_6  and  O_7 
REMARK    7  A    between atoms: O_7  and  C_8 
REMARK    8  A    between atoms: C_8  and  C_10 
REMARK    9  A    between atoms: C_10  and  C_11 
REMARK   10  A    between atoms: C_11  and  C_12 
REMARK   11  A    between atoms: C_11  and  C_13 
ROOT
ATOM      1  C   LIG d   1       5.712  -1.540  -5.229  0.00  0.00     0.092 C 
ATOM      2  H   LIG d   1       6.262  -2.359  -5.693  0.00  0.00     0.070 H 
ATOM      3  H   LIG d   1       6.206  -0.596  -5.457  0.00  0.00     0.070 H 
ENDROOT
BRANCH   1   4
ATOM      4  C   LIG d   1       5.678  -1.746  -3.713  0.00  0.00    -0.018 C 
ATOM      5  H   LIG d   1       6.499  -2.399  -3.417  0.00  0.00     0.030 H 
ATOM      6  H   LIG d   1       5.782  -0.782  -3.213  0.00  0.00     0.030 H 
BRANCH   4   7
ATOM      7  C   LIG d   1       4.348  -2.387  -3.314  0.00  0.00    -0.050 C 
ATOM      8  H   LIG d   1       3.766  -2.605  -4.210  0.00  0.00     0.027 H 
ATOM      9  H   LIG d   1       4.538  -3.312  -2.771  0.00  0.00     0.027 H 
BRANCH   7  10
ATOM     10  C   LIG d   1       3.564  -1.423  -2.420  0.00  0.00    -0.053 C 
ATOM     11  H   LIG d   1       2.790  -0.931  -3.009  0.00  0.00     0.026 H 
ATOM     12  H   LIG d   1       3.102  -1.979  -1.604  0.00  0.00     0.026 H 
BRANCH  10  13
ATOM     13  C   LIG d   1       4.515  -0.370  -1.847  0.00  0.00    -0.056 C 
ATOM     14  H   LIG d   1       4.643  -0.540  -0.778  0.00  0.00     0.026 H 
ATOM     15  H   LIG d   1       5.482  -0.444  -2.345  0.00  0.00     0.026 H 
BRANCH  13  16
ATOM     16  C   LIG d   1       3.928   1.024  -2.075  0.00  0.00    -0.065 C 
ATOM     17  H   LIG d   1       4.566   1.770  -1.602  0.00  0.00     0.023 H 
ATOM     18  H   LIG d   1       3.871   1.223  -3.145  0.00  0.00     0.023 H 
ATOM     19  H   LIG d   1       2.929   1.072  -1.643  0.00  0.00     0.023 H 
ENDBRANCH  13  16
ENDBRANCH  10  13
ENDBRANCH   7  10
ENDBRANCH   4   7
ENDBRANCH   1   4
BRANCH   1  20
ATOM     20  O   LIG d   1       4.355  -1.515  -5.744  0.00  0.00    -0.465 OA
BRANCH  20  21
ATOM     21  C   LIG d   1       3.907  -0.343  -6.223  0.00  0.00     0.307 C 
ATOM     22  O   LIG d   1       3.408   0.464  -5.475  0.00  0.00    -0.251 OA
BRANCH  21  23
ATOM     23  C   LIG d   1       4.020  -0.038  -7.694  0.00  0.00     0.047 C 
ATOM     24  H   LIG d   1       4.856   0.643  -7.861  0.00  0.00     0.038 H 
ATOM     25  H   LIG d   1       4.189  -0.962  -8.245  0.00  0.00     0.038 H 
BRANCH  23  26
ATOM     26  C   LIG d   1       2.725   0.616  -8.181  0.00  0.00    -0.037 C 
ATOM     27  H   LIG d   1       2.001   0.637  -7.367  0.00  0.00     0.030 H 
BRANCH  26  28
ATOM     28  C   LIG d   1       3.016   2.045  -8.642  0.00  0.00    -0.062 C 
ATOM     29  H   LIG d   1       3.083   2.068  -9.730  0.00  0.00     0.023 H 
ATOM     30  H   LIG d   1       2.212   2.704  -8.313  0.00  0.00     0.023 H 
ATOM     31  H   LIG d   1       3.960   2.380  -8.213  0.00  0.00     0.023 H 
ENDBRANCH  26  28
BRANCH  26  32
ATOM     32  C   LIG d   1       2.154  -0.192  -9.349  0.00  0.00    -0.062 C 
ATOM     33  H   LIG d   1       1.129   0.125  -9.541  0.00  0.00     0.023 H 
ATOM     34  H   LIG d   1       2.759  -0.021 -10.238  0.00  0.00     0.023 H 
ATOM     35  H   LIG d   1       2.166  -1.251  -9.098  0.00  0.00     0.023 H 
ENDBRANCH  26  32
ENDBRANCH  23  26
ENDBRANCH  21  23
ENDBRANCH  20  21
ENDBRANCH   1  20
TORSDOF 11
ENDMDL
MODEL 6
REMARK VINA RESULT:      -4.4      1.202      5.424
REMARK  11 active torsions:
REMARK  status: ('A' for Active; 'I' for Inactive)
REMARK    1  A    between atoms: C_1  and  C_2 
REMARK    2  A    between atoms: C_2  and  C_3 
REMARK    3  A    between atoms: C_3  and  C_4 
REMARK    4  A    between atoms: C_4  and  C_5 
REMARK    5  A    between atoms: C_5  and  C_6 
REMARK    6  A    between atoms: C_6  and  O_7 
REMARK    7  A    between atoms: O_7  and  C_8 
REMARK    8  A    between atoms: C_8  and  C_10 
REMARK    9  A    between atoms: C_10  and  C_11 
REMARK   10  A    between atoms: C_11  and  C_12 
REMARK   11  A    between atoms: C_11  and  C_13 
ROOT
ATOM      1  C   LIG d   1       4.136  -0.429  -6.151  0.00  0.00     0.092 C 
ATOM      2  H   LIG d   1       4.898  -0.531  -6.924  0.00  0.00     0.070 H 
ATOM      3  H   LIG d   1       3.856  -1.416  -5.785  0.00  0.00     0.070 H 
ENDROOT
BRANCH   1   4
ATOM      4  C   LIG d   1       2.905   0.266  -6.738  0.00  0.00    -0.018 C 
ATOM      5  H   LIG d   1       2.065   0.154  -6.054  0.00  0.00     0.030 H 
ATOM      6  H   LIG d   1       3.120   1.326  -6.881  0.00  0.00     0.030 H 
BRANCH   4   7
ATOM      7  C   LIG d   1       2.554  -0.369  -8.085  0.00  0.00    -0.050 C 
ATOM      8  H   LIG d   1       3.288  -1.140  -8.325  0.00  0.00     0.027 H 
ATOM      9  H   LIG d   1       1.563  -0.817  -8.028  0.00  0.00     0.027 H 
BRANCH   7  10
ATOM     10  C   LIG d   1       2.568   0.704  -9.175  0.00  0.00    -0.053 C 
ATOM     11  H   LIG d   1       3.339   0.467  -9.908  0.00  0.00     0.026 H 
ATOM     12  H   LIG d   1       1.596   0.735  -9.667  0.00  0.00     0.026 H 
BRANCH  10  13
ATOM     13  C   LIG d   1       2.864   2.067  -8.546  0.00  0.00    -0.056 C 
ATOM     14  H   LIG d   1       1.974   2.694  -8.600  0.00  0.00     0.026 H 
ATOM     15  H   LIG d   1       3.150   1.932  -7.503  0.00  0.00     0.026 H 
BRANCH  13  16
ATOM     16  C   LIG d   1       4.008   2.741  -9.306  0.00  0.00    -0.065 C 
ATOM     17  H   LIG d   1       4.875   2.080  -9.320  0.00  0.00     0.023 H 
ATOM     18  H   LIG d   1       3.693   2.946 -10.329  0.00  0.00     0.023 H 
ATOM     19  H   LIG d   1       4.271   3.676  -8.812  0.00  0.00     0.023 H 
ENDBRANCH  13  16
ENDBRANCH  10  13
ENDBRANCH   7  10
ENDBRANCH   4   7
ENDBRANCH   1   4
BRANCH   1  20
ATOM     20  O   LIG d   1       4.662   0.363  -5.054  0.00  0.00    -0.465 OA
BRANCH  20  21
ATOM     21  C   LIG d   1       5.543  -0.236  -4.238  0.00  0.00     0.307 C 
ATOM     22  O   LIG d   1       6.034  -1.294  -4.551  0.00  0.00    -0.251 OA
BRANCH  21  23
ATOM     23  C   LIG d   1       5.912   0.408  -2.926  0.00  0.00     0.047 C 
ATOM     24  H   LIG d   1       6.802  -0.075  -2.523  0.00  0.00     0.038 H 
ATOM     25  H   LIG d   1       6.114   1.467  -3.085  0.00  0.00     0.038 H 
BRANCH  23  26
ATOM     26  C   LIG d   1       4.755   0.253  -1.938  0.00  0.00    -0.037 C 
ATOM     27  H   LIG d   1       5.100   0.494  -0.933  0.00  0.00     0.030 H 
BRANCH  26  28
ATOM     28  C   LIG d   1       3.619   1.200  -2.328  0.00  0.00    -0.062 C 
ATOM     29  H   LIG d   1       2.701   0.894  -1.826  0.00  0.00     0.023 H 
ATOM     30  H   LIG d   1       3.875   2.217  -2.029  0.00  0.00     0.023 H 
ATOM     31  H   LIG d   1       3.472   1.165  -3.407  0.00  0.00     0.023 H 
ENDBRANCH  26  28
BRANCH  26  32
ATOM     32  C   LIG d   1       4.248  -1.191  -1.968  0.00  0.00    -0.062 C 
ATOM     33  H   LIG d   1       3.380  -1.285  -1.315  0.00  0.00     0.023 H 
ATOM     34  H   LIG d   1       3.965  -1.455  -2.987  0.00  0.00     0.023 H 
ATOM     35  H   LIG d   1       5.035  -1.860  -1.625  0.00  0.00     0.023 H 
ENDBRANCH  26  32
ENDBRANCH  23  26
ENDBRANCH  21  23
ENDBRANCH  20  21
ENDBRANCH   1  20
TORSDOF 11
ENDMDL
MODEL 7
REMARK VINA RESULT:      -4.0      3.152      4.846
REMARK  11 active torsions:
REMARK  status: ('A' for Active; 'I' for Inactive)
REMARK    1  A    between atoms: C_1  and  C_2 
REMARK    2  A    between atoms: C_2  and  C_3 
REMARK    3  A    between atoms: C_3  and  C_4 
REMARK    4  A    between atoms: C_4  and  C_5 
REMARK    5  A    between atoms: C_5  and  C_6 
REMARK    6  A    between atoms: C_6  and  O_7 
REMARK    7  A    between atoms: O_7  and  C_8 
REMARK    8  A    between atoms: C_8  and  C_10 
REMARK    9  A    between atoms: C_10  and  C_11 
REMARK   10  A    between atoms: C_11  and  C_12 
REMARK   11  A    between atoms: C_11  and  C_13 
ROOT
ATOM      1  C   LIG d   1       7.276  -0.782  -4.368  0.00  0.00     0.092 C 
ATOM      2  H   LIG d   1       7.548  -1.059  -5.386  0.00  0.00     0.070 H 
ATOM      3  H   LIG d   1       8.031  -0.110  -3.960  0.00  0.00     0.070 H 
ENDROOT
BRANCH   1   4
ATOM      4  C   LIG d   1       7.192  -2.041  -3.503  0.00  0.00    -0.018 C 
ATOM      5  H   LIG d   1       8.028  -2.057  -2.804  0.00  0.00     0.030 H 
ATOM      6  H   LIG d   1       6.254  -2.039  -2.947  0.00  0.00     0.030 H 
BRANCH   4   7
ATOM      7  C   LIG d   1       7.252  -3.280  -4.397  0.00  0.00    -0.050 C 
ATOM      8  H   LIG d   1       8.228  -3.331  -4.883  0.00  0.00     0.027 H 
ATOM      9  H   LIG d   1       7.102  -4.174  -3.791  0.00  0.00     0.027 H 
BRANCH   7  10
ATOM     10  C   LIG d   1       6.157  -3.196  -5.462  0.00  0.00    -0.053 C 
ATOM     11  H   LIG d   1       5.837  -2.160  -5.571  0.00  0.00     0.026 H 
ATOM     12  H   LIG d   1       6.547  -3.558  -6.414  0.00  0.00     0.026 H 
BRANCH  10  13
ATOM     13  C   LIG d   1       4.965  -4.056  -5.038  0.00  0.00    -0.056 C 
ATOM     14  H   LIG d   1       4.903  -4.079  -3.949  0.00  0.00     0.026 H 
ATOM     15  H   LIG d   1       4.047  -3.632  -5.445  0.00  0.00     0.026 H 
BRANCH  13  16
ATOM     16  C   LIG d   1       5.150  -5.479  -5.568  0.00  0.00    -0.065 C 
ATOM     17  H   LIG d   1       4.850  -6.195  -4.802  0.00  0.00     0.023 H 
ATOM     18  H   LIG d   1       4.534  -5.618  -6.456  0.00  0.00     0.023 H 
ATOM     19  H   LIG d   1       6.198  -5.638  -5.824  0.00  0.00     0.023 H 
ENDBRANCH  13  16
ENDBRANCH  10  13
ENDBRANCH   7  10
ENDBRANCH   4   7
ENDBRANCH   1   4
BRANCH   1  20
ATOM     20  O   LIG d   1       5.987  -0.114  -4.376  0.00  0.00    -0.465 OA
BRANCH  20  21
ATOM     21  C   LIG d   1       5.668   0.609  -3.291  0.00  0.00     0.307 C 
ATOM     22  O   LIG d   1       6.269   1.628  -3.046  0.00  0.00    -0.251 OA
BRANCH  21  23
ATOM     23  C   LIG d   1       4.566   0.144  -2.375  0.00  0.00     0.047 C 
ATOM     24  H   LIG d   1       4.998  -0.222  -1.444  0.00  0.00     0.038 H 
ATOM     25  H   LIG d   1       3.895   0.976  -2.162  0.00  0.00     0.038 H 
BRANCH  23  26
ATOM     26  C   LIG d   1       3.780  -0.982  -3.051  0.00  0.00    -0.037 C 
ATOM     27  H   LIG d   1       4.246  -1.228  -4.005  0.00  0.00     0.030 H 
BRANCH  26  28
ATOM     28  C   LIG d   1       3.782  -2.218  -2.149  0.00  0.00    -0.062 C 
ATOM     29  H   LIG d   1       4.278  -1.980  -1.208  0.00  0.00     0.023 H 
ATOM     30  H   LIG d   1       2.754  -2.524  -1.951  0.00  0.00     0.023 H 
ATOM     31  H   LIG d   1       4.313  -3.029  -2.646  0.00  0.00     0.023 H 
ENDBRANCH  26  28
BRANCH  26  32
ATOM     32  C   LIG d   1       2.339  -0.527  -3.291  0.00  0.00    -0.062 C 
ATOM     33  H   LIG d   1       1.696  -1.401  -3.397  0.00  0.00     0.023 H 
ATOM     34  H   LIG d   1       2.002   0.071  -2.445  0.00  0.00     0.023 H 
ATOM     35  H   LIG d   1       2.293   0.071  -4.200  0.00  0.00     0.023 H 
ENDBRANCH  26  32
ENDBRANCH  23  26
ENDBRANCH  21  23
ENDBRANCH  20  21
ENDBRANCH   1  20
TORSDOF 11
ENDMDL
MODEL 8
REMARK VINA RESULT:      -3.9      1.307      6.051
REMARK  11 active torsions:
REMARK  status: ('A' for Active; 'I' for Inactive)
REMARK    1  A    between atoms: C_1  and  C_2 
REMARK    2  A    between atoms: C_2  and  C_3 
REMARK    3  A    between atoms: C_3  and  C_4 
REMARK    4  A    between atoms: C_4  and  C_5 
REMARK    5  A    between atoms: C_5  and  C_6 
REMARK    6  A    between atoms: C_6  and  O_7 
REMARK    7  A    between atoms: O_7  and  C_8 
REMARK    8  A    between atoms: C_8  and  C_10 
REMARK    9  A    between atoms: C_10  and  C_11 
REMARK   10  A    between atoms: C_11  and  C_12 
REMARK   11  A    between atoms: C_11  and  C_13 
ROOT
ATOM      1  C   LIG d   1       3.080   0.146  -6.937  0.00  0.00     0.092 C 
ATOM      2  H   LIG d   1       3.401  -0.735  -7.494  0.00  0.00     0.070 H 
ATOM      3  H   LIG d   1       2.120  -0.055  -6.462  0.00  0.00     0.070 H 
ENDROOT
BRANCH   1   4
ATOM      4  C   LIG d   1       2.938   1.330  -7.895  0.00  0.00    -0.018 C 
ATOM      5  H   LIG d   1       2.115   1.965  -7.567  0.00  0.00     0.030 H 
ATOM      6  H   LIG d   1       3.863   1.907  -7.899  0.00  0.00     0.030 H 
BRANCH   4   7
ATOM      7  C   LIG d   1       2.652   0.814  -9.306  0.00  0.00    -0.050 C 
ATOM      8  H   LIG d   1       2.118   1.579  -9.872  0.00  0.00     0.027 H 
ATOM      9  H   LIG d   1       3.593   0.584  -9.806  0.00  0.00     0.027 H 
BRANCH   7  10
ATOM     10  C   LIG d   1       1.795  -0.451  -9.224  0.00  0.00    -0.053 C 
ATOM     11  H   LIG d   1       2.291  -1.184  -8.588  0.00  0.00     0.026 H 
ATOM     12  H   LIG d   1       0.821  -0.203  -8.802  0.00  0.00     0.026 H 
BRANCH  10  13
ATOM     13  C   LIG d   1       1.610  -1.033 -10.627  0.00  0.00    -0.056 C 
ATOM     14  H   LIG d   1       0.756  -0.557 -11.108  0.00  0.00     0.026 H 
ATOM     15  H   LIG d   1       2.508  -0.852 -11.217  0.00  0.00     0.026 H 
BRANCH  13  16
ATOM     16  C   LIG d   1       1.362  -2.540 -10.523  0.00  0.00    -0.065 C 
ATOM     17  H   LIG d   1       1.789  -2.916  -9.594  0.00  0.00     0.023 H 
ATOM     18  H   LIG d   1       0.289  -2.732 -10.533  0.00  0.00     0.023 H 
ATOM     19  H   LIG d   1       1.829  -3.044 -11.369  0.00  0.00     0.023 H 
ENDBRANCH  13  16
ENDBRANCH  10  13
ENDBRANCH   7  10
ENDBRANCH   4   7
ENDBRANCH   1   4
BRANCH   1  20
ATOM     20  O   LIG d   1       4.066   0.461  -5.920  0.00  0.00    -0.465 OA
BRANCH  20  21
ATOM     21  C   LIG d   1       4.505  -0.555  -5.161  0.00  0.00     0.307 C 
ATOM     22  O   LIG d   1       4.338  -1.696  -5.522  0.00  0.00    -0.251 OA
BRANCH  21  23
ATOM     23  C   LIG d   1       5.200  -0.273  -3.853  0.00  0.00     0.047 C 
ATOM     24  H   LIG d   1       5.951  -1.041  -3.668  0.00  0.00     0.038 H 
ATOM     25  H   LIG d   1       5.681   0.703  -3.900  0.00  0.00     0.038 H 
BRANCH  23  26
ATOM     26  C   LIG d   1       4.173  -0.281  -2.718  0.00  0.00    -0.037 C 
ATOM     27  H   LIG d   1       3.177  -0.115  -3.128  0.00  0.00     0.030 H 
BRANCH  26  28
ATOM     28  C   LIG d   1       4.211  -1.633  -2.004  0.00  0.00    -0.062 C 
ATOM     29  H   LIG d   1       4.450  -1.481  -0.951  0.00  0.00     0.023 H 
ATOM     30  H   LIG d   1       3.238  -2.117  -2.090  0.00  0.00     0.023 H 
ATOM     31  H   LIG d   1       4.972  -2.264  -2.462  0.00  0.00     0.023 H 
ENDBRANCH  26  28
BRANCH  26  32
ATOM     32  C   LIG d   1       4.506   0.832  -1.722  0.00  0.00    -0.062 C 
ATOM     33  H   LIG d   1       3.625   1.055  -1.120  0.00  0.00     0.023 H 
ATOM     34  H   LIG d   1       5.317   0.507  -1.072  0.00  0.00     0.023 H 
ATOM     35  H   LIG d   1       4.811   1.726  -2.264  0.00  0.00     0.023 H 
ENDBRANCH  26  32
ENDBRANCH  23  26
ENDBRANCH  21  23
ENDBRANCH  20  21
ENDBRANCH   1  20
TORSDOF 11
ENDMDL
MODEL 9
REMARK VINA RESULT:      -3.9      4.290      5.928
REMARK  11 active torsions:
REMARK  status: ('A' for Active; 'I' for Inactive)
REMARK    1  A    between atoms: C_1  and  C_2 
REMARK    2  A    between atoms: C_2  and  C_3 
REMARK    3  A    between atoms: C_3  and  C_4 
REMARK    4  A    between atoms: C_4  and  C_5 
REMARK    5  A    between atoms: C_5  and  C_6 
REMARK    6  A    between atoms: C_6  and  O_7 
REMARK    7  A    between atoms: O_7  and  C_8 
REMARK    8  A    between atoms: C_8  and  C_10 
REMARK    9  A    between atoms: C_10  and  C_11 
REMARK   10  A    between atoms: C_11  and  C_12 
REMARK   11  A    between atoms: C_11  and  C_13 
ROOT
ATOM      1  C   LIG d   1       7.461   0.784  -3.889  0.00  0.00     0.092 C 
ATOM      2  H   LIG d   1       7.969   0.187  -4.647  0.00  0.00     0.070 H 
ATOM      3  H   LIG d   1       7.957   0.650  -2.928  0.00  0.00     0.070 H 
ENDROOT
BRANCH   1   4
ATOM      4  C   LIG d   1       6.003   0.332  -3.778  0.00  0.00    -0.018 C 
ATOM      5  H   LIG d   1       5.508   0.468  -4.739  0.00  0.00     0.030 H 
ATOM      6  H   LIG d   1       5.969  -0.721  -3.497  0.00  0.00     0.030 H 
BRANCH   4   7
ATOM      7  C   LIG d   1       5.289   1.168  -2.714  0.00  0.00    -0.050 C 
ATOM      8  H   LIG d   1       6.025   1.738  -2.145  0.00  0.00     0.027 H 
ATOM      9  H   LIG d   1       4.594   1.853  -3.197  0.00  0.00     0.027 H 
BRANCH   7  10
ATOM     10  C   LIG d   1       4.521   0.242  -1.769  0.00  0.00    -0.053 C 
ATOM     11  H   LIG d   1       5.223  -0.404  -1.242  0.00  0.00     0.026 H 
ATOM     12  H   LIG d   1       3.966   0.841  -1.046  0.00  0.00     0.026 H 
BRANCH  10  13
ATOM     13  C   LIG d   1       3.546  -0.617  -2.576  0.00  0.00    -0.056 C 
ATOM     14  H   LIG d   1       2.523  -0.373  -2.288  0.00  0.00     0.026 H 
ATOM     15  H   LIG d   1       3.680  -0.418  -3.639  0.00  0.00     0.026 H 
BRANCH  13  16
ATOM     16  C   LIG d   1       3.816  -2.096  -2.294  0.00  0.00    -0.065 C 
ATOM     17  H   LIG d   1       4.358  -2.194  -1.354  0.00  0.00     0.023 H 
ATOM     18  H   LIG d   1       2.869  -2.631  -2.225  0.00  0.00     0.023 H 
ATOM     19  H   LIG d   1       4.413  -2.517  -3.104  0.00  0.00     0.023 H 
ENDBRANCH  13  16
ENDBRANCH  10  13
ENDBRANCH   7  10
ENDBRANCH   4   7
ENDBRANCH   1   4
BRANCH   1  20
ATOM     20  O   LIG d   1       7.507   2.185  -4.266  0.00  0.00    -0.465 OA
BRANCH  20  21
ATOM     21  C   LIG d   1       8.420   2.539  -5.184  0.00  0.00     0.307 C 
ATOM     22  O   LIG d   1       8.385   2.054  -6.290  0.00  0.00    -0.251 OA
BRANCH  21  23
ATOM     23  C   LIG d   1       9.494   3.536  -4.832  0.00  0.00     0.047 C 
ATOM     24  H   LIG d   1      10.448   3.202  -5.242  0.00  0.00     0.038 H 
ATOM     25  H   LIG d   1       9.239   4.509  -5.249  0.00  0.00     0.038 H 
BRANCH  23  26
ATOM     26  C   LIG d   1       9.606   3.648  -3.309  0.00  0.00    -0.037 C 
ATOM     27  H   LIG d   1       8.673   3.323  -2.851  0.00  0.00     0.030 H 
BRANCH  26  28
ATOM     28  C   LIG d   1      10.753   2.765  -2.815  0.00  0.00    -0.062 C 
ATOM     29  H   LIG d   1      10.346   1.905  -2.282  0.00  0.00     0.023 H 
ATOM     30  H   LIG d   1      11.339   2.419  -3.668  0.00  0.00     0.023 H 
ATOM     31  H   LIG d   1      11.391   3.339  -2.144  0.00  0.00     0.023 H 
ENDBRANCH  26  28
BRANCH  26  32
ATOM     32  C   LIG d   1       9.882   5.104  -2.925  0.00  0.00    -0.062 C 
ATOM     33  H   LIG d   1      10.917   5.352  -3.161  0.00  0.00     0.023 H 
ATOM     34  H   LIG d   1       9.215   5.760  -3.483  0.00  0.00     0.023 H 
ATOM     35  H   LIG d   1       9.711   5.236  -1.857  0.00  0.00     0.023 H 
ENDBRANCH  26  32
ENDBRANCH  23  26
ENDBRANCH  21  23
ENDBRANCH  20  21
ENDBRANCH   1  20
TORSDOF 11
ENDMDL
MODEL 10
REMARK VINA RESULT:      -3.8      1.653      2.388
REMARK  11 active torsions:
REMARK  status: ('A' for Active; 'I' for Inactive)
REMARK    1  A    between atoms: C_1  and  C_2 
REMARK    2  A    between atoms: C_2  and  C_3 
REMARK    3  A    between atoms: C_3  and  C_4 
REMARK    4  A    between atoms: C_4  and  C_5 
REMARK    5  A    between atoms: C_5  and  C_6 
REMARK    6  A    between atoms: C_6  and  O_7 
REMARK    7  A    between atoms: O_7  and  C_8 
REMARK    8  A    between atoms: C_8  and  C_10 
REMARK    9  A    between atoms: C_10  and  C_11 
REMARK   10  A    between atoms: C_11  and  C_12 
REMARK   11  A    between atoms: C_11  and  C_13 
ROOT
ATOM      1  C   LIG d   1       4.543  -0.569  -6.372  0.00  0.00     0.092 C 
ATOM      2  H   LIG d   1       4.892  -1.420  -6.958  0.00  0.00     0.070 H 
ATOM      3  H   LIG d   1       5.325   0.189  -6.332  0.00  0.00     0.070 H 
ENDROOT
BRANCH   1   4
ATOM      4  C   LIG d   1       4.207  -1.032  -4.953  0.00  0.00    -0.018 C 
ATOM      5  H   LIG d   1       3.844  -2.059  -4.983  0.00  0.00     0.030 H 
ATOM      6  H   LIG d   1       5.102  -0.981  -4.333  0.00  0.00     0.030 H 
BRANCH   4   7
ATOM      7  C   LIG d   1       3.125  -0.126  -4.364  0.00  0.00    -0.050 C 
ATOM      8  H   LIG d   1       3.469   0.909  -4.379  0.00  0.00     0.027 H 
ATOM      9  H   LIG d   1       2.215  -0.214  -4.956  0.00  0.00     0.027 H 
BRANCH   7  10
ATOM     10  C   LIG d   1       2.838  -0.546  -2.920  0.00  0.00    -0.053 C 
ATOM     11  H   LIG d   1       2.145   0.163  -2.467  0.00  0.00     0.026 H 
ATOM     12  H   LIG d   1       2.394  -1.542  -2.913  0.00  0.00     0.026 H 
BRANCH  10  13
ATOM     13  C   LIG d   1       4.144  -0.562  -2.124  0.00  0.00    -0.056 C 
ATOM     14  H   LIG d   1       4.014  -1.166  -1.225  0.00  0.00     0.026 H 
ATOM     15  H   LIG d   1       4.938  -0.990  -2.737  0.00  0.00     0.026 H 
BRANCH  13  16
ATOM     16  C   LIG d   1       4.517   0.867  -1.729  0.00  0.00    -0.065 C 
ATOM     17  H   LIG d   1       3.927   1.573  -2.313  0.00  0.00     0.023 H 
ATOM     18  H   LIG d   1       4.313   1.016  -0.668  0.00  0.00     0.023 H 
ATOM     19  H   LIG d   1       5.577   1.033  -1.921  0.00  0.00     0.023 H 
ENDBRANCH  13  16
ENDBRANCH  10  13
ENDBRANCH   7  10
ENDBRANCH   4   7
ENDBRANCH   1   4
BRANCH   1  20
ATOM     20  O   LIG d   1       3.357  -0.008  -6.993  0.00  0.00    -0.465 OA
BRANCH  20  21
ATOM     21  C   LIG d   1       3.545   0.799  -8.048  0.00  0.00     0.307 C 
ATOM     22  O   LIG d   1       4.558   1.452  -8.137  0.00  0.00    -0.251 OA
BRANCH  21  23
ATOM     23  C   LIG d   1       2.489   0.897  -9.119  0.00  0.00     0.047 C 
ATOM     24  H   LIG d   1       1.556   0.471  -8.750  0.00  0.00     0.038 H 
ATOM     25  H   LIG d   1       2.333   1.943  -9.382  0.00  0.00     0.038 H 
BRANCH  23  26
ATOM     26  C   LIG d   1       2.947   0.124 -10.359  0.00  0.00    -0.037 C 
ATOM     27  H   LIG d   1       2.093  -0.052 -11.012  0.00  0.00     0.030 H 
BRANCH  26  28
ATOM     28  C   LIG d   1       4.003   0.939 -11.108  0.00  0.00    -0.062 C 
ATOM     29  H   LIG d   1       4.986   0.499 -10.942  0.00  0.00     0.023 H 
ATOM     30  H   LIG d   1       3.777   0.934 -12.174  0.00  0.00     0.023 H 
ATOM     31  H   LIG d   1       3.998   1.965 -10.740  0.00  0.00     0.023 H 
ENDBRANCH  26  28
BRANCH  26  32
ATOM     32  C   LIG d   1       3.546  -1.217  -9.931  0.00  0.00    -0.062 C 
ATOM     33  H   LIG d   1       3.589  -1.886 -10.791  0.00  0.00     0.023 H 
ATOM     34  H   LIG d   1       4.553  -1.059  -9.545  0.00  0.00     0.023 H 
ATOM     35  H   LIG d   1       2.925  -1.662  -9.155  0.00  0.00     0.023 H 
ENDBRANCH  26  32
ENDBRANCH  23  26
ENDBRANCH  21  23
ENDBRANCH  20  21
ENDBRANCH   1  20
TORSDOF 11
ENDMDL
