MODEL 1
REMARK VINA RESULT:      -6.8      0.000      0.000
REMARK  6 active torsions:
REMARK  status: ('A' for Active; 'I' for Inactive)
REMARK    1  A    between atoms: C_1  and  C_2 
REMARK    2  A    between atoms: C_5  and  C_8 
REMARK    3  A    between atoms: C_8  and  C_9 
REMARK    4  A    between atoms: C_9  and  C_24 
REMARK    5  A    between atoms: N_15  and  C_18 
REMARK    6  A    between atoms: C_24  and  N_25 
ROOT
ATOM      1  C   LIG d   1       5.930  -1.707  -7.680  0.00  0.00     0.140 A 
ATOM      2  C   LIG d   1       7.288  -2.374  -7.576  0.00  0.00     0.237 A 
ATOM      3  O   LIG d   1       7.856  -2.801  -8.559  0.00  0.00    -0.274 OA
ATOM      4  N   LIG d   1       7.841  -2.476  -6.349  0.00  0.00    -0.238 N 
ATOM      5  C   LIG d   1       7.228  -2.010  -5.255  0.00  0.00     0.319 A 
ATOM      6  O   LIG d   1       7.799  -2.142  -4.191  0.00  0.00    -0.251 OA
ATOM      7  N   LIG d   1       6.033  -1.409  -5.247  0.00  0.00    -0.193 N 
ATOM      8  C   LIG d   1       5.323  -1.215  -6.379  0.00  0.00     0.244 A 
ATOM      9  O   LIG d   1       4.241  -0.669  -6.357  0.00  0.00    -0.274 OA
ATOM     10  H   LIG d   1       8.710  -2.898  -6.257  0.00  0.00     0.159 HD
ENDROOT
BRANCH   1  11
ATOM     11  C   LIG d   1       4.957  -2.705  -8.312  0.00  0.00    -0.004 C 
ATOM     12  H   LIG d   1       5.238  -2.879  -9.350  0.00  0.00     0.033 H 
ATOM     13  H   LIG d   1       3.945  -2.302  -8.272  0.00  0.00     0.033 H 
BRANCH  11  14
ATOM     14  C   LIG d   1       5.008  -4.006  -7.553  0.00  0.00    -0.046 A 
ATOM     15  C   LIG d   1       4.380  -4.117  -6.326  0.00  0.00    -0.058 A 
ATOM     16  C   LIG d   1       4.426  -5.311  -5.631  0.00  0.00    -0.059 A 
ATOM     17  H   LIG d   1       3.852  -3.271  -5.912  0.00  0.00     0.062 H 
ATOM     18  C   LIG d   1       5.101  -6.394  -6.162  0.00  0.00    -0.050 A 
ATOM     19  H   LIG d   1       3.935  -5.396  -4.673  0.00  0.00     0.062 H 
ATOM     20  C   LIG d   1       5.734  -6.282  -7.386  0.00  0.00    -0.059 A 
ATOM     21  C   LIG d   1       5.684  -5.090  -8.083  0.00  0.00    -0.058 A 
ATOM     22  H   LIG d   1       6.264  -7.128  -7.798  0.00  0.00     0.062 H 
ATOM     23  H   LIG d   1       6.174  -5.004  -9.042  0.00  0.00     0.062 H 
BRANCH  18  24
ATOM     24  C   LIG d   1       5.151  -7.696  -5.403  0.00  0.00    -0.040 C 
ATOM     25  H   LIG d   1       6.130  -7.806  -4.937  0.00  0.00     0.028 H 
ATOM     26  H   LIG d   1       4.379  -7.698  -4.634  0.00  0.00     0.028 H 
ATOM     27  H   LIG d   1       4.982  -8.524  -6.092  0.00  0.00     0.028 H 
ENDBRANCH  18  24
ENDBRANCH  11  14
ENDBRANCH   1  11
BRANCH   1  28
ATOM     28  C   LIG d   1       6.062  -0.513  -8.626  0.00  0.00     0.022 C 
ATOM     29  H   LIG d   1       5.692   0.385  -8.132  0.00  0.00     0.044 H 
ATOM     30  H   LIG d   1       7.111  -0.374  -8.891  0.00  0.00     0.044 H 
BRANCH  28  31
ATOM     31  N   LIG d   1       5.279  -0.762  -9.843  0.00  0.00    -0.300 N 
ATOM     32  C   LIG d   1       6.158  -0.977 -11.001  0.00  0.00     0.007 C 
ATOM     33  C   LIG d   1       5.281  -1.401 -12.192  0.00  0.00     0.013 C 
ATOM     34  H   LIG d   1       6.683  -0.053 -11.242  0.00  0.00     0.043 H 
ATOM     35  H   LIG d   1       6.878  -1.764 -10.776  0.00  0.00     0.043 H 
ATOM     36  C   LIG d   1       4.357  -0.230 -12.541  0.00  0.00    -0.038 C 
ATOM     37  H   LIG d   1       5.901  -1.667 -13.048  0.00  0.00     0.038 H 
ATOM     38  C   LIG d   1       4.443  -2.583 -11.756  0.00  0.00     0.026 C 
ATOM     39  C   LIG d   1       3.477   0.045 -11.317  0.00  0.00    -0.009 C 
ATOM     40  H   LIG d   1       3.731  -0.493 -13.394  0.00  0.00     0.028 H 
ATOM     41  H   LIG d   1       4.951   0.653 -12.776  0.00  0.00     0.028 H 
ATOM     42  C   LIG d   1       4.333   0.331 -10.092  0.00  0.00     0.003 C 
ATOM     43  H   LIG d   1       2.868   0.926 -11.523  0.00  0.00     0.033 H 
ATOM     44  C   LIG d   1       2.552  -1.137 -11.098  0.00  0.00     0.030 C 
ATOM     45  H   LIG d   1       3.685   0.448  -9.223  0.00  0.00     0.043 H 
ATOM     46  H   LIG d   1       4.889   1.256 -10.250  0.00  0.00     0.043 H 
ATOM     47  N   LIG d   1       3.232  -2.426 -11.174  0.00  0.00    -0.312 N 
ATOM     48  H   LIG d   1       2.084  -1.043 -10.117  0.00  0.00     0.050 H 
ATOM     49  H   LIG d   1       1.772  -1.123 -11.860  0.00  0.00     0.050 H 
ATOM     50  C   LIG d   1       2.585  -3.502 -10.663  0.00  0.00     0.252 C 
ATOM     51  C   LIG d   1       3.079  -4.798 -10.869  0.00  0.00     0.003 C 
ATOM     52  O   LIG d   1       1.563  -3.342 -10.015  0.00  0.00    -0.268 OA
ATOM     53  C   LIG d   1       4.258  -4.961 -11.535  0.00  0.00    -0.055 C 
ATOM     54  H   LIG d   1       2.532  -5.656 -10.509  0.00  0.00     0.067 H 
ATOM     55  C   LIG d   1       4.951  -3.825 -11.971  0.00  0.00    -0.042 C 
ATOM     56  H   LIG d   1       4.652  -5.949 -11.722  0.00  0.00     0.062 H 
ATOM     57  H   LIG d   1       5.896  -3.937 -12.481  0.00  0.00     0.064 H 
ENDBRANCH  28  31
ENDBRANCH   1  28
BRANCH   7  58
ATOM     58  C   LIG d   1       5.501  -0.967  -4.028  0.00  0.00     0.045 A 
ATOM     59  C   LIG d   1       4.751  -1.831  -3.242  0.00  0.00    -0.040 A 
ATOM     60  C   LIG d   1       4.233  -1.395  -2.038  0.00  0.00    -0.060 A 
ATOM     61  H   LIG d   1       4.576  -2.845  -3.570  0.00  0.00     0.064 H 
ATOM     62  C   LIG d   1       4.452  -0.095  -1.621  0.00  0.00    -0.062 A 
ATOM     63  H   LIG d   1       3.654  -2.067  -1.425  0.00  0.00     0.062 H 
ATOM     64  C   LIG d   1       5.195   0.771  -2.404  0.00  0.00    -0.060 A 
ATOM     65  H   LIG d   1       4.044   0.246  -0.681  0.00  0.00     0.062 H 
ATOM     66  C   LIG d   1       5.720   0.338  -3.606  0.00  0.00    -0.040 A 
ATOM     67  H   LIG d   1       5.365   1.785  -2.074  0.00  0.00     0.062 H 
ATOM     68  H   LIG d   1       6.300   1.013  -4.217  0.00  0.00     0.064 H 
ENDBRANCH   7  58
TORSDOF 6
ENDMDL
MODEL 2
REMARK VINA RESULT:      -6.7      1.560      1.903
REMARK  6 active torsions:
REMARK  status: ('A' for Active; 'I' for Inactive)
REMARK    1  A    between atoms: C_1  and  C_2 
REMARK    2  A    between atoms: C_5  and  C_8 
REMARK    3  A    between atoms: C_8  and  C_9 
REMARK    4  A    between atoms: C_9  and  C_24 
REMARK    5  A    between atoms: N_15  and  C_18 
REMARK    6  A    between atoms: C_24  and  N_25 
ROOT
ATOM      1  C   LIG d   1       5.638  -0.501  -7.784  0.00  0.00     0.140 A 
ATOM      2  C   LIG d   1       7.076  -0.030  -7.895  0.00  0.00     0.237 A 
ATOM      3  O   LIG d   1       7.628   0.053  -8.972  0.00  0.00    -0.274 OA
ATOM      4  N   LIG d   1       7.717   0.291  -6.752  0.00  0.00    -0.238 N 
ATOM      5  C   LIG d   1       7.122   0.205  -5.557  0.00  0.00     0.319 A 
ATOM      6  O   LIG d   1       7.773   0.515  -4.580  0.00  0.00    -0.251 OA
ATOM      7  N   LIG d   1       5.861  -0.199  -5.360  0.00  0.00    -0.193 N 
ATOM      8  C   LIG d   1       5.059  -0.563  -6.382  0.00  0.00     0.244 A 
ATOM      9  O   LIG d   1       3.919  -0.927  -6.188  0.00  0.00    -0.274 OA
ATOM     10  H   LIG d   1       8.637   0.595  -6.798  0.00  0.00     0.159 HD
ENDROOT
BRANCH   1  11
ATOM     11  C   LIG d   1       5.545  -1.899  -8.399  0.00  0.00    -0.004 C 
ATOM     12  H   LIG d   1       6.038  -1.901  -9.371  0.00  0.00     0.033 H 
ATOM     13  H   LIG d   1       4.498  -2.174  -8.522  0.00  0.00     0.033 H 
BRANCH  11  14
ATOM     14  C   LIG d   1       6.221  -2.893  -7.491  0.00  0.00    -0.046 A 
ATOM     15  C   LIG d   1       5.471  -3.643  -6.604  0.00  0.00    -0.058 A 
ATOM     16  C   LIG d   1       6.091  -4.555  -5.772  0.00  0.00    -0.059 A 
ATOM     17  H   LIG d   1       4.399  -3.516  -6.563  0.00  0.00     0.062 H 
ATOM     18  C   LIG d   1       7.463  -4.719  -5.826  0.00  0.00    -0.050 A 
ATOM     19  H   LIG d   1       5.504  -5.140  -5.080  0.00  0.00     0.062 H 
ATOM     20  C   LIG d   1       8.214  -3.966  -6.709  0.00  0.00    -0.059 A 
ATOM     21  C   LIG d   1       7.594  -3.056  -7.544  0.00  0.00    -0.058 A 
ATOM     22  H   LIG d   1       9.286  -4.092  -6.748  0.00  0.00     0.062 H 
ATOM     23  H   LIG d   1       8.181  -2.472  -8.237  0.00  0.00     0.062 H 
BRANCH  18  24
ATOM     24  C   LIG d   1       8.139  -5.715  -4.918  0.00  0.00    -0.040 C 
ATOM     25  H   LIG d   1       8.217  -6.675  -5.428  0.00  0.00     0.028 H 
ATOM     26  H   LIG d   1       9.137  -5.356  -4.664  0.00  0.00     0.028 H 
ATOM     27  H   LIG d   1       7.552  -5.833  -4.008  0.00  0.00     0.028 H 
ENDBRANCH  18  24
ENDBRANCH  11  14
ENDBRANCH   1  11
BRANCH   1  28
ATOM     28  C   LIG d   1       4.767   0.441  -8.617  0.00  0.00     0.022 C 
ATOM     29  H   LIG d   1       4.125   1.022  -7.956  0.00  0.00     0.044 H 
ATOM     30  H   LIG d   1       5.406   1.116  -9.188  0.00  0.00     0.044 H 
BRANCH  28  31
ATOM     31  N   LIG d   1       3.939  -0.346  -9.540  0.00  0.00    -0.300 N 
ATOM     32  C   LIG d   1       4.234  -0.001 -10.938  0.00  0.00     0.007 C 
ATOM     33  C   LIG d   1       3.463  -0.978 -11.842  0.00  0.00     0.013 C 
ATOM     34  H   LIG d   1       3.912   1.020 -11.142  0.00  0.00     0.043 H 
ATOM     35  H   LIG d   1       5.305  -0.096 -11.123  0.00  0.00     0.043 H 
ATOM     36  C   LIG d   1       1.965  -0.741 -11.628  0.00  0.00    -0.038 C 
ATOM     37  H   LIG d   1       3.730  -0.823 -12.888  0.00  0.00     0.038 H 
ATOM     38  C   LIG d   1       3.810  -2.386 -11.410  0.00  0.00     0.026 C 
ATOM     39  C   LIG d   1       1.655  -1.036 -10.157  0.00  0.00    -0.009 C 
ATOM     40  H   LIG d   1       1.388  -1.409 -12.268  0.00  0.00     0.028 H 
ATOM     41  H   LIG d   1       1.718   0.297 -11.857  0.00  0.00     0.028 H 
ATOM     42  C   LIG d   1       2.513  -0.174  -9.243  0.00  0.00     0.003 C 
ATOM     43  H   LIG d   1       0.608  -0.797  -9.972  0.00  0.00     0.033 H 
ATOM     44  C   LIG d   1       1.863  -2.517  -9.897  0.00  0.00     0.030 C 
ATOM     45  H   LIG d   1       2.327  -0.458  -8.207  0.00  0.00     0.043 H 
ATOM     46  H   LIG d   1       2.243   0.873  -9.379  0.00  0.00     0.043 H 
ATOM     47  N   LIG d   1       3.111  -3.032 -10.449  0.00  0.00    -0.312 N 
ATOM     48  H   LIG d   1       1.856  -2.691  -8.821  0.00  0.00     0.050 H 
ATOM     49  H   LIG d   1       1.040  -3.074 -10.347  0.00  0.00     0.050 H 
ATOM     50  C   LIG d   1       3.548  -4.230  -9.987  0.00  0.00     0.252 C 
ATOM     51  C   LIG d   1       4.626  -4.883 -10.601  0.00  0.00     0.003 C 
ATOM     52  O   LIG d   1       2.999  -4.744  -9.026  0.00  0.00    -0.268 OA
ATOM     53  C   LIG d   1       5.276  -4.267 -11.631  0.00  0.00    -0.055 C 
ATOM     54  H   LIG d   1       4.936  -5.861 -10.266  0.00  0.00     0.067 H 
ATOM     55  C   LIG d   1       4.860  -2.990 -12.026  0.00  0.00    -0.042 C 
ATOM     56  H   LIG d   1       6.099  -4.756 -12.132  0.00  0.00     0.062 H 
ATOM     57  H   LIG d   1       5.378  -2.481 -12.825  0.00  0.00     0.064 H 
ENDBRANCH  28  31
ENDBRANCH   1  28
BRANCH   7  58
ATOM     58  C   LIG d   1       5.359  -0.245  -4.052  0.00  0.00     0.045 A 
ATOM     59  C   LIG d   1       5.234  -1.462  -3.397  0.00  0.00    -0.040 A 
ATOM     60  C   LIG d   1       4.744  -1.504  -2.106  0.00  0.00    -0.060 A 
ATOM     61  H   LIG d   1       5.525  -2.376  -3.895  0.00  0.00     0.064 H 
ATOM     62  C   LIG d   1       4.367  -0.336  -1.470  0.00  0.00    -0.062 A 
ATOM     63  H   LIG d   1       4.652  -2.450  -1.595  0.00  0.00     0.062 H 
ATOM     64  C   LIG d   1       4.485   0.879  -2.122  0.00  0.00    -0.060 A 
ATOM     65  H   LIG d   1       3.981  -0.370  -0.462  0.00  0.00     0.062 H 
ATOM     66  C   LIG d   1       4.980   0.927  -3.411  0.00  0.00    -0.040 A 
ATOM     67  H   LIG d   1       4.190   1.790  -1.622  0.00  0.00     0.062 H 
ATOM     68  H   LIG d   1       5.072   1.875  -3.919  0.00  0.00     0.064 H 
ENDBRANCH   7  58
TORSDOF 6
ENDMDL
MODEL 3
REMARK VINA RESULT:      -6.6      2.481      5.113
REMARK  6 active torsions:
REMARK  status: ('A' for Active; 'I' for Inactive)
REMARK    1  A    between atoms: C_1  and  C_2 
REMARK    2  A    between atoms: C_5  and  C_8 
REMARK    3  A    between atoms: C_8  and  C_9 
REMARK    4  A    between atoms: C_9  and  C_24 
REMARK    5  A    between atoms: N_15  and  C_18 
REMARK    6  A    between atoms: C_24  and  N_25 
ROOT
ATOM      1  C   LIG d   1       7.508  -2.487  -7.405  0.00  0.00     0.140 A 
ATOM      2  C   LIG d   1       8.591  -1.671  -6.725  0.00  0.00     0.237 A 
ATOM      3  O   LIG d   1       9.615  -2.190  -6.331  0.00  0.00    -0.274 OA
ATOM      4  N   LIG d   1       8.374  -0.348  -6.574  0.00  0.00    -0.238 N 
ATOM      5  C   LIG d   1       7.251   0.239  -7.003  0.00  0.00     0.319 A 
ATOM      6  O   LIG d   1       7.139   1.436  -6.827  0.00  0.00    -0.251 OA
ATOM      7  N   LIG d   1       6.242  -0.395  -7.611  0.00  0.00    -0.193 N 
ATOM      8  C   LIG d   1       6.275  -1.723  -7.852  0.00  0.00     0.244 A 
ATOM      9  O   LIG d   1       5.353  -2.285  -8.404  0.00  0.00    -0.274 OA
ATOM     10  H   LIG d   1       9.053   0.194  -6.142  0.00  0.00     0.159 HD
ENDROOT
BRANCH   1  11
ATOM     11  C   LIG d   1       7.062  -3.586  -6.438  0.00  0.00    -0.004 C 
ATOM     12  H   LIG d   1       7.935  -4.137  -6.087  0.00  0.00     0.033 H 
ATOM     13  H   LIG d   1       6.384  -4.268  -6.950  0.00  0.00     0.033 H 
BRANCH  11  14
ATOM     14  C   LIG d   1       6.354  -2.964  -5.262  0.00  0.00    -0.046 A 
ATOM     15  C   LIG d   1       7.085  -2.444  -4.210  0.00  0.00    -0.058 A 
ATOM     16  C   LIG d   1       6.435  -1.873  -3.133  0.00  0.00    -0.059 A 
ATOM     17  H   LIG d   1       8.164  -2.484  -4.231  0.00  0.00     0.062 H 
ATOM     18  C   LIG d   1       5.054  -1.821  -3.107  0.00  0.00    -0.050 A 
ATOM     19  H   LIG d   1       7.007  -1.468  -2.310  0.00  0.00     0.062 H 
ATOM     20  C   LIG d   1       4.323  -2.346  -4.156  0.00  0.00    -0.059 A 
ATOM     21  C   LIG d   1       4.972  -2.913  -5.235  0.00  0.00    -0.058 A 
ATOM     22  H   LIG d   1       3.244  -2.308  -4.133  0.00  0.00     0.062 H 
ATOM     23  H   LIG d   1       4.401  -3.318  -6.058  0.00  0.00     0.062 H 
BRANCH  18  24
ATOM     24  C   LIG d   1       4.345  -1.198  -1.931  0.00  0.00    -0.040 C 
ATOM     25  H   LIG d   1       4.872  -0.294  -1.628  0.00  0.00     0.028 H 
ATOM     26  H   LIG d   1       3.323  -0.946  -2.214  0.00  0.00     0.028 H 
ATOM     27  H   LIG d   1       4.329  -1.904  -1.100  0.00  0.00     0.028 H 
ENDBRANCH  18  24
ENDBRANCH  11  14
ENDBRANCH   1  11
BRANCH   1  28
ATOM     28  C   LIG d   1       8.124  -3.158  -8.633  0.00  0.00     0.022 C 
ATOM     29  H   LIG d   1       7.921  -2.555  -9.517  0.00  0.00     0.044 H 
ATOM     30  H   LIG d   1       9.202  -3.249  -8.495  0.00  0.00     0.044 H 
BRANCH  28  31
ATOM     31  N   LIG d   1       7.539  -4.495  -8.806  0.00  0.00    -0.300 N 
ATOM     32  C   LIG d   1       8.551  -5.543  -8.604  0.00  0.00     0.007 C 
ATOM     33  C   LIG d   1       7.836  -6.904  -8.627  0.00  0.00     0.013 C 
ATOM     34  H   LIG d   1       9.289  -5.501  -9.405  0.00  0.00     0.043 H 
ATOM     35  H   LIG d   1       9.041  -5.401  -7.641  0.00  0.00     0.043 H 
ATOM     36  C   LIG d   1       7.250  -7.109 -10.029  0.00  0.00    -0.038 C 
ATOM     37  H   LIG d   1       8.533  -7.707  -8.384  0.00  0.00     0.038 H 
ATOM     38  C   LIG d   1       6.708  -6.857  -7.620  0.00  0.00     0.026 C 
ATOM     39  C   LIG d   1       6.239  -5.985 -10.275  0.00  0.00    -0.009 C 
ATOM     40  H   LIG d   1       6.748  -8.075 -10.083  0.00  0.00     0.028 H 
ATOM     41  H   LIG d   1       8.045  -7.061 -10.773  0.00  0.00     0.028 H 
ATOM     42  C   LIG d   1       6.899  -4.623 -10.118  0.00  0.00     0.003 C 
ATOM     43  H   LIG d   1       5.871  -6.072 -11.298  0.00  0.00     0.033 H 
ATOM     44  C   LIG d   1       5.066  -6.158  -9.327  0.00  0.00     0.030 C 
ATOM     45  H   LIG d   1       6.142  -3.845 -10.225  0.00  0.00     0.043 H 
ATOM     46  H   LIG d   1       7.651  -4.497 -10.897  0.00  0.00     0.043 H 
ATOM     47  N   LIG d   1       5.471  -6.423  -7.950  0.00  0.00    -0.312 N 
ATOM     48  H   LIG d   1       4.459  -5.253  -9.348  0.00  0.00     0.050 H 
ATOM     49  H   LIG d   1       4.458  -6.996  -9.667  0.00  0.00     0.050 H 
ATOM     50  C   LIG d   1       4.535  -6.253  -6.984  0.00  0.00     0.252 C 
ATOM     51  C   LIG d   1       4.782  -6.671  -5.668  0.00  0.00     0.003 C 
ATOM     52  O   LIG d   1       3.467  -5.730  -7.260  0.00  0.00    -0.268 OA
ATOM     53  C   LIG d   1       6.003  -7.191  -5.355  0.00  0.00    -0.055 C 
ATOM     54  H   LIG d   1       4.014  -6.585  -4.914  0.00  0.00     0.067 H 
ATOM     55  C   LIG d   1       6.981  -7.269  -6.354  0.00  0.00    -0.042 C 
ATOM     56  H   LIG d   1       6.213  -7.537  -4.354  0.00  0.00     0.062 H 
ATOM     57  H   LIG d   1       7.960  -7.659  -6.117  0.00  0.00     0.064 H 
ENDBRANCH  28  31
ENDBRANCH   1  28
BRANCH   7  58
ATOM     58  C   LIG d   1       5.118   0.340  -8.011  0.00  0.00     0.045 A 
ATOM     59  C   LIG d   1       3.943   0.268  -7.277  0.00  0.00    -0.040 A 
ATOM     60  C   LIG d   1       2.838   0.998  -7.670  0.00  0.00    -0.060 A 
ATOM     61  H   LIG d   1       3.892  -0.356  -6.396  0.00  0.00     0.064 H 
ATOM     62  C   LIG d   1       2.899   1.793  -8.800  0.00  0.00    -0.062 A 
ATOM     63  H   LIG d   1       1.925   0.946  -7.096  0.00  0.00     0.062 H 
ATOM     64  C   LIG d   1       4.068   1.863  -9.537  0.00  0.00    -0.060 A 
ATOM     65  H   LIG d   1       2.034   2.361  -9.108  0.00  0.00     0.062 H 
ATOM     66  C   LIG d   1       5.177   1.139  -9.146  0.00  0.00    -0.040 A 
ATOM     67  H   LIG d   1       4.113   2.485 -10.419  0.00  0.00     0.062 H 
ATOM     68  H   LIG d   1       6.089   1.195  -9.720  0.00  0.00     0.064 H 
ENDBRANCH   7  58
TORSDOF 6
ENDMDL
MODEL 4
REMARK VINA RESULT:      -6.5      2.101      5.007
REMARK  6 active torsions:
REMARK  status: ('A' for Active; 'I' for Inactive)
REMARK    1  A    between atoms: C_1  and  C_2 
REMARK    2  A    between atoms: C_5  and  C_8 
REMARK    3  A    between atoms: C_8  and  C_9 
REMARK    4  A    between atoms: C_9  and  C_24 
REMARK    5  A    between atoms: N_15  and  C_18 
REMARK    6  A    between atoms: C_24  and  N_25 
ROOT
ATOM      1  C   LIG d   1       5.424  -2.606  -6.914  0.00  0.00     0.140 A 
ATOM      2  C   LIG d   1       5.085  -3.468  -5.712  0.00  0.00     0.237 A 
ATOM      3  O   LIG d   1       3.964  -3.898  -5.543  0.00  0.00    -0.274 OA
ATOM      4  N   LIG d   1       6.077  -3.737  -4.838  0.00  0.00    -0.238 N 
ATOM      5  C   LIG d   1       7.319  -3.270  -5.010  0.00  0.00     0.319 A 
ATOM      6  O   LIG d   1       8.151  -3.563  -4.175  0.00  0.00    -0.251 OA
ATOM      7  N   LIG d   1       7.712  -2.505  -6.035  0.00  0.00    -0.193 N 
ATOM      8  C   LIG d   1       6.861  -2.129  -7.013  0.00  0.00     0.244 A 
ATOM      9  O   LIG d   1       7.231  -1.436  -7.936  0.00  0.00    -0.274 OA
ATOM     10  H   LIG d   1       5.885  -4.286  -4.062  0.00  0.00     0.159 HD
ENDROOT
BRANCH   1  11
ATOM     11  C   LIG d   1       4.514  -1.376  -6.889  0.00  0.00    -0.004 C 
ATOM     12  H   LIG d   1       3.497  -1.671  -7.146  0.00  0.00     0.033 H 
ATOM     13  H   LIG d   1       4.874  -0.643  -7.611  0.00  0.00     0.033 H 
BRANCH  11  14
ATOM     14  C   LIG d   1       4.528  -0.769  -5.510  0.00  0.00    -0.046 A 
ATOM     15  C   LIG d   1       5.686  -0.199  -5.016  0.00  0.00    -0.058 A 
ATOM     16  C   LIG d   1       5.698   0.359  -3.752  0.00  0.00    -0.059 A 
ATOM     17  H   LIG d   1       6.582  -0.188  -5.619  0.00  0.00     0.062 H 
ATOM     18  C   LIG d   1       4.551   0.346  -2.980  0.00  0.00    -0.050 A 
ATOM     19  H   LIG d   1       6.604   0.804  -3.366  0.00  0.00     0.062 H 
ATOM     20  C   LIG d   1       3.394  -0.229  -3.472  0.00  0.00    -0.059 A 
ATOM     21  C   LIG d   1       3.381  -0.782  -4.738  0.00  0.00    -0.058 A 
ATOM     22  H   LIG d   1       2.499  -0.241  -2.867  0.00  0.00     0.062 H 
ATOM     23  H   LIG d   1       2.475  -1.227  -5.124  0.00  0.00     0.062 H 
BRANCH  18  24
ATOM     24  C   LIG d   1       4.564   0.955  -1.600  0.00  0.00    -0.040 C 
ATOM     25  H   LIG d   1       4.964   1.966  -1.655  0.00  0.00     0.028 H 
ATOM     26  H   LIG d   1       3.548   0.986  -1.207  0.00  0.00     0.028 H 
ATOM     27  H   LIG d   1       5.190   0.351  -0.943  0.00  0.00     0.028 H 
ENDBRANCH  18  24
ENDBRANCH  11  14
ENDBRANCH   1  11
BRANCH   1  28
ATOM     28  C   LIG d   1       5.100  -3.408  -8.175  0.00  0.00     0.022 C 
ATOM     29  H   LIG d   1       5.982  -3.965  -8.489  0.00  0.00     0.044 H 
ATOM     30  H   LIG d   1       4.288  -4.105  -7.964  0.00  0.00     0.044 H 
BRANCH  28  31
ATOM     31  N   LIG d   1       4.691  -2.491  -9.247  0.00  0.00    -0.300 N 
ATOM     32  C   LIG d   1       3.260  -2.642  -9.553  0.00  0.00     0.007 C 
ATOM     33  C   LIG d   1       2.869  -1.540 -10.552  0.00  0.00     0.013 C 
ATOM     34  H   LIG d   1       3.080  -3.621  -9.997  0.00  0.00     0.043 H 
ATOM     35  H   LIG d   1       2.675  -2.536  -8.640  0.00  0.00     0.043 H 
ATOM     36  C   LIG d   1       3.636  -1.787 -11.856  0.00  0.00    -0.038 C 
ATOM     37  H   LIG d   1       1.794  -1.552 -10.733  0.00  0.00     0.038 H 
ATOM     38  C   LIG d   1       3.294  -0.210  -9.970  0.00  0.00     0.026 C 
ATOM     39  C   LIG d   1       5.131  -1.695 -11.537  0.00  0.00    -0.009 C 
ATOM     40  H   LIG d   1       3.368  -1.030 -12.593  0.00  0.00     0.028 H 
ATOM     41  H   LIG d   1       3.400  -2.780 -12.241  0.00  0.00     0.028 H 
ATOM     42  C   LIG d   1       5.512  -2.685 -10.447  0.00  0.00     0.003 C 
ATOM     43  H   LIG d   1       5.691  -1.945 -12.439  0.00  0.00     0.033 H 
ATOM     44  C   LIG d   1       5.466  -0.267 -11.146  0.00  0.00     0.030 C 
ATOM     45  H   LIG d   1       6.562  -2.546 -10.188  0.00  0.00     0.043 H 
ATOM     46  H   LIG d   1       5.368  -3.701 -10.818  0.00  0.00     0.043 H 
ATOM     47  N   LIG d   1       4.526   0.305 -10.187  0.00  0.00    -0.312 N 
ATOM     48  H   LIG d   1       6.467  -0.244 -10.714  0.00  0.00     0.050 H 
ATOM     49  H   LIG d   1       5.455   0.357 -12.040  0.00  0.00     0.050 H 
ATOM     50  C   LIG d   1       4.916   1.421  -9.524  0.00  0.00     0.252 C 
ATOM     51  C   LIG d   1       4.006   2.140  -8.736  0.00  0.00     0.003 C 
ATOM     52  O   LIG d   1       6.072   1.804  -9.612  0.00  0.00    -0.268 OA
ATOM     53  C   LIG d   1       2.735   1.665  -8.590  0.00  0.00    -0.055 C 
ATOM     54  H   LIG d   1       4.305   3.059  -8.255  0.00  0.00     0.067 H 
ATOM     55  C   LIG d   1       2.388   0.461  -9.212  0.00  0.00    -0.042 C 
ATOM     56  H   LIG d   1       2.010   2.209  -8.002  0.00  0.00     0.062 H 
ATOM     57  H   LIG d   1       1.392   0.061  -9.088  0.00  0.00     0.064 H 
ENDBRANCH  28  31
ENDBRANCH   1  28
BRANCH   7  58
ATOM     58  C   LIG d   1       9.047  -2.082  -6.096  0.00  0.00     0.045 A 
ATOM     59  C   LIG d   1       9.991  -2.852  -6.762  0.00  0.00    -0.040 A 
ATOM     60  C   LIG d   1      11.304  -2.430  -6.826  0.00  0.00    -0.060 A 
ATOM     61  H   LIG d   1       9.697  -3.778  -7.235  0.00  0.00     0.064 H 
ATOM     62  C   LIG d   1      11.682  -1.248  -6.217  0.00  0.00    -0.062 A 
ATOM     63  H   LIG d   1      12.038  -3.026  -7.348  0.00  0.00     0.062 H 
ATOM     64  C   LIG d   1      10.745  -0.481  -5.548  0.00  0.00    -0.060 A 
ATOM     65  H   LIG d   1      12.710  -0.921  -6.265  0.00  0.00     0.062 H 
ATOM     66  C   LIG d   1       9.429  -0.895  -5.486  0.00  0.00    -0.040 A 
ATOM     67  H   LIG d   1      11.043   0.443  -5.074  0.00  0.00     0.062 H 
ATOM     68  H   LIG d   1       8.698  -0.296  -4.964  0.00  0.00     0.064 H 
ENDBRANCH   7  58
TORSDOF 6
ENDMDL
MODEL 5
REMARK VINA RESULT:      -6.5      2.928      5.484
REMARK  6 active torsions:
REMARK  status: ('A' for Active; 'I' for Inactive)
REMARK    1  A    between atoms: C_1  and  C_2 
REMARK    2  A    between atoms: C_5  and  C_8 
REMARK    3  A    between atoms: C_8  and  C_9 
REMARK    4  A    between atoms: C_9  and  C_24 
REMARK    5  A    between atoms: N_15  and  C_18 
REMARK    6  A    between atoms: C_24  and  N_25 
ROOT
ATOM      1  C   LIG d   1       7.170  -2.416  -5.929  0.00  0.00     0.140 A 
ATOM      2  C   LIG d   1       6.498  -3.772  -5.835  0.00  0.00     0.237 A 
ATOM      3  O   LIG d   1       6.931  -4.732  -6.438  0.00  0.00    -0.274 OA
ATOM      4  N   LIG d   1       5.400  -3.873  -5.056  0.00  0.00    -0.238 N 
ATOM      5  C   LIG d   1       4.910  -2.825  -4.385  0.00  0.00     0.319 A 
ATOM      6  O   LIG d   1       3.918  -3.005  -3.707  0.00  0.00    -0.251 OA
ATOM      7  N   LIG d   1       5.431  -1.593  -4.405  0.00  0.00    -0.193 N 
ATOM      8  C   LIG d   1       6.532  -1.295  -5.128  0.00  0.00     0.244 A 
ATOM      9  O   LIG d   1       6.994  -0.174  -5.137  0.00  0.00    -0.274 OA
ATOM     10  H   LIG d   1       4.953  -4.731  -4.981  0.00  0.00     0.159 HD
ENDROOT
BRANCH   1  11
ATOM     11  C   LIG d   1       7.192  -1.996  -7.400  0.00  0.00    -0.004 C 
ATOM     12  H   LIG d   1       7.542  -2.828  -8.010  0.00  0.00     0.033 H 
ATOM     13  H   LIG d   1       7.862  -1.146  -7.526  0.00  0.00     0.033 H 
BRANCH  11  14
ATOM     14  C   LIG d   1       5.802  -1.606  -7.832  0.00  0.00    -0.046 A 
ATOM     15  C   LIG d   1       5.405  -0.283  -7.775  0.00  0.00    -0.058 A 
ATOM     16  C   LIG d   1       4.131   0.074  -8.173  0.00  0.00    -0.059 A 
ATOM     17  H   LIG d   1       6.091   0.472  -7.420  0.00  0.00     0.062 H 
ATOM     18  C   LIG d   1       3.252  -0.892  -8.628  0.00  0.00    -0.050 A 
ATOM     19  H   LIG d   1       3.821   1.108  -8.127  0.00  0.00     0.062 H 
ATOM     20  C   LIG d   1       3.647  -2.215  -8.680  0.00  0.00    -0.059 A 
ATOM     21  C   LIG d   1       4.923  -2.572  -8.287  0.00  0.00    -0.058 A 
ATOM     22  H   LIG d   1       2.960  -2.970  -9.033  0.00  0.00     0.062 H 
ATOM     23  H   LIG d   1       5.234  -3.606  -8.333  0.00  0.00     0.062 H 
BRANCH  18  24
ATOM     24  C   LIG d   1       1.862  -0.502  -9.062  0.00  0.00    -0.040 C 
ATOM     25  H   LIG d   1       1.379  -1.354  -9.539  0.00  0.00     0.028 H 
ATOM     26  H   LIG d   1       1.282  -0.196  -8.191  0.00  0.00     0.028 H 
ATOM     27  H   LIG d   1       1.921   0.326  -9.769  0.00  0.00     0.028 H 
ENDBRANCH  18  24
ENDBRANCH  11  14
ENDBRANCH   1  11
BRANCH   1  28
ATOM     28  C   LIG d   1       8.617  -2.572  -5.460  0.00  0.00     0.022 C 
ATOM     29  H   LIG d   1       8.682  -2.341  -4.397  0.00  0.00     0.044 H 
ATOM     30  H   LIG d   1       8.944  -3.599  -5.628  0.00  0.00     0.044 H 
BRANCH  28  31
ATOM     31  N   LIG d   1       9.479  -1.655  -6.215  0.00  0.00    -0.300 N 
ATOM     32  C   LIG d   1      10.350  -2.392  -7.143  0.00  0.00     0.007 C 
ATOM     33  C   LIG d   1      11.092  -1.366  -8.016  0.00  0.00     0.013 C 
ATOM     34  H   LIG d   1      11.070  -2.984  -6.579  0.00  0.00     0.043 H 
ATOM     35  H   LIG d   1       9.747  -3.045  -7.774  0.00  0.00     0.043 H 
ATOM     36  C   LIG d   1      12.004  -0.539  -7.104  0.00  0.00    -0.038 C 
ATOM     37  H   LIG d   1      11.676  -1.871  -8.786  0.00  0.00     0.038 H 
ATOM     38  C   LIG d   1      10.060  -0.455  -8.644  0.00  0.00     0.026 C 
ATOM     39  C   LIG d   1      11.113   0.186  -6.092  0.00  0.00    -0.009 C 
ATOM     40  H   LIG d   1      12.558   0.189  -7.697  0.00  0.00     0.028 H 
ATOM     41  H   LIG d   1      12.699  -1.197  -6.581  0.00  0.00     0.028 H 
ATOM     42  C   LIG d   1      10.265  -0.808  -5.312  0.00  0.00     0.003 C 
ATOM     43  H   LIG d   1      11.753   0.717  -5.388  0.00  0.00     0.033 H 
ATOM     44  C   LIG d   1      10.259   1.204  -6.826  0.00  0.00     0.030 C 
ATOM     45  H   LIG d   1       9.588  -0.261  -4.655  0.00  0.00     0.043 H 
ATOM     46  H   LIG d   1      10.917  -1.439  -4.707  0.00  0.00     0.043 H 
ATOM     47  N   LIG d   1       9.631   0.671  -8.031  0.00  0.00    -0.312 N 
ATOM     48  H   LIG d   1       9.480   1.563  -6.153  0.00  0.00     0.050 H 
ATOM     49  H   LIG d   1      10.886   2.047  -7.117  0.00  0.00     0.050 H 
ATOM     50  C   LIG d   1       8.599   1.375  -8.557  0.00  0.00     0.252 C 
ATOM     51  C   LIG d   1       8.072   1.040  -9.813  0.00  0.00     0.003 C 
ATOM     52  O   LIG d   1       8.121   2.308  -7.932  0.00  0.00    -0.268 OA
ATOM     53  C   LIG d   1       8.567  -0.047 -10.472  0.00  0.00    -0.055 C 
ATOM     54  H   LIG d   1       7.287   1.636 -10.254  0.00  0.00     0.067 H 
ATOM     55  C   LIG d   1       9.570  -0.809  -9.862  0.00  0.00    -0.042 C 
ATOM     56  H   LIG d   1       8.190  -0.316 -11.448  0.00  0.00     0.062 H 
ATOM     57  H   LIG d   1       9.957  -1.684 -10.361  0.00  0.00     0.064 H 
ENDBRANCH  28  31
ENDBRANCH   1  28
BRANCH   7  58
ATOM     58  C   LIG d   1       4.817  -0.582  -3.654  0.00  0.00     0.045 A 
ATOM     59  C   LIG d   1       3.776   0.155  -4.200  0.00  0.00    -0.040 A 
ATOM     60  C   LIG d   1       3.168   1.148  -3.457  0.00  0.00    -0.060 A 
ATOM     61  H   LIG d   1       3.437  -0.050  -5.206  0.00  0.00     0.064 H 
ATOM     62  C   LIG d   1       3.604   1.415  -2.172  0.00  0.00    -0.062 A 
ATOM     63  H   LIG d   1       2.355   1.718  -3.879  0.00  0.00     0.062 H 
ATOM     64  C   LIG d   1       4.645   0.686  -1.626  0.00  0.00    -0.060 A 
ATOM     65  H   LIG d   1       3.130   2.193  -1.592  0.00  0.00     0.062 H 
ATOM     66  C   LIG d   1       5.253  -0.312  -2.364  0.00  0.00    -0.040 A 
ATOM     67  H   LIG d   1       4.983   0.897  -0.622  0.00  0.00     0.062 H 
ATOM     68  H   LIG d   1       6.065  -0.881  -1.937  0.00  0.00     0.064 H 
ENDBRANCH   7  58
TORSDOF 6
ENDMDL
MODEL 6
REMARK VINA RESULT:      -6.4      4.127      6.476
REMARK  6 active torsions:
REMARK  status: ('A' for Active; 'I' for Inactive)
REMARK    1  A    between atoms: C_1  and  C_2 
REMARK    2  A    between atoms: C_5  and  C_8 
REMARK    3  A    between atoms: C_8  and  C_9 
REMARK    4  A    between atoms: C_9  and  C_24 
REMARK    5  A    between atoms: N_15  and  C_18 
REMARK    6  A    between atoms: C_24  and  N_25 
ROOT
ATOM      1  C   LIG d   1       9.018   0.291  -5.382  0.00  0.00     0.140 A 
ATOM      2  C   LIG d   1       9.461  -1.140  -5.144  0.00  0.00     0.237 A 
ATOM      3  O   LIG d   1      10.535  -1.541  -5.542  0.00  0.00    -0.274 OA
ATOM      4  N   LIG d   1       8.616  -1.952  -4.474  0.00  0.00    -0.238 N 
ATOM      5  C   LIG d   1       7.429  -1.526  -4.028  0.00  0.00     0.319 A 
ATOM      6  O   LIG d   1       6.732  -2.324  -3.434  0.00  0.00    -0.251 OA
ATOM      7  N   LIG d   1       6.953  -0.286  -4.190  0.00  0.00    -0.193 N 
ATOM      8  C   LIG d   1       7.654   0.670  -4.836  0.00  0.00     0.244 A 
ATOM      9  O   LIG d   1       7.210   1.789  -4.974  0.00  0.00    -0.274 OA
ATOM     10  H   LIG d   1       8.878  -2.872  -4.310  0.00  0.00     0.159 HD
ENDROOT
BRANCH   1  11
ATOM     11  C   LIG d   1       9.013   0.543  -6.891  0.00  0.00    -0.004 C 
ATOM     12  H   LIG d   1       9.926   0.140  -7.330  0.00  0.00     0.033 H 
ATOM     13  H   LIG d   1       8.962   1.615  -7.080  0.00  0.00     0.033 H 
BRANCH  11  14
ATOM     14  C   LIG d   1       7.817  -0.133  -7.510  0.00  0.00    -0.046 A 
ATOM     15  C   LIG d   1       7.864  -1.481  -7.813  0.00  0.00    -0.058 A 
ATOM     16  C   LIG d   1       6.766  -2.101  -8.379  0.00  0.00    -0.059 A 
ATOM     17  H   LIG d   1       8.758  -2.050  -7.605  0.00  0.00     0.062 H 
ATOM     18  C   LIG d   1       5.621  -1.373  -8.643  0.00  0.00    -0.050 A 
ATOM     19  H   LIG d   1       6.804  -3.155  -8.615  0.00  0.00     0.062 H 
ATOM     20  C   LIG d   1       5.576  -0.024  -8.345  0.00  0.00    -0.059 A 
ATOM     21  C   LIG d   1       6.672   0.595  -7.775  0.00  0.00    -0.058 A 
ATOM     22  H   LIG d   1       4.682   0.545  -8.554  0.00  0.00     0.062 H 
ATOM     23  H   LIG d   1       6.634   1.648  -7.537  0.00  0.00     0.062 H 
BRANCH  18  24
ATOM     24  C   LIG d   1       4.424  -2.050  -9.260  0.00  0.00    -0.040 C 
ATOM     25  H   LIG d   1       4.729  -2.569 -10.168  0.00  0.00     0.028 H 
ATOM     26  H   LIG d   1       4.007  -2.768  -8.553  0.00  0.00     0.028 H 
ATOM     27  H   LIG d   1       3.670  -1.301  -9.505  0.00  0.00     0.028 H 
ENDBRANCH  18  24
ENDBRANCH  11  14
ENDBRANCH   1  11
BRANCH   1  28
ATOM     28  C   LIG d   1      10.058   1.218  -4.751  0.00  0.00     0.022 C 
ATOM     29  H   LIG d   1       9.625   1.712  -3.882  0.00  0.00     0.044 H 
ATOM     30  H   LIG d   1      10.925   0.633  -4.441  0.00  0.00     0.044 H 
BRANCH  28  31
ATOM     31  N   LIG d   1      10.475   2.227  -5.732  0.00  0.00    -0.300 N 
ATOM     32  C   LIG d   1      11.904   2.093  -6.053  0.00  0.00     0.007 C 
ATOM     33  C   LIG d   1      12.225   3.060  -7.205  0.00  0.00     0.013 C 
ATOM     34  H   LIG d   1      12.503   2.350  -5.179  0.00  0.00     0.043 H 
ATOM     35  H   LIG d   1      12.118   1.069  -6.361  0.00  0.00     0.043 H 
ATOM     36  C   LIG d   1      12.010   4.490  -6.699  0.00  0.00    -0.038 C 
ATOM     37  H   LIG d   1      13.253   2.924  -7.543  0.00  0.00     0.038 H 
ATOM     38  C   LIG d   1      11.255   2.782  -8.332  0.00  0.00     0.026 C 
ATOM     39  C   LIG d   1      10.537   4.624  -6.302  0.00  0.00    -0.009 C 
ATOM     40  H   LIG d   1      12.246   5.203  -7.489  0.00  0.00     0.028 H 
ATOM     41  H   LIG d   1      12.646   4.675  -5.831  0.00  0.00     0.028 H 
ATOM     42  C   LIG d   1      10.163   3.580  -5.260  0.00  0.00     0.003 C 
ATOM     43  H   LIG d   1      10.387   5.612  -5.867  0.00  0.00     0.033 H 
ATOM     44  C   LIG d   1       9.678   4.512  -7.548  0.00  0.00     0.030 C 
ATOM     45  H   LIG d   1       9.095   3.649  -5.053  0.00  0.00     0.043 H 
ATOM     46  H   LIG d   1      10.718   3.775  -4.342  0.00  0.00     0.043 H 
ATOM     47  N   LIG d   1      10.054   3.398  -8.412  0.00  0.00    -0.312 N 
ATOM     48  H   LIG d   1       8.636   4.390  -7.250  0.00  0.00     0.050 H 
ATOM     49  H   LIG d   1       9.771   5.432  -8.125  0.00  0.00     0.050 H 
ATOM     50  C   LIG d   1       9.157   3.008  -9.351  0.00  0.00     0.252 C 
ATOM     51  C   LIG d   1       9.515   2.083 -10.341  0.00  0.00     0.003 C 
ATOM     52  O   LIG d   1       8.025   3.465  -9.333  0.00  0.00    -0.268 OA
ATOM     53  C   LIG d   1      10.760   1.526 -10.311  0.00  0.00    -0.055 C 
ATOM     54  H   LIG d   1       8.815   1.816 -11.119  0.00  0.00     0.067 H 
ATOM     55  C   LIG d   1      11.633   1.879  -9.276  0.00  0.00    -0.042 C 
ATOM     56  H   LIG d   1      11.066   0.823 -11.072  0.00  0.00     0.062 H 
ATOM     57  H   LIG d   1      12.614   1.431  -9.227  0.00  0.00     0.064 H 
ENDBRANCH  28  31
ENDBRANCH   1  28
BRANCH   7  58
ATOM     58  C   LIG d   1       5.689   0.030  -3.673  0.00  0.00     0.045 A 
ATOM     59  C   LIG d   1       5.577   0.606  -2.415  0.00  0.00    -0.040 A 
ATOM     60  C   LIG d   1       4.331   0.922  -1.910  0.00  0.00    -0.060 A 
ATOM     61  H   LIG d   1       6.464   0.811  -1.833  0.00  0.00     0.064 H 
ATOM     62  C   LIG d   1       3.195   0.655  -2.651  0.00  0.00    -0.062 A 
ATOM     63  H   LIG d   1       4.243   1.375  -0.934  0.00  0.00     0.062 H 
ATOM     64  C   LIG d   1       3.303   0.076  -3.903  0.00  0.00    -0.060 A 
ATOM     65  H   LIG d   1       2.221   0.899  -2.254  0.00  0.00     0.062 H 
ATOM     66  C   LIG d   1       4.547  -0.237  -4.416  0.00  0.00    -0.040 A 
ATOM     67  H   LIG d   1       2.414  -0.131  -4.480  0.00  0.00     0.062 H 
ATOM     68  H   LIG d   1       4.631  -0.688  -5.393  0.00  0.00     0.064 H 
ENDBRANCH   7  58
TORSDOF 6
ENDMDL
MODEL 7
REMARK VINA RESULT:      -6.4      2.640      5.760
REMARK  6 active torsions:
REMARK  status: ('A' for Active; 'I' for Inactive)
REMARK    1  A    between atoms: C_1  and  C_2 
REMARK    2  A    between atoms: C_5  and  C_8 
REMARK    3  A    between atoms: C_8  and  C_9 
REMARK    4  A    between atoms: C_9  and  C_24 
REMARK    5  A    between atoms: N_15  and  C_18 
REMARK    6  A    between atoms: C_24  and  N_25 
ROOT
ATOM      1  C   LIG d   1       4.838  -3.285  -6.866  0.00  0.00     0.140 A 
ATOM      2  C   LIG d   1       4.357  -2.505  -8.075  0.00  0.00     0.237 A 
ATOM      3  O   LIG d   1       4.318  -3.013  -9.176  0.00  0.00    -0.274 OA
ATOM      4  N   LIG d   1       3.975  -1.225  -7.881  0.00  0.00    -0.238 N 
ATOM      5  C   LIG d   1       4.012  -0.651  -6.674  0.00  0.00     0.319 A 
ATOM      6  O   LIG d   1       3.648   0.506  -6.590  0.00  0.00    -0.251 OA
ATOM      7  N   LIG d   1       4.420  -1.256  -5.552  0.00  0.00    -0.193 N 
ATOM      8  C   LIG d   1       4.841  -2.538  -5.545  0.00  0.00     0.244 A 
ATOM      9  O   LIG d   1       5.207  -3.073  -4.520  0.00  0.00    -0.274 OA
ATOM     10  H   LIG d   1       3.664  -0.707  -8.639  0.00  0.00     0.159 HD
ENDROOT
BRANCH   1  11
ATOM     11  C   LIG d   1       6.264  -3.764  -7.145  0.00  0.00    -0.004 C 
ATOM     12  H   LIG d   1       6.316  -4.185  -8.148  0.00  0.00     0.033 H 
ATOM     13  H   LIG d   1       6.542  -4.525  -6.416  0.00  0.00     0.033 H 
BRANCH  11  14
ATOM     14  C   LIG d   1       7.215  -2.599  -7.039  0.00  0.00    -0.046 A 
ATOM     15  C   LIG d   1       7.946  -2.405  -5.882  0.00  0.00    -0.058 A 
ATOM     16  C   LIG d   1       8.818  -1.338  -5.786  0.00  0.00    -0.059 A 
ATOM     17  H   LIG d   1       7.836  -3.089  -5.053  0.00  0.00     0.062 H 
ATOM     18  C   LIG d   1       8.960  -0.464  -6.847  0.00  0.00    -0.050 A 
ATOM     19  H   LIG d   1       9.389  -1.187  -4.881  0.00  0.00     0.062 H 
ATOM     20  C   LIG d   1       8.226  -0.654  -8.002  0.00  0.00    -0.059 A 
ATOM     21  C   LIG d   1       7.357  -1.724  -8.100  0.00  0.00    -0.058 A 
ATOM     22  H   LIG d   1       8.335   0.031  -8.830  0.00  0.00     0.062 H 
ATOM     23  H   LIG d   1       6.786  -1.876  -9.005  0.00  0.00     0.062 H 
BRANCH  18  24
ATOM     24  C   LIG d   1       9.913   0.701  -6.742  0.00  0.00    -0.040 C 
ATOM     25  H   LIG d   1      10.564   0.559  -5.880  0.00  0.00     0.028 H 
ATOM     26  H   LIG d   1      10.516   0.760  -7.648  0.00  0.00     0.028 H 
ATOM     27  H   LIG d   1       9.345   1.624  -6.621  0.00  0.00     0.028 H 
ENDBRANCH  18  24
ENDBRANCH  11  14
ENDBRANCH   1  11
BRANCH   1  28
ATOM     28  C   LIG d   1       3.946  -4.518  -6.714  0.00  0.00     0.022 C 
ATOM     29  H   LIG d   1       3.387  -4.450  -5.782  0.00  0.00     0.044 H 
ATOM     30  H   LIG d   1       3.250  -4.568  -7.552  0.00  0.00     0.044 H 
BRANCH  28  31
ATOM     31  N   LIG d   1       4.780  -5.727  -6.699  0.00  0.00    -0.300 N 
ATOM     32  C   LIG d   1       4.474  -6.593  -7.846  0.00  0.00     0.007 C 
ATOM     33  C   LIG d   1       5.497  -7.743  -7.860  0.00  0.00     0.013 C 
ATOM     34  H   LIG d   1       3.468  -6.998  -7.744  0.00  0.00     0.043 H 
ATOM     35  H   LIG d   1       4.551  -6.021  -8.771  0.00  0.00     0.043 H 
ATOM     36  C   LIG d   1       5.285  -8.581  -6.595  0.00  0.00    -0.038 C 
ATOM     37  H   LIG d   1       5.369  -8.357  -8.752  0.00  0.00     0.038 H 
ATOM     38  C   LIG d   1       6.882  -7.135  -7.828  0.00  0.00     0.026 C 
ATOM     39  C   LIG d   1       5.540  -7.671  -5.390  0.00  0.00    -0.009 C 
ATOM     40  H   LIG d   1       5.986  -9.416  -6.583  0.00  0.00     0.028 H 
ATOM     41  H   LIG d   1       4.262  -8.956  -6.567  0.00  0.00     0.028 H 
ATOM     42  C   LIG d   1       4.631  -6.452  -5.433  0.00  0.00     0.003 C 
ATOM     43  H   LIG d   1       5.318  -8.233  -4.482  0.00  0.00     0.033 H 
ATOM     44  C   LIG d   1       7.007  -7.282  -5.366  0.00  0.00     0.030 C 
ATOM     45  H   LIG d   1       4.885  -5.788  -4.607  0.00  0.00     0.043 H 
ATOM     46  H   LIG d   1       3.594  -6.774  -5.326  0.00  0.00     0.043 H 
ATOM     47  N   LIG d   1       7.512  -6.852  -6.666  0.00  0.00    -0.312 N 
ATOM     48  H   LIG d   1       7.146  -6.473  -4.649  0.00  0.00     0.050 H 
ATOM     49  H   LIG d   1       7.596  -8.141  -5.044  0.00  0.00     0.050 H 
ATOM     50  C   LIG d   1       8.684  -6.170  -6.683  0.00  0.00     0.252 C 
ATOM     51  C   LIG d   1       9.333  -5.893  -7.895  0.00  0.00     0.003 C 
ATOM     52  O   LIG d   1       9.180  -5.792  -5.633  0.00  0.00    -0.268 OA
ATOM     53  C   LIG d   1       8.736  -6.259  -9.066  0.00  0.00    -0.055 C 
ATOM     54  H   LIG d   1      10.293  -5.399  -7.901  0.00  0.00     0.067 H 
ATOM     55  C   LIG d   1       7.482  -6.879  -9.020  0.00  0.00    -0.042 C 
ATOM     56  H   LIG d   1       9.223  -6.073 -10.012  0.00  0.00     0.062 H 
ATOM     57  H   LIG d   1       6.988  -7.156  -9.940  0.00  0.00     0.064 H 
ENDBRANCH  28  31
ENDBRANCH   1  28
BRANCH   7  58
ATOM     58  C   LIG d   1       4.409  -0.537  -4.349  0.00  0.00     0.045 A 
ATOM     59  C   LIG d   1       5.564   0.094  -3.906  0.00  0.00    -0.040 A 
ATOM     60  C   LIG d   1       5.550   0.807  -2.723  0.00  0.00    -0.060 A 
ATOM     61  H   LIG d   1       6.472   0.032  -4.488  0.00  0.00     0.064 H 
ATOM     62  C   LIG d   1       4.390   0.883  -1.974  0.00  0.00    -0.062 A 
ATOM     63  H   LIG d   1       6.446   1.302  -2.381  0.00  0.00     0.062 H 
ATOM     64  C   LIG d   1       3.239   0.251  -2.410  0.00  0.00    -0.060 A 
ATOM     65  H   LIG d   1       4.381   1.438  -1.048  0.00  0.00     0.062 H 
ATOM     66  C   LIG d   1       3.246  -0.459  -3.595  0.00  0.00    -0.040 A 
ATOM     67  H   LIG d   1       2.335   0.313  -1.823  0.00  0.00     0.062 H 
ATOM     68  H   LIG d   1       2.348  -0.951  -3.935  0.00  0.00     0.064 H 
ENDBRANCH   7  58
TORSDOF 6
ENDMDL
MODEL 8
REMARK VINA RESULT:      -6.3      4.875      7.947
REMARK  6 active torsions:
REMARK  status: ('A' for Active; 'I' for Inactive)
REMARK    1  A    between atoms: C_1  and  C_2 
REMARK    2  A    between atoms: C_5  and  C_8 
REMARK    3  A    between atoms: C_8  and  C_9 
REMARK    4  A    between atoms: C_9  and  C_24 
REMARK    5  A    between atoms: N_15  and  C_18 
REMARK    6  A    between atoms: C_24  and  N_25 
ROOT
ATOM      1  C   LIG d   1       8.828   1.337  -4.682  0.00  0.00     0.140 A 
ATOM      2  C   LIG d   1       9.687   0.136  -5.031  0.00  0.00     0.237 A 
ATOM      3  O   LIG d   1      10.835   0.270  -5.399  0.00  0.00    -0.274 OA
ATOM      4  N   LIG d   1       9.127  -1.087  -4.917  0.00  0.00    -0.238 N 
ATOM      5  C   LIG d   1       7.862  -1.251  -4.512  0.00  0.00     0.319 A 
ATOM      6  O   LIG d   1       7.439  -2.388  -4.437  0.00  0.00    -0.251 OA
ATOM      7  N   LIG d   1       7.030  -0.256  -4.184  0.00  0.00    -0.193 N 
ATOM      8  C   LIG d   1       7.409   1.038  -4.234  0.00  0.00     0.244 A 
ATOM      9  O   LIG d   1       6.643   1.929  -3.934  0.00  0.00    -0.274 OA
ATOM     10  H   LIG d   1       9.656  -1.869  -5.135  0.00  0.00     0.159 HD
ENDROOT
BRANCH   1  11
ATOM     11  C   LIG d   1       8.758   2.246  -5.911  0.00  0.00    -0.004 C 
ATOM     12  H   LIG d   1       9.739   2.682  -6.096  0.00  0.00     0.033 H 
ATOM     13  H   LIG d   1       8.034   3.041  -5.735  0.00  0.00     0.033 H 
BRANCH  11  14
ATOM     14  C   LIG d   1       8.333   1.437  -7.110  0.00  0.00    -0.046 A 
ATOM     15  C   LIG d   1       9.275   1.014  -8.029  0.00  0.00    -0.058 A 
ATOM     16  C   LIG d   1       8.885   0.272  -9.127  0.00  0.00    -0.059 A 
ATOM     17  H   LIG d   1      10.317   1.263  -7.887  0.00  0.00     0.062 H 
ATOM     18  C   LIG d   1       7.552  -0.047  -9.308  0.00  0.00    -0.050 A 
ATOM     19  H   LIG d   1       9.622  -0.058  -9.845  0.00  0.00     0.062 H 
ATOM     20  C   LIG d   1       6.609   0.380  -8.392  0.00  0.00    -0.059 A 
ATOM     21  C   LIG d   1       7.000   1.119  -7.291  0.00  0.00    -0.058 A 
ATOM     22  H   LIG d   1       5.568   0.133  -8.535  0.00  0.00     0.062 H 
ATOM     23  H   LIG d   1       6.263   1.448  -6.572  0.00  0.00     0.062 H 
BRANCH  18  24
ATOM     24  C   LIG d   1       7.127  -0.857 -10.506  0.00  0.00    -0.040 C 
ATOM     25  H   LIG d   1       6.962  -1.891 -10.205  0.00  0.00     0.028 H 
ATOM     26  H   LIG d   1       6.204  -0.445 -10.914  0.00  0.00     0.028 H 
ATOM     27  H   LIG d   1       7.909  -0.820 -11.265  0.00  0.00     0.028 H 
ENDBRANCH  18  24
ENDBRANCH  11  14
ENDBRANCH   1  11
BRANCH   1  28
ATOM     28  C   LIG d   1       9.528   2.108  -3.562  0.00  0.00     0.022 C 
ATOM     29  H   LIG d   1       8.790   2.440  -2.832  0.00  0.00     0.044 H 
ATOM     30  H   LIG d   1      10.255   1.459  -3.073  0.00  0.00     0.044 H 
BRANCH  28  31
ATOM     31  N   LIG d   1      10.217   3.275  -4.128  0.00  0.00    -0.300 N 
ATOM     32  C   LIG d   1      11.662   3.214  -3.864  0.00  0.00     0.007 C 
ATOM     33  C   LIG d   1      12.335   4.366  -4.628  0.00  0.00     0.013 C 
ATOM     34  H   LIG d   1      11.846   3.325  -2.795  0.00  0.00     0.043 H 
ATOM     35  H   LIG d   1      12.060   2.260  -4.211  0.00  0.00     0.043 H 
ATOM     36  C   LIG d   1      11.826   5.687  -4.040  0.00  0.00    -0.038 C 
ATOM     37  H   LIG d   1      13.420   4.301  -4.541  0.00  0.00     0.038 H 
ATOM     38  C   LIG d   1      11.913   4.274  -6.078  0.00  0.00     0.026 C 
ATOM     39  C   LIG d   1      10.310   5.734  -4.253  0.00  0.00    -0.009 C 
ATOM     40  H   LIG d   1      12.298   6.526  -4.551  0.00  0.00     0.028 H 
ATOM     41  H   LIG d   1      12.052   5.727  -2.973  0.00  0.00     0.028 H 
ATOM     42  C   LIG d   1       9.639   4.524  -3.621  0.00  0.00     0.003 C 
ATOM     43  H   LIG d   1       9.924   6.632  -3.770  0.00  0.00     0.033 H 
ATOM     44  C   LIG d   1      10.023   5.828  -5.741  0.00  0.00     0.030 C 
ATOM     45  H   LIG d   1       8.574   4.545  -3.852  0.00  0.00     0.043 H 
ATOM     46  H   LIG d   1       9.770   4.565  -2.539  0.00  0.00     0.043 H 
ATOM     47  N   LIG d   1      10.796   4.882  -6.539  0.00  0.00    -0.312 N 
ATOM     48  H   LIG d   1       8.962   5.644  -5.908  0.00  0.00     0.050 H 
ATOM     49  H   LIG d   1      10.263   6.834  -6.085  0.00  0.00     0.050 H 
ATOM     50  C   LIG d   1      10.375   4.648  -7.806  0.00  0.00     0.252 C 
ATOM     51  C   LIG d   1      11.165   3.909  -8.698  0.00  0.00     0.003 C 
ATOM     52  O   LIG d   1       9.295   5.083  -8.175  0.00  0.00    -0.268 OA
ATOM     53  C   LIG d   1      12.337   3.369  -8.255  0.00  0.00    -0.055 C 
ATOM     54  H   LIG d   1      10.852   3.771  -9.722  0.00  0.00     0.067 H 
ATOM     55  C   LIG d   1      12.702   3.550  -6.916  0.00  0.00    -0.042 C 
ATOM     56  H   LIG d   1      12.973   2.810  -8.926  0.00  0.00     0.062 H 
ATOM     57  H   LIG d   1      13.616   3.111  -6.545  0.00  0.00     0.064 H 
ENDBRANCH  28  31
ENDBRANCH   1  28
BRANCH   7  58
ATOM     58  C   LIG d   1       5.726  -0.568  -3.775  0.00  0.00     0.045 A 
ATOM     59  C   LIG d   1       4.671  -0.457  -4.670  0.00  0.00    -0.040 A 
ATOM     60  C   LIG d   1       3.388  -0.769  -4.267  0.00  0.00    -0.060 A 
ATOM     61  H   LIG d   1       4.854  -0.130  -5.684  0.00  0.00     0.064 H 
ATOM     62  C   LIG d   1       3.151  -1.182  -2.969  0.00  0.00    -0.062 A 
ATOM     63  H   LIG d   1       2.568  -0.687  -4.964  0.00  0.00     0.062 H 
ATOM     64  C   LIG d   1       4.199  -1.288  -2.072  0.00  0.00    -0.060 A 
ATOM     65  H   LIG d   1       2.147  -1.423  -2.653  0.00  0.00     0.062 H 
ATOM     66  C   LIG d   1       5.486  -0.982  -2.472  0.00  0.00    -0.040 A 
ATOM     67  H   LIG d   1       4.011  -1.612  -1.059  0.00  0.00     0.062 H 
ATOM     68  H   LIG d   1       6.303  -1.067  -1.772  0.00  0.00     0.064 H 
ENDBRANCH   7  58
TORSDOF 6
ENDMDL
MODEL 9
REMARK VINA RESULT:      -6.2      2.466      5.680
REMARK  6 active torsions:
REMARK  status: ('A' for Active; 'I' for Inactive)
REMARK    1  A    between atoms: C_1  and  C_2 
REMARK    2  A    between atoms: C_5  and  C_8 
REMARK    3  A    between atoms: C_8  and  C_9 
REMARK    4  A    between atoms: C_9  and  C_24 
REMARK    5  A    between atoms: N_15  and  C_18 
REMARK    6  A    between atoms: C_24  and  N_25 
ROOT
ATOM      1  C   LIG d   1       5.476  -2.086  -5.155  0.00  0.00     0.140 A 
ATOM      2  C   LIG d   1       4.551  -1.425  -4.151  0.00  0.00     0.237 A 
ATOM      3  O   LIG d   1       3.543  -1.979  -3.766  0.00  0.00    -0.274 OA
ATOM      4  N   LIG d   1       4.890  -0.198  -3.703  0.00  0.00    -0.238 N 
ATOM      5  C   LIG d   1       5.998   0.426  -4.118  0.00  0.00     0.319 A 
ATOM      6  O   LIG d   1       6.227   1.529  -3.662  0.00  0.00    -0.251 OA
ATOM      7  N   LIG d   1       6.872  -0.075  -4.999  0.00  0.00    -0.193 N 
ATOM      8  C   LIG d   1       6.705  -1.291  -5.559  0.00  0.00     0.244 A 
ATOM      9  O   LIG d   1       7.505  -1.732  -6.355  0.00  0.00    -0.274 OA
ATOM     10  H   LIG d   1       4.314   0.245  -3.061  0.00  0.00     0.159 HD
ENDROOT
BRANCH   1  11
ATOM     11  C   LIG d   1       4.669  -2.390  -6.419  0.00  0.00    -0.004 C 
ATOM     12  H   LIG d   1       3.732  -2.872  -6.144  0.00  0.00     0.033 H 
ATOM     13  H   LIG d   1       5.243  -3.051  -7.067  0.00  0.00     0.033 H 
BRANCH  11  14
ATOM     14  C   LIG d   1       4.376  -1.104  -7.149  0.00  0.00    -0.046 A 
ATOM     15  C   LIG d   1       5.201  -0.689  -8.178  0.00  0.00    -0.058 A 
ATOM     16  C   LIG d   1       4.931   0.489  -8.848  0.00  0.00    -0.059 A 
ATOM     17  H   LIG d   1       6.055  -1.287  -8.459  0.00  0.00     0.062 H 
ATOM     18  C   LIG d   1       3.837   1.254  -8.488  0.00  0.00    -0.050 A 
ATOM     19  H   LIG d   1       5.576   0.813  -9.652  0.00  0.00     0.062 H 
ATOM     20  C   LIG d   1       3.016   0.842  -7.456  0.00  0.00    -0.059 A 
ATOM     21  C   LIG d   1       3.282  -0.338  -6.789  0.00  0.00    -0.058 A 
ATOM     22  H   LIG d   1       2.163   1.442  -7.173  0.00  0.00     0.062 H 
ATOM     23  H   LIG d   1       2.637  -0.663  -5.985  0.00  0.00     0.062 H 
BRANCH  18  24
ATOM     24  C   LIG d   1       3.543   2.540  -9.219  0.00  0.00    -0.040 C 
ATOM     25  H   LIG d   1       3.833   3.385  -8.596  0.00  0.00     0.028 H 
ATOM     26  H   LIG d   1       4.108   2.565 -10.152  0.00  0.00     0.028 H 
ATOM     27  H   LIG d   1       2.477   2.597  -9.438  0.00  0.00     0.028 H 
ENDBRANCH  18  24
ENDBRANCH  11  14
ENDBRANCH   1  11
BRANCH   1  28
ATOM     28  C   LIG d   1       5.944  -3.416  -4.562  0.00  0.00     0.022 C 
ATOM     29  H   LIG d   1       6.966  -3.314  -4.201  0.00  0.00     0.044 H 
ATOM     30  H   LIG d   1       5.292  -3.692  -3.732  0.00  0.00     0.044 H 
BRANCH  28  31
ATOM     31  N   LIG d   1       5.889  -4.459  -5.594  0.00  0.00    -0.300 N 
ATOM     32  C   LIG d   1       4.766  -5.378  -5.357  0.00  0.00     0.007 C 
ATOM     33  C   LIG d   1       4.668  -6.330  -6.562  0.00  0.00     0.013 C 
ATOM     34  H   LIG d   1       4.946  -5.953  -4.449  0.00  0.00     0.043 H 
ATOM     35  H   LIG d   1       3.840  -4.811  -5.260  0.00  0.00     0.043 H 
ATOM     36  C   LIG d   1       5.943  -7.179  -6.601  0.00  0.00    -0.038 C 
ATOM     37  H   LIG d   1       3.787  -6.966  -6.475  0.00  0.00     0.038 H 
ATOM     38  C   LIG d   1       4.593  -5.488  -7.816  0.00  0.00     0.026 C 
ATOM     39  C   LIG d   1       7.128  -6.226  -6.784  0.00  0.00    -0.009 C 
ATOM     40  H   LIG d   1       5.897  -7.877  -7.437  0.00  0.00     0.028 H 
ATOM     41  H   LIG d   1       6.051  -7.727  -5.664  0.00  0.00     0.028 H 
ATOM     42  C   LIG d   1       7.160  -5.186  -5.674  0.00  0.00     0.003 C 
ATOM     43  H   LIG d   1       8.048  -6.808  -6.736  0.00  0.00     0.033 H 
ATOM     44  C   LIG d   1       7.037  -5.584  -8.157  0.00  0.00     0.030 C 
ATOM     45  H   LIG d   1       7.966  -4.478  -5.871  0.00  0.00     0.043 H 
ATOM     46  H   LIG d   1       7.348  -5.684  -4.722  0.00  0.00     0.043 H 
ATOM     47  N   LIG d   1       5.703  -5.085  -8.476  0.00  0.00    -0.312 N 
ATOM     48  H   LIG d   1       7.744  -4.756  -8.207  0.00  0.00     0.050 H 
ATOM     49  H   LIG d   1       7.310  -6.323  -8.912  0.00  0.00     0.050 H 
ATOM     50  C   LIG d   1       5.597  -4.209  -9.504  0.00  0.00     0.252 C 
ATOM     51  C   LIG d   1       4.338  -3.835  -9.997  0.00  0.00     0.003 C 
ATOM     52  O   LIG d   1       6.605  -3.738 -10.006  0.00  0.00    -0.268 OA
ATOM     53  C   LIG d   1       3.217  -4.312  -9.385  0.00  0.00    -0.055 C 
ATOM     54  H   LIG d   1       4.258  -3.180 -10.852  0.00  0.00     0.067 H 
ATOM     55  C   LIG d   1       3.358  -5.143  -8.267  0.00  0.00    -0.042 C 
ATOM     56  H   LIG d   1       2.236  -4.053  -9.756  0.00  0.00     0.062 H 
ATOM     57  H   LIG d   1       2.480  -5.512  -7.759  0.00  0.00     0.064 H 
ENDBRANCH  28  31
ENDBRANCH   1  28
BRANCH   7  58
ATOM     58  C   LIG d   1       7.996   0.686  -5.350  0.00  0.00     0.045 A 
ATOM     59  C   LIG d   1       7.971   1.479  -6.489  0.00  0.00    -0.040 A 
ATOM     60  C   LIG d   1       9.077   2.232  -6.830  0.00  0.00    -0.060 A 
ATOM     61  H   LIG d   1       7.085   1.510  -7.107  0.00  0.00     0.064 H 
ATOM     62  C   LIG d   1      10.214   2.188  -6.043  0.00  0.00    -0.062 A 
ATOM     63  H   LIG d   1       9.057   2.852  -7.713  0.00  0.00     0.062 H 
ATOM     64  C   LIG d   1      10.244   1.395  -4.910  0.00  0.00    -0.060 A 
ATOM     65  H   LIG d   1      11.079   2.775  -6.312  0.00  0.00     0.062 H 
ATOM     66  C   LIG d   1       9.138   0.644  -4.561  0.00  0.00    -0.040 A 
ATOM     67  H   LIG d   1      11.133   1.364  -4.297  0.00  0.00     0.062 H 
ATOM     68  H   LIG d   1       9.162   0.026  -3.677  0.00  0.00     0.064 H 
ENDBRANCH   7  58
TORSDOF 6
ENDMDL
