MODEL 1
REMARK VINA RESULT:      -6.9      0.000      0.000
REMARK  6 active torsions:
REMARK  status: ('A' for Active; 'I' for Inactive)
REMARK    1  A    between atoms: C_1  and  C_2 
REMARK    2  A    between atoms: C_2  and  C_4 
REMARK    3  A    between atoms: C_2  and  C_10 
REMARK       I    between atoms: C_10  and  N_12 
REMARK    4  A    between atoms: N_12  and  C_13 
REMARK    5  A    between atoms: C_15  and  N_22 
REMARK    6  A    between atoms: C_17  and  N_19 
ROOT
ATOM      1  C   LIG d   1       3.042   0.284  -6.115  0.00  0.00     0.224 C 
ATOM      2  O   LIG d   1       3.719  -0.719  -6.200  0.00  0.00    -0.275 OA
ATOM      3  N   LIG d   1       2.893   1.089  -7.184  0.00  0.00    -0.285 N 
ATOM      4  H   LIG d   1       2.298   1.854  -7.136  0.00  0.00     0.155 HD
ENDROOT
BRANCH   1   5
ATOM      5  C   LIG d   1       2.364   0.626  -4.812  0.00  0.00     0.058 C 
ATOM      6  H   LIG d   1       1.356   0.214  -4.809  0.00  0.00     0.044 H 
BRANCH   5   7
ATOM      7  C   LIG d   1       2.293   2.147  -4.658  0.00  0.00    -0.050 C 
ATOM      8  H   LIG d   1       2.547   2.620  -5.607  0.00  0.00     0.024 H 
ATOM      9  H   LIG d   1       1.284   2.436  -4.367  0.00  0.00     0.024 H 
ATOM     10  H   LIG d   1       2.999   2.468  -3.893  0.00  0.00     0.024 H 
ENDBRANCH   5   7
BRANCH   5  11
ATOM     11  C   LIG d   1       3.151   0.041  -3.667  0.00  0.00    -0.036 A 
ATOM     12  C   LIG d   1       3.912   0.865  -2.861  0.00  0.00    -0.058 A 
ATOM     13  C   LIG d   1       4.635   0.329  -1.811  0.00  0.00    -0.061 A 
ATOM     14  H   LIG d   1       3.944   1.928  -3.051  0.00  0.00     0.062 H 
ATOM     15  C   LIG d   1       4.593  -1.031  -1.567  0.00  0.00    -0.062 A 
ATOM     16  H   LIG d   1       5.230   0.972  -1.181  0.00  0.00     0.062 H 
ATOM     17  C   LIG d   1       3.830  -1.855  -2.373  0.00  0.00    -0.061 A 
ATOM     18  H   LIG d   1       5.156  -1.450  -0.747  0.00  0.00     0.062 H 
ATOM     19  C   LIG d   1       3.105  -1.319  -3.421  0.00  0.00    -0.058 A 
ATOM     20  H   LIG d   1       3.798  -2.918  -2.183  0.00  0.00     0.062 H 
ATOM     21  H   LIG d   1       2.506  -1.962  -4.048  0.00  0.00     0.062 H 
ENDBRANCH   5  11
ENDBRANCH   1   5
BRANCH   3  22
ATOM     22  C   LIG d   1       3.594   0.822  -8.365  0.00  0.00     0.046 A 
ATOM     23  C   LIG d   1       4.951   1.111  -8.448  0.00  0.00     0.037 A 
ATOM     24  C   LIG d   1       5.641   0.847  -9.614  0.00  0.00     0.281 A 
ATOM     25  H   LIG d   1       5.464   1.542  -7.602  0.00  0.00     0.070 H 
ATOM     26  C   LIG d   1       4.984   0.296 -10.699  0.00  0.00     0.093 A 
ATOM     27  C   LIG d   1       3.634   0.007 -10.619  0.00  0.00     0.281 A 
ATOM     28  H   LIG d   1       5.526   0.091 -11.610  0.00  0.00     0.075 H 
ATOM     29  C   LIG d   1       2.939   0.262  -9.454  0.00  0.00     0.037 A 
ATOM     30  H   LIG d   1       1.886   0.032  -9.391  0.00  0.00     0.070 H 
BRANCH  24  31
ATOM     31  N   LIG d   1       7.086   1.155  -9.703  0.00  0.00     0.080 N 
ATOM     32  O   LIG d   1       7.864   0.315 -10.116  0.00  0.00     0.041 OA
ATOM     33  O   LIG d   1       7.497   2.252  -9.366  0.00  0.00    -0.576 OA
ENDBRANCH  24  31
BRANCH  27  34
ATOM     34  N   LIG d   1       2.935  -0.582 -11.784  0.00  0.00     0.080 N 
ATOM     35  O   LIG d   1       1.746  -0.836 -11.716  0.00  0.00     0.041 OA
ATOM     36  O   LIG d   1       3.549  -0.811 -12.810  0.00  0.00    -0.576 OA
ENDBRANCH  27  34
ENDBRANCH   3  22
TORSDOF 6
ENDMDL
MODEL 2
REMARK VINA RESULT:      -6.7      2.258      3.989
REMARK  6 active torsions:
REMARK  status: ('A' for Active; 'I' for Inactive)
REMARK    1  A    between atoms: C_1  and  C_2 
REMARK    2  A    between atoms: C_2  and  C_4 
REMARK    3  A    between atoms: C_2  and  C_10 
REMARK       I    between atoms: C_10  and  N_12 
REMARK    4  A    between atoms: N_12  and  C_13 
REMARK    5  A    between atoms: C_15  and  N_22 
REMARK    6  A    between atoms: C_17  and  N_19 
ROOT
ATOM      1  C   LIG d   1       5.392  -1.909  -6.068  0.00  0.00     0.224 C 
ATOM      2  O   LIG d   1       6.251  -1.878  -6.924  0.00  0.00    -0.275 OA
ATOM      3  N   LIG d   1       4.130  -1.546  -6.368  0.00  0.00    -0.285 N 
ATOM      4  H   LIG d   1       3.429  -1.634  -5.703  0.00  0.00     0.155 HD
ENDROOT
BRANCH   1   5
ATOM      5  C   LIG d   1       5.735  -2.359  -4.671  0.00  0.00     0.058 C 
ATOM      6  H   LIG d   1       6.798  -2.589  -4.615  0.00  0.00     0.044 H 
BRANCH   5   7
ATOM      7  C   LIG d   1       4.924  -3.609  -4.324  0.00  0.00    -0.050 C 
ATOM      8  H   LIG d   1       5.603  -4.441  -4.134  0.00  0.00     0.024 H 
ATOM      9  H   LIG d   1       4.326  -3.419  -3.434  0.00  0.00     0.024 H 
ATOM     10  H   LIG d   1       4.268  -3.859  -5.157  0.00  0.00     0.024 H 
ENDBRANCH   5   7
BRANCH   5  11
ATOM     11  C   LIG d   1       5.406  -1.260  -3.694  0.00  0.00    -0.036 A 
ATOM     12  C   LIG d   1       4.531  -1.501  -2.652  0.00  0.00    -0.058 A 
ATOM     13  C   LIG d   1       4.229  -0.493  -1.756  0.00  0.00    -0.061 A 
ATOM     14  H   LIG d   1       4.083  -2.477  -2.538  0.00  0.00     0.062 H 
ATOM     15  C   LIG d   1       4.803   0.756  -1.902  0.00  0.00    -0.062 A 
ATOM     16  H   LIG d   1       3.545  -0.681  -0.942  0.00  0.00     0.062 H 
ATOM     17  C   LIG d   1       5.679   0.997  -2.943  0.00  0.00    -0.061 A 
ATOM     18  H   LIG d   1       4.567   1.544  -1.202  0.00  0.00     0.062 H 
ATOM     19  C   LIG d   1       5.984  -0.012  -3.838  0.00  0.00    -0.058 A 
ATOM     20  H   LIG d   1       6.127   1.973  -3.057  0.00  0.00     0.062 H 
ATOM     21  H   LIG d   1       6.671   0.175  -4.649  0.00  0.00     0.062 H 
ENDBRANCH   5  11
ENDBRANCH   1   5
BRANCH   3  22
ATOM     22  C   LIG d   1       3.830  -1.041  -7.638  0.00  0.00     0.046 A 
ATOM     23  C   LIG d   1       3.180  -1.842  -8.569  0.00  0.00     0.037 A 
ATOM     24  C   LIG d   1       2.884  -1.342  -9.821  0.00  0.00     0.281 A 
ATOM     25  H   LIG d   1       2.907  -2.855  -8.313  0.00  0.00     0.070 H 
ATOM     26  C   LIG d   1       3.235  -0.045 -10.151  0.00  0.00     0.093 A 
ATOM     27  C   LIG d   1       3.881   0.755  -9.226  0.00  0.00     0.281 A 
ATOM     28  H   LIG d   1       3.003   0.344 -11.130  0.00  0.00     0.075 H 
ATOM     29  C   LIG d   1       4.174   0.263  -7.969  0.00  0.00     0.037 A 
ATOM     30  H   LIG d   1       4.675   0.889  -7.246  0.00  0.00     0.070 H 
BRANCH  24  31
ATOM     31  N   LIG d   1       2.192  -2.195 -10.814  0.00  0.00     0.080 N 
ATOM     32  O   LIG d   1       2.591  -2.237 -11.964  0.00  0.00     0.041 OA
ATOM     33  O   LIG d   1       1.225  -2.856 -10.480  0.00  0.00    -0.576 OA
ENDBRANCH  24  31
BRANCH  27  34
ATOM     34  N   LIG d   1       4.256   2.142  -9.583  0.00  0.00     0.080 N 
ATOM     35  O   LIG d   1       3.433   2.884 -10.087  0.00  0.00     0.041 OA
ATOM     36  O   LIG d   1       5.387   2.541  -9.370  0.00  0.00    -0.576 OA
ENDBRANCH  27  34
ENDBRANCH   3  22
TORSDOF 6
ENDMDL
MODEL 3
REMARK VINA RESULT:      -6.7      2.244      2.989
REMARK  6 active torsions:
REMARK  status: ('A' for Active; 'I' for Inactive)
REMARK    1  A    between atoms: C_1  and  C_2 
REMARK    2  A    between atoms: C_2  and  C_4 
REMARK    3  A    between atoms: C_2  and  C_10 
REMARK       I    between atoms: C_10  and  N_12 
REMARK    4  A    between atoms: N_12  and  C_13 
REMARK    5  A    between atoms: C_15  and  N_22 
REMARK    6  A    between atoms: C_17  and  N_19 
ROOT
ATOM      1  C   LIG d   1       5.388  -2.331  -6.395  0.00  0.00     0.224 C 
ATOM      2  O   LIG d   1       6.226  -2.231  -7.266  0.00  0.00    -0.275 OA
ATOM      3  N   LIG d   1       4.157  -1.818  -6.583  0.00  0.00    -0.285 N 
ATOM      4  H   LIG d   1       3.466  -1.955  -5.915  0.00  0.00     0.155 HD
ENDROOT
BRANCH   1   5
ATOM      5  C   LIG d   1       5.722  -3.033  -5.103  0.00  0.00     0.058 C 
ATOM      6  H   LIG d   1       6.798  -3.192  -5.045  0.00  0.00     0.044 H 
BRANCH   5   7
ATOM      7  C   LIG d   1       5.004  -4.383  -5.056  0.00  0.00    -0.050 C 
ATOM      8  H   LIG d   1       4.229  -4.409  -5.823  0.00  0.00     0.024 H 
ATOM      9  H   LIG d   1       5.721  -5.183  -5.238  0.00  0.00     0.024 H 
ATOM     10  H   LIG d   1       4.549  -4.518  -4.075  0.00  0.00     0.024 H 
ENDBRANCH   5   7
BRANCH   5  11
ATOM     11  C   LIG d   1       5.276  -2.185  -3.940  0.00  0.00    -0.036 A 
ATOM     12  C   LIG d   1       4.225  -2.602  -3.145  0.00  0.00    -0.058 A 
ATOM     13  C   LIG d   1       3.814  -1.824  -2.078  0.00  0.00    -0.061 A 
ATOM     14  H   LIG d   1       3.723  -3.534  -3.358  0.00  0.00     0.062 H 
ATOM     15  C   LIG d   1       4.457  -0.630  -1.806  0.00  0.00    -0.062 A 
ATOM     16  H   LIG d   1       2.993  -2.149  -1.458  0.00  0.00     0.062 H 
ATOM     17  C   LIG d   1       5.509  -0.215  -2.600  0.00  0.00    -0.061 A 
ATOM     18  H   LIG d   1       4.137  -0.023  -0.973  0.00  0.00     0.062 H 
ATOM     19  C   LIG d   1       5.922  -0.994  -3.665  0.00  0.00    -0.058 A 
ATOM     20  H   LIG d   1       6.011   0.718  -2.387  0.00  0.00     0.062 H 
ATOM     21  H   LIG d   1       6.746  -0.671  -4.283  0.00  0.00     0.062 H 
ENDBRANCH   5  11
ENDBRANCH   1   5
BRANCH   3  22
ATOM     22  C   LIG d   1       3.873  -1.086  -7.742  0.00  0.00     0.046 A 
ATOM     23  C   LIG d   1       4.423   0.177  -7.919  0.00  0.00     0.037 A 
ATOM     24  C   LIG d   1       4.141   0.897  -9.063  0.00  0.00     0.281 A 
ATOM     25  H   LIG d   1       5.069   0.596  -7.162  0.00  0.00     0.070 H 
ATOM     26  C   LIG d   1       3.312   0.362 -10.032  0.00  0.00     0.093 A 
ATOM     27  C   LIG d   1       2.764  -0.896  -9.859  0.00  0.00     0.281 A 
ATOM     28  H   LIG d   1       3.093   0.927 -10.926  0.00  0.00     0.075 H 
ATOM     29  C   LIG d   1       3.047  -1.623  -8.720  0.00  0.00     0.037 A 
ATOM     30  H   LIG d   1       2.622  -2.607  -8.588  0.00  0.00     0.070 H 
BRANCH  24  31
ATOM     31  N   LIG d   1       4.726   2.244  -9.252  0.00  0.00     0.080 N 
ATOM     32  O   LIG d   1       5.926   2.369  -9.418  0.00  0.00     0.041 OA
ATOM     33  O   LIG d   1       4.006   3.227  -9.242  0.00  0.00    -0.576 OA
ENDBRANCH  24  31
BRANCH  27  34
ATOM     34  N   LIG d   1       1.876  -1.464 -10.899  0.00  0.00     0.080 N 
ATOM     35  O   LIG d   1       1.304  -2.520 -10.701  0.00  0.00     0.041 OA
ATOM     36  O   LIG d   1       1.719  -0.874 -11.953  0.00  0.00    -0.576 OA
ENDBRANCH  27  34
ENDBRANCH   3  22
TORSDOF 6
ENDMDL
MODEL 4
REMARK VINA RESULT:      -6.6      5.335      7.762
REMARK  6 active torsions:
REMARK  status: ('A' for Active; 'I' for Inactive)
REMARK    1  A    between atoms: C_1  and  C_2 
REMARK    2  A    between atoms: C_2  and  C_4 
REMARK    3  A    between atoms: C_2  and  C_10 
REMARK       I    between atoms: C_10  and  N_12 
REMARK    4  A    between atoms: N_12  and  C_13 
REMARK    5  A    between atoms: C_15  and  N_22 
REMARK    6  A    between atoms: C_17  and  N_19 
ROOT
ATOM      1  C   LIG d   1       8.783   1.893  -4.791  0.00  0.00     0.224 C 
ATOM      2  O   LIG d   1       7.980   2.070  -5.683  0.00  0.00    -0.275 OA
ATOM      3  N   LIG d   1       8.499   1.041  -3.788  0.00  0.00    -0.285 N 
ATOM      4  H   LIG d   1       9.167   0.848  -3.111  0.00  0.00     0.155 HD
ENDROOT
BRANCH   1   5
ATOM      5  C   LIG d   1      10.103   2.622  -4.810  0.00  0.00     0.058 C 
ATOM      6  H   LIG d   1      10.428   2.757  -5.841  0.00  0.00     0.044 H 
BRANCH   5   7
ATOM      7  C   LIG d   1      11.148   1.805  -4.049  0.00  0.00    -0.050 C 
ATOM      8  H   LIG d   1      11.238   2.188  -3.032  0.00  0.00     0.024 H 
ATOM      9  H   LIG d   1      10.840   0.760  -4.017  0.00  0.00     0.024 H 
ATOM     10  H   LIG d   1      12.111   1.885  -4.553  0.00  0.00     0.024 H 
ENDBRANCH   5   7
BRANCH   5  11
ATOM     11  C   LIG d   1       9.942   3.969  -4.153  0.00  0.00    -0.036 A 
ATOM     12  C   LIG d   1       9.486   5.046  -4.889  0.00  0.00    -0.058 A 
ATOM     13  C   LIG d   1       9.339   6.282  -4.287  0.00  0.00    -0.061 A 
ATOM     14  H   LIG d   1       9.245   4.923  -5.935  0.00  0.00     0.062 H 
ATOM     15  C   LIG d   1       9.646   6.439  -2.949  0.00  0.00    -0.062 A 
ATOM     16  H   LIG d   1       8.983   7.123  -4.862  0.00  0.00     0.062 H 
ATOM     17  C   LIG d   1      10.101   5.361  -2.212  0.00  0.00    -0.061 A 
ATOM     18  H   LIG d   1       9.531   7.404  -2.478  0.00  0.00     0.062 H 
ATOM     19  C   LIG d   1      10.245   4.124  -2.813  0.00  0.00    -0.058 A 
ATOM     20  H   LIG d   1      10.342   5.485  -1.167  0.00  0.00     0.062 H 
ATOM     21  H   LIG d   1      10.597   3.282  -2.237  0.00  0.00     0.062 H 
ENDBRANCH   5  11
ENDBRANCH   1   5
BRANCH   3  22
ATOM     22  C   LIG d   1       7.240   0.434  -3.720  0.00  0.00     0.046 A 
ATOM     23  C   LIG d   1       7.102  -0.917  -4.011  0.00  0.00     0.037 A 
ATOM     24  C   LIG d   1       5.859  -1.514  -3.943  0.00  0.00     0.281 A 
ATOM     25  H   LIG d   1       7.967  -1.500  -4.291  0.00  0.00     0.070 H 
ATOM     26  C   LIG d   1       4.751  -0.768  -3.586  0.00  0.00     0.093 A 
ATOM     27  C   LIG d   1       4.884   0.578  -3.295  0.00  0.00     0.281 A 
ATOM     28  H   LIG d   1       3.780  -1.236  -3.534  0.00  0.00     0.075 H 
ATOM     29  C   LIG d   1       6.126   1.179  -3.354  0.00  0.00     0.037 A 
ATOM     30  H   LIG d   1       6.230   2.228  -3.123  0.00  0.00     0.070 H 
BRANCH  24  31
ATOM     31  N   LIG d   1       5.712  -2.953  -4.254  0.00  0.00     0.080 N 
ATOM     32  O   LIG d   1       4.614  -3.478  -4.207  0.00  0.00     0.041 OA
ATOM     33  O   LIG d   1       6.689  -3.614  -4.560  0.00  0.00    -0.576 OA
ENDBRANCH  24  31
BRANCH  27  34
ATOM     34  N   LIG d   1       3.695   1.373  -2.914  0.00  0.00     0.080 N 
ATOM     35  O   LIG d   1       3.181   1.215  -1.822  0.00  0.00     0.041 OA
ATOM     36  O   LIG d   1       3.231   2.186  -3.694  0.00  0.00    -0.576 OA
ENDBRANCH  27  34
ENDBRANCH   3  22
TORSDOF 6
ENDMDL
MODEL 5
REMARK VINA RESULT:      -6.6      5.347      7.745
REMARK  6 active torsions:
REMARK  status: ('A' for Active; 'I' for Inactive)
REMARK    1  A    between atoms: C_1  and  C_2 
REMARK    2  A    between atoms: C_2  and  C_4 
REMARK    3  A    between atoms: C_2  and  C_10 
REMARK       I    between atoms: C_10  and  N_12 
REMARK    4  A    between atoms: N_12  and  C_13 
REMARK    5  A    between atoms: C_15  and  N_22 
REMARK    6  A    between atoms: C_17  and  N_19 
ROOT
ATOM      1  C   LIG d   1       8.795   1.897  -4.781  0.00  0.00     0.224 C 
ATOM      2  O   LIG d   1       7.986   2.081  -5.665  0.00  0.00    -0.275 OA
ATOM      3  N   LIG d   1       8.522   1.033  -3.786  0.00  0.00    -0.285 N 
ATOM      4  H   LIG d   1       9.195   0.835  -3.115  0.00  0.00     0.155 HD
ENDROOT
BRANCH   1   5
ATOM      5  C   LIG d   1      10.111   2.634  -4.799  0.00  0.00     0.058 C 
ATOM      6  H   LIG d   1      10.442   2.759  -5.829  0.00  0.00     0.044 H 
BRANCH   5   7
ATOM      7  C   LIG d   1      11.156   1.830  -4.022  0.00  0.00    -0.050 C 
ATOM      8  H   LIG d   1      11.512   2.420  -3.177  0.00  0.00     0.024 H 
ATOM      9  H   LIG d   1      10.707   0.907  -3.657  0.00  0.00     0.024 H 
ATOM     10  H   LIG d   1      11.994   1.593  -4.677  0.00  0.00     0.024 H 
ENDBRANCH   5   7
BRANCH   5  11
ATOM     11  C   LIG d   1       9.939   3.987  -4.159  0.00  0.00    -0.036 A 
ATOM     12  C   LIG d   1      10.225   4.157  -2.817  0.00  0.00    -0.058 A 
ATOM     13  C   LIG d   1      10.066   5.398  -2.229  0.00  0.00    -0.061 A 
ATOM     14  H   LIG d   1      10.572   3.320  -2.228  0.00  0.00     0.062 H 
ATOM     15  C   LIG d   1       9.623   6.468  -2.983  0.00  0.00    -0.062 A 
ATOM     16  H   LIG d   1      10.290   5.531  -1.181  0.00  0.00     0.062 H 
ATOM     17  C   LIG d   1       9.338   6.298  -4.325  0.00  0.00    -0.061 A 
ATOM     18  H   LIG d   1       9.500   7.438  -2.524  0.00  0.00     0.062 H 
ATOM     19  C   LIG d   1       9.500   5.058  -4.914  0.00  0.00    -0.058 A 
ATOM     20  H   LIG d   1       8.992   7.135  -4.914  0.00  0.00     0.062 H 
ATOM     21  H   LIG d   1       9.281   4.926  -5.963  0.00  0.00     0.062 H 
ENDBRANCH   5  11
ENDBRANCH   1   5
BRANCH   3  22
ATOM     22  C   LIG d   1       7.266   0.419  -3.717  0.00  0.00     0.046 A 
ATOM     23  C   LIG d   1       6.150   1.158  -3.344  0.00  0.00     0.037 A 
ATOM     24  C   LIG d   1       4.912   0.550  -3.278  0.00  0.00     0.281 A 
ATOM     25  H   LIG d   1       6.251   2.206  -3.107  0.00  0.00     0.070 H 
ATOM     26  C   LIG d   1       4.782  -0.793  -3.580  0.00  0.00     0.093 A 
ATOM     27  C   LIG d   1       5.891  -1.531  -3.952  0.00  0.00     0.281 A 
ATOM     28  H   LIG d   1       3.813  -1.266  -3.527  0.00  0.00     0.075 H 
ATOM     29  C   LIG d   1       7.130  -0.928  -4.027  0.00  0.00     0.037 A 
ATOM     30  H   LIG d   1       7.995  -1.504  -4.322  0.00  0.00     0.070 H 
BRANCH  24  31
ATOM     31  N   LIG d   1       3.723   1.337  -2.880  0.00  0.00     0.080 N 
ATOM     32  O   LIG d   1       3.417   2.336  -3.504  0.00  0.00     0.041 OA
ATOM     33  O   LIG d   1       3.049   0.983  -1.928  0.00  0.00    -0.576 OA
ENDBRANCH  24  31
BRANCH  27  34
ATOM     34  N   LIG d   1       5.747  -2.969  -4.275  0.00  0.00     0.080 N 
ATOM     35  O   LIG d   1       6.716  -3.614  -4.629  0.00  0.00     0.041 OA
ATOM     36  O   LIG d   1       4.657  -3.507  -4.184  0.00  0.00    -0.576 OA
ENDBRANCH  27  34
ENDBRANCH   3  22
TORSDOF 6
ENDMDL
MODEL 6
REMARK VINA RESULT:      -6.5      2.874      7.203
REMARK  6 active torsions:
REMARK  status: ('A' for Active; 'I' for Inactive)
REMARK    1  A    between atoms: C_1  and  C_2 
REMARK    2  A    between atoms: C_2  and  C_4 
REMARK    3  A    between atoms: C_2  and  C_10 
REMARK       I    between atoms: C_10  and  N_12 
REMARK    4  A    between atoms: N_12  and  C_13 
REMARK    5  A    between atoms: C_15  and  N_22 
REMARK    6  A    between atoms: C_17  and  N_19 
ROOT
ATOM      1  C   LIG d   1       4.419   0.748  -7.944  0.00  0.00     0.224 C 
ATOM      2  O   LIG d   1       5.591   0.573  -7.682  0.00  0.00    -0.275 OA
ATOM      3  N   LIG d   1       3.467   0.306  -7.100  0.00  0.00    -0.285 N 
ATOM      4  H   LIG d   1       2.533   0.503  -7.275  0.00  0.00     0.155 HD
ENDROOT
BRANCH   1   5
ATOM      5  C   LIG d   1       4.029   1.465  -9.211  0.00  0.00     0.058 C 
ATOM      6  H   LIG d   1       4.922   1.863  -9.692  0.00  0.00     0.044 H 
BRANCH   5   7
ATOM      7  C   LIG d   1       3.076   2.613  -8.875  0.00  0.00    -0.050 C 
ATOM      8  H   LIG d   1       3.530   3.560  -9.169  0.00  0.00     0.024 H 
ATOM      9  H   LIG d   1       2.139   2.478  -9.414  0.00  0.00     0.024 H 
ATOM     10  H   LIG d   1       2.881   2.622  -7.803  0.00  0.00     0.024 H 
ENDBRANCH   5   7
BRANCH   5  11
ATOM     11  C   LIG d   1       3.344   0.500 -10.144  0.00  0.00    -0.036 A 
ATOM     12  C   LIG d   1       3.969   0.106 -11.312  0.00  0.00    -0.058 A 
ATOM     13  C   LIG d   1       3.340  -0.779 -12.168  0.00  0.00    -0.061 A 
ATOM     14  H   LIG d   1       4.948   0.490 -11.557  0.00  0.00     0.062 H 
ATOM     15  C   LIG d   1       2.087  -1.271 -11.854  0.00  0.00    -0.062 A 
ATOM     16  H   LIG d   1       3.828  -1.086 -13.081  0.00  0.00     0.062 H 
ATOM     17  C   LIG d   1       1.462  -0.878 -10.686  0.00  0.00    -0.061 A 
ATOM     18  H   LIG d   1       1.595  -1.963 -12.522  0.00  0.00     0.062 H 
ATOM     19  C   LIG d   1       2.092   0.004  -9.828  0.00  0.00    -0.058 A 
ATOM     20  H   LIG d   1       0.483  -1.263 -10.441  0.00  0.00     0.062 H 
ATOM     21  H   LIG d   1       1.606   0.308  -8.913  0.00  0.00     0.062 H 
ENDBRANCH   5  11
ENDBRANCH   1   5
BRANCH   3  22
ATOM     22  C   LIG d   1       3.823  -0.440  -5.971  0.00  0.00     0.046 A 
ATOM     23  C   LIG d   1       4.269  -1.748  -6.113  0.00  0.00     0.037 A 
ATOM     24  C   LIG d   1       4.620  -2.481  -4.997  0.00  0.00     0.281 A 
ATOM     25  H   LIG d   1       4.339  -2.191  -7.095  0.00  0.00     0.070 H 
ATOM     26  C   LIG d   1       4.529  -1.916  -3.739  0.00  0.00     0.093 A 
ATOM     27  C   LIG d   1       4.086  -0.613  -3.594  0.00  0.00     0.281 A 
ATOM     28  H   LIG d   1       4.804  -2.491  -2.868  0.00  0.00     0.075 H 
ATOM     29  C   LIG d   1       3.740   0.128  -4.706  0.00  0.00     0.037 A 
ATOM     30  H   LIG d   1       3.399   1.146  -4.592  0.00  0.00     0.070 H 
BRANCH  24  31
ATOM     31  N   LIG d   1       5.093  -3.876  -5.148  0.00  0.00     0.080 N 
ATOM     32  O   LIG d   1       6.283  -4.127  -5.074  0.00  0.00     0.041 OA
ATOM     33  O   LIG d   1       4.293  -4.773  -5.345  0.00  0.00    -0.576 OA
ENDBRANCH  24  31
BRANCH  27  34
ATOM     34  N   LIG d   1       3.990  -0.012  -2.244  0.00  0.00     0.080 N 
ATOM     35  O   LIG d   1       4.496  -0.572  -1.290  0.00  0.00     0.041 OA
ATOM     36  O   LIG d   1       3.403   1.045  -2.090  0.00  0.00    -0.576 OA
ENDBRANCH  27  34
ENDBRANCH   3  22
TORSDOF 6
ENDMDL
MODEL 7
REMARK VINA RESULT:      -6.5      2.884      6.991
REMARK  6 active torsions:
REMARK  status: ('A' for Active; 'I' for Inactive)
REMARK    1  A    between atoms: C_1  and  C_2 
REMARK    2  A    between atoms: C_2  and  C_4 
REMARK    3  A    between atoms: C_2  and  C_10 
REMARK       I    between atoms: C_10  and  N_12 
REMARK    4  A    between atoms: N_12  and  C_13 
REMARK    5  A    between atoms: C_15  and  N_22 
REMARK    6  A    between atoms: C_17  and  N_19 
ROOT
ATOM      1  C   LIG d   1       4.433   0.696  -7.957  0.00  0.00     0.224 C 
ATOM      2  O   LIG d   1       5.602   0.469  -7.724  0.00  0.00    -0.275 OA
ATOM      3  N   LIG d   1       3.484   0.293  -7.091  0.00  0.00    -0.285 N 
ATOM      4  H   LIG d   1       2.555   0.532  -7.243  0.00  0.00     0.155 HD
ENDROOT
BRANCH   1   5
ATOM      5  C   LIG d   1       4.045   1.435  -9.212  0.00  0.00     0.058 C 
ATOM      6  H   LIG d   1       4.937   1.851  -9.679  0.00  0.00     0.044 H 
BRANCH   5   7
ATOM      7  C   LIG d   1       3.078   2.567  -8.859  0.00  0.00    -0.050 C 
ATOM      8  H   LIG d   1       2.083   2.155  -8.688  0.00  0.00     0.024 H 
ATOM      9  H   LIG d   1       3.422   3.071  -7.956  0.00  0.00     0.024 H 
ATOM     10  H   LIG d   1       3.039   3.281  -9.681  0.00  0.00     0.024 H 
ENDBRANCH   5   7
BRANCH   5  11
ATOM     11  C   LIG d   1       3.375   0.482 -10.169  0.00  0.00    -0.036 A 
ATOM     12  C   LIG d   1       4.006   0.129 -11.347  0.00  0.00    -0.058 A 
ATOM     13  C   LIG d   1       3.391  -0.744 -12.225  0.00  0.00    -0.061 A 
ATOM     14  H   LIG d   1       4.978   0.537 -11.582  0.00  0.00     0.062 H 
ATOM     15  C   LIG d   1       2.147  -1.265 -11.923  0.00  0.00    -0.062 A 
ATOM     16  H   LIG d   1       3.884  -1.019 -13.146  0.00  0.00     0.062 H 
ATOM     17  C   LIG d   1       1.517  -0.914 -10.745  0.00  0.00    -0.061 A 
ATOM     18  H   LIG d   1       1.667  -1.948 -12.609  0.00  0.00     0.062 H 
ATOM     19  C   LIG d   1       2.133  -0.043  -9.865  0.00  0.00    -0.058 A 
ATOM     20  H   LIG d   1       0.545  -1.321 -10.509  0.00  0.00     0.062 H 
ATOM     21  H   LIG d   1       1.642   0.229  -8.942  0.00  0.00     0.062 H 
ENDBRANCH   5  11
ENDBRANCH   1   5
BRANCH   3  22
ATOM     22  C   LIG d   1       3.834  -0.472  -5.973  0.00  0.00     0.046 A 
ATOM     23  C   LIG d   1       3.742   0.075  -4.700  0.00  0.00     0.037 A 
ATOM     24  C   LIG d   1       4.088  -0.682  -3.598  0.00  0.00     0.281 A 
ATOM     25  H   LIG d   1       3.400   1.091  -4.572  0.00  0.00     0.070 H 
ATOM     26  C   LIG d   1       4.527  -1.983  -3.761  0.00  0.00     0.093 A 
ATOM     27  C   LIG d   1       4.620  -2.531  -5.028  0.00  0.00     0.281 A 
ATOM     28  H   LIG d   1       4.797  -2.573  -2.898  0.00  0.00     0.075 H 
ATOM     29  C   LIG d   1       4.269  -1.782  -6.133  0.00  0.00     0.037 A 
ATOM     30  H   LIG d   1       4.337  -2.211  -7.121  0.00  0.00     0.070 H 
BRANCH  24  31
ATOM     31  N   LIG d   1       3.991  -0.100  -2.241  0.00  0.00     0.080 N 
ATOM     32  O   LIG d   1       4.505  -0.669  -1.295  0.00  0.00     0.041 OA
ATOM     33  O   LIG d   1       3.398   0.951  -2.070  0.00  0.00    -0.576 OA
ENDBRANCH  24  31
BRANCH  27  34
ATOM     34  N   LIG d   1       5.091  -3.924  -5.198  0.00  0.00     0.080 N 
ATOM     35  O   LIG d   1       6.275  -4.151  -5.362  0.00  0.00     0.041 OA
ATOM     36  O   LIG d   1       4.293  -4.844  -5.172  0.00  0.00    -0.576 OA
ENDBRANCH  27  34
ENDBRANCH   3  22
TORSDOF 6
ENDMDL
MODEL 8
REMARK VINA RESULT:      -6.3      5.368      7.560
REMARK  6 active torsions:
REMARK  status: ('A' for Active; 'I' for Inactive)
REMARK    1  A    between atoms: C_1  and  C_2 
REMARK    2  A    between atoms: C_2  and  C_4 
REMARK    3  A    between atoms: C_2  and  C_10 
REMARK       I    between atoms: C_10  and  N_12 
REMARK    4  A    between atoms: N_12  and  C_13 
REMARK    5  A    between atoms: C_15  and  N_22 
REMARK    6  A    between atoms: C_17  and  N_19 
ROOT
ATOM      1  C   LIG d   1       7.477   0.805  -3.678  0.00  0.00     0.224 C 
ATOM      2  O   LIG d   1       6.734   1.721  -3.394  0.00  0.00    -0.275 OA
ATOM      3  N   LIG d   1       8.747   1.057  -4.050  0.00  0.00    -0.285 N 
ATOM      4  H   LIG d   1       9.360   0.323  -4.212  0.00  0.00     0.155 HD
ENDROOT
BRANCH   1   5
ATOM      5  C   LIG d   1       6.981  -0.617  -3.607  0.00  0.00     0.058 C 
ATOM      6  H   LIG d   1       7.357  -1.088  -2.700  0.00  0.00     0.044 H 
BRANCH   5   7
ATOM      7  C   LIG d   1       7.479  -1.393  -4.828  0.00  0.00    -0.050 C 
ATOM      8  H   LIG d   1       7.933  -2.329  -4.503  0.00  0.00     0.024 H 
ATOM      9  H   LIG d   1       6.641  -1.606  -5.490  0.00  0.00     0.024 H 
ATOM     10  H   LIG d   1       8.220  -0.796  -5.360  0.00  0.00     0.024 H 
ENDBRANCH   5   7
BRANCH   5  11
ATOM     11  C   LIG d   1       5.474  -0.623  -3.589  0.00  0.00    -0.036 A 
ATOM     12  C   LIG d   1       4.798  -0.904  -2.416  0.00  0.00    -0.058 A 
ATOM     13  C   LIG d   1       3.416  -0.910  -2.400  0.00  0.00    -0.061 A 
ATOM     14  H   LIG d   1       5.350  -1.120  -1.513  0.00  0.00     0.062 H 
ATOM     15  C   LIG d   1       2.710  -0.633  -3.556  0.00  0.00    -0.062 A 
ATOM     16  H   LIG d   1       2.888  -1.130  -1.484  0.00  0.00     0.062 H 
ATOM     17  C   LIG d   1       3.386  -0.350  -4.728  0.00  0.00    -0.061 A 
ATOM     18  H   LIG d   1       1.630  -0.637  -3.543  0.00  0.00     0.062 H 
ATOM     19  C   LIG d   1       4.768  -0.341  -4.744  0.00  0.00    -0.058 A 
ATOM     20  H   LIG d   1       2.834  -0.134  -5.631  0.00  0.00     0.062 H 
ATOM     21  H   LIG d   1       5.296  -0.117  -5.659  0.00  0.00     0.062 H 
ENDBRANCH   5  11
ENDBRANCH   1   5
BRANCH   3  22
ATOM     22  C   LIG d   1       9.181   2.378  -4.205  0.00  0.00     0.046 A 
ATOM     23  C   LIG d   1       9.225   2.952  -5.469  0.00  0.00     0.037 A 
ATOM     24  C   LIG d   1       9.654   4.256  -5.619  0.00  0.00     0.281 A 
ATOM     25  H   LIG d   1       8.924   2.380  -6.333  0.00  0.00     0.070 H 
ATOM     26  C   LIG d   1      10.041   4.990  -4.513  0.00  0.00     0.093 A 
ATOM     27  C   LIG d   1       9.999   4.422  -3.253  0.00  0.00     0.281 A 
ATOM     28  H   LIG d   1      10.376   6.009  -4.633  0.00  0.00     0.075 H 
ATOM     29  C   LIG d   1       9.564   3.121  -3.095  0.00  0.00     0.037 A 
ATOM     30  H   LIG d   1       9.527   2.679  -2.111  0.00  0.00     0.070 H 
BRANCH  24  31
ATOM     31  N   LIG d   1       9.701   4.868  -6.966  0.00  0.00     0.080 N 
ATOM     32  O   LIG d   1       9.721   6.080  -7.084  0.00  0.00     0.041 OA
ATOM     33  O   LIG d   1       9.723   4.160  -7.957  0.00  0.00    -0.576 OA
ENDBRANCH  24  31
BRANCH  27  34
ATOM     34  N   LIG d   1      10.415   5.211  -2.072  0.00  0.00     0.080 N 
ATOM     35  O   LIG d   1       9.826   6.237  -1.787  0.00  0.00     0.041 OA
ATOM     36  O   LIG d   1      11.347   4.832  -1.385  0.00  0.00    -0.576 OA
ENDBRANCH  27  34
ENDBRANCH   3  22
TORSDOF 6
ENDMDL
MODEL 9
REMARK VINA RESULT:      -6.3      5.083      6.910
REMARK  6 active torsions:
REMARK  status: ('A' for Active; 'I' for Inactive)
REMARK    1  A    between atoms: C_1  and  C_2 
REMARK    2  A    between atoms: C_2  and  C_4 
REMARK    3  A    between atoms: C_2  and  C_10 
REMARK       I    between atoms: C_10  and  N_12 
REMARK    4  A    between atoms: N_12  and  C_13 
REMARK    5  A    between atoms: C_15  and  N_22 
REMARK    6  A    between atoms: C_17  and  N_19 
ROOT
ATOM      1  C   LIG d   1       7.193   0.704  -3.544  0.00  0.00     0.224 C 
ATOM      2  O   LIG d   1       6.530   1.692  -3.308  0.00  0.00    -0.275 OA
ATOM      3  N   LIG d   1       8.455   0.832  -3.995  0.00  0.00    -0.285 N 
ATOM      4  H   LIG d   1       9.008   0.044  -4.120  0.00  0.00     0.155 HD
ENDROOT
BRANCH   1   5
ATOM      5  C   LIG d   1       6.605  -0.668  -3.327  0.00  0.00     0.058 C 
ATOM      6  H   LIG d   1       6.827  -1.002  -2.315  0.00  0.00     0.044 H 
BRANCH   5   7
ATOM      7  C   LIG d   1       7.212  -1.647  -4.333  0.00  0.00    -0.050 C 
ATOM      8  H   LIG d   1       6.789  -2.640  -4.174  0.00  0.00     0.024 H 
ATOM      9  H   LIG d   1       6.986  -1.315  -5.346  0.00  0.00     0.024 H 
ATOM     10  H   LIG d   1       8.292  -1.686  -4.196  0.00  0.00     0.024 H 
ENDBRANCH   5   7
BRANCH   5  11
ATOM     11  C   LIG d   1       5.111  -0.610  -3.521  0.00  0.00    -0.036 A 
ATOM     12  C   LIG d   1       4.267  -0.875  -2.459  0.00  0.00    -0.058 A 
ATOM     13  C   LIG d   1       2.897  -0.823  -2.636  0.00  0.00    -0.061 A 
ATOM     14  H   LIG d   1       4.677  -1.123  -1.491  0.00  0.00     0.062 H 
ATOM     15  C   LIG d   1       2.372  -0.504  -3.874  0.00  0.00    -0.062 A 
ATOM     16  H   LIG d   1       2.237  -1.030  -1.807  0.00  0.00     0.062 H 
ATOM     17  C   LIG d   1       3.216  -0.237  -4.936  0.00  0.00    -0.061 A 
ATOM     18  H   LIG d   1       1.302  -0.463  -4.013  0.00  0.00     0.062 H 
ATOM     19  C   LIG d   1       4.587  -0.286  -4.758  0.00  0.00    -0.058 A 
ATOM     20  H   LIG d   1       2.806   0.011  -5.903  0.00  0.00     0.062 H 
ATOM     21  H   LIG d   1       5.246  -0.075  -5.586  0.00  0.00     0.062 H 
ENDBRANCH   5  11
ENDBRANCH   1   5
BRANCH   3  22
ATOM     22  C   LIG d   1       8.970   2.100  -4.283  0.00  0.00     0.046 A 
ATOM     23  C   LIG d   1       9.366   2.942  -3.251  0.00  0.00     0.037 A 
ATOM     24  C   LIG d   1       9.874   4.193  -3.539  0.00  0.00     0.281 A 
ATOM     25  H   LIG d   1       9.275   2.618  -2.226  0.00  0.00     0.070 H 
ATOM     26  C   LIG d   1       9.989   4.610  -4.852  0.00  0.00     0.093 A 
ATOM     27  C   LIG d   1       9.597   3.774  -5.882  0.00  0.00     0.281 A 
ATOM     28  H   LIG d   1      10.387   5.588  -5.074  0.00  0.00     0.075 H 
ATOM     29  C   LIG d   1       9.094   2.519  -5.602  0.00  0.00     0.037 A 
ATOM     30  H   LIG d   1       8.792   1.866  -6.407  0.00  0.00     0.070 H 
BRANCH  24  31
ATOM     31  N   LIG d   1      10.295   5.090  -2.439  0.00  0.00     0.080 N 
ATOM     32  O   LIG d   1      11.029   4.675  -1.560  0.00  0.00     0.041 OA
ATOM     33  O   LIG d   1       9.909   6.246  -2.414  0.00  0.00    -0.576 OA
ENDBRANCH  24  31
BRANCH  27  34
ATOM     34  N   LIG d   1       9.721   4.225  -7.287  0.00  0.00     0.080 N 
ATOM     35  O   LIG d   1      10.491   5.123  -7.573  0.00  0.00     0.041 OA
ATOM     36  O   LIG d   1       9.053   3.695  -8.157  0.00  0.00    -0.576 OA
ENDBRANCH  27  34
ENDBRANCH   3  22
TORSDOF 6
ENDMDL
