MODEL 1
REMARK VINA RESULT:      -6.0      0.000      0.000
REMARK  5 active torsions:
REMARK  status: ('A' for Active; 'I' for Inactive)
REMARK    1  A    between atoms: C_1  and  C_2 
REMARK    2  A    between atoms: C_2  and  C_3 
REMARK    3  A    between atoms: C_2  and  C_4 
REMARK    4  A    between atoms: C_4  and  O_5 
REMARK    5  A    between atoms: O_5  and  C_6 
ROOT
ATOM      1  C   LIG d   1       3.503   0.005  -6.826  0.00  0.00     0.121 A 
ATOM      2  C   LIG d   1       2.445   0.568  -6.106  0.00  0.00    -0.019 A 
ATOM      3  C   LIG d   1       2.349   0.401  -4.759  0.00  0.00    -0.051 A 
ATOM      4  C   LIG d   1       3.325  -0.346  -4.078  0.00  0.00    -0.018 A 
ATOM      5  C   LIG d   1       3.258  -0.537  -2.687  0.00  0.00    -0.054 A 
ATOM      6  C   LIG d   1       4.221  -1.267  -2.060  0.00  0.00    -0.061 A 
ATOM      7  C   LIG d   1       5.280  -1.824  -2.776  0.00  0.00    -0.061 A 
ATOM      8  C   LIG d   1       5.375  -1.664  -4.123  0.00  0.00    -0.054 A 
ATOM      9  C   LIG d   1       4.399  -0.918  -4.807  0.00  0.00    -0.014 A 
ATOM     10  C   LIG d   1       4.469  -0.727  -6.196  0.00  0.00    -0.012 A 
ATOM     11  H   LIG d   1       1.692   1.142  -6.625  0.00  0.00     0.065 H 
ATOM     12  H   LIG d   1       1.526   0.841  -4.215  0.00  0.00     0.062 H 
ATOM     13  H   LIG d   1       2.446  -0.109  -2.119  0.00  0.00     0.062 H 
ATOM     14  H   LIG d   1       4.166  -1.412  -0.991  0.00  0.00     0.062 H 
ATOM     15  H   LIG d   1       6.033  -2.395  -2.252  0.00  0.00     0.062 H 
ATOM     16  H   LIG d   1       6.199  -2.105  -4.665  0.00  0.00     0.062 H 
ATOM     17  H   LIG d   1       5.281  -1.157  -6.763  0.00  0.00     0.066 H 
ENDROOT
BRANCH   1  18
ATOM     18  O   LIG d   1       3.571   0.189  -8.171  0.00  0.00    -0.492 OA
BRANCH  18  19
ATOM     19  C   LIG d   1       2.850   1.298  -8.711  0.00  0.00     0.092 C 
ATOM     20  H   LIG d   1       1.933   0.942  -9.179  0.00  0.00     0.070 H 
ATOM     21  H   LIG d   1       2.603   1.996  -7.912  0.00  0.00     0.070 H 
BRANCH  19  22
ATOM     22  C   LIG d   1       3.714   2.006  -9.757  0.00  0.00    -0.012 C 
ATOM     23  H   LIG d   1       3.235   2.941 -10.051  0.00  0.00     0.033 H 
BRANCH  22  24
ATOM     24  C   LIG d   1       5.092   2.305  -9.163  0.00  0.00    -0.060 C 
ATOM     25  H   LIG d   1       5.137   3.350  -8.858  0.00  0.00     0.023 H 
ATOM     26  H   LIG d   1       5.260   1.666  -8.296  0.00  0.00     0.023 H 
ATOM     27  H   LIG d   1       5.860   2.110  -9.911  0.00  0.00     0.023 H 
ENDBRANCH  22  24
BRANCH  22  28
ATOM     28  C   LIG d   1       3.871   1.106 -10.983  0.00  0.00    -0.060 C 
ATOM     29  H   LIG d   1       3.550   1.646 -11.874  0.00  0.00     0.023 H 
ATOM     30  H   LIG d   1       4.917   0.817 -11.091  0.00  0.00     0.023 H 
ATOM     31  H   LIG d   1       3.259   0.212 -10.859  0.00  0.00     0.023 H 
ENDBRANCH  22  28
ENDBRANCH  19  22
ENDBRANCH  18  19
ENDBRANCH   1  18
TORSDOF 5
ENDMDL
MODEL 2
REMARK VINA RESULT:      -5.8      0.870      1.874
REMARK  5 active torsions:
REMARK  status: ('A' for Active; 'I' for Inactive)
REMARK    1  A    between atoms: C_1  and  C_2 
REMARK    2  A    between atoms: C_2  and  C_3 
REMARK    3  A    between atoms: C_2  and  C_4 
REMARK    4  A    between atoms: C_4  and  O_5 
REMARK    5  A    between atoms: O_5  and  C_6 
ROOT
ATOM      1  C   LIG d   1       3.233   0.324  -6.848  0.00  0.00     0.121 A 
ATOM      2  C   LIG d   1       4.162  -0.655  -7.213  0.00  0.00    -0.019 A 
ATOM      3  C   LIG d   1       4.625  -1.553  -6.303  0.00  0.00    -0.051 A 
ATOM      4  C   LIG d   1       4.166  -1.501  -4.976  0.00  0.00    -0.018 A 
ATOM      5  C   LIG d   1       4.622  -2.415  -4.010  0.00  0.00    -0.054 A 
ATOM      6  C   LIG d   1       4.155  -2.335  -2.734  0.00  0.00    -0.061 A 
ATOM      7  C   LIG d   1       3.224  -1.364  -2.369  0.00  0.00    -0.061 A 
ATOM      8  C   LIG d   1       2.764  -0.460  -3.276  0.00  0.00    -0.054 A 
ATOM      9  C   LIG d   1       3.223  -0.509  -4.604  0.00  0.00    -0.014 A 
ATOM     10  C   LIG d   1       2.765   0.403  -5.567  0.00  0.00    -0.012 A 
ATOM     11  H   LIG d   1       4.519  -0.698  -8.232  0.00  0.00     0.065 H 
ATOM     12  H   LIG d   1       5.344  -2.304  -6.599  0.00  0.00     0.062 H 
ATOM     13  H   LIG d   1       5.340  -3.175  -4.279  0.00  0.00     0.062 H 
ATOM     14  H   LIG d   1       4.507  -3.039  -1.994  0.00  0.00     0.062 H 
ATOM     15  H   LIG d   1       2.867  -1.325  -1.351  0.00  0.00     0.062 H 
ATOM     16  H   LIG d   1       2.046   0.291  -2.977  0.00  0.00     0.062 H 
ATOM     17  H   LIG d   1       2.048   1.164  -5.297  0.00  0.00     0.066 H 
ENDROOT
BRANCH   1  18
ATOM     18  O   LIG d   1       2.790   1.208  -7.780  0.00  0.00    -0.492 OA
BRANCH  18  19
ATOM     19  C   LIG d   1       2.634   0.721  -9.114  0.00  0.00     0.092 C 
ATOM     20  H   LIG d   1       3.057  -0.280  -9.187  0.00  0.00     0.070 H 
ATOM     21  H   LIG d   1       1.574   0.686  -9.367  0.00  0.00     0.070 H 
BRANCH  19  22
ATOM     22  C   LIG d   1       3.359   1.654 -10.086  0.00  0.00    -0.012 C 
ATOM     23  H   LIG d   1       2.631   2.143 -10.733  0.00  0.00     0.033 H 
BRANCH  22  24
ATOM     24  C   LIG d   1       4.130   2.713  -9.296  0.00  0.00    -0.060 C 
ATOM     25  H   LIG d   1       5.193   2.635  -9.525  0.00  0.00     0.023 H 
ATOM     26  H   LIG d   1       3.771   3.705  -9.571  0.00  0.00     0.023 H 
ATOM     27  H   LIG d   1       3.976   2.555  -8.229  0.00  0.00     0.023 H 
ENDBRANCH  22  24
BRANCH  22  28
ATOM     28  C   LIG d   1       4.336   0.842 -10.939  0.00  0.00    -0.060 C 
ATOM     29  H   LIG d   1       4.883   0.147 -10.301  0.00  0.00     0.023 H 
ATOM     30  H   LIG d   1       3.783   0.284 -11.694  0.00  0.00     0.023 H 
ATOM     31  H   LIG d   1       5.039   1.517 -11.428  0.00  0.00     0.023 H 
ENDBRANCH  22  28
ENDBRANCH  19  22
ENDBRANCH  18  19
ENDBRANCH   1  18
TORSDOF 5
ENDMDL
MODEL 3
REMARK VINA RESULT:      -5.7      4.452      6.571
REMARK  5 active torsions:
REMARK  status: ('A' for Active; 'I' for Inactive)
REMARK    1  A    between atoms: C_1  and  C_2 
REMARK    2  A    between atoms: C_2  and  C_3 
REMARK    3  A    between atoms: C_2  and  C_4 
REMARK    4  A    between atoms: C_4  and  O_5 
REMARK    5  A    between atoms: O_5  and  C_6 
ROOT
ATOM      1  C   LIG d   1       7.119  -2.351  -3.916  0.00  0.00     0.121 A 
ATOM      2  C   LIG d   1       6.040  -3.160  -4.285  0.00  0.00    -0.019 A 
ATOM      3  C   LIG d   1       4.760  -2.767  -4.048  0.00  0.00    -0.051 A 
ATOM      4  C   LIG d   1       4.513  -1.532  -3.425  0.00  0.00    -0.018 A 
ATOM      5  C   LIG d   1       3.203  -1.094  -3.167  0.00  0.00    -0.054 A 
ATOM      6  C   LIG d   1       3.001   0.109  -2.562  0.00  0.00    -0.061 A 
ATOM      7  C   LIG d   1       4.076   0.919  -2.199  0.00  0.00    -0.061 A 
ATOM      8  C   LIG d   1       5.358   0.525  -2.428  0.00  0.00    -0.054 A 
ATOM      9  C   LIG d   1       5.607  -0.711  -3.051  0.00  0.00    -0.014 A 
ATOM     10  C   LIG d   1       6.916  -1.145  -3.309  0.00  0.00    -0.012 A 
ATOM     11  H   LIG d   1       6.225  -4.111  -4.763  0.00  0.00     0.065 H 
ATOM     12  H   LIG d   1       3.935  -3.403  -4.338  0.00  0.00     0.062 H 
ATOM     13  H   LIG d   1       2.360  -1.709  -3.447  0.00  0.00     0.062 H 
ATOM     14  H   LIG d   1       1.993   0.442  -2.365  0.00  0.00     0.062 H 
ATOM     15  H   LIG d   1       3.887   1.870  -1.724  0.00  0.00     0.062 H 
ATOM     16  H   LIG d   1       6.181   1.162  -2.138  0.00  0.00     0.062 H 
ATOM     17  H   LIG d   1       7.758  -0.530  -3.029  0.00  0.00     0.066 H 
ENDROOT
BRANCH   1  18
ATOM     18  O   LIG d   1       8.388  -2.772  -4.165  0.00  0.00    -0.492 OA
BRANCH  18  19
ATOM     19  C   LIG d   1       8.710  -4.115  -3.798  0.00  0.00     0.092 C 
ATOM     20  H   LIG d   1       7.808  -4.625  -3.458  0.00  0.00     0.070 H 
ATOM     21  H   LIG d   1       9.120  -4.640  -4.660  0.00  0.00     0.070 H 
BRANCH  19  22
ATOM     22  C   LIG d   1       9.743  -4.101  -2.670  0.00  0.00    -0.012 C 
ATOM     23  H   LIG d   1       9.514  -3.291  -1.977  0.00  0.00     0.033 H 
BRANCH  22  24
ATOM     24  C   LIG d   1       9.702  -5.437  -1.924  0.00  0.00    -0.060 C 
ATOM     25  H   LIG d   1      10.718  -5.743  -1.672  0.00  0.00     0.023 H 
ATOM     26  H   LIG d   1       9.119  -5.325  -1.010  0.00  0.00     0.023 H 
ATOM     27  H   LIG d   1       9.241  -6.193  -2.559  0.00  0.00     0.023 H 
ENDBRANCH  22  24
BRANCH  22  28
ATOM     28  C   LIG d   1      11.138  -3.888  -3.259  0.00  0.00    -0.060 C 
ATOM     29  H   LIG d   1      11.172  -4.298  -4.269  0.00  0.00     0.023 H 
ATOM     30  H   LIG d   1      11.361  -2.822  -3.292  0.00  0.00     0.023 H 
ATOM     31  H   LIG d   1      11.877  -4.394  -2.637  0.00  0.00     0.023 H 
ENDBRANCH  22  28
ENDBRANCH  19  22
ENDBRANCH  18  19
ENDBRANCH   1  18
TORSDOF 5
ENDMDL
MODEL 4
REMARK VINA RESULT:      -5.6      1.447      5.765
REMARK  5 active torsions:
REMARK  status: ('A' for Active; 'I' for Inactive)
REMARK    1  A    between atoms: C_1  and  C_2 
REMARK    2  A    between atoms: C_2  and  C_3 
REMARK    3  A    between atoms: C_2  and  C_4 
REMARK    4  A    between atoms: C_4  and  O_5 
REMARK    5  A    between atoms: O_5  and  C_6 
ROOT
ATOM      1  C   LIG d   1       4.265  -0.652  -5.731  0.00  0.00     0.121 A 
ATOM      2  C   LIG d   1       3.048   0.015  -5.559  0.00  0.00    -0.019 A 
ATOM      3  C   LIG d   1       2.559   0.837  -6.526  0.00  0.00    -0.051 A 
ATOM      4  C   LIG d   1       3.282   1.021  -7.717  0.00  0.00    -0.018 A 
ATOM      5  C   LIG d   1       2.804   1.860  -8.738  0.00  0.00    -0.054 A 
ATOM      6  C   LIG d   1       3.531   2.014  -9.878  0.00  0.00    -0.061 A 
ATOM      7  C   LIG d   1       4.741   1.346 -10.054  0.00  0.00    -0.061 A 
ATOM      8  C   LIG d   1       5.237   0.529  -9.086  0.00  0.00    -0.054 A 
ATOM      9  C   LIG d   1       4.516   0.345  -7.893  0.00  0.00    -0.014 A 
ATOM     10  C   LIG d   1       4.994  -0.497  -6.876  0.00  0.00    -0.012 A 
ATOM     11  H   LIG d   1       2.490  -0.122  -4.645  0.00  0.00     0.065 H 
ATOM     12  H   LIG d   1       1.617   1.347  -6.379  0.00  0.00     0.062 H 
ATOM     13  H   LIG d   1       1.866   2.382  -8.617  0.00  0.00     0.062 H 
ATOM     14  H   LIG d   1       3.161   2.661 -10.661  0.00  0.00     0.062 H 
ATOM     15  H   LIG d   1       5.296   1.483 -10.971  0.00  0.00     0.062 H 
ATOM     16  H   LIG d   1       6.179   0.020  -9.235  0.00  0.00     0.062 H 
ATOM     17  H   LIG d   1       5.932  -1.017  -6.997  0.00  0.00     0.066 H 
ENDROOT
BRANCH   1  18
ATOM     18  O   LIG d   1       4.729  -1.465  -4.746  0.00  0.00    -0.492 OA
BRANCH  18  19
ATOM     19  C   LIG d   1       5.558  -0.867  -3.747  0.00  0.00     0.092 C 
ATOM     20  H   LIG d   1       6.530  -1.359  -3.740  0.00  0.00     0.070 H 
ATOM     21  H   LIG d   1       5.688   0.191  -3.969  0.00  0.00     0.070 H 
BRANCH  19  22
ATOM     22  C   LIG d   1       4.897  -1.024  -2.376  0.00  0.00    -0.012 C 
ATOM     23  H   LIG d   1       5.650  -1.309  -1.641  0.00  0.00     0.033 H 
BRANCH  22  24
ATOM     24  C   LIG d   1       4.258   0.303  -1.963  0.00  0.00    -0.060 C 
ATOM     25  H   LIG d   1       4.881   1.129  -2.307  0.00  0.00     0.023 H 
ATOM     26  H   LIG d   1       3.267   0.384  -2.410  0.00  0.00     0.023 H 
ATOM     27  H   LIG d   1       4.170   0.342  -0.877  0.00  0.00     0.023 H 
ENDBRANCH  22  24
BRANCH  22  28
ATOM     28  C   LIG d   1       3.820  -2.107  -2.449  0.00  0.00    -0.060 C 
ATOM     29  H   LIG d   1       3.917  -2.652  -3.389  0.00  0.00     0.023 H 
ATOM     30  H   LIG d   1       3.941  -2.799  -1.615  0.00  0.00     0.023 H 
ATOM     31  H   LIG d   1       2.835  -1.645  -2.397  0.00  0.00     0.023 H 
ENDBRANCH  22  28
ENDBRANCH  19  22
ENDBRANCH  18  19
ENDBRANCH   1  18
TORSDOF 5
ENDMDL
MODEL 5
REMARK VINA RESULT:      -5.6      1.484      6.016
REMARK  5 active torsions:
REMARK  status: ('A' for Active; 'I' for Inactive)
REMARK    1  A    between atoms: C_1  and  C_2 
REMARK    2  A    between atoms: C_2  and  C_3 
REMARK    3  A    between atoms: C_2  and  C_4 
REMARK    4  A    between atoms: C_4  and  O_5 
REMARK    5  A    between atoms: O_5  and  C_6 
ROOT
ATOM      1  C   LIG d   1       4.134  -0.693  -5.794  0.00  0.00     0.121 A 
ATOM      2  C   LIG d   1       5.321  -1.105  -6.407  0.00  0.00    -0.019 A 
ATOM      3  C   LIG d   1       5.669  -0.643  -7.638  0.00  0.00    -0.051 A 
ATOM      4  C   LIG d   1       4.828   0.263  -8.307  0.00  0.00    -0.018 A 
ATOM      5  C   LIG d   1       5.158   0.761  -9.579  0.00  0.00    -0.054 A 
ATOM      6  C   LIG d   1       4.319   1.637 -10.197  0.00  0.00    -0.061 A 
ATOM      7  C   LIG d   1       3.138   2.055  -9.585  0.00  0.00    -0.061 A 
ATOM      8  C   LIG d   1       2.784   1.589  -8.357  0.00  0.00    -0.054 A 
ATOM      9  C   LIG d   1       3.624   0.682  -7.687  0.00  0.00    -0.014 A 
ATOM     10  C   LIG d   1       3.293   0.186  -6.415  0.00  0.00    -0.012 A 
ATOM     11  H   LIG d   1       5.970  -1.802  -5.898  0.00  0.00     0.065 H 
ATOM     12  H   LIG d   1       6.590  -0.971  -8.101  0.00  0.00     0.062 H 
ATOM     13  H   LIG d   1       6.071   0.450 -10.064  0.00  0.00     0.062 H 
ATOM     14  H   LIG d   1       4.575   2.019 -11.174  0.00  0.00     0.062 H 
ATOM     15  H   LIG d   1       2.493   2.754 -10.096  0.00  0.00     0.062 H 
ATOM     16  H   LIG d   1       1.863   1.918  -7.896  0.00  0.00     0.062 H 
ATOM     17  H   LIG d   1       2.379   0.497  -5.932  0.00  0.00     0.066 H 
ENDROOT
BRANCH   1  18
ATOM     18  O   LIG d   1       3.813  -1.173  -4.564  0.00  0.00    -0.492 OA
BRANCH  18  19
ATOM     19  C   LIG d   1       2.924  -0.384  -3.771  0.00  0.00     0.092 C 
ATOM     20  H   LIG d   1       2.867   0.623  -4.182  0.00  0.00     0.070 H 
ATOM     21  H   LIG d   1       1.933  -0.836  -3.778  0.00  0.00     0.070 H 
BRANCH  19  22
ATOM     22  C   LIG d   1       3.445  -0.319  -2.334  0.00  0.00    -0.012 C 
ATOM     23  H   LIG d   1       2.605  -0.370  -1.641  0.00  0.00     0.033 H 
BRANCH  22  24
ATOM     24  C   LIG d   1       4.387  -1.497  -2.079  0.00  0.00    -0.060 C 
ATOM     25  H   LIG d   1       4.507  -2.071  -2.998  0.00  0.00     0.023 H 
ATOM     26  H   LIG d   1       5.359  -1.121  -1.756  0.00  0.00     0.023 H 
ATOM     27  H   LIG d   1       3.969  -2.136  -1.302  0.00  0.00     0.023 H 
ENDBRANCH  22  24
BRANCH  22  28
ATOM     28  C   LIG d   1       4.201   0.994  -2.124  0.00  0.00    -0.060 C 
ATOM     29  H   LIG d   1       3.691   1.590  -1.366  0.00  0.00     0.023 H 
ATOM     30  H   LIG d   1       5.218   0.780  -1.795  0.00  0.00     0.023 H 
ATOM     31  H   LIG d   1       4.232   1.549  -3.062  0.00  0.00     0.023 H 
ENDBRANCH  22  28
ENDBRANCH  19  22
ENDBRANCH  18  19
ENDBRANCH   1  18
TORSDOF 5
ENDMDL
MODEL 6
REMARK VINA RESULT:      -5.4      4.494      5.555
REMARK  5 active torsions:
REMARK  status: ('A' for Active; 'I' for Inactive)
REMARK    1  A    between atoms: C_1  and  C_2 
REMARK    2  A    between atoms: C_2  and  C_3 
REMARK    3  A    between atoms: C_2  and  C_4 
REMARK    4  A    between atoms: C_4  and  O_5 
REMARK    5  A    between atoms: O_5  and  C_6 
ROOT
ATOM      1  C   LIG d   1       8.128   0.803  -4.382  0.00  0.00     0.121 A 
ATOM      2  C   LIG d   1       8.196  -0.577  -4.598  0.00  0.00    -0.019 A 
ATOM      3  C   LIG d   1       7.254  -1.412  -4.083  0.00  0.00    -0.051 A 
ATOM      4  C   LIG d   1       6.194  -0.885  -3.324  0.00  0.00    -0.018 A 
ATOM      5  C   LIG d   1       5.203  -1.718  -2.779  0.00  0.00    -0.054 A 
ATOM      6  C   LIG d   1       4.191  -1.173  -2.049  0.00  0.00    -0.061 A 
ATOM      7  C   LIG d   1       4.119   0.203  -1.839  0.00  0.00    -0.061 A 
ATOM      8  C   LIG d   1       5.063   1.040  -2.346  0.00  0.00    -0.054 A 
ATOM      9  C   LIG d   1       6.124   0.514  -3.105  0.00  0.00    -0.014 A 
ATOM     10  C   LIG d   1       7.113   1.349  -3.650  0.00  0.00    -0.012 A 
ATOM     11  H   LIG d   1       9.009  -0.987  -5.179  0.00  0.00     0.065 H 
ATOM     12  H   LIG d   1       7.319  -2.477  -4.257  0.00  0.00     0.062 H 
ATOM     13  H   LIG d   1       5.243  -2.786  -2.937  0.00  0.00     0.062 H 
ATOM     14  H   LIG d   1       3.431  -1.816  -1.632  0.00  0.00     0.062 H 
ATOM     15  H   LIG d   1       3.303   0.610  -1.259  0.00  0.00     0.062 H 
ATOM     16  H   LIG d   1       4.996   2.104  -2.171  0.00  0.00     0.062 H 
ATOM     17  H   LIG d   1       7.072   2.416  -3.490  0.00  0.00     0.066 H 
ENDROOT
BRANCH   1  18
ATOM     18  O   LIG d   1       9.086   1.611  -4.909  0.00  0.00    -0.492 OA
BRANCH  18  19
ATOM     19  C   LIG d   1       8.726   2.973  -5.147  0.00  0.00     0.092 C 
ATOM     20  H   LIG d   1       8.639   3.144  -6.220  0.00  0.00     0.070 H 
ATOM     21  H   LIG d   1       7.772   3.187  -4.667  0.00  0.00     0.070 H 
BRANCH  19  22
ATOM     22  C   LIG d   1       9.804   3.893  -4.570  0.00  0.00    -0.012 C 
ATOM     23  H   LIG d   1      10.756   3.690  -5.061  0.00  0.00     0.033 H 
BRANCH  22  24
ATOM     24  C   LIG d   1       9.410   5.352  -4.808  0.00  0.00    -0.060 C 
ATOM     25  H   LIG d   1      10.200   5.856  -5.364  0.00  0.00     0.023 H 
ATOM     26  H   LIG d   1       8.482   5.389  -5.379  0.00  0.00     0.023 H 
ATOM     27  H   LIG d   1       9.266   5.850  -3.849  0.00  0.00     0.023 H 
ENDBRANCH  22  24
BRANCH  22  28
ATOM     28  C   LIG d   1       9.941   3.640  -3.068  0.00  0.00    -0.060 C 
ATOM     29  H   LIG d   1      10.268   4.555  -2.574  0.00  0.00     0.023 H 
ATOM     30  H   LIG d   1       8.977   3.332  -2.661  0.00  0.00     0.023 H 
ATOM     31  H   LIG d   1      10.675   2.852  -2.897  0.00  0.00     0.023 H 
ENDBRANCH  22  28
ENDBRANCH  19  22
ENDBRANCH  18  19
ENDBRANCH   1  18
TORSDOF 5
ENDMDL
MODEL 7
REMARK VINA RESULT:      -5.4      4.274      5.275
REMARK  5 active torsions:
REMARK  status: ('A' for Active; 'I' for Inactive)
REMARK    1  A    between atoms: C_1  and  C_2 
REMARK    2  A    between atoms: C_2  and  C_3 
REMARK    3  A    between atoms: C_2  and  C_4 
REMARK    4  A    between atoms: C_4  and  O_5 
REMARK    5  A    between atoms: O_5  and  C_6 
ROOT
ATOM      1  C   LIG d   1       6.052  -3.124  -4.373  0.00  0.00     0.121 A 
ATOM      2  C   LIG d   1       7.128  -2.300  -4.026  0.00  0.00    -0.019 A 
ATOM      3  C   LIG d   1       6.924  -1.108  -3.404  0.00  0.00    -0.051 A 
ATOM      4  C   LIG d   1       5.615  -0.694  -3.103  0.00  0.00    -0.018 A 
ATOM      5  C   LIG d   1       5.368   0.531  -2.460  0.00  0.00    -0.054 A 
ATOM      6  C   LIG d   1       4.087   0.900  -2.183  0.00  0.00    -0.061 A 
ATOM      7  C   LIG d   1       3.014   0.078  -2.522  0.00  0.00    -0.061 A 
ATOM      8  C   LIG d   1       3.214  -1.112  -3.150  0.00  0.00    -0.054 A 
ATOM      9  C   LIG d   1       4.523  -1.528  -3.454  0.00  0.00    -0.014 A 
ATOM     10  C   LIG d   1       4.768  -2.753  -4.095  0.00  0.00    -0.012 A 
ATOM     11  H   LIG d   1       8.135  -2.614  -4.257  0.00  0.00     0.065 H 
ATOM     12  H   LIG d   1       7.765  -0.481  -3.143  0.00  0.00     0.062 H 
ATOM     13  H   LIG d   1       6.189   1.176  -2.187  0.00  0.00     0.062 H 
ATOM     14  H   LIG d   1       3.900   1.842  -1.688  0.00  0.00     0.062 H 
ATOM     15  H   LIG d   1       2.008   0.393  -2.288  0.00  0.00     0.062 H 
ATOM     16  H   LIG d   1       2.372  -1.737  -3.411  0.00  0.00     0.062 H 
ATOM     17  H   LIG d   1       3.945  -3.397  -4.368  0.00  0.00     0.066 H 
ENDROOT
BRANCH   1  18
ATOM     18  O   LIG d   1       6.289  -4.309  -4.995  0.00  0.00    -0.492 OA
BRANCH  18  19
ATOM     19  C   LIG d   1       6.114  -4.344  -6.413  0.00  0.00     0.092 C 
ATOM     20  H   LIG d   1       5.694  -3.397  -6.750  0.00  0.00     0.070 H 
ATOM     21  H   LIG d   1       7.078  -4.506  -6.894  0.00  0.00     0.070 H 
BRANCH  19  22
ATOM     22  C   LIG d   1       5.162  -5.484  -6.781  0.00  0.00    -0.012 C 
ATOM     23  H   LIG d   1       5.544  -6.007  -7.657  0.00  0.00     0.033 H 
BRANCH  22  24
ATOM     24  C   LIG d   1       5.059  -6.461  -5.608  0.00  0.00    -0.060 C 
ATOM     25  H   LIG d   1       5.883  -6.285  -4.916  0.00  0.00     0.023 H 
ATOM     26  H   LIG d   1       4.111  -6.310  -5.091  0.00  0.00     0.023 H 
ATOM     27  H   LIG d   1       5.109  -7.483  -5.982  0.00  0.00     0.023 H 
ENDBRANCH  22  24
BRANCH  22  28
ATOM     28  C   LIG d   1       3.777  -4.912  -7.091  0.00  0.00    -0.060 C 
ATOM     29  H   LIG d   1       3.881  -4.042  -7.740  0.00  0.00     0.023 H 
ATOM     30  H   LIG d   1       3.174  -5.669  -7.592  0.00  0.00     0.023 H 
ATOM     31  H   LIG d   1       3.290  -4.616  -6.162  0.00  0.00     0.023 H 
ENDBRANCH  22  28
ENDBRANCH  19  22
ENDBRANCH  18  19
ENDBRANCH   1  18
TORSDOF 5
ENDMDL
MODEL 8
REMARK VINA RESULT:      -5.3      1.790      2.787
REMARK  5 active torsions:
REMARK  status: ('A' for Active; 'I' for Inactive)
REMARK    1  A    between atoms: C_1  and  C_2 
REMARK    2  A    between atoms: C_2  and  C_3 
REMARK    3  A    between atoms: C_2  and  C_4 
REMARK    4  A    between atoms: C_4  and  O_5 
REMARK    5  A    between atoms: O_5  and  C_6 
ROOT
ATOM      1  C   LIG d   1       4.142  -1.383  -6.494  0.00  0.00     0.121 A 
ATOM      2  C   LIG d   1       4.711  -2.509  -5.892  0.00  0.00    -0.019 A 
ATOM      3  C   LIG d   1       4.917  -2.554  -4.548  0.00  0.00    -0.051 A 
ATOM      4  C   LIG d   1       4.554  -1.456  -3.750  0.00  0.00    -0.018 A 
ATOM      5  C   LIG d   1       4.751  -1.469  -2.359  0.00  0.00    -0.054 A 
ATOM      6  C   LIG d   1       4.387  -0.387  -1.616  0.00  0.00    -0.061 A 
ATOM      7  C   LIG d   1       3.815   0.734  -2.214  0.00  0.00    -0.061 A 
ATOM      8  C   LIG d   1       3.614   0.784  -3.559  0.00  0.00    -0.054 A 
ATOM      9  C   LIG d   1       3.977  -0.313  -4.359  0.00  0.00    -0.014 A 
ATOM     10  C   LIG d   1       3.778  -0.298  -5.749  0.00  0.00    -0.012 A 
ATOM     11  H   LIG d   1       4.993  -3.355  -6.501  0.00  0.00     0.065 H 
ATOM     12  H   LIG d   1       5.358  -3.431  -4.096  0.00  0.00     0.062 H 
ATOM     13  H   LIG d   1       5.190  -2.332  -1.881  0.00  0.00     0.062 H 
ATOM     14  H   LIG d   1       4.540  -0.401  -0.547  0.00  0.00     0.062 H 
ATOM     15  H   LIG d   1       3.532   1.577  -1.601  0.00  0.00     0.062 H 
ATOM     16  H   LIG d   1       3.172   1.662  -4.009  0.00  0.00     0.062 H 
ATOM     17  H   LIG d   1       3.339   0.566  -6.226  0.00  0.00     0.066 H 
ENDROOT
BRANCH   1  18
ATOM     18  O   LIG d   1       3.950  -1.368  -7.840  0.00  0.00    -0.492 OA
BRANCH  18  19
ATOM     19  C   LIG d   1       2.883  -0.556  -8.334  0.00  0.00     0.092 C 
ATOM     20  H   LIG d   1       2.210  -0.303  -7.515  0.00  0.00     0.070 H 
ATOM     21  H   LIG d   1       3.291   0.358  -8.764  0.00  0.00     0.070 H 
BRANCH  19  22
ATOM     22  C   LIG d   1       2.112  -1.326  -9.408  0.00  0.00    -0.012 C 
ATOM     23  H   LIG d   1       1.072  -1.435  -9.101  0.00  0.00     0.033 H 
BRANCH  22  24
ATOM     24  C   LIG d   1       2.175  -0.557 -10.730  0.00  0.00    -0.060 C 
ATOM     25  H   LIG d   1       1.166  -0.291 -11.044  0.00  0.00     0.023 H 
ATOM     26  H   LIG d   1       2.765   0.350 -10.595  0.00  0.00     0.023 H 
ATOM     27  H   LIG d   1       2.641  -1.182 -11.492  0.00  0.00     0.023 H 
ENDBRANCH  22  24
BRANCH  22  28
ATOM     28  C   LIG d   1       2.738  -2.709  -9.592  0.00  0.00    -0.060 C 
ATOM     29  H   LIG d   1       1.976  -3.409  -9.938  0.00  0.00     0.023 H 
ATOM     30  H   LIG d   1       3.540  -2.651 -10.329  0.00  0.00     0.023 H 
ATOM     31  H   LIG d   1       3.143  -3.054  -8.641  0.00  0.00     0.023 H 
ENDBRANCH  22  28
ENDBRANCH  19  22
ENDBRANCH  18  19
ENDBRANCH   1  18
TORSDOF 5
ENDMDL
MODEL 9
REMARK VINA RESULT:      -5.0      4.404      5.903
REMARK  5 active torsions:
REMARK  status: ('A' for Active; 'I' for Inactive)
REMARK    1  A    between atoms: C_1  and  C_2 
REMARK    2  A    between atoms: C_2  and  C_3 
REMARK    3  A    between atoms: C_2  and  C_4 
REMARK    4  A    between atoms: C_4  and  O_5 
REMARK    5  A    between atoms: O_5  and  C_6 
ROOT
ATOM      1  C   LIG d   1       6.569  -2.661  -4.079  0.00  0.00     0.121 A 
ATOM      2  C   LIG d   1       5.298  -3.223  -4.237  0.00  0.00    -0.019 A 
ATOM      3  C   LIG d   1       4.181  -2.542  -3.865  0.00  0.00    -0.051 A 
ATOM      4  C   LIG d   1       4.301  -1.255  -3.313  0.00  0.00    -0.018 A 
ATOM      5  C   LIG d   1       3.168  -0.523  -2.919  0.00  0.00    -0.054 A 
ATOM      6  C   LIG d   1       3.322   0.722  -2.388  0.00  0.00    -0.061 A 
ATOM      7  C   LIG d   1       4.587   1.286  -2.235  0.00  0.00    -0.061 A 
ATOM      8  C   LIG d   1       5.706   0.604  -2.600  0.00  0.00    -0.054 A 
ATOM      9  C   LIG d   1       5.589  -0.684  -3.152  0.00  0.00    -0.014 A 
ATOM     10  C   LIG d   1       6.722  -1.413  -3.547  0.00  0.00    -0.012 A 
ATOM     11  H   LIG d   1       5.201  -4.212  -4.660  0.00  0.00     0.065 H 
ATOM     12  H   LIG d   1       3.205  -2.989  -3.992  0.00  0.00     0.062 H 
ATOM     13  H   LIG d   1       2.181  -0.945  -3.035  0.00  0.00     0.062 H 
ATOM     14  H   LIG d   1       2.449   1.282  -2.086  0.00  0.00     0.062 H 
ATOM     15  H   LIG d   1       4.680   2.276  -1.814  0.00  0.00     0.062 H 
ATOM     16  H   LIG d   1       6.681   1.053  -2.472  0.00  0.00     0.062 H 
ATOM     17  H   LIG d   1       7.708  -0.990  -3.429  0.00  0.00     0.066 H 
ENDROOT
BRANCH   1  18
ATOM     18  O   LIG d   1       7.666  -3.367  -4.460  0.00  0.00    -0.492 OA
BRANCH  18  19
ATOM     19  C   LIG d   1       7.510  -4.265  -5.561  0.00  0.00     0.092 C 
ATOM     20  H   LIG d   1       6.467  -4.272  -5.879  0.00  0.00     0.070 H 
ATOM     21  H   LIG d   1       8.138  -3.938  -6.388  0.00  0.00     0.070 H 
BRANCH  19  22
ATOM     22  C   LIG d   1       7.922  -5.674  -5.132  0.00  0.00    -0.012 C 
ATOM     23  H   LIG d   1       7.097  -6.148  -4.601  0.00  0.00     0.033 H 
BRANCH  22  24
ATOM     24  C   LIG d   1       8.274  -6.501  -6.370  0.00  0.00    -0.060 C 
ATOM     25  H   LIG d   1       8.165  -7.562  -6.142  0.00  0.00     0.023 H 
ATOM     26  H   LIG d   1       7.603  -6.235  -7.188  0.00  0.00     0.023 H 
ATOM     27  H   LIG d   1       9.303  -6.296  -6.664  0.00  0.00     0.023 H 
ENDBRANCH  22  24
BRANCH  22  28
ATOM     28  C   LIG d   1       9.141  -5.591  -4.212  0.00  0.00    -0.060 C 
ATOM     29  H   LIG d   1       8.811  -5.587  -3.172  0.00  0.00     0.023 H 
ATOM     30  H   LIG d   1       9.788  -6.451  -4.385  0.00  0.00     0.023 H 
ATOM     31  H   LIG d   1       9.693  -4.674  -4.421  0.00  0.00     0.023 H 
ENDBRANCH  22  28
ENDBRANCH  19  22
ENDBRANCH  18  19
ENDBRANCH   1  18
TORSDOF 5
ENDMDL
MODEL 10
REMARK VINA RESULT:      -4.9      3.895      6.215
REMARK  5 active torsions:
REMARK  status: ('A' for Active; 'I' for Inactive)
REMARK    1  A    between atoms: C_1  and  C_2 
REMARK    2  A    between atoms: C_2  and  C_3 
REMARK    3  A    between atoms: C_2  and  C_4 
REMARK    4  A    between atoms: C_4  and  O_5 
REMARK    5  A    between atoms: O_5  and  C_6 
ROOT
ATOM      1  C   LIG d   1       6.378  -0.022  -4.710  0.00  0.00     0.121 A 
ATOM      2  C   LIG d   1       6.571  -0.033  -6.095  0.00  0.00    -0.019 A 
ATOM      3  C   LIG d   1       7.472   0.799  -6.682  0.00  0.00    -0.051 A 
ATOM      4  C   LIG d   1       8.223   1.685  -5.890  0.00  0.00    -0.018 A 
ATOM      5  C   LIG d   1       9.164   2.557  -6.463  0.00  0.00    -0.054 A 
ATOM      6  C   LIG d   1       9.873   3.401  -5.665  0.00  0.00    -0.061 A 
ATOM      7  C   LIG d   1       9.687   3.410  -4.284  0.00  0.00    -0.061 A 
ATOM      8  C   LIG d   1       8.781   2.583  -3.695  0.00  0.00    -0.054 A 
ATOM      9  C   LIG d   1       8.029   1.697  -4.485  0.00  0.00    -0.014 A 
ATOM     10  C   LIG d   1       7.090   0.825  -3.911  0.00  0.00    -0.012 A 
ATOM     11  H   LIG d   1       5.995  -0.711  -6.708  0.00  0.00     0.065 H 
ATOM     12  H   LIG d   1       7.610   0.780  -7.754  0.00  0.00     0.062 H 
ATOM     13  H   LIG d   1       9.322   2.559  -7.531  0.00  0.00     0.062 H 
ATOM     14  H   LIG d   1      10.596   4.070  -6.109  0.00  0.00     0.062 H 
ATOM     15  H   LIG d   1      10.266   4.087  -3.674  0.00  0.00     0.062 H 
ATOM     16  H   LIG d   1       8.645   2.604  -2.623  0.00  0.00     0.062 H 
ATOM     17  H   LIG d   1       6.932   0.825  -2.842  0.00  0.00     0.066 H 
ENDROOT
BRANCH   1  18
ATOM     18  O   LIG d   1       5.469  -0.865  -4.154  0.00  0.00    -0.492 OA
BRANCH  18  19
ATOM     19  C   LIG d   1       4.110  -0.426  -4.123  0.00  0.00     0.092 C 
ATOM     20  H   LIG d   1       4.037   0.563  -4.575  0.00  0.00     0.070 H 
ATOM     21  H   LIG d   1       3.489  -1.126  -4.680  0.00  0.00     0.070 H 
BRANCH  19  22
ATOM     22  C   LIG d   1       3.628  -0.359  -2.672  0.00  0.00    -0.012 C 
ATOM     23  H   LIG d   1       2.560  -0.569  -2.634  0.00  0.00     0.033 H 
BRANCH  22  24
ATOM     24  C   LIG d   1       4.382  -1.395  -1.836  0.00  0.00    -0.060 C 
ATOM     25  H   LIG d   1       4.382  -1.088  -0.791  0.00  0.00     0.023 H 
ATOM     26  H   LIG d   1       3.891  -2.364  -1.931  0.00  0.00     0.023 H 
ATOM     27  H   LIG d   1       5.409  -1.472  -2.193  0.00  0.00     0.023 H 
ENDBRANCH  22  24
BRANCH  22  28
ATOM     28  C   LIG d   1       3.894   1.039  -2.111  0.00  0.00    -0.060 C 
ATOM     29  H   LIG d   1       3.233   1.758  -2.598  0.00  0.00     0.023 H 
ATOM     30  H   LIG d   1       3.705   1.043  -1.037  0.00  0.00     0.023 H 
ATOM     31  H   LIG d   1       4.931   1.315  -2.298  0.00  0.00     0.023 H 
ENDBRANCH  22  28
ENDBRANCH  19  22
ENDBRANCH  18  19
ENDBRANCH   1  18
TORSDOF 5
ENDMDL
