MODEL 1
REMARK VINA RESULT:      -6.8      0.000      0.000
REMARK  5 active torsions:
REMARK  status: ('A' for Active; 'I' for Inactive)
REMARK    1  A    between atoms: C_1  and  O_2 
REMARK    2  A    between atoms: O_2  and  C_3 
REMARK    3  A    between atoms: C_6  and  N_9 
REMARK    4  A    between atoms: N_9  and  C_10 
REMARK    5  A    between atoms: C_18  and  C_21 
ROOT
ATOM      1  C   LIG d   1       2.638  -1.761 -10.505  0.00  0.00     0.035 A 
ATOM      2  C   LIG d   1       2.111  -0.489 -10.275  0.00  0.00    -0.040 A 
ATOM      3  C   LIG d   1       2.301   0.127  -9.072  0.00  0.00    -0.046 A 
ATOM      4  C   LIG d   1       3.016  -0.524  -8.065  0.00  0.00     0.065 A 
ATOM      5  C   LIG d   1       3.546  -1.808  -8.283  0.00  0.00     0.140 A 
ATOM      6  C   LIG d   1       3.350  -2.419  -9.514  0.00  0.00     0.003 A 
ATOM      7  O   LIG d   1       4.235  -2.435  -7.309  0.00  0.00    -0.462 OA
ATOM      8  C   LIG d   1       4.457  -1.899  -6.107  0.00  0.00     0.104 A 
ATOM      9  C   LIG d   1       4.001  -0.666  -5.761  0.00  0.00     0.064 A 
ATOM     10  C   LIG d   1       3.235   0.109  -6.752  0.00  0.00     0.200 A 
ATOM     11  O   LIG d   1       2.802   1.221  -6.499  0.00  0.00    -0.286 OA
ATOM     12  H   LIG d   1       1.554   0.011 -11.053  0.00  0.00     0.064 H 
ATOM     13  H   LIG d   1       1.896   1.112  -8.898  0.00  0.00     0.063 H 
ATOM     14  H   LIG d   1       3.750  -3.406  -9.699  0.00  0.00     0.067 H 
ATOM     15  H   LIG d   1       5.018  -2.466  -5.380  0.00  0.00     0.104 H 
ENDROOT
BRANCH   1  16
ATOM     16  N   LIG d   1       2.442  -2.376 -11.739  0.00  0.00    -0.314 N 
ATOM     17  H   LIG d   1       3.191  -2.507 -12.340  0.00  0.00     0.152 HD
BRANCH  16  18
ATOM     18  C   LIG d   1       1.162  -2.805 -12.111  0.00  0.00     0.032 A 
ATOM     19  C   LIG d   1       0.565  -3.868 -11.446  0.00  0.00    -0.037 A 
ATOM     20  C   LIG d   1      -0.697  -4.291 -11.814  0.00  0.00    -0.018 A 
ATOM     21  H   LIG d   1       1.089  -4.364 -10.642  0.00  0.00     0.064 H 
ATOM     22  C   LIG d   1      -1.368  -3.654 -12.848  0.00  0.00     0.120 A 
ATOM     23  H   LIG d   1      -1.161  -5.117 -11.297  0.00  0.00     0.066 H 
ATOM     24  C   LIG d   1      -0.772  -2.593 -13.512  0.00  0.00    -0.018 A 
ATOM     25  C   LIG d   1       0.488  -2.166 -13.142  0.00  0.00    -0.037 A 
ATOM     26  H   LIG d   1      -1.296  -2.098 -14.316  0.00  0.00     0.066 H 
ATOM     27  H   LIG d   1       0.949  -1.336 -13.658  0.00  0.00     0.064 H 
BRANCH  22  28
ATOM     28  O   LIG d   1      -2.611  -4.072 -13.209  0.00  0.00    -0.495 OA
BRANCH  28  29
ATOM     29  C   LIG d   1      -3.649  -3.932 -12.236  0.00  0.00     0.079 C 
ATOM     30  H   LIG d   1      -3.751  -2.883 -11.961  0.00  0.00     0.066 H 
ATOM     31  H   LIG d   1      -4.590  -4.292 -12.655  0.00  0.00     0.066 H 
ATOM     32  H   LIG d   1      -3.399  -4.518 -11.351  0.00  0.00     0.066 H 
ENDBRANCH  28  29
ENDBRANCH  22  28
ENDBRANCH  16  18
ENDBRANCH   1  16
BRANCH   9  33
ATOM     33  C   LIG d   1       4.271  -0.111  -4.413  0.00  0.00    -0.011 A 
ATOM     34  C   LIG d   1       3.217   0.134  -3.533  0.00  0.00    -0.054 A 
ATOM     35  C   LIG d   1       3.474   0.651  -2.280  0.00  0.00    -0.061 A 
ATOM     36  H   LIG d   1       2.202  -0.078  -3.834  0.00  0.00     0.062 H 
ATOM     37  C   LIG d   1       4.774   0.924  -1.894  0.00  0.00    -0.062 A 
ATOM     38  H   LIG d   1       2.658   0.841  -1.598  0.00  0.00     0.062 H 
ATOM     39  C   LIG d   1       5.824   0.682  -2.763  0.00  0.00    -0.061 A 
ATOM     40  H   LIG d   1       4.970   1.328  -0.912  0.00  0.00     0.062 H 
ATOM     41  C   LIG d   1       5.579   0.160  -4.017  0.00  0.00    -0.054 A 
ATOM     42  H   LIG d   1       6.837   0.897  -2.456  0.00  0.00     0.062 H 
ATOM     43  H   LIG d   1       6.400  -0.032  -4.692  0.00  0.00     0.062 H 
ENDBRANCH   9  33
TORSDOF 5
ENDMDL
MODEL 2
REMARK VINA RESULT:      -6.6      2.664      3.607
REMARK  5 active torsions:
REMARK  status: ('A' for Active; 'I' for Inactive)
REMARK    1  A    between atoms: C_1  and  O_2 
REMARK    2  A    between atoms: O_2  and  C_3 
REMARK    3  A    between atoms: C_6  and  N_9 
REMARK    4  A    between atoms: N_9  and  C_10 
REMARK    5  A    between atoms: C_18  and  C_21 
ROOT
ATOM      1  C   LIG d   1       2.624  -1.827 -10.525  0.00  0.00     0.035 A 
ATOM      2  C   LIG d   1       2.084  -0.560 -10.297  0.00  0.00    -0.040 A 
ATOM      3  C   LIG d   1       2.274   0.063  -9.098  0.00  0.00    -0.046 A 
ATOM      4  C   LIG d   1       3.002  -0.576  -8.092  0.00  0.00     0.065 A 
ATOM      5  C   LIG d   1       3.545  -1.855  -8.308  0.00  0.00     0.140 A 
ATOM      6  C   LIG d   1       3.349  -2.473  -9.535  0.00  0.00     0.003 A 
ATOM      7  O   LIG d   1       4.246  -2.469  -7.335  0.00  0.00    -0.462 OA
ATOM      8  C   LIG d   1       4.468  -1.926  -6.136  0.00  0.00     0.104 A 
ATOM      9  C   LIG d   1       4.001  -0.698  -5.793  0.00  0.00     0.064 A 
ATOM     10  C   LIG d   1       3.221   0.065  -6.783  0.00  0.00     0.200 A 
ATOM     11  O   LIG d   1       2.776   1.172  -6.532  0.00  0.00    -0.286 OA
ATOM     12  H   LIG d   1       1.518  -0.070 -11.075  0.00  0.00     0.064 H 
ATOM     13  H   LIG d   1       1.859   1.044  -8.926  0.00  0.00     0.063 H 
ATOM     14  H   LIG d   1       3.760  -3.456  -9.718  0.00  0.00     0.067 H 
ATOM     15  H   LIG d   1       5.040  -2.484  -5.410  0.00  0.00     0.104 H 
ENDROOT
BRANCH   1  16
ATOM     16  N   LIG d   1       2.429  -2.449 -11.755  0.00  0.00    -0.314 N 
ATOM     17  H   LIG d   1       1.925  -3.276 -11.806  0.00  0.00     0.152 HD
BRANCH  16  18
ATOM     18  C   LIG d   1       2.960  -1.880 -12.919  0.00  0.00     0.032 A 
ATOM     19  C   LIG d   1       2.359  -2.122 -14.147  0.00  0.00    -0.037 A 
ATOM     20  C   LIG d   1       2.883  -1.561 -15.295  0.00  0.00    -0.018 A 
ATOM     21  H   LIG d   1       1.482  -2.750 -14.205  0.00  0.00     0.064 H 
ATOM     22  C   LIG d   1       4.010  -0.754 -15.220  0.00  0.00     0.120 A 
ATOM     23  H   LIG d   1       2.416  -1.748 -16.250  0.00  0.00     0.066 H 
ATOM     24  C   LIG d   1       4.610  -0.512 -13.994  0.00  0.00    -0.018 A 
ATOM     25  C   LIG d   1       4.085  -1.069 -12.845  0.00  0.00    -0.037 A 
ATOM     26  H   LIG d   1       5.487   0.115 -13.938  0.00  0.00     0.066 H 
ATOM     27  H   LIG d   1       4.551  -0.877 -11.890  0.00  0.00     0.064 H 
BRANCH  22  28
ATOM     28  O   LIG d   1       4.525  -0.202 -16.352  0.00  0.00    -0.495 OA
BRANCH  28  29
ATOM     29  C   LIG d   1       3.650   0.622 -17.126  0.00  0.00     0.079 C 
ATOM     30  H   LIG d   1       2.907   1.077 -16.473  0.00  0.00     0.066 H 
ATOM     31  H   LIG d   1       4.229   1.403 -17.619  0.00  0.00     0.066 H 
ATOM     32  H   LIG d   1       3.149   0.013 -17.878  0.00  0.00     0.066 H 
ENDBRANCH  28  29
ENDBRANCH  22  28
ENDBRANCH  16  18
ENDBRANCH   1  16
BRANCH   9  33
ATOM     33  C   LIG d   1       4.271  -0.134  -4.448  0.00  0.00    -0.011 A 
ATOM     34  C   LIG d   1       5.573   0.201  -4.079  0.00  0.00    -0.054 A 
ATOM     35  C   LIG d   1       5.819   0.725  -2.827  0.00  0.00    -0.061 A 
ATOM     36  H   LIG d   1       6.388   0.049  -4.772  0.00  0.00     0.062 H 
ATOM     37  C   LIG d   1       4.777   0.919  -1.938  0.00  0.00    -0.062 A 
ATOM     38  H   LIG d   1       6.828   0.985  -2.540  0.00  0.00     0.062 H 
ATOM     39  C   LIG d   1       3.483   0.589  -2.299  0.00  0.00    -0.061 A 
ATOM     40  H   LIG d   1       4.975   1.330  -0.959  0.00  0.00     0.062 H 
ATOM     41  C   LIG d   1       3.224   0.069  -3.551  0.00  0.00    -0.054 A 
ATOM     42  H   LIG d   1       2.673   0.743  -1.601  0.00  0.00     0.062 H 
ATOM     43  H   LIG d   1       2.213  -0.184  -3.833  0.00  0.00     0.062 H 
ENDBRANCH   9  33
TORSDOF 5
ENDMDL
MODEL 3
REMARK VINA RESULT:      -6.3      2.640      3.446
REMARK  5 active torsions:
REMARK  status: ('A' for Active; 'I' for Inactive)
REMARK    1  A    between atoms: C_1  and  O_2 
REMARK    2  A    between atoms: O_2  and  C_3 
REMARK    3  A    between atoms: C_6  and  N_9 
REMARK    4  A    between atoms: N_9  and  C_10 
REMARK    5  A    between atoms: C_18  and  C_21 
ROOT
ATOM      1  C   LIG d   1       4.466   0.234 -10.735  0.00  0.00     0.035 A 
ATOM      2  C   LIG d   1       5.691  -0.306 -10.338  0.00  0.00    -0.040 A 
ATOM      3  C   LIG d   1       5.925  -0.589  -9.024  0.00  0.00    -0.046 A 
ATOM      4  C   LIG d   1       4.938  -0.327  -8.072  0.00  0.00     0.065 A 
ATOM      5  C   LIG d   1       3.703   0.223  -8.459  0.00  0.00     0.140 A 
ATOM      6  C   LIG d   1       3.477   0.499  -9.800  0.00  0.00     0.003 A 
ATOM      7  O   LIG d   1       2.752   0.476  -7.538  0.00  0.00    -0.462 OA
ATOM      8  C   LIG d   1       2.910   0.231  -6.235  0.00  0.00     0.104 A 
ATOM      9  C   LIG d   1       4.052  -0.297  -5.724  0.00  0.00     0.064 A 
ATOM     10  C   LIG d   1       5.159  -0.614  -6.644  0.00  0.00     0.200 A 
ATOM     11  O   LIG d   1       6.207  -1.091  -6.242  0.00  0.00    -0.286 OA
ATOM     12  H   LIG d   1       6.455  -0.504 -11.076  0.00  0.00     0.064 H 
ATOM     13  H   LIG d   1       6.872  -1.010  -8.721  0.00  0.00     0.063 H 
ATOM     14  H   LIG d   1       2.533   0.921 -10.115  0.00  0.00     0.067 H 
ATOM     15  H   LIG d   1       2.099   0.462  -5.560  0.00  0.00     0.104 H 
ENDROOT
BRANCH   1  16
ATOM     16  N   LIG d   1       4.238   0.512 -12.080  0.00  0.00    -0.314 N 
ATOM     17  H   LIG d   1       4.349   1.416 -12.414  0.00  0.00     0.152 HD
BRANCH  16  18
ATOM     18  C   LIG d   1       3.849  -0.513 -12.950  0.00  0.00     0.032 A 
ATOM     19  C   LIG d   1       2.806  -1.361 -12.602  0.00  0.00    -0.037 A 
ATOM     20  C   LIG d   1       2.422  -2.372 -13.461  0.00  0.00    -0.018 A 
ATOM     21  H   LIG d   1       2.295  -1.229 -11.660  0.00  0.00     0.064 H 
ATOM     22  C   LIG d   1       3.080  -2.541 -14.671  0.00  0.00     0.120 A 
ATOM     23  H   LIG d   1       1.611  -3.031 -13.191  0.00  0.00     0.066 H 
ATOM     24  C   LIG d   1       4.122  -1.695 -15.019  0.00  0.00    -0.018 A 
ATOM     25  C   LIG d   1       4.503  -0.680 -14.163  0.00  0.00    -0.037 A 
ATOM     26  H   LIG d   1       4.633  -1.827 -15.961  0.00  0.00     0.066 H 
ATOM     27  H   LIG d   1       5.313  -0.019 -14.437  0.00  0.00     0.064 H 
BRANCH  22  28
ATOM     28  O   LIG d   1       2.701  -3.538 -15.516  0.00  0.00    -0.495 OA
BRANCH  28  29
ATOM     29  C   LIG d   1       1.522  -4.268 -15.169  0.00  0.00     0.079 C 
ATOM     30  H   LIG d   1       1.798  -5.150 -14.592  0.00  0.00     0.066 H 
ATOM     31  H   LIG d   1       0.865  -3.633 -14.574  0.00  0.00     0.066 H 
ATOM     32  H   LIG d   1       1.005  -4.574 -16.078  0.00  0.00     0.066 H 
ENDBRANCH  28  29
ENDBRANCH  22  28
ENDBRANCH  16  18
ENDBRANCH   1  16
BRANCH   9  33
ATOM     33  C   LIG d   1       4.183  -0.551  -4.269  0.00  0.00    -0.011 A 
ATOM     34  C   LIG d   1       4.583   0.474  -3.413  0.00  0.00    -0.054 A 
ATOM     35  C   LIG d   1       4.703   0.231  -2.060  0.00  0.00    -0.061 A 
ATOM     36  H   LIG d   1       4.801   1.454  -3.809  0.00  0.00     0.062 H 
ATOM     37  C   LIG d   1       4.426  -1.026  -1.552  0.00  0.00    -0.062 A 
ATOM     38  H   LIG d   1       5.013   1.025  -1.396  0.00  0.00     0.062 H 
ATOM     39  C   LIG d   1       4.028  -2.046  -2.397  0.00  0.00    -0.061 A 
ATOM     40  H   LIG d   1       4.521  -1.210  -0.492  0.00  0.00     0.062 H 
ATOM     41  C   LIG d   1       3.899  -1.814  -3.751  0.00  0.00    -0.054 A 
ATOM     42  H   LIG d   1       3.813  -3.025  -1.994  0.00  0.00     0.062 H 
ATOM     43  H   LIG d   1       3.585  -2.610  -4.408  0.00  0.00     0.062 H 
ENDBRANCH   9  33
TORSDOF 5
ENDMDL
MODEL 4
REMARK VINA RESULT:      -6.3      1.612      1.986
REMARK  5 active torsions:
REMARK  status: ('A' for Active; 'I' for Inactive)
REMARK    1  A    between atoms: C_1  and  O_2 
REMARK    2  A    between atoms: O_2  and  C_3 
REMARK    3  A    between atoms: C_6  and  N_9 
REMARK    4  A    between atoms: N_9  and  C_10 
REMARK    5  A    between atoms: C_18  and  C_21 
ROOT
ATOM      1  C   LIG d   1       2.691  -1.757 -10.633  0.00  0.00     0.035 A 
ATOM      2  C   LIG d   1       2.223  -0.459 -10.423  0.00  0.00    -0.040 A 
ATOM      3  C   LIG d   1       2.413   0.154  -9.219  0.00  0.00    -0.046 A 
ATOM      4  C   LIG d   1       3.069  -0.525  -8.191  0.00  0.00     0.065 A 
ATOM      5  C   LIG d   1       3.540  -1.835  -8.389  0.00  0.00     0.140 A 
ATOM      6  C   LIG d   1       3.345  -2.443  -9.621  0.00  0.00     0.003 A 
ATOM      7  O   LIG d   1       4.172  -2.488  -7.394  0.00  0.00    -0.462 OA
ATOM      8  C   LIG d   1       4.390  -1.957  -6.189  0.00  0.00     0.104 A 
ATOM      9  C   LIG d   1       3.987  -0.701  -5.861  0.00  0.00     0.064 A 
ATOM     10  C   LIG d   1       3.286   0.105  -6.876  0.00  0.00     0.200 A 
ATOM     11  O   LIG d   1       2.903   1.238  -6.639  0.00  0.00    -0.286 OA
ATOM     12  H   LIG d   1       1.711   0.063 -11.218  0.00  0.00     0.064 H 
ATOM     13  H   LIG d   1       2.053   1.160  -9.060  0.00  0.00     0.063 H 
ATOM     14  H   LIG d   1       3.700  -3.450  -9.790  0.00  0.00     0.067 H 
ATOM     15  H   LIG d   1       4.904  -2.546  -5.445  0.00  0.00     0.104 H 
ENDROOT
BRANCH   1  16
ATOM     16  N   LIG d   1       2.496  -2.369 -11.868  0.00  0.00    -0.314 N 
ATOM     17  H   LIG d   1       2.673  -1.879 -12.686  0.00  0.00     0.152 HD
BRANCH  16  18
ATOM     18  C   LIG d   1       2.045  -3.693 -11.930  0.00  0.00     0.032 A 
ATOM     19  C   LIG d   1       0.756  -4.007 -11.518  0.00  0.00    -0.037 A 
ATOM     20  C   LIG d   1       0.311  -5.313 -11.579  0.00  0.00    -0.018 A 
ATOM     21  H   LIG d   1       0.103  -3.230 -11.150  0.00  0.00     0.064 H 
ATOM     22  C   LIG d   1       1.151  -6.311 -12.051  0.00  0.00     0.120 A 
ATOM     23  H   LIG d   1      -0.691  -5.557 -11.260  0.00  0.00     0.066 H 
ATOM     24  C   LIG d   1       2.439  -5.998 -12.462  0.00  0.00    -0.018 A 
ATOM     25  C   LIG d   1       2.883  -4.692 -12.406  0.00  0.00    -0.037 A 
ATOM     26  H   LIG d   1       3.091  -6.776 -12.829  0.00  0.00     0.066 H 
ATOM     27  H   LIG d   1       3.885  -4.449 -12.730  0.00  0.00     0.064 H 
BRANCH  22  28
ATOM     28  O   LIG d   1       0.712  -7.597 -12.110  0.00  0.00    -0.495 OA
BRANCH  28  29
ATOM     29  C   LIG d   1      -0.676  -7.819 -11.851  0.00  0.00     0.079 C 
ATOM     30  H   LIG d   1      -0.971  -8.787 -12.254  0.00  0.00     0.066 H 
ATOM     31  H   LIG d   1      -0.852  -7.803 -10.775  0.00  0.00     0.066 H 
ATOM     32  H   LIG d   1      -1.264  -7.033 -12.326  0.00  0.00     0.066 H 
ENDBRANCH  28  29
ENDBRANCH  22  28
ENDBRANCH  16  18
ENDBRANCH   1  16
BRANCH   9  33
ATOM     33  C   LIG d   1       4.250  -0.152  -4.510  0.00  0.00    -0.011 A 
ATOM     34  C   LIG d   1       3.191   0.103  -3.639  0.00  0.00    -0.054 A 
ATOM     35  C   LIG d   1       3.442   0.614  -2.382  0.00  0.00    -0.061 A 
ATOM     36  H   LIG d   1       2.176  -0.099  -3.950  0.00  0.00     0.062 H 
ATOM     37  C   LIG d   1       4.741   0.874  -1.985  0.00  0.00    -0.062 A 
ATOM     38  H   LIG d   1       2.621   0.811  -1.708  0.00  0.00     0.062 H 
ATOM     39  C   LIG d   1       5.796   0.623  -2.844  0.00  0.00    -0.061 A 
ATOM     40  H   LIG d   1       4.932   1.273  -1.000  0.00  0.00     0.062 H 
ATOM     41  C   LIG d   1       5.557   0.106  -4.101  0.00  0.00    -0.054 A 
ATOM     42  H   LIG d   1       6.808   0.828  -2.527  0.00  0.00     0.062 H 
ATOM     43  H   LIG d   1       6.382  -0.092  -4.769  0.00  0.00     0.062 H 
ENDBRANCH   9  33
TORSDOF 5
ENDMDL
MODEL 5
REMARK VINA RESULT:      -6.2      7.403     10.457
REMARK  5 active torsions:
REMARK  status: ('A' for Active; 'I' for Inactive)
REMARK    1  A    between atoms: C_1  and  O_2 
REMARK    2  A    between atoms: O_2  and  C_3 
REMARK    3  A    between atoms: C_6  and  N_9 
REMARK    4  A    between atoms: N_9  and  C_10 
REMARK    5  A    between atoms: C_18  and  C_21 
ROOT
ATOM      1  C   LIG d   1       9.886   3.352  -7.837  0.00  0.00     0.035 A 
ATOM      2  C   LIG d   1       8.961   2.584  -8.546  0.00  0.00    -0.040 A 
ATOM      3  C   LIG d   1       8.045   1.823  -7.881  0.00  0.00    -0.046 A 
ATOM      4  C   LIG d   1       8.042   1.805  -6.485  0.00  0.00     0.065 A 
ATOM      5  C   LIG d   1       8.973   2.569  -5.760  0.00  0.00     0.140 A 
ATOM      6  C   LIG d   1       9.895   3.343  -6.451  0.00  0.00     0.003 A 
ATOM      7  O   LIG d   1       8.968   2.549  -4.412  0.00  0.00    -0.462 OA
ATOM      8  C   LIG d   1       8.108   1.826  -3.693  0.00  0.00     0.104 A 
ATOM      9  C   LIG d   1       7.157   1.042  -4.263  0.00  0.00     0.064 A 
ATOM     10  C   LIG d   1       7.071   0.989  -5.733  0.00  0.00     0.200 A 
ATOM     11  O   LIG d   1       6.237   0.304  -6.301  0.00  0.00    -0.286 OA
ATOM     12  H   LIG d   1       8.968   2.595  -9.627  0.00  0.00     0.064 H 
ATOM     13  H   LIG d   1       7.328   1.233  -8.431  0.00  0.00     0.063 H 
ATOM     14  H   LIG d   1      10.617   3.937  -5.910  0.00  0.00     0.067 H 
ATOM     15  H   LIG d   1       8.170   1.864  -2.615  0.00  0.00     0.104 H 
ENDROOT
BRANCH   1  16
ATOM     16  N   LIG d   1      10.812   4.129  -8.529  0.00  0.00    -0.314 N 
ATOM     17  H   LIG d   1      11.556   3.706  -8.985  0.00  0.00     0.152 HD
BRANCH  16  18
ATOM     18  C   LIG d   1      10.667   5.521  -8.566  0.00  0.00     0.032 A 
ATOM     19  C   LIG d   1      11.730   6.339  -8.206  0.00  0.00    -0.037 A 
ATOM     20  C   LIG d   1      11.588   7.712  -8.243  0.00  0.00    -0.018 A 
ATOM     21  H   LIG d   1      12.668   5.901  -7.898  0.00  0.00     0.064 H 
ATOM     22  C   LIG d   1      10.382   8.274  -8.640  0.00  0.00     0.120 A 
ATOM     23  H   LIG d   1      12.413   8.349  -7.964  0.00  0.00     0.066 H 
ATOM     24  C   LIG d   1       9.320   7.457  -8.998  0.00  0.00    -0.018 A 
ATOM     25  C   LIG d   1       9.463   6.084  -8.967  0.00  0.00    -0.037 A 
ATOM     26  H   LIG d   1       8.383   7.896  -9.306  0.00  0.00     0.066 H 
ATOM     27  H   LIG d   1       8.637   5.449  -9.251  0.00  0.00     0.064 H 
BRANCH  22  28
ATOM     28  O   LIG d   1      10.243   9.627  -8.675  0.00  0.00    -0.495 OA
BRANCH  28  29
ATOM     29  C   LIG d   1      10.463  10.333  -7.452  0.00  0.00     0.079 C 
ATOM     30  H   LIG d   1      10.268   9.669  -6.610  0.00  0.00     0.066 H 
ATOM     31  H   LIG d   1      11.496  10.677  -7.412  0.00  0.00     0.066 H 
ATOM     32  H   LIG d   1       9.792  11.190  -7.403  0.00  0.00     0.066 H 
ENDBRANCH  28  29
ENDBRANCH  22  28
ENDBRANCH  16  18
ENDBRANCH   1  16
BRANCH   9  33
ATOM     33  C   LIG d   1       6.222   0.254  -3.424  0.00  0.00    -0.011 A 
ATOM     34  C   LIG d   1       5.302   0.905  -2.603  0.00  0.00    -0.054 A 
ATOM     35  C   LIG d   1       4.434   0.167  -1.823  0.00  0.00    -0.061 A 
ATOM     36  H   LIG d   1       5.270   1.984  -2.576  0.00  0.00     0.062 H 
ATOM     37  C   LIG d   1       4.475  -1.215  -1.856  0.00  0.00    -0.062 A 
ATOM     38  H   LIG d   1       3.721   0.671  -1.187  0.00  0.00     0.062 H 
ATOM     39  C   LIG d   1       5.386  -1.866  -2.669  0.00  0.00    -0.061 A 
ATOM     40  H   LIG d   1       3.794  -1.788  -1.245  0.00  0.00     0.062 H 
ATOM     41  C   LIG d   1       6.255  -1.138  -3.457  0.00  0.00    -0.054 A 
ATOM     42  H   LIG d   1       5.413  -2.946  -2.691  0.00  0.00     0.062 H 
ATOM     43  H   LIG d   1       6.962  -1.648  -4.094  0.00  0.00     0.062 H 
ENDBRANCH   9  33
TORSDOF 5
ENDMDL
MODEL 6
REMARK VINA RESULT:      -6.0      6.858      9.987
REMARK  5 active torsions:
REMARK  status: ('A' for Active; 'I' for Inactive)
REMARK    1  A    between atoms: C_1  and  O_2 
REMARK    2  A    between atoms: O_2  and  C_3 
REMARK    3  A    between atoms: C_6  and  N_9 
REMARK    4  A    between atoms: N_9  and  C_10 
REMARK    5  A    between atoms: C_18  and  C_21 
ROOT
ATOM      1  C   LIG d   1       9.970   3.111  -6.711  0.00  0.00     0.035 A 
ATOM      2  C   LIG d   1       9.763   3.628  -5.431  0.00  0.00    -0.040 A 
ATOM      3  C   LIG d   1       8.821   3.078  -4.610  0.00  0.00    -0.046 A 
ATOM      4  C   LIG d   1       8.055   2.001  -5.059  0.00  0.00     0.065 A 
ATOM      5  C   LIG d   1       8.251   1.475  -6.349  0.00  0.00     0.140 A 
ATOM      6  C   LIG d   1       9.217   2.041  -7.169  0.00  0.00     0.003 A 
ATOM      7  O   LIG d   1       7.509   0.435  -6.779  0.00  0.00    -0.462 OA
ATOM      8  C   LIG d   1       6.567  -0.151  -6.037  0.00  0.00     0.104 A 
ATOM      9  C   LIG d   1       6.273   0.256  -4.775  0.00  0.00     0.064 A 
ATOM     10  C   LIG d   1       7.026   1.386  -4.202  0.00  0.00     0.200 A 
ATOM     11  O   LIG d   1       6.806   1.794  -3.074  0.00  0.00    -0.286 OA
ATOM     12  H   LIG d   1      10.353   4.465  -5.087  0.00  0.00     0.064 H 
ATOM     13  H   LIG d   1       8.665   3.478  -3.620  0.00  0.00     0.063 H 
ATOM     14  H   LIG d   1       9.381   1.649  -8.163  0.00  0.00     0.067 H 
ATOM     15  H   LIG d   1       6.016  -0.980  -6.456  0.00  0.00     0.104 H 
ENDROOT
BRANCH   1  16
ATOM     16  N   LIG d   1      10.938   3.677  -7.535  0.00  0.00    -0.314 N 
ATOM     17  H   LIG d   1      11.795   3.237  -7.650  0.00  0.00     0.152 HD
BRANCH  16  18
ATOM     18  C   LIG d   1      10.675   4.882  -8.198  0.00  0.00     0.032 A 
ATOM     19  C   LIG d   1      11.395   6.024  -7.874  0.00  0.00    -0.037 A 
ATOM     20  C   LIG d   1      11.135   7.212  -8.528  0.00  0.00    -0.018 A 
ATOM     21  H   LIG d   1      12.157   5.984  -7.110  0.00  0.00     0.064 H 
ATOM     22  C   LIG d   1      10.155   7.264  -9.509  0.00  0.00     0.120 A 
ATOM     23  H   LIG d   1      11.694   8.101  -8.277  0.00  0.00     0.066 H 
ATOM     24  C   LIG d   1       9.435   6.123  -9.833  0.00  0.00    -0.018 A 
ATOM     25  C   LIG d   1       9.698   4.934  -9.183  0.00  0.00    -0.037 A 
ATOM     26  H   LIG d   1       8.673   6.165 -10.596  0.00  0.00     0.066 H 
ATOM     27  H   LIG d   1       9.140   4.045  -9.439  0.00  0.00     0.064 H 
BRANCH  22  28
ATOM     28  O   LIG d   1       9.900   8.435 -10.152  0.00  0.00    -0.495 OA
BRANCH  28  29
ATOM     29  C   LIG d   1      10.273   8.512 -11.530  0.00  0.00     0.079 C 
ATOM     30  H   LIG d   1      11.351   8.380 -11.622  0.00  0.00     0.066 H 
ATOM     31  H   LIG d   1       9.761   7.729 -12.089  0.00  0.00     0.066 H 
ATOM     32  H   LIG d   1       9.991   9.486 -11.929  0.00  0.00     0.066 H 
ENDBRANCH  28  29
ENDBRANCH  22  28
ENDBRANCH  16  18
ENDBRANCH   1  16
BRANCH   9  33
ATOM     33  C   LIG d   1       5.217  -0.425  -3.988  0.00  0.00    -0.011 A 
ATOM     34  C   LIG d   1       3.875  -0.116  -4.202  0.00  0.00    -0.054 A 
ATOM     35  C   LIG d   1       2.897  -0.752  -3.467  0.00  0.00    -0.061 A 
ATOM     36  H   LIG d   1       3.602   0.622  -4.942  0.00  0.00     0.062 H 
ATOM     37  C   LIG d   1       3.245  -1.697  -2.518  0.00  0.00    -0.062 A 
ATOM     38  H   LIG d   1       1.856  -0.514  -3.633  0.00  0.00     0.062 H 
ATOM     39  C   LIG d   1       4.576  -2.009  -2.301  0.00  0.00    -0.061 A 
ATOM     40  H   LIG d   1       2.476  -2.193  -1.945  0.00  0.00     0.062 H 
ATOM     41  C   LIG d   1       5.562  -1.382  -3.035  0.00  0.00    -0.054 A 
ATOM     42  H   LIG d   1       4.841  -2.748  -1.559  0.00  0.00     0.062 H 
ATOM     43  H   LIG d   1       6.600  -1.629  -2.867  0.00  0.00     0.062 H 
ENDBRANCH   9  33
TORSDOF 5
ENDMDL
MODEL 7
REMARK VINA RESULT:      -5.9      7.345     10.990
REMARK  5 active torsions:
REMARK  status: ('A' for Active; 'I' for Inactive)
REMARK    1  A    between atoms: C_1  and  O_2 
REMARK    2  A    between atoms: O_2  and  C_3 
REMARK    3  A    between atoms: C_6  and  N_9 
REMARK    4  A    between atoms: N_9  and  C_10 
REMARK    5  A    between atoms: C_18  and  C_21 
ROOT
ATOM      1  C   LIG d   1       9.371   2.414  -4.125  0.00  0.00     0.035 A 
ATOM      2  C   LIG d   1       9.003   3.294  -5.144  0.00  0.00    -0.040 A 
ATOM      3  C   LIG d   1       9.176   4.638  -4.988  0.00  0.00    -0.046 A 
ATOM      4  C   LIG d   1       9.714   5.134  -3.799  0.00  0.00     0.065 A 
ATOM      5  C   LIG d   1      10.083   4.258  -2.763  0.00  0.00     0.140 A 
ATOM      6  C   LIG d   1       9.907   2.893  -2.939  0.00  0.00     0.003 A 
ATOM      7  O   LIG d   1      10.602   4.740  -1.616  0.00  0.00    -0.462 OA
ATOM      8  C   LIG d   1      10.796   6.041  -1.389  0.00  0.00     0.104 A 
ATOM      9  C   LIG d   1      10.483   6.997  -2.303  0.00  0.00     0.064 A 
ATOM     10  C   LIG d   1       9.910   6.581  -3.595  0.00  0.00     0.200 A 
ATOM     11  O   LIG d   1       9.611   7.394  -4.453  0.00  0.00    -0.286 OA
ATOM     12  H   LIG d   1       8.582   2.908  -6.061  0.00  0.00     0.064 H 
ATOM     13  H   LIG d   1       8.894   5.316  -5.779  0.00  0.00     0.063 H 
ATOM     14  H   LIG d   1      10.185   2.205  -2.154  0.00  0.00     0.067 H 
ATOM     15  H   LIG d   1      11.216   6.347  -0.443  0.00  0.00     0.104 H 
ENDROOT
BRANCH   1  16
ATOM     16  N   LIG d   1       9.195   1.044  -4.299  0.00  0.00    -0.314 N 
ATOM     17  H   LIG d   1       9.948   0.485  -4.546  0.00  0.00     0.152 HD
BRANCH  16  18
ATOM     18  C   LIG d   1       7.929   0.473  -4.118  0.00  0.00     0.032 A 
ATOM     19  C   LIG d   1       6.930   1.188  -3.472  0.00  0.00    -0.037 A 
ATOM     20  C   LIG d   1       5.682   0.625  -3.294  0.00  0.00    -0.018 A 
ATOM     21  H   LIG d   1       7.130   2.186  -3.108  0.00  0.00     0.064 H 
ATOM     22  C   LIG d   1       5.426  -0.656  -3.761  0.00  0.00     0.120 A 
ATOM     23  H   LIG d   1       4.905   1.181  -2.792  0.00  0.00     0.066 H 
ATOM     24  C   LIG d   1       6.424  -1.372  -4.406  0.00  0.00    -0.018 A 
ATOM     25  C   LIG d   1       7.671  -0.808  -4.589  0.00  0.00    -0.037 A 
ATOM     26  H   LIG d   1       6.224  -2.369  -4.769  0.00  0.00     0.066 H 
ATOM     27  H   LIG d   1       8.446  -1.365  -5.096  0.00  0.00     0.064 H 
BRANCH  22  28
ATOM     28  O   LIG d   1       4.196  -1.210  -3.584  0.00  0.00    -0.495 OA
BRANCH  28  29
ATOM     29  C   LIG d   1       3.992  -1.967  -2.389  0.00  0.00     0.079 C 
ATOM     30  H   LIG d   1       3.860  -1.288  -1.548  0.00  0.00     0.066 H 
ATOM     31  H   LIG d   1       3.103  -2.588  -2.500  0.00  0.00     0.066 H 
ATOM     32  H   LIG d   1       4.859  -2.603  -2.210  0.00  0.00     0.066 H 
ENDBRANCH  28  29
ENDBRANCH  22  28
ENDBRANCH  16  18
ENDBRANCH   1  16
BRANCH   9  33
ATOM     33  C   LIG d   1      10.715   8.431  -2.006  0.00  0.00    -0.011 A 
ATOM     34  C   LIG d   1       9.744   9.173  -1.335  0.00  0.00    -0.054 A 
ATOM     35  C   LIG d   1       9.966  10.507  -1.062  0.00  0.00    -0.061 A 
ATOM     36  H   LIG d   1       8.820   8.704  -1.032  0.00  0.00     0.062 H 
ATOM     37  C   LIG d   1      11.149  11.109  -1.451  0.00  0.00    -0.062 A 
ATOM     38  H   LIG d   1       9.214  11.083  -0.541  0.00  0.00     0.062 H 
ATOM     39  C   LIG d   1      12.117  10.377  -2.117  0.00  0.00    -0.061 A 
ATOM     40  H   LIG d   1      11.318  12.153  -1.235  0.00  0.00     0.062 H 
ATOM     41  C   LIG d   1      11.908   9.040  -2.391  0.00  0.00    -0.054 A 
ATOM     42  H   LIG d   1      13.039  10.852  -2.418  0.00  0.00     0.062 H 
ATOM     43  H   LIG d   1      12.666   8.470  -2.907  0.00  0.00     0.062 H 
ENDBRANCH   9  33
TORSDOF 5
ENDMDL
MODEL 8
REMARK VINA RESULT:      -5.9      1.061      2.038
REMARK  5 active torsions:
REMARK  status: ('A' for Active; 'I' for Inactive)
REMARK    1  A    between atoms: C_1  and  O_2 
REMARK    2  A    between atoms: O_2  and  C_3 
REMARK    3  A    between atoms: C_6  and  N_9 
REMARK    4  A    between atoms: N_9  and  C_10 
REMARK    5  A    between atoms: C_18  and  C_21 
ROOT
ATOM      1  C   LIG d   1       3.326  -1.846 -10.408  0.00  0.00     0.035 A 
ATOM      2  C   LIG d   1       4.406  -2.589  -9.928  0.00  0.00    -0.040 A 
ATOM      3  C   LIG d   1       4.793  -2.476  -8.624  0.00  0.00    -0.046 A 
ATOM      4  C   LIG d   1       4.112  -1.605  -7.772  0.00  0.00     0.065 A 
ATOM      5  C   LIG d   1       3.027  -0.847  -8.246  0.00  0.00     0.140 A 
ATOM      6  C   LIG d   1       2.641  -0.977  -9.573  0.00  0.00     0.003 A 
ATOM      7  O   LIG d   1       2.372  -0.006  -7.421  0.00  0.00    -0.462 OA
ATOM      8  C   LIG d   1       2.695   0.162  -6.137  0.00  0.00     0.104 A 
ATOM      9  C   LIG d   1       3.722  -0.506  -5.549  0.00  0.00     0.064 A 
ATOM     10  C   LIG d   1       4.506  -1.454  -6.360  0.00  0.00     0.200 A 
ATOM     11  O   LIG d   1       5.438  -2.082  -5.886  0.00  0.00    -0.286 OA
ATOM     12  H   LIG d   1       4.934  -3.259 -10.590  0.00  0.00     0.064 H 
ATOM     13  H   LIG d   1       5.625  -3.055  -8.254  0.00  0.00     0.063 H 
ATOM     14  H   LIG d   1       1.809  -0.402  -9.955  0.00  0.00     0.067 H 
ATOM     15  H   LIG d   1       2.121   0.856  -5.542  0.00  0.00     0.104 H 
ENDROOT
BRANCH   1  16
ATOM     16  N   LIG d   1       2.938  -1.975 -11.739  0.00  0.00    -0.314 N 
ATOM     17  H   LIG d   1       3.540  -1.702 -12.449  0.00  0.00     0.152 HD
BRANCH  16  18
ATOM     18  C   LIG d   1       1.678  -2.500 -12.052  0.00  0.00     0.032 A 
ATOM     19  C   LIG d   1       0.741  -1.711 -12.706  0.00  0.00    -0.037 A 
ATOM     20  C   LIG d   1      -0.502  -2.228 -13.015  0.00  0.00    -0.018 A 
ATOM     21  H   LIG d   1       0.983  -0.692 -12.972  0.00  0.00     0.064 H 
ATOM     22  C   LIG d   1      -0.813  -3.537 -12.672  0.00  0.00     0.120 A 
ATOM     23  H   LIG d   1      -1.231  -1.616 -13.523  0.00  0.00     0.066 H 
ATOM     24  C   LIG d   1       0.123  -4.325 -12.019  0.00  0.00    -0.018 A 
ATOM     25  C   LIG d   1       1.367  -3.810 -11.714  0.00  0.00    -0.037 A 
ATOM     26  H   LIG d   1      -0.120  -5.342 -11.753  0.00  0.00     0.066 H 
ATOM     27  H   LIG d   1       2.097  -4.426 -11.209  0.00  0.00     0.064 H 
BRANCH  22  28
ATOM     28  O   LIG d   1      -2.037  -4.045 -12.977  0.00  0.00    -0.495 OA
BRANCH  28  29
ATOM     29  C   LIG d   1      -2.473  -5.179 -12.224  0.00  0.00     0.079 C 
ATOM     30  H   LIG d   1      -1.701  -5.459 -11.509  0.00  0.00     0.066 H 
ATOM     31  H   LIG d   1      -3.390  -4.928 -11.689  0.00  0.00     0.066 H 
ATOM     32  H   LIG d   1      -2.664  -6.012 -12.899  0.00  0.00     0.066 H 
ENDBRANCH  28  29
ENDBRANCH  22  28
ENDBRANCH  16  18
ENDBRANCH   1  16
BRANCH   9  33
ATOM     33  C   LIG d   1       4.046  -0.287  -4.119  0.00  0.00    -0.011 A 
ATOM     34  C   LIG d   1       3.907  -1.329  -3.203  0.00  0.00    -0.054 A 
ATOM     35  C   LIG d   1       4.210  -1.119  -1.873  0.00  0.00    -0.061 A 
ATOM     36  H   LIG d   1       3.562  -2.297  -3.534  0.00  0.00     0.062 H 
ATOM     37  C   LIG d   1       4.651   0.121  -1.448  0.00  0.00    -0.062 A 
ATOM     38  H   LIG d   1       4.103  -1.926  -1.163  0.00  0.00     0.062 H 
ATOM     39  C   LIG d   1       4.791   1.158  -2.353  0.00  0.00    -0.061 A 
ATOM     40  H   LIG d   1       4.887   0.280  -0.406  0.00  0.00     0.062 H 
ATOM     41  C   LIG d   1       4.496   0.959  -3.686  0.00  0.00    -0.054 A 
ATOM     42  H   LIG d   1       5.136   2.124  -2.015  0.00  0.00     0.062 H 
ATOM     43  H   LIG d   1       4.610   1.768  -4.391  0.00  0.00     0.062 H 
ENDBRANCH   9  33
TORSDOF 5
ENDMDL
MODEL 9
REMARK VINA RESULT:      -5.8      6.972     12.098
REMARK  5 active torsions:
REMARK  status: ('A' for Active; 'I' for Inactive)
REMARK    1  A    between atoms: C_1  and  O_2 
REMARK    2  A    between atoms: O_2  and  C_3 
REMARK    3  A    between atoms: C_6  and  N_9 
REMARK    4  A    between atoms: N_9  and  C_10 
REMARK    5  A    between atoms: C_18  and  C_21 
ROOT
ATOM      1  C   LIG d   1      11.173   1.604  -5.012  0.00  0.00     0.035 A 
ATOM      2  C   LIG d   1      10.541   2.600  -4.265  0.00  0.00    -0.040 A 
ATOM      3  C   LIG d   1       9.250   2.437  -3.853  0.00  0.00    -0.046 A 
ATOM      4  C   LIG d   1       8.557   1.272  -4.190  0.00  0.00     0.065 A 
ATOM      5  C   LIG d   1       9.181   0.265  -4.947  0.00  0.00     0.140 A 
ATOM      6  C   LIG d   1      10.496   0.443  -5.354  0.00  0.00     0.003 A 
ATOM      7  O   LIG d   1       8.509  -0.857  -5.272  0.00  0.00    -0.462 OA
ATOM      8  C   LIG d   1       7.245  -1.086  -4.910  0.00  0.00     0.104 A 
ATOM      9  C   LIG d   1       6.523  -0.198  -4.178  0.00  0.00     0.064 A 
ATOM     10  C   LIG d   1       7.161   1.065  -3.766  0.00  0.00     0.200 A 
ATOM     11  O   LIG d   1       6.562   1.899  -3.108  0.00  0.00    -0.286 OA
ATOM     12  H   LIG d   1      11.077   3.502  -4.009  0.00  0.00     0.064 H 
ATOM     13  H   LIG d   1       8.765   3.206  -3.272  0.00  0.00     0.063 H 
ATOM     14  H   LIG d   1      10.991  -0.321  -5.936  0.00  0.00     0.067 H 
ATOM     15  H   LIG d   1       6.777  -2.011  -5.210  0.00  0.00     0.104 H 
ENDROOT
BRANCH   1  16
ATOM     16  N   LIG d   1      12.492   1.781  -5.421  0.00  0.00    -0.314 N 
ATOM     17  H   LIG d   1      12.692   1.952  -6.354  0.00  0.00     0.152 HD
BRANCH  16  18
ATOM     18  C   LIG d   1      13.530   1.712  -4.484  0.00  0.00     0.032 A 
ATOM     19  C   LIG d   1      13.795   0.517  -3.828  0.00  0.00    -0.037 A 
ATOM     20  C   LIG d   1      14.819   0.449  -2.904  0.00  0.00    -0.018 A 
ATOM     21  H   LIG d   1      13.200  -0.359  -4.040  0.00  0.00     0.064 H 
ATOM     22  C   LIG d   1      15.583   1.576  -2.631  0.00  0.00     0.120 A 
ATOM     23  H   LIG d   1      15.026  -0.479  -2.394  0.00  0.00     0.066 H 
ATOM     24  C   LIG d   1      15.318   2.769  -3.286  0.00  0.00    -0.018 A 
ATOM     25  C   LIG d   1      14.298   2.837  -4.213  0.00  0.00    -0.037 A 
ATOM     26  H   LIG d   1      15.913   3.644  -3.073  0.00  0.00     0.066 H 
ATOM     27  H   LIG d   1      14.095   3.766  -4.726  0.00  0.00     0.064 H 
BRANCH  22  28
ATOM     28  O   LIG d   1      16.591   1.507  -1.721  0.00  0.00    -0.495 OA
BRANCH  28  29
ATOM     29  C   LIG d   1      17.319   0.279  -1.652  0.00  0.00     0.079 C 
ATOM     30  H   LIG d   1      17.671   0.122  -0.633  0.00  0.00     0.066 H 
ATOM     31  H   LIG d   1      16.668  -0.545  -1.944  0.00  0.00     0.066 H 
ATOM     32  H   LIG d   1      18.172   0.325  -2.329  0.00  0.00     0.066 H 
ENDBRANCH  28  29
ENDBRANCH  22  28
ENDBRANCH  16  18
ENDBRANCH   1  16
BRANCH   9  33
ATOM     33  C   LIG d   1       5.120  -0.494  -3.799  0.00  0.00    -0.011 A 
ATOM     34  C   LIG d   1       4.068   0.124  -4.474  0.00  0.00    -0.054 A 
ATOM     35  C   LIG d   1       2.764  -0.155  -4.116  0.00  0.00    -0.061 A 
ATOM     36  H   LIG d   1       4.273   0.821  -5.272  0.00  0.00     0.062 H 
ATOM     37  C   LIG d   1       2.501  -1.047  -3.093  0.00  0.00    -0.062 A 
ATOM     38  H   LIG d   1       1.949   0.323  -4.639  0.00  0.00     0.062 H 
ATOM     39  C   LIG d   1       3.541  -1.664  -2.420  0.00  0.00    -0.061 A 
ATOM     40  H   LIG d   1       1.479  -1.263  -2.818  0.00  0.00     0.062 H 
ATOM     41  C   LIG d   1       4.848  -1.396  -2.772  0.00  0.00    -0.054 A 
ATOM     42  H   LIG d   1       3.328  -2.360  -1.622  0.00  0.00     0.062 H 
ATOM     43  H   LIG d   1       5.659  -1.881  -2.249  0.00  0.00     0.062 H 
ENDBRANCH   9  33
TORSDOF 5
ENDMDL
MODEL 10
REMARK VINA RESULT:      -5.7      6.448      8.966
REMARK  5 active torsions:
REMARK  status: ('A' for Active; 'I' for Inactive)
REMARK    1  A    between atoms: C_1  and  O_2 
REMARK    2  A    between atoms: O_2  and  C_3 
REMARK    3  A    between atoms: C_6  and  N_9 
REMARK    4  A    between atoms: N_9  and  C_10 
REMARK    5  A    between atoms: C_18  and  C_21 
ROOT
ATOM      1  C   LIG d   1       7.464  -6.712  -6.289  0.00  0.00     0.035 A 
ATOM      2  C   LIG d   1       6.118  -6.476  -6.576  0.00  0.00    -0.040 A 
ATOM      3  C   LIG d   1       5.489  -5.376  -6.069  0.00  0.00    -0.046 A 
ATOM      4  C   LIG d   1       6.193  -4.490  -5.252  0.00  0.00     0.065 A 
ATOM      5  C   LIG d   1       7.547  -4.720  -4.951  0.00  0.00     0.140 A 
ATOM      6  C   LIG d   1       8.175  -5.840  -5.479  0.00  0.00     0.003 A 
ATOM      7  O   LIG d   1       8.224  -3.863  -4.161  0.00  0.00    -0.462 OA
ATOM      8  C   LIG d   1       7.675  -2.771  -3.625  0.00  0.00     0.104 A 
ATOM      9  C   LIG d   1       6.377  -2.428  -3.832  0.00  0.00     0.064 A 
ATOM     10  C   LIG d   1       5.543  -3.296  -4.683  0.00  0.00     0.200 A 
ATOM     11  O   LIG d   1       4.372  -3.038  -4.905  0.00  0.00    -0.286 OA
ATOM     12  H   LIG d   1       5.574  -7.165  -7.204  0.00  0.00     0.064 H 
ATOM     13  H   LIG d   1       4.449  -5.194  -6.295  0.00  0.00     0.063 H 
ATOM     14  H   LIG d   1       9.215  -6.032  -5.258  0.00  0.00     0.067 H 
ATOM     15  H   LIG d   1       8.286  -2.134  -3.002  0.00  0.00     0.104 H 
ENDROOT
BRANCH   1  16
ATOM     16  N   LIG d   1       8.095  -7.834  -6.817  0.00  0.00    -0.314 N 
ATOM     17  H   LIG d   1       8.537  -7.782  -7.679  0.00  0.00     0.152 HD
BRANCH  16  18
ATOM     18  C   LIG d   1       8.094  -9.039  -6.103  0.00  0.00     0.032 A 
ATOM     19  C   LIG d   1       6.904  -9.728  -5.908  0.00  0.00    -0.037 A 
ATOM     20  C   LIG d   1       6.903 -10.917  -5.204  0.00  0.00    -0.018 A 
ATOM     21  H   LIG d   1       5.981  -9.335  -6.306  0.00  0.00     0.064 H 
ATOM     22  C   LIG d   1       8.090 -11.421  -4.692  0.00  0.00     0.120 A 
ATOM     23  H   LIG d   1       5.979 -11.453  -5.053  0.00  0.00     0.066 H 
ATOM     24  C   LIG d   1       9.278 -10.732  -4.887  0.00  0.00    -0.018 A 
ATOM     25  C   LIG d   1       9.281  -9.547  -5.595  0.00  0.00    -0.037 A 
ATOM     26  H   LIG d   1      10.201 -11.126  -4.488  0.00  0.00     0.066 H 
ATOM     27  H   LIG d   1      10.208  -9.013  -5.749  0.00  0.00     0.064 H 
BRANCH  22  28
ATOM     28  O   LIG d   1       8.087 -12.591  -3.999  0.00  0.00    -0.495 OA
BRANCH  28  29
ATOM     29  C   LIG d   1       7.697 -12.529  -2.626  0.00  0.00     0.079 C 
ATOM     30  H   LIG d   1       7.960 -13.464  -2.131  0.00  0.00     0.066 H 
ATOM     31  H   LIG d   1       8.213 -11.701  -2.139  0.00  0.00     0.066 H 
ATOM     32  H   LIG d   1       6.620 -12.374  -2.561  0.00  0.00     0.066 H 
ENDBRANCH  28  29
ENDBRANCH  22  28
ENDBRANCH  16  18
ENDBRANCH   1  16
BRANCH   9  33
ATOM     33  C   LIG d   1       5.810  -1.205  -3.215  0.00  0.00    -0.011 A 
ATOM     34  C   LIG d   1       4.801  -1.307  -2.258  0.00  0.00    -0.054 A 
ATOM     35  C   LIG d   1       4.277  -0.165  -1.688  0.00  0.00    -0.061 A 
ATOM     36  H   LIG d   1       4.430  -2.277  -1.966  0.00  0.00     0.062 H 
ATOM     37  C   LIG d   1       4.752   1.080  -2.063  0.00  0.00    -0.062 A 
ATOM     38  H   LIG d   1       3.496  -0.243  -0.946  0.00  0.00     0.062 H 
ATOM     39  C   LIG d   1       5.753   1.187  -3.012  0.00  0.00    -0.061 A 
ATOM     40  H   LIG d   1       4.339   1.970  -1.613  0.00  0.00     0.062 H 
ATOM     41  C   LIG d   1       6.288   0.051  -3.585  0.00  0.00    -0.054 A 
ATOM     42  H   LIG d   1       6.119   2.161  -3.300  0.00  0.00     0.062 H 
ATOM     43  H   LIG d   1       7.072   0.136  -4.323  0.00  0.00     0.062 H 
ENDBRANCH   9  33
TORSDOF 5
ENDMDL
