MODEL 1
REMARK VINA RESULT:      -4.7      0.000      0.000
REMARK  5 active torsions:
REMARK  status: ('A' for Active; 'I' for Inactive)
REMARK    1  A    between atoms: C_1  and  C_2 
REMARK    2  A    between atoms: C_1  and  C_5 
REMARK    3  A    between atoms: C_2  and  C_3 
REMARK    4  A    between atoms: C_5  and  C_7 
REMARK    5  A    between atoms: C_5  and  O_9 
ROOT
ATOM      1  C   LIG d   1       3.398  -1.297  -2.877  0.00  0.00    -0.017 C 
ATOM      2  H   LIG d   1       2.553  -0.630  -3.043  0.00  0.00     0.030 H 
ATOM      3  H   LIG d   1       3.036  -2.263  -2.527  0.00  0.00     0.030 H 
ENDROOT
BRANCH   1   4
ATOM      4  C   LIG d   1       4.327  -0.689  -1.823  0.00  0.00    -0.011 C 
ATOM      5  H   LIG d   1       3.946  -0.918  -0.828  0.00  0.00     0.033 H 
ATOM      6  H   LIG d   1       5.327  -1.109  -1.934  0.00  0.00     0.033 H 
BRANCH   4   7
ATOM      7  C   LIG d   1       4.386   0.806  -2.007  0.00  0.00     0.042 C 
ATOM      8  O   LIG d   1       3.373   1.462  -1.951  0.00  0.00    -0.550 OA
ATOM      9  O   LIG d   1       5.563   1.408  -2.234  0.00  0.00    -0.550 OA
ENDBRANCH   4   7
ENDBRANCH   1   4
BRANCH   1  10
ATOM     10  C   LIG d   1       4.167  -1.483  -4.187  0.00  0.00     0.095 C 
ATOM     11  H   LIG d   1       5.238  -1.458  -3.986  0.00  0.00     0.066 H 
BRANCH  10  12
ATOM     12  C   LIG d   1       3.809  -0.373  -5.141  0.00  0.00     0.070 C 
ATOM     13  O   LIG d   1       2.709   0.127  -5.102  0.00  0.00    -0.547 OA
ATOM     14  O   LIG d   1       4.712   0.060  -6.035  0.00  0.00    -0.547 OA
ENDBRANCH  10  12
BRANCH  10  15
ATOM     15  O   LIG d   1       3.820  -2.741  -4.768  0.00  0.00    -0.386 OA
ATOM     16  H   LIG d   1       4.371  -2.991  -5.522  0.00  0.00     0.210 HD
ENDBRANCH  10  15
ENDBRANCH   1  10
TORSDOF 5
ENDMDL
MODEL 2
REMARK VINA RESULT:      -4.6      1.777      2.260
REMARK  5 active torsions:
REMARK  status: ('A' for Active; 'I' for Inactive)
REMARK    1  A    between atoms: C_1  and  C_2 
REMARK    2  A    between atoms: C_1  and  C_5 
REMARK    3  A    between atoms: C_2  and  C_3 
REMARK    4  A    between atoms: C_5  and  C_7 
REMARK    5  A    between atoms: C_5  and  O_9 
ROOT
ATOM      1  C   LIG d   1       4.291  -1.050  -1.975  0.00  0.00    -0.017 C 
ATOM      2  H   LIG d   1       3.894  -1.461  -1.047  0.00  0.00     0.030 H 
ATOM      3  H   LIG d   1       5.290  -0.653  -1.798  0.00  0.00     0.030 H 
ENDROOT
BRANCH   1   4
ATOM      4  C   LIG d   1       3.375   0.073  -2.468  0.00  0.00    -0.011 C 
ATOM      5  H   LIG d   1       2.876  -0.242  -3.384  0.00  0.00     0.033 H 
ATOM      6  H   LIG d   1       2.629   0.294  -1.705  0.00  0.00     0.033 H 
BRANCH   4   7
ATOM      7  C   LIG d   1       4.196   1.306  -2.741  0.00  0.00     0.042 C 
ATOM      8  O   LIG d   1       3.721   2.222  -3.371  0.00  0.00    -0.550 OA
ATOM      9  O   LIG d   1       5.456   1.388  -2.286  0.00  0.00    -0.550 OA
ENDBRANCH   4   7
ENDBRANCH   1   4
BRANCH   1  10
ATOM     10  C   LIG d   1       4.360  -2.153  -3.033  0.00  0.00     0.095 C 
ATOM     11  H   LIG d   1       4.226  -3.123  -2.555  0.00  0.00     0.066 H 
BRANCH  10  12
ATOM     12  C   LIG d   1       5.703  -2.111  -3.716  0.00  0.00     0.070 C 
ATOM     13  O   LIG d   1       6.658  -1.641  -3.144  0.00  0.00    -0.547 OA
ATOM     14  O   LIG d   1       5.837  -2.595  -4.961  0.00  0.00    -0.547 OA
ENDBRANCH  10  12
BRANCH  10  15
ATOM     15  O   LIG d   1       3.328  -1.951  -3.999  0.00  0.00    -0.386 OA
ATOM     16  H   LIG d   1       2.437  -2.122  -3.664  0.00  0.00     0.210 HD
ENDBRANCH  10  15
ENDBRANCH   1  10
TORSDOF 5
ENDMDL
MODEL 3
REMARK VINA RESULT:      -4.3      1.600      3.403
REMARK  5 active torsions:
REMARK  status: ('A' for Active; 'I' for Inactive)
REMARK    1  A    between atoms: C_1  and  C_2 
REMARK    2  A    between atoms: C_1  and  C_5 
REMARK    3  A    between atoms: C_2  and  C_3 
REMARK    4  A    between atoms: C_5  and  C_7 
REMARK    5  A    between atoms: C_5  and  O_9 
ROOT
ATOM      1  C   LIG d   1       3.449   0.993  -2.497  0.00  0.00    -0.017 C 
ATOM      2  H   LIG d   1       2.749   1.334  -1.735  0.00  0.00     0.030 H 
ATOM      3  H   LIG d   1       3.737   1.833  -3.128  0.00  0.00     0.030 H 
ENDROOT
BRANCH   1   4
ATOM      4  C   LIG d   1       2.784  -0.086  -3.354  0.00  0.00    -0.011 C 
ATOM      5  H   LIG d   1       3.196  -1.061  -3.095  0.00  0.00     0.033 H 
ATOM      6  H   LIG d   1       1.709  -0.084  -3.171  0.00  0.00     0.033 H 
BRANCH   4   7
ATOM      7  C   LIG d   1       3.046   0.198  -4.811  0.00  0.00     0.042 C 
ATOM      8  O   LIG d   1       2.583   1.188  -5.327  0.00  0.00    -0.550 OA
ATOM      9  O   LIG d   1       3.794  -0.648  -5.535  0.00  0.00    -0.550 OA
ENDBRANCH   4   7
ENDBRANCH   1   4
BRANCH   1  10
ATOM     10  C   LIG d   1       4.694   0.412  -1.822  0.00  0.00     0.095 C 
ATOM     11  H   LIG d   1       4.894   0.956  -0.899  0.00  0.00     0.066 H 
BRANCH  10  12
ATOM     12  C   LIG d   1       5.875   0.543  -2.749  0.00  0.00     0.070 C 
ATOM     13  O   LIG d   1       6.174   1.624  -3.198  0.00  0.00    -0.547 OA
ATOM     14  O   LIG d   1       6.595  -0.543  -3.075  0.00  0.00    -0.547 OA
ENDBRANCH  10  12
BRANCH  10  15
ATOM     15  O   LIG d   1       4.474  -0.968  -1.524  0.00  0.00    -0.386 OA
ATOM     16  H   LIG d   1       5.062  -1.572  -1.999  0.00  0.00     0.210 HD
ENDBRANCH  10  15
ENDBRANCH   1  10
TORSDOF 5
ENDMDL
MODEL 4
REMARK VINA RESULT:      -4.2      1.631      3.550
REMARK  5 active torsions:
REMARK  status: ('A' for Active; 'I' for Inactive)
REMARK    1  A    between atoms: C_1  and  C_2 
REMARK    2  A    between atoms: C_1  and  C_5 
REMARK    3  A    between atoms: C_2  and  C_3 
REMARK    4  A    between atoms: C_5  and  C_7 
REMARK    5  A    between atoms: C_5  and  O_9 
ROOT
ATOM      1  C   LIG d   1       4.476  -1.132  -1.959  0.00  0.00    -0.017 C 
ATOM      2  H   LIG d   1       4.840  -1.389  -0.965  0.00  0.00     0.030 H 
ATOM      3  H   LIG d   1       3.609  -1.746  -2.198  0.00  0.00     0.030 H 
ENDROOT
BRANCH   1   4
ATOM      4  C   LIG d   1       5.580  -1.387  -2.988  0.00  0.00    -0.011 C 
ATOM      5  H   LIG d   1       5.662  -0.526  -3.652  0.00  0.00     0.033 H 
ATOM      6  H   LIG d   1       6.528  -1.539  -2.473  0.00  0.00     0.033 H 
BRANCH   4   7
ATOM      7  C   LIG d   1       5.242  -2.614  -3.794  0.00  0.00     0.042 C 
ATOM      8  O   LIG d   1       4.141  -3.105  -3.715  0.00  0.00    -0.550 OA
ATOM      9  O   LIG d   1       6.165  -3.162  -4.599  0.00  0.00    -0.550 OA
ENDBRANCH   4   7
ENDBRANCH   1   4
BRANCH   1  10
ATOM     10  C   LIG d   1       4.079   0.345  -1.991  0.00  0.00     0.095 C 
ATOM     11  H   LIG d   1       3.482   0.580  -1.110  0.00  0.00     0.066 H 
BRANCH  10  12
ATOM     12  C   LIG d   1       3.273   0.622  -3.234  0.00  0.00     0.070 C 
ATOM     13  O   LIG d   1       3.428   1.658  -3.836  0.00  0.00    -0.547 OA
ATOM     14  O   LIG d   1       2.383  -0.283  -3.671  0.00  0.00    -0.547 OA
ENDBRANCH  10  12
BRANCH  10  15
ATOM     15  O   LIG d   1       5.257   1.154  -1.997  0.00  0.00    -0.386 OA
ATOM     16  H   LIG d   1       5.338   1.725  -2.774  0.00  0.00     0.210 HD
ENDBRANCH  10  15
ENDBRANCH   1  10
TORSDOF 5
ENDMDL
MODEL 5
REMARK VINA RESULT:      -4.2      1.619      3.463
REMARK  5 active torsions:
REMARK  status: ('A' for Active; 'I' for Inactive)
REMARK    1  A    between atoms: C_1  and  C_2 
REMARK    2  A    between atoms: C_1  and  C_5 
REMARK    3  A    between atoms: C_2  and  C_3 
REMARK    4  A    between atoms: C_5  and  C_7 
REMARK    5  A    between atoms: C_5  and  O_9 
ROOT
ATOM      1  C   LIG d   1       3.827  -1.355  -2.567  0.00  0.00    -0.017 C 
ATOM      2  H   LIG d   1       3.808  -0.921  -1.568  0.00  0.00     0.030 H 
ATOM      3  H   LIG d   1       3.134  -2.194  -2.611  0.00  0.00     0.030 H 
ENDROOT
BRANCH   1   4
ATOM      4  C   LIG d   1       5.243  -1.844  -2.883  0.00  0.00    -0.011 C 
ATOM      5  H   LIG d   1       5.879  -0.990  -3.113  0.00  0.00     0.033 H 
ATOM      6  H   LIG d   1       5.645  -2.375  -2.020  0.00  0.00     0.033 H 
BRANCH   4   7
ATOM      7  C   LIG d   1       5.199  -2.773  -4.069  0.00  0.00     0.042 C 
ATOM      8  O   LIG d   1       4.323  -3.600  -4.158  0.00  0.00    -0.550 OA
ATOM      9  O   LIG d   1       6.134  -2.680  -5.028  0.00  0.00    -0.550 OA
ENDBRANCH   4   7
ENDBRANCH   1   4
BRANCH   1  10
ATOM     10  C   LIG d   1       3.414  -0.296  -3.591  0.00  0.00     0.095 C 
ATOM     11  H   LIG d   1       4.083  -0.341  -4.450  0.00  0.00     0.066 H 
BRANCH  10  12
ATOM     12  C   LIG d   1       3.495   1.071  -2.962  0.00  0.00     0.070 C 
ATOM     13  O   LIG d   1       3.667   1.179  -1.771  0.00  0.00    -0.547 OA
ATOM     14  O   LIG d   1       3.377   2.169  -3.726  0.00  0.00    -0.547 OA
ENDBRANCH  10  12
BRANCH  10  15
ATOM     15  O   LIG d   1       2.073  -0.545  -4.018  0.00  0.00    -0.386 OA
ATOM     16  H   LIG d   1       2.010  -1.067  -4.830  0.00  0.00     0.210 HD
ENDBRANCH  10  15
ENDBRANCH   1  10
TORSDOF 5
ENDMDL
MODEL 6
REMARK VINA RESULT:      -4.1      1.795      3.178
REMARK  5 active torsions:
REMARK  status: ('A' for Active; 'I' for Inactive)
REMARK    1  A    between atoms: C_1  and  C_2 
REMARK    2  A    between atoms: C_1  and  C_5 
REMARK    3  A    between atoms: C_2  and  C_3 
REMARK    4  A    between atoms: C_5  and  C_7 
REMARK    5  A    between atoms: C_5  and  O_9 
ROOT
ATOM      1  C   LIG d   1       4.635   0.445  -1.923  0.00  0.00    -0.017 C 
ATOM      2  H   LIG d   1       4.647   0.791  -0.890  0.00  0.00     0.030 H 
ATOM      3  H   LIG d   1       4.745  -0.638  -1.945  0.00  0.00     0.030 H 
ENDROOT
BRANCH   1   4
ATOM      4  C   LIG d   1       5.792   1.091  -2.689  0.00  0.00    -0.011 C 
ATOM      5  H   LIG d   1       5.449   2.017  -3.151  0.00  0.00     0.033 H 
ATOM      6  H   LIG d   1       6.608   1.308  -2.000  0.00  0.00     0.033 H 
BRANCH   4   7
ATOM      7  C   LIG d   1       6.275   0.145  -3.758  0.00  0.00     0.042 C 
ATOM      8  O   LIG d   1       7.037  -0.749  -3.476  0.00  0.00    -0.550 OA
ATOM      9  O   LIG d   1       5.858   0.296  -5.025  0.00  0.00    -0.550 OA
ENDBRANCH   4   7
ENDBRANCH   1   4
BRANCH   1  10
ATOM     10  C   LIG d   1       3.308   0.837  -2.577  0.00  0.00     0.095 C 
ATOM     11  H   LIG d   1       2.587   1.104  -1.804  0.00  0.00     0.066 H 
BRANCH  10  12
ATOM     12  C   LIG d   1       2.780  -0.325  -3.378  0.00  0.00     0.070 C 
ATOM     13  O   LIG d   1       2.145  -0.125  -4.386  0.00  0.00    -0.547 OA
ATOM     14  O   LIG d   1       3.017  -1.582  -2.971  0.00  0.00    -0.547 OA
ENDBRANCH  10  12
BRANCH  10  15
ATOM     15  O   LIG d   1       3.516   1.956  -3.440  0.00  0.00    -0.386 OA
ATOM     16  H   LIG d   1       3.556   1.726  -4.379  0.00  0.00     0.210 HD
ENDBRANCH  10  15
ENDBRANCH   1  10
TORSDOF 5
ENDMDL
MODEL 7
REMARK VINA RESULT:      -4.1      1.706      2.481
REMARK  5 active torsions:
REMARK  status: ('A' for Active; 'I' for Inactive)
REMARK    1  A    between atoms: C_1  and  C_2 
REMARK    2  A    between atoms: C_1  and  C_5 
REMARK    3  A    between atoms: C_2  and  C_3 
REMARK    4  A    between atoms: C_5  and  C_7 
REMARK    5  A    between atoms: C_5  and  O_9 
ROOT
ATOM      1  C   LIG d   1       3.448  -0.430  -4.632  0.00  0.00    -0.017 C 
ATOM      2  H   LIG d   1       3.571  -1.407  -5.099  0.00  0.00     0.030 H 
ATOM      3  H   LIG d   1       4.420   0.049  -4.530  0.00  0.00     0.030 H 
ENDROOT
BRANCH   1   4
ATOM      4  C   LIG d   1       2.816  -0.603  -3.248  0.00  0.00    -0.011 C 
ATOM      5  H   LIG d   1       1.795  -0.221  -3.266  0.00  0.00     0.033 H 
ATOM      6  H   LIG d   1       2.805  -1.660  -2.984  0.00  0.00     0.033 H 
BRANCH   4   7
ATOM      7  C   LIG d   1       3.621   0.163  -2.230  0.00  0.00     0.042 C 
ATOM      8  O   LIG d   1       3.440   1.348  -2.083  0.00  0.00    -0.550 OA
ATOM      9  O   LIG d   1       4.540  -0.472  -1.487  0.00  0.00    -0.550 OA
ENDBRANCH   4   7
ENDBRANCH   1   4
BRANCH   1  10
ATOM     10  C   LIG d   1       2.539   0.440  -5.502  0.00  0.00     0.095 C 
ATOM     11  H   LIG d   1       1.518   0.062  -5.453  0.00  0.00     0.066 H 
BRANCH  10  12
ATOM     12  C   LIG d   1       3.021   0.401  -6.930  0.00  0.00     0.070 C 
ATOM     13  O   LIG d   1       3.103   1.423  -7.568  0.00  0.00    -0.547 OA
ATOM     14  O   LIG d   1       3.361  -0.771  -7.490  0.00  0.00    -0.547 OA
ENDBRANCH  10  12
BRANCH  10  15
ATOM     15  O   LIG d   1       2.571   1.787  -5.026  0.00  0.00    -0.386 OA
ATOM     16  H   LIG d   1       2.024   1.940  -4.243  0.00  0.00     0.210 HD
ENDBRANCH  10  15
ENDBRANCH   1  10
TORSDOF 5
ENDMDL
MODEL 8
REMARK VINA RESULT:      -4.1      1.675      3.656
REMARK  5 active torsions:
REMARK  status: ('A' for Active; 'I' for Inactive)
REMARK    1  A    between atoms: C_1  and  C_2 
REMARK    2  A    between atoms: C_1  and  C_5 
REMARK    3  A    between atoms: C_2  and  C_3 
REMARK    4  A    between atoms: C_5  and  C_7 
REMARK    5  A    between atoms: C_5  and  O_9 
ROOT
ATOM      1  C   LIG d   1       3.752   0.768  -3.512  0.00  0.00    -0.017 C 
ATOM      2  H   LIG d   1       3.011   1.526  -3.760  0.00  0.00     0.030 H 
ATOM      3  H   LIG d   1       4.156   0.340  -4.428  0.00  0.00     0.030 H 
ENDROOT
BRANCH   1   4
ATOM      4  C   LIG d   1       3.093  -0.336  -2.681  0.00  0.00    -0.011 C 
ATOM      5  H   LIG d   1       3.360  -0.210  -1.632  0.00  0.00     0.033 H 
ATOM      6  H   LIG d   1       2.010  -0.276  -2.790  0.00  0.00     0.033 H 
BRANCH   4   7
ATOM      7  C   LIG d   1       3.573  -1.681  -3.163  0.00  0.00     0.042 C 
ATOM      8  O   LIG d   1       3.935  -1.820  -4.307  0.00  0.00    -0.550 OA
ATOM      9  O   LIG d   1       3.598  -2.725  -2.320  0.00  0.00    -0.550 OA
ENDBRANCH   4   7
ENDBRANCH   1   4
BRANCH   1  10
ATOM     10  C   LIG d   1       4.884   1.406  -2.704  0.00  0.00     0.095 C 
ATOM     11  H   LIG d   1       4.816   2.491  -2.778  0.00  0.00     0.066 H 
BRANCH  10  12
ATOM     12  C   LIG d   1       6.212   0.946  -3.250  0.00  0.00     0.070 C 
ATOM     13  O   LIG d   1       6.609  -0.170  -3.013  0.00  0.00    -0.547 OA
ATOM     14  O   LIG d   1       6.952   1.778  -3.999  0.00  0.00    -0.547 OA
ENDBRANCH  10  12
BRANCH  10  15
ATOM     15  O   LIG d   1       4.771   1.014  -1.334  0.00  0.00    -0.386 OA
ATOM     16  H   LIG d   1       4.185   0.259  -1.189  0.00  0.00     0.210 HD
ENDBRANCH  10  15
ENDBRANCH   1  10
TORSDOF 5
ENDMDL
MODEL 9
REMARK VINA RESULT:      -4.0      1.546      2.777
REMARK  5 active torsions:
REMARK  status: ('A' for Active; 'I' for Inactive)
REMARK    1  A    between atoms: C_1  and  C_2 
REMARK    2  A    between atoms: C_1  and  C_5 
REMARK    3  A    between atoms: C_2  and  C_3 
REMARK    4  A    between atoms: C_5  and  C_7 
REMARK    5  A    between atoms: C_5  and  O_9 
ROOT
ATOM      1  C   LIG d   1       3.379  -1.600  -2.756  0.00  0.00    -0.017 C 
ATOM      2  H   LIG d   1       2.711  -2.231  -2.171  0.00  0.00     0.030 H 
ATOM      3  H   LIG d   1       3.520  -2.036  -3.744  0.00  0.00     0.030 H 
ENDROOT
BRANCH   1   4
ATOM      4  C   LIG d   1       4.732  -1.496  -2.046  0.00  0.00    -0.011 C 
ATOM      5  H   LIG d   1       4.813  -0.523  -1.561  0.00  0.00     0.033 H 
ATOM      6  H   LIG d   1       4.811  -2.284  -1.297  0.00  0.00     0.033 H 
BRANCH   4   7
ATOM      7  C   LIG d   1       5.841  -1.648  -3.055  0.00  0.00     0.042 C 
ATOM      8  O   LIG d   1       6.759  -0.863  -3.067  0.00  0.00    -0.550 OA
ATOM      9  O   LIG d   1       5.807  -2.655  -3.942  0.00  0.00    -0.550 OA
ENDBRANCH   4   7
ENDBRANCH   1   4
BRANCH   1  10
ATOM     10  C   LIG d   1       2.770  -0.203  -2.897  0.00  0.00     0.095 C 
ATOM     11  H   LIG d   1       1.726  -0.230  -2.584  0.00  0.00     0.066 H 
BRANCH  10  12
ATOM     12  C   LIG d   1       2.852   0.238  -4.336  0.00  0.00     0.070 C 
ATOM     13  O   LIG d   1       1.847   0.323  -5.001  0.00  0.00    -0.547 OA
ATOM     14  O   LIG d   1       4.043   0.537  -4.878  0.00  0.00    -0.547 OA
ENDBRANCH  10  12
BRANCH  10  15
ATOM     15  O   LIG d   1       3.491   0.716  -2.075  0.00  0.00    -0.386 OA
ATOM     16  H   LIG d   1       4.131   0.297  -1.484  0.00  0.00     0.210 HD
ENDBRANCH  10  15
ENDBRANCH   1  10
TORSDOF 5
ENDMDL
MODEL 10
REMARK VINA RESULT:      -3.9      1.484      2.438
REMARK  5 active torsions:
REMARK  status: ('A' for Active; 'I' for Inactive)
REMARK    1  A    between atoms: C_1  and  C_2 
REMARK    2  A    between atoms: C_1  and  C_5 
REMARK    3  A    between atoms: C_2  and  C_3 
REMARK    4  A    between atoms: C_5  and  C_7 
REMARK    5  A    between atoms: C_5  and  O_9 
ROOT
ATOM      1  C   LIG d   1       5.422  -0.463  -4.400  0.00  0.00    -0.017 C 
ATOM      2  H   LIG d   1       6.035  -1.301  -4.730  0.00  0.00     0.030 H 
ATOM      3  H   LIG d   1       5.397   0.298  -5.178  0.00  0.00     0.030 H 
ENDROOT
BRANCH   1   4
ATOM      4  C   LIG d   1       6.018   0.133  -3.122  0.00  0.00    -0.011 C 
ATOM      5  H   LIG d   1       6.180  -0.661  -2.393  0.00  0.00     0.033 H 
ATOM      6  H   LIG d   1       6.968   0.613  -3.354  0.00  0.00     0.033 H 
BRANCH   4   7
ATOM      7  C   LIG d   1       5.065   1.152  -2.552  0.00  0.00     0.042 C 
ATOM      8  O   LIG d   1       4.610   2.018  -3.262  0.00  0.00    -0.550 OA
ATOM      9  O   LIG d   1       4.723   1.099  -1.256  0.00  0.00    -0.550 OA
ENDBRANCH   4   7
ENDBRANCH   1   4
BRANCH   1  10
ATOM     10  C   LIG d   1       3.999  -0.952  -4.119  0.00  0.00     0.095 C 
ATOM     11  H   LIG d   1       3.512  -0.269  -3.423  0.00  0.00     0.066 H 
BRANCH  10  12
ATOM     12  C   LIG d   1       4.052  -2.332  -3.515  0.00  0.00     0.070 C 
ATOM     13  O   LIG d   1       3.697  -2.507  -2.374  0.00  0.00    -0.547 OA
ATOM     14  O   LIG d   1       4.493  -3.368  -4.247  0.00  0.00    -0.547 OA
ENDBRANCH  10  12
BRANCH  10  15
ATOM     15  O   LIG d   1       3.260  -0.995  -5.341  0.00  0.00    -0.386 OA
ATOM     16  H   LIG d   1       2.489  -0.412  -5.354  0.00  0.00     0.210 HD
ENDBRANCH  10  15
ENDBRANCH   1  10
TORSDOF 5
ENDMDL
