MODEL 1
REMARK VINA RESULT:      -7.3      0.000      0.000
REMARK  14 active torsions:
REMARK  status: ('A' for Active; 'I' for Inactive)
REMARK    1  A    between atoms: C_1  and  C_2 
REMARK    2  A    between atoms: C_5  and  S_8 
REMARK    3  A    between atoms: S_8  and  N_11 
REMARK    4  A    between atoms: N_11  and  C_12 
REMARK    5  A    between atoms: C_12  and  C_14 
REMARK    6  A    between atoms: C_12  and  C_17 
REMARK    7  A    between atoms: C_14  and  C_15 
REMARK    8  A    between atoms: C_14  and  C_16 
REMARK    9  A    between atoms: C_17  and  O_19 
REMARK   10  A    between atoms: O_19  and  C_20 
REMARK   11  A    between atoms: C_24  and  C_39 
REMARK   12  A    between atoms: C_25  and  C_32 
REMARK   13  A    between atoms: C_30  and  C_31 
REMARK   14  A    between atoms: C_32  and  C_33 
ROOT
ATOM      1  C   LIG d   1       6.561  -2.592  -4.773  0.00  0.00     0.138 A 
ATOM      2  C   LIG d   1       5.403  -2.850  -5.503  0.00  0.00    -0.018 A 
ATOM      3  C   LIG d   1       5.124  -4.116  -5.933  0.00  0.00    -0.047 A 
ATOM      4  C   LIG d   1       6.006  -5.160  -5.637  0.00  0.00     0.021 A 
ATOM      5  C   LIG d   1       5.733  -6.528  -6.085  0.00  0.00    -0.029 A 
ATOM      6  C   LIG d   1       6.628  -7.499  -5.767  0.00  0.00     0.045 A 
ATOM      7  C   LIG d   1       7.781  -7.174  -5.024  0.00  0.00     0.341 A 
ATOM      8  O   LIG d   1       8.577  -8.053  -4.746  0.00  0.00    -0.245 OA
ATOM      9  O   LIG d   1       8.026  -5.918  -4.617  0.00  0.00    -0.422 OA
ATOM     10  C   LIG d   1       7.177  -4.906  -4.900  0.00  0.00     0.146 A 
ATOM     11  C   LIG d   1       7.448  -3.615  -4.476  0.00  0.00     0.035 A 
ATOM     12  H   LIG d   1       4.722  -2.044  -5.731  0.00  0.00     0.066 H 
ATOM     13  H   LIG d   1       4.225  -4.309  -6.498  0.00  0.00     0.063 H 
ENDROOT
BRANCH   1  14
ATOM     14  O   LIG d   1       6.826  -1.328  -4.354  0.00  0.00    -0.424 OA
BRANCH  14  15
ATOM     15  C   LIG d   1       6.038  -0.337  -4.802  0.00  0.00     0.331 C 
ATOM     16  O   LIG d   1       6.245   0.155  -5.885  0.00  0.00    -0.249 OA
BRANCH  15  17
ATOM     17  C   LIG d   1       4.896   0.160  -3.954  0.00  0.00     0.128 C 
ATOM     18  H   LIG d   1       4.846   1.248  -4.013  0.00  0.00     0.059 H 
BRANCH  17  19
ATOM     19  N   LIG d   1       3.640  -0.414  -4.440  0.00  0.00    -0.176 N 
ATOM     20  H   LIG d   1       3.473  -1.365  -4.348  0.00  0.00     0.149 HD
BRANCH  19  21
ATOM     21  S   LIG d   1       2.504   0.561  -5.148  0.00  0.00     0.059 S 
ATOM     22  O   LIG d   1       2.740   1.877  -4.667  0.00  0.00    -0.153 OA
ATOM     23  O   LIG d   1       1.252  -0.094  -4.992  0.00  0.00    -0.153 OA
BRANCH  21  24
ATOM     24  C   LIG d   1       2.844   0.588  -6.877  0.00  0.00     0.105 A 
ATOM     25  C   LIG d   1       2.771   1.778  -7.578  0.00  0.00    -0.035 A 
ATOM     26  C   LIG d   1       3.040   1.798  -8.934  0.00  0.00    -0.057 A 
ATOM     27  H   LIG d   1       2.506   2.690  -7.066  0.00  0.00     0.064 H 
ATOM     28  C   LIG d   1       3.381   0.629  -9.589  0.00  0.00    -0.050 A 
ATOM     29  H   LIG d   1       2.982   2.727  -9.481  0.00  0.00     0.062 H 
ATOM     30  C   LIG d   1       3.449  -0.561  -8.889  0.00  0.00    -0.057 A 
ATOM     31  C   LIG d   1       3.184  -0.581  -7.532  0.00  0.00    -0.035 A 
ATOM     32  H   LIG d   1       3.711  -1.475  -9.401  0.00  0.00     0.062 H 
ATOM     33  H   LIG d   1       3.242  -1.510  -6.985  0.00  0.00     0.064 H 
BRANCH  28  34
ATOM     34  C   LIG d   1       3.673   0.652 -11.067  0.00  0.00    -0.040 C 
ATOM     35  H   LIG d   1       4.738   0.489 -11.231  0.00  0.00     0.028 H 
ATOM     36  H   LIG d   1       3.104  -0.135 -11.563  0.00  0.00     0.028 H 
ATOM     37  H   LIG d   1       3.387   1.621 -11.478  0.00  0.00     0.028 H 
ENDBRANCH  28  34
ENDBRANCH  21  24
ENDBRANCH  19  21
ENDBRANCH  17  19
BRANCH  17  38
ATOM     38  C   LIG d   1       5.120  -0.260  -2.500  0.00  0.00    -0.019 C 
ATOM     39  H   LIG d   1       6.171  -0.507  -2.351  0.00  0.00     0.032 H 
BRANCH  38  40
ATOM     40  C   LIG d   1       4.729   0.889  -1.570  0.00  0.00    -0.061 C 
ATOM     41  H   LIG d   1       4.625   0.514  -0.551  0.00  0.00     0.023 H 
ATOM     42  H   LIG d   1       5.501   1.657  -1.597  0.00  0.00     0.023 H 
ATOM     43  H   LIG d   1       3.780   1.315  -1.898  0.00  0.00     0.023 H 
ENDBRANCH  38  40
BRANCH  38  44
ATOM     44  C   LIG d   1       4.259  -1.487  -2.186  0.00  0.00    -0.061 C 
ATOM     45  H   LIG d   1       4.300  -2.183  -3.024  0.00  0.00     0.023 H 
ATOM     46  H   LIG d   1       4.638  -1.975  -1.288  0.00  0.00     0.023 H 
ATOM     47  H   LIG d   1       3.228  -1.174  -2.022  0.00  0.00     0.023 H 
ENDBRANCH  38  44
ENDBRANCH  17  38
ENDBRANCH  15  17
ENDBRANCH  14  15
ENDBRANCH   1  14
BRANCH  11  48
ATOM     48  C   LIG d   1       8.701  -3.323  -3.690  0.00  0.00    -0.033 C 
ATOM     49  H   LIG d   1       8.490  -2.563  -2.939  0.00  0.00     0.028 H 
ATOM     50  H   LIG d   1       9.042  -4.235  -3.198  0.00  0.00     0.028 H 
ATOM     51  H   LIG d   1       9.477  -2.963  -4.365  0.00  0.00     0.028 H 
ENDBRANCH  11  48
BRANCH   5  52
ATOM     52  C   LIG d   1       4.492  -6.849  -6.877  0.00  0.00    -0.038 C 
ATOM     53  H   LIG d   1       4.683  -7.706  -7.522  0.00  0.00     0.028 H 
ATOM     54  H   LIG d   1       3.675  -7.083  -6.194  0.00  0.00     0.028 H 
ATOM     55  H   LIG d   1       4.218  -5.989  -7.489  0.00  0.00     0.028 H 
ENDBRANCH   5  52
BRANCH   6  56
ATOM     56  C   LIG d   1       6.388  -8.920  -6.206  0.00  0.00     0.005 C 
ATOM     57  H   LIG d   1       5.687  -8.930  -7.041  0.00  0.00     0.036 H 
ATOM     58  H   LIG d   1       7.331  -9.368  -6.518  0.00  0.00     0.036 H 
BRANCH  56  59
ATOM     59  C   LIG d   1       5.811  -9.710  -5.058  0.00  0.00    -0.043 A 
ATOM     60  C   LIG d   1       4.586  -9.360  -4.525  0.00  0.00    -0.058 A 
ATOM     61  C   LIG d   1       4.056 -10.087  -3.475  0.00  0.00    -0.061 A 
ATOM     62  H   LIG d   1       4.041  -8.521  -4.930  0.00  0.00     0.062 H 
ATOM     63  C   LIG d   1       4.756 -11.160  -2.954  0.00  0.00    -0.062 A 
ATOM     64  H   LIG d   1       3.096  -9.816  -3.062  0.00  0.00     0.062 H 
ATOM     65  C   LIG d   1       5.984 -11.506  -3.484  0.00  0.00    -0.061 A 
ATOM     66  H   LIG d   1       4.342 -11.726  -2.132  0.00  0.00     0.062 H 
ATOM     67  C   LIG d   1       6.512 -10.782  -4.537  0.00  0.00    -0.058 A 
ATOM     68  H   LIG d   1       6.531 -12.344  -3.078  0.00  0.00     0.062 H 
ATOM     69  H   LIG d   1       7.472 -11.053  -4.951  0.00  0.00     0.062 H 
ENDBRANCH  56  59
ENDBRANCH   6  56
TORSDOF 14
ENDMDL
MODEL 2
REMARK VINA RESULT:      -7.3      2.627      3.932
REMARK  14 active torsions:
REMARK  status: ('A' for Active; 'I' for Inactive)
REMARK    1  A    between atoms: C_1  and  C_2 
REMARK    2  A    between atoms: C_5  and  S_8 
REMARK    3  A    between atoms: S_8  and  N_11 
REMARK    4  A    between atoms: N_11  and  C_12 
REMARK    5  A    between atoms: C_12  and  C_14 
REMARK    6  A    between atoms: C_12  and  C_17 
REMARK    7  A    between atoms: C_14  and  C_15 
REMARK    8  A    between atoms: C_14  and  C_16 
REMARK    9  A    between atoms: C_17  and  O_19 
REMARK   10  A    between atoms: O_19  and  C_20 
REMARK   11  A    between atoms: C_24  and  C_39 
REMARK   12  A    between atoms: C_25  and  C_32 
REMARK   13  A    between atoms: C_30  and  C_31 
REMARK   14  A    between atoms: C_32  and  C_33 
ROOT
ATOM      1  C   LIG d   1       6.605  -1.356  -3.456  0.00  0.00     0.138 A 
ATOM      2  C   LIG d   1       7.865  -1.786  -3.866  0.00  0.00    -0.018 A 
ATOM      3  C   LIG d   1       8.005  -2.951  -4.563  0.00  0.00    -0.047 A 
ATOM      4  C   LIG d   1       6.876  -3.719  -4.869  0.00  0.00     0.021 A 
ATOM      5  C   LIG d   1       6.996  -4.974  -5.615  0.00  0.00    -0.029 A 
ATOM      6  C   LIG d   1       5.862  -5.673  -5.880  0.00  0.00     0.045 A 
ATOM      7  C   LIG d   1       4.616  -5.184  -5.438  0.00  0.00     0.341 A 
ATOM      8  O   LIG d   1       3.607  -5.822  -5.681  0.00  0.00    -0.245 OA
ATOM      9  O   LIG d   1       4.513  -4.033  -4.754  0.00  0.00    -0.422 OA
ATOM     10  C   LIG d   1       5.601  -3.290  -4.457  0.00  0.00     0.146 A 
ATOM     11  C   LIG d   1       5.477  -2.107  -3.746  0.00  0.00     0.035 A 
ATOM     12  H   LIG d   1       8.737  -1.194  -3.631  0.00  0.00     0.066 H 
ATOM     13  H   LIG d   1       8.984  -3.279  -4.879  0.00  0.00     0.063 H 
ENDROOT
BRANCH   1  14
ATOM     14  O   LIG d   1       6.482  -0.195  -2.762  0.00  0.00    -0.424 OA
BRANCH  14  15
ATOM     15  C   LIG d   1       6.656   0.958  -3.426  0.00  0.00     0.331 C 
ATOM     16  O   LIG d   1       5.859   1.857  -3.295  0.00  0.00    -0.249 OA
BRANCH  15  17
ATOM     17  C   LIG d   1       7.845   1.132  -4.335  0.00  0.00     0.128 C 
ATOM     18  H   LIG d   1       8.417   0.205  -4.367  0.00  0.00     0.059 H 
BRANCH  17  19
ATOM     19  N   LIG d   1       7.384   1.470  -5.683  0.00  0.00    -0.176 N 
ATOM     20  H   LIG d   1       6.754   2.196  -5.813  0.00  0.00     0.149 HD
BRANCH  19  21
ATOM     21  S   LIG d   1       7.940   0.612  -6.987  0.00  0.00     0.059 S 
ATOM     22  O   LIG d   1       9.081  -0.109  -6.542  0.00  0.00    -0.153 OA
ATOM     23  O   LIG d   1       7.990   1.521  -8.079  0.00  0.00    -0.153 OA
BRANCH  21  24
ATOM     24  C   LIG d   1       6.710  -0.585  -7.385  0.00  0.00     0.105 A 
ATOM     25  C   LIG d   1       5.394  -0.374  -7.016  0.00  0.00    -0.035 A 
ATOM     26  C   LIG d   1       4.429  -1.313  -7.330  0.00  0.00    -0.057 A 
ATOM     27  H   LIG d   1       5.121   0.524  -6.483  0.00  0.00     0.064 H 
ATOM     28  C   LIG d   1       4.780  -2.463  -8.013  0.00  0.00    -0.050 A 
ATOM     29  H   LIG d   1       3.402  -1.148  -7.041  0.00  0.00     0.062 H 
ATOM     30  C   LIG d   1       6.096  -2.676  -8.378  0.00  0.00    -0.057 A 
ATOM     31  C   LIG d   1       7.060  -1.735  -8.067  0.00  0.00    -0.035 A 
ATOM     32  H   LIG d   1       6.371  -3.576  -8.907  0.00  0.00     0.062 H 
ATOM     33  H   LIG d   1       8.088  -1.900  -8.356  0.00  0.00     0.064 H 
BRANCH  28  34
ATOM     34  C   LIG d   1       3.728  -3.486  -8.354  0.00  0.00    -0.040 C 
ATOM     35  H   LIG d   1       3.772  -4.307  -7.638  0.00  0.00     0.028 H 
ATOM     36  H   LIG d   1       2.742  -3.022  -8.314  0.00  0.00     0.028 H 
ATOM     37  H   LIG d   1       3.907  -3.870  -9.358  0.00  0.00     0.028 H 
ENDBRANCH  28  34
ENDBRANCH  21  24
ENDBRANCH  19  21
ENDBRANCH  17  19
BRANCH  17  38
ATOM     38  C   LIG d   1       8.733   2.259  -3.803  0.00  0.00    -0.019 C 
ATOM     39  H   LIG d   1       8.411   2.532  -2.798  0.00  0.00     0.032 H 
BRANCH  38  40
ATOM     40  C   LIG d   1      10.188   1.787  -3.762  0.00  0.00    -0.061 C 
ATOM     41  H   LIG d   1      10.758   2.295  -4.540  0.00  0.00     0.023 H 
ATOM     42  H   LIG d   1      10.617   2.018  -2.788  0.00  0.00     0.023 H 
ATOM     43  H   LIG d   1      10.224   0.710  -3.930  0.00  0.00     0.023 H 
ENDBRANCH  38  40
BRANCH  38  44
ATOM     44  C   LIG d   1       8.617   3.477  -4.723  0.00  0.00    -0.061 C 
ATOM     45  H   LIG d   1       7.675   3.431  -5.269  0.00  0.00     0.023 H 
ATOM     46  H   LIG d   1       8.647   4.387  -4.124  0.00  0.00     0.023 H 
ATOM     47  H   LIG d   1       9.449   3.478  -5.429  0.00  0.00     0.023 H 
ENDBRANCH  38  44
ENDBRANCH  17  38
ENDBRANCH  15  17
ENDBRANCH  14  15
ENDBRANCH   1  14
BRANCH  11  48
ATOM     48  C   LIG d   1       4.119  -1.635  -3.292  0.00  0.00    -0.033 C 
ATOM     49  H   LIG d   1       4.163  -0.572  -3.057  0.00  0.00     0.028 H 
ATOM     50  H   LIG d   1       3.392  -1.801  -4.087  0.00  0.00     0.028 H 
ATOM     51  H   LIG d   1       3.819  -2.192  -2.405  0.00  0.00     0.028 H 
ENDBRANCH  11  48
BRANCH   5  52
ATOM     52  C   LIG d   1       8.340  -5.473  -6.077  0.00  0.00    -0.038 C 
ATOM     53  H   LIG d   1       9.086  -5.274  -5.308  0.00  0.00     0.028 H 
ATOM     54  H   LIG d   1       8.286  -6.547  -6.261  0.00  0.00     0.028 H 
ATOM     55  H   LIG d   1       8.622  -4.960  -6.997  0.00  0.00     0.028 H 
ENDBRANCH   5  52
BRANCH   6  56
ATOM     56  C   LIG d   1       5.937  -6.969  -6.646  0.00  0.00     0.005 C 
ATOM     57  H   LIG d   1       5.128  -7.007  -7.376  0.00  0.00     0.036 H 
ATOM     58  H   LIG d   1       6.895  -7.032  -7.162  0.00  0.00     0.036 H 
BRANCH  56  59
ATOM     59  C   LIG d   1       5.804  -8.126  -5.689  0.00  0.00    -0.043 A 
ATOM     60  C   LIG d   1       6.755  -8.323  -4.706  0.00  0.00    -0.058 A 
ATOM     61  C   LIG d   1       6.631  -9.382  -3.827  0.00  0.00    -0.061 A 
ATOM     62  H   LIG d   1       7.594  -7.649  -4.624  0.00  0.00     0.062 H 
ATOM     63  C   LIG d   1       5.559 -10.249  -3.934  0.00  0.00    -0.062 A 
ATOM     64  H   LIG d   1       7.372  -9.534  -3.056  0.00  0.00     0.062 H 
ATOM     65  C   LIG d   1       4.610 -10.054  -4.921  0.00  0.00    -0.061 A 
ATOM     66  H   LIG d   1       5.463 -11.077  -3.248  0.00  0.00     0.062 H 
ATOM     67  C   LIG d   1       4.732  -8.992  -5.798  0.00  0.00    -0.058 A 
ATOM     68  H   LIG d   1       3.772 -10.730  -5.005  0.00  0.00     0.062 H 
ATOM     69  H   LIG d   1       3.991  -8.841  -6.568  0.00  0.00     0.062 H 
ENDBRANCH  56  59
ENDBRANCH   6  56
TORSDOF 14
ENDMDL
MODEL 3
REMARK VINA RESULT:      -7.2      3.799      7.579
REMARK  14 active torsions:
REMARK  status: ('A' for Active; 'I' for Inactive)
REMARK    1  A    between atoms: C_1  and  C_2 
REMARK    2  A    between atoms: C_5  and  S_8 
REMARK    3  A    between atoms: S_8  and  N_11 
REMARK    4  A    between atoms: N_11  and  C_12 
REMARK    5  A    between atoms: C_12  and  C_14 
REMARK    6  A    between atoms: C_12  and  C_17 
REMARK    7  A    between atoms: C_14  and  C_15 
REMARK    8  A    between atoms: C_14  and  C_16 
REMARK    9  A    between atoms: C_17  and  O_19 
REMARK   10  A    between atoms: O_19  and  C_20 
REMARK   11  A    between atoms: C_24  and  C_39 
REMARK   12  A    between atoms: C_25  and  C_32 
REMARK   13  A    between atoms: C_30  and  C_31 
REMARK   14  A    between atoms: C_32  and  C_33 
ROOT
ATOM      1  C   LIG d   1       3.863  -0.664  -7.266  0.00  0.00     0.138 A 
ATOM      2  C   LIG d   1       4.227  -2.005  -7.167  0.00  0.00    -0.018 A 
ATOM      3  C   LIG d   1       3.778  -2.912  -8.084  0.00  0.00    -0.047 A 
ATOM      4  C   LIG d   1       2.947  -2.492  -9.128  0.00  0.00     0.021 A 
ATOM      5  C   LIG d   1       2.450  -3.443 -10.126  0.00  0.00    -0.029 A 
ATOM      6  C   LIG d   1       1.648  -2.973 -11.116  0.00  0.00     0.045 A 
ATOM      7  C   LIG d   1       1.316  -1.603 -11.160  0.00  0.00     0.341 A 
ATOM      8  O   LIG d   1       0.594  -1.196 -12.052  0.00  0.00    -0.245 OA
ATOM      9  O   LIG d   1       1.775  -0.737 -10.243  0.00  0.00    -0.422 OA
ATOM     10  C   LIG d   1       2.577  -1.139  -9.233  0.00  0.00     0.146 A 
ATOM     11  C   LIG d   1       3.038  -0.232  -8.291  0.00  0.00     0.035 A 
ATOM     12  H   LIG d   1       4.868  -2.329  -6.362  0.00  0.00     0.066 H 
ATOM     13  H   LIG d   1       4.064  -3.950  -8.002  0.00  0.00     0.063 H 
ENDROOT
BRANCH   1  14
ATOM     14  O   LIG d   1       4.317   0.226  -6.346  0.00  0.00    -0.424 OA
BRANCH  14  15
ATOM     15  C   LIG d   1       3.869   0.114  -5.085  0.00  0.00     0.331 C 
ATOM     16  O   LIG d   1       2.689   0.226  -4.852  0.00  0.00    -0.249 OA
BRANCH  15  17
ATOM     17  C   LIG d   1       4.838  -0.150  -3.962  0.00  0.00     0.128 C 
ATOM     18  H   LIG d   1       5.343  -1.101  -4.134  0.00  0.00     0.059 H 
BRANCH  17  19
ATOM     19  N   LIG d   1       5.828   0.928  -3.907  0.00  0.00    -0.176 N 
ATOM     20  H   LIG d   1       5.606   1.769  -3.479  0.00  0.00     0.149 HD
BRANCH  19  21
ATOM     21  S   LIG d   1       7.328   0.708  -4.576  0.00  0.00     0.059 S 
ATOM     22  O   LIG d   1       8.274   1.077  -3.583  0.00  0.00    -0.153 OA
ATOM     23  O   LIG d   1       7.293   1.318  -5.860  0.00  0.00    -0.153 OA
BRANCH  21  24
ATOM     24  C   LIG d   1       7.528  -1.021  -4.847  0.00  0.00     0.105 A 
ATOM     25  C   LIG d   1       7.582  -1.889  -3.771  0.00  0.00    -0.035 A 
ATOM     26  C   LIG d   1       7.738  -3.245  -3.985  0.00  0.00    -0.057 A 
ATOM     27  H   LIG d   1       7.500  -1.506  -2.766  0.00  0.00     0.064 H 
ATOM     28  C   LIG d   1       7.841  -3.735  -5.274  0.00  0.00    -0.050 A 
ATOM     29  H   LIG d   1       7.780  -3.922  -3.145  0.00  0.00     0.062 H 
ATOM     30  C   LIG d   1       7.793  -2.868  -6.349  0.00  0.00    -0.057 A 
ATOM     31  C   LIG d   1       7.633  -1.511  -6.136  0.00  0.00    -0.035 A 
ATOM     32  H   LIG d   1       7.878  -3.249  -7.355  0.00  0.00     0.062 H 
ATOM     33  H   LIG d   1       7.591  -0.834  -6.976  0.00  0.00     0.064 H 
BRANCH  28  34
ATOM     34  C   LIG d   1       8.012  -5.214  -5.505  0.00  0.00    -0.040 C 
ATOM     35  H   LIG d   1       7.073  -5.639  -5.859  0.00  0.00     0.028 H 
ATOM     36  H   LIG d   1       8.789  -5.378  -6.252  0.00  0.00     0.028 H 
ATOM     37  H   LIG d   1       8.299  -5.697  -4.571  0.00  0.00     0.028 H 
ENDBRANCH  28  34
ENDBRANCH  21  24
ENDBRANCH  19  21
ENDBRANCH  17  19
BRANCH  17  38
ATOM     38  C   LIG d   1       4.077  -0.211  -2.636  0.00  0.00    -0.019 C 
ATOM     39  H   LIG d   1       3.012  -0.069  -2.821  0.00  0.00     0.032 H 
BRANCH  38  40
ATOM     40  C   LIG d   1       4.303  -1.574  -1.979  0.00  0.00    -0.061 C 
ATOM     41  H   LIG d   1       4.553  -1.434  -0.927  0.00  0.00     0.023 H 
ATOM     42  H   LIG d   1       3.396  -2.172  -2.061  0.00  0.00     0.023 H 
ATOM     43  H   LIG d   1       5.124  -2.086  -2.482  0.00  0.00     0.023 H 
ENDBRANCH  38  40
BRANCH  38  44
ATOM     44  C   LIG d   1       4.583   0.895  -1.707  0.00  0.00    -0.061 C 
ATOM     45  H   LIG d   1       3.794   1.172  -1.008  0.00  0.00     0.023 H 
ATOM     46  H   LIG d   1       5.450   0.534  -1.152  0.00  0.00     0.023 H 
ATOM     47  H   LIG d   1       4.868   1.765  -2.299  0.00  0.00     0.023 H 
ENDBRANCH  38  44
ENDBRANCH  17  38
ENDBRANCH  15  17
ENDBRANCH  14  15
ENDBRANCH   1  14
BRANCH  11  48
ATOM     48  C   LIG d   1       2.646   1.221  -8.385  0.00  0.00    -0.033 C 
ATOM     49  H   LIG d   1       1.862   1.433  -7.659  0.00  0.00     0.028 H 
ATOM     50  H   LIG d   1       3.514   1.846  -8.176  0.00  0.00     0.028 H 
ATOM     51  H   LIG d   1       2.279   1.434  -9.389  0.00  0.00     0.028 H 
ENDBRANCH  11  48
BRANCH   5  52
ATOM     52  C   LIG d   1       2.820  -4.902 -10.055  0.00  0.00    -0.038 C 
ATOM     53  H   LIG d   1       3.818  -5.004  -9.629  0.00  0.00     0.028 H 
ATOM     54  H   LIG d   1       2.101  -5.429  -9.428  0.00  0.00     0.028 H 
ATOM     55  H   LIG d   1       2.809  -5.329 -11.059  0.00  0.00     0.028 H 
ENDBRANCH   5  52
BRANCH   6  56
ATOM     56  C   LIG d   1       1.113  -3.914 -12.164  0.00  0.00     0.005 C 
ATOM     57  H   LIG d   1       1.185  -3.444 -13.145  0.00  0.00     0.036 H 
ATOM     58  H   LIG d   1       1.697  -4.834 -12.159  0.00  0.00     0.036 H 
BRANCH  56  59
ATOM     59  C   LIG d   1      -0.330  -4.232 -11.865  0.00  0.00    -0.043 A 
ATOM     60  C   LIG d   1      -0.681  -4.765 -10.639  0.00  0.00    -0.058 A 
ATOM     61  C   LIG d   1      -2.005  -5.053 -10.364  0.00  0.00    -0.061 A 
ATOM     62  H   LIG d   1       0.079  -4.954  -9.895  0.00  0.00     0.062 H 
ATOM     63  C   LIG d   1      -2.977  -4.814 -11.317  0.00  0.00    -0.062 A 
ATOM     64  H   LIG d   1      -2.279  -5.465  -9.404  0.00  0.00     0.062 H 
ATOM     65  C   LIG d   1      -2.625  -4.286 -12.545  0.00  0.00    -0.061 A 
ATOM     66  H   LIG d   1      -4.011  -5.042 -11.102  0.00  0.00     0.062 H 
ATOM     67  C   LIG d   1      -1.301  -3.994 -12.819  0.00  0.00    -0.058 A 
ATOM     68  H   LIG d   1      -3.384  -4.100 -13.290  0.00  0.00     0.062 H 
ATOM     69  H   LIG d   1      -1.027  -3.582 -13.778  0.00  0.00     0.062 H 
ENDBRANCH  56  59
ENDBRANCH   6  56
TORSDOF 14
ENDMDL
MODEL 4
REMARK VINA RESULT:      -7.2      1.314      2.112
REMARK  14 active torsions:
REMARK  status: ('A' for Active; 'I' for Inactive)
REMARK    1  A    between atoms: C_1  and  C_2 
REMARK    2  A    between atoms: C_5  and  S_8 
REMARK    3  A    between atoms: S_8  and  N_11 
REMARK    4  A    between atoms: N_11  and  C_12 
REMARK    5  A    between atoms: C_12  and  C_14 
REMARK    6  A    between atoms: C_12  and  C_17 
REMARK    7  A    between atoms: C_14  and  C_15 
REMARK    8  A    between atoms: C_14  and  C_16 
REMARK    9  A    between atoms: C_17  and  O_19 
REMARK   10  A    between atoms: O_19  and  C_20 
REMARK   11  A    between atoms: C_24  and  C_39 
REMARK   12  A    between atoms: C_25  and  C_32 
REMARK   13  A    between atoms: C_30  and  C_31 
REMARK   14  A    between atoms: C_32  and  C_33 
ROOT
ATOM      1  C   LIG d   1       6.410  -2.765  -5.516  0.00  0.00     0.138 A 
ATOM      2  C   LIG d   1       7.616  -2.868  -4.828  0.00  0.00    -0.018 A 
ATOM      3  C   LIG d   1       8.158  -4.093  -4.562  0.00  0.00    -0.047 A 
ATOM      4  C   LIG d   1       7.498  -5.252  -4.984  0.00  0.00     0.021 A 
ATOM      5  C   LIG d   1       8.055  -6.579  -4.712  0.00  0.00    -0.029 A 
ATOM      6  C   LIG d   1       7.366  -7.666  -5.148  0.00  0.00     0.045 A 
ATOM      7  C   LIG d   1       6.150  -7.495  -5.840  0.00  0.00     0.341 A 
ATOM      8  O   LIG d   1       5.541  -8.477  -6.224  0.00  0.00    -0.245 OA
ATOM      9  O   LIG d   1       5.644  -6.275  -6.085  0.00  0.00    -0.422 OA
ATOM     10  C   LIG d   1       6.279  -5.154  -5.679  0.00  0.00     0.146 A 
ATOM     11  C   LIG d   1       5.740  -3.903  -5.936  0.00  0.00     0.035 A 
ATOM     12  H   LIG d   1       8.127  -1.975  -4.502  0.00  0.00     0.066 H 
ATOM     13  H   LIG d   1       9.094  -4.167  -4.028  0.00  0.00     0.063 H 
ENDROOT
BRANCH   1  14
ATOM     14  O   LIG d   1       5.883  -1.540  -5.771  0.00  0.00    -0.424 OA
BRANCH  14  15
ATOM     15  C   LIG d   1       6.010  -0.590  -4.831  0.00  0.00     0.331 C 
ATOM     16  O   LIG d   1       7.074  -0.043  -4.665  0.00  0.00    -0.249 OA
BRANCH  15  17
ATOM     17  C   LIG d   1       4.825  -0.207  -3.982  0.00  0.00     0.128 C 
ATOM     18  H   LIG d   1       4.798   0.876  -3.862  0.00  0.00     0.059 H 
BRANCH  17  19
ATOM     19  N   LIG d   1       3.593  -0.658  -4.632  0.00  0.00    -0.176 N 
ATOM     20  H   LIG d   1       3.398  -1.606  -4.700  0.00  0.00     0.149 HD
BRANCH  19  21
ATOM     21  S   LIG d   1       2.529   0.452  -5.250  0.00  0.00     0.059 S 
ATOM     22  O   LIG d   1       2.858   1.702  -4.660  0.00  0.00    -0.153 OA
ATOM     23  O   LIG d   1       1.234  -0.124  -5.144  0.00  0.00    -0.153 OA
BRANCH  21  24
ATOM     24  C   LIG d   1       2.874   0.600  -6.972  0.00  0.00     0.105 A 
ATOM     25  C   LIG d   1       2.744   1.825  -7.600  0.00  0.00    -0.035 A 
ATOM     26  C   LIG d   1       3.016   1.942  -8.950  0.00  0.00    -0.057 A 
ATOM     27  H   LIG d   1       2.432   2.691  -7.035  0.00  0.00     0.064 H 
ATOM     28  C   LIG d   1       3.418   0.833  -9.672  0.00  0.00    -0.050 A 
ATOM     29  H   LIG d   1       2.915   2.898  -9.441  0.00  0.00     0.062 H 
ATOM     30  C   LIG d   1       3.542  -0.393  -9.046  0.00  0.00    -0.057 A 
ATOM     31  C   LIG d   1       3.274  -0.508  -7.694  0.00  0.00    -0.035 A 
ATOM     32  H   LIG d   1       3.851  -1.259  -9.610  0.00  0.00     0.062 H 
ATOM     33  H   LIG d   1       3.376  -1.465  -7.204  0.00  0.00     0.064 H 
BRANCH  28  34
ATOM     34  C   LIG d   1       3.713   0.960 -11.145  0.00  0.00    -0.040 C 
ATOM     35  H   LIG d   1       4.558   0.322 -11.404  0.00  0.00     0.028 H 
ATOM     36  H   LIG d   1       2.838   0.655 -11.719  0.00  0.00     0.028 H 
ATOM     37  H   LIG d   1       3.957   1.997 -11.377  0.00  0.00     0.028 H 
ENDBRANCH  28  34
ENDBRANCH  21  24
ENDBRANCH  19  21
ENDBRANCH  17  19
BRANCH  17  38
ATOM     38  C   LIG d   1       4.947  -0.868  -2.608  0.00  0.00    -0.019 C 
ATOM     39  H   LIG d   1       5.981  -1.173  -2.442  0.00  0.00     0.032 H 
BRANCH  38  40
ATOM     40  C   LIG d   1       4.529   0.126  -1.524  0.00  0.00    -0.061 C 
ATOM     41  H   LIG d   1       3.534  -0.130  -1.159  0.00  0.00     0.023 H 
ATOM     42  H   LIG d   1       5.240   0.086  -0.699  0.00  0.00     0.023 H 
ATOM     43  H   LIG d   1       4.513   1.134  -1.942  0.00  0.00     0.023 H 
ENDBRANCH  38  40
BRANCH  38  44
ATOM     44  C   LIG d   1       4.039  -2.098  -2.551  0.00  0.00    -0.061 C 
ATOM     45  H   LIG d   1       4.650  -3.001  -2.531  0.00  0.00     0.023 H 
ATOM     46  H   LIG d   1       3.425  -2.055  -1.651  0.00  0.00     0.023 H 
ATOM     47  H   LIG d   1       3.394  -2.114  -3.430  0.00  0.00     0.023 H 
ENDBRANCH  38  44
ENDBRANCH  17  38
ENDBRANCH  15  17
ENDBRANCH  14  15
ENDBRANCH   1  14
BRANCH  11  48
ATOM     48  C   LIG d   1       4.432  -3.780  -6.676  0.00  0.00    -0.033 C 
ATOM     49  H   LIG d   1       3.663  -3.417  -5.995  0.00  0.00     0.028 H 
ATOM     50  H   LIG d   1       4.546  -3.078  -7.502  0.00  0.00     0.028 H 
ATOM     51  H   LIG d   1       4.143  -4.755  -7.066  0.00  0.00     0.028 H 
ENDBRANCH  11  48
BRANCH   5  52
ATOM     52  C   LIG d   1       9.358  -6.734  -3.971  0.00  0.00    -0.038 C 
ATOM     53  H   LIG d   1      10.053  -5.959  -4.292  0.00  0.00     0.028 H 
ATOM     54  H   LIG d   1       9.180  -6.642  -2.899  0.00  0.00     0.028 H 
ATOM     55  H   LIG d   1       9.784  -7.715  -4.186  0.00  0.00     0.028 H 
ENDBRANCH   5  52
BRANCH   6  56
ATOM     56  C   LIG d   1       7.901  -9.051  -4.892  0.00  0.00     0.005 C 
ATOM     57  H   LIG d   1       7.666  -9.694  -5.741  0.00  0.00     0.036 H 
ATOM     58  H   LIG d   1       8.982  -9.005  -4.761  0.00  0.00     0.036 H 
BRANCH  56  59
ATOM     59  C   LIG d   1       7.266  -9.613  -3.646  0.00  0.00    -0.043 A 
ATOM     60  C   LIG d   1       7.828  -9.359  -2.409  0.00  0.00    -0.058 A 
ATOM     61  C   LIG d   1       7.243  -9.872  -1.266  0.00  0.00    -0.061 A 
ATOM     62  H   LIG d   1       8.723  -8.760  -2.335  0.00  0.00     0.062 H 
ATOM     63  C   LIG d   1       6.100 -10.643  -1.360  0.00  0.00    -0.062 A 
ATOM     64  H   LIG d   1       7.681  -9.670  -0.300  0.00  0.00     0.062 H 
ATOM     65  C   LIG d   1       5.541 -10.901  -2.598  0.00  0.00    -0.061 A 
ATOM     66  H   LIG d   1       5.645 -11.045  -0.467  0.00  0.00     0.062 H 
ATOM     67  C   LIG d   1       6.124 -10.385  -3.741  0.00  0.00    -0.058 A 
ATOM     68  H   LIG d   1       4.648 -11.503  -2.672  0.00  0.00     0.062 H 
ATOM     69  H   LIG d   1       5.686 -10.586  -4.708  0.00  0.00     0.062 H 
ENDBRANCH  56  59
ENDBRANCH   6  56
TORSDOF 14
ENDMDL
MODEL 5
REMARK VINA RESULT:      -7.1      1.660      2.123
REMARK  14 active torsions:
REMARK  status: ('A' for Active; 'I' for Inactive)
REMARK    1  A    between atoms: C_1  and  C_2 
REMARK    2  A    between atoms: C_5  and  S_8 
REMARK    3  A    between atoms: S_8  and  N_11 
REMARK    4  A    between atoms: N_11  and  C_12 
REMARK    5  A    between atoms: C_12  and  C_14 
REMARK    6  A    between atoms: C_12  and  C_17 
REMARK    7  A    between atoms: C_14  and  C_15 
REMARK    8  A    between atoms: C_14  and  C_16 
REMARK    9  A    between atoms: C_17  and  O_19 
REMARK   10  A    between atoms: O_19  and  C_20 
REMARK   11  A    between atoms: C_24  and  C_39 
REMARK   12  A    between atoms: C_25  and  C_32 
REMARK   13  A    between atoms: C_30  and  C_31 
REMARK   14  A    between atoms: C_32  and  C_33 
ROOT
ATOM      1  C   LIG d   1       6.248  -3.171  -5.343  0.00  0.00     0.138 A 
ATOM      2  C   LIG d   1       5.037  -3.842  -5.493  0.00  0.00    -0.018 A 
ATOM      3  C   LIG d   1       4.997  -5.207  -5.481  0.00  0.00    -0.047 A 
ATOM      4  C   LIG d   1       6.180  -5.936  -5.317  0.00  0.00     0.021 A 
ATOM      5  C   LIG d   1       6.168  -7.401  -5.301  0.00  0.00    -0.029 A 
ATOM      6  C   LIG d   1       7.349  -8.050  -5.138  0.00  0.00     0.045 A 
ATOM      7  C   LIG d   1       8.542  -7.313  -4.991  0.00  0.00     0.341 A 
ATOM      8  O   LIG d   1       9.595  -7.908  -4.847  0.00  0.00    -0.245 OA
ATOM      9  O   LIG d   1       8.546  -5.970  -5.007  0.00  0.00    -0.422 OA
ATOM     10  C   LIG d   1       7.406  -5.263  -5.165  0.00  0.00     0.146 A 
ATOM     11  C   LIG d   1       7.429  -3.877  -5.184  0.00  0.00     0.035 A 
ATOM     12  H   LIG d   1       4.124  -3.281  -5.619  0.00  0.00     0.066 H 
ATOM     13  H   LIG d   1       4.055  -5.722  -5.598  0.00  0.00     0.063 H 
ENDROOT
BRANCH   1  14
ATOM     14  O   LIG d   1       6.272  -1.813  -5.358  0.00  0.00    -0.424 OA
BRANCH  14  15
ATOM     15  C   LIG d   1       5.788  -1.162  -4.288  0.00  0.00     0.331 C 
ATOM     16  O   LIG d   1       6.242  -1.382  -3.191  0.00  0.00    -0.249 OA
BRANCH  15  17
ATOM     17  C   LIG d   1       4.677  -0.158  -4.456  0.00  0.00     0.128 C 
ATOM     18  H   LIG d   1       5.102   0.818  -4.695  0.00  0.00     0.059 H 
BRANCH  17  19
ATOM     19  N   LIG d   1       3.793  -0.585  -5.543  0.00  0.00    -0.176 N 
ATOM     20  H   LIG d   1       3.230  -1.367  -5.431  0.00  0.00     0.149 HD
BRANCH  19  21
ATOM     21  S   LIG d   1       3.754   0.268  -6.962  0.00  0.00     0.059 S 
ATOM     22  O   LIG d   1       5.105   0.491  -7.340  0.00  0.00    -0.153 OA
ATOM     23  O   LIG d   1       2.830   1.332  -6.771  0.00  0.00    -0.153 OA
BRANCH  21  24
ATOM     24  C   LIG d   1       3.056  -0.790  -8.186  0.00  0.00     0.105 A 
ATOM     25  C   LIG d   1       2.011  -0.341  -8.974  0.00  0.00    -0.035 A 
ATOM     26  C   LIG d   1       1.465  -1.171  -9.935  0.00  0.00    -0.057 A 
ATOM     27  H   LIG d   1       1.625   0.658  -8.840  0.00  0.00     0.064 H 
ATOM     28  C   LIG d   1       1.962  -2.449 -10.108  0.00  0.00    -0.050 A 
ATOM     29  H   LIG d   1       0.650  -0.820 -10.550  0.00  0.00     0.062 H 
ATOM     30  C   LIG d   1       3.002  -2.900  -9.317  0.00  0.00    -0.057 A 
ATOM     31  C   LIG d   1       3.552  -2.069  -8.359  0.00  0.00    -0.035 A 
ATOM     32  H   LIG d   1       3.387  -3.900  -9.449  0.00  0.00     0.062 H 
ATOM     33  H   LIG d   1       4.367  -2.419  -7.744  0.00  0.00     0.064 H 
BRANCH  28  34
ATOM     34  C   LIG d   1       1.365  -3.354 -11.155  0.00  0.00    -0.040 C 
ATOM     35  H   LIG d   1       1.570  -2.949 -12.146  0.00  0.00     0.028 H 
ATOM     36  H   LIG d   1       1.805  -4.348 -11.071  0.00  0.00     0.028 H 
ATOM     37  H   LIG d   1       0.287  -3.419 -11.006  0.00  0.00     0.028 H 
ENDBRANCH  28  34
ENDBRANCH  21  24
ENDBRANCH  19  21
ENDBRANCH  17  19
BRANCH  17  38
ATOM     38  C   LIG d   1       3.876  -0.059  -3.157  0.00  0.00    -0.019 C 
ATOM     39  H   LIG d   1       4.412  -0.576  -2.360  0.00  0.00     0.032 H 
BRANCH  38  40
ATOM     40  C   LIG d   1       3.696   1.412  -2.778  0.00  0.00    -0.061 C 
ATOM     41  H   LIG d   1       2.635   1.664  -2.793  0.00  0.00     0.023 H 
ATOM     42  H   LIG d   1       4.095   1.582  -1.779  0.00  0.00     0.023 H 
ATOM     43  H   LIG d   1       4.228   2.039  -3.494  0.00  0.00     0.023 H 
ENDBRANCH  38  40
BRANCH  38  44
ATOM     44  C   LIG d   1       2.505  -0.709  -3.352  0.00  0.00    -0.061 C 
ATOM     45  H   LIG d   1       1.725  -0.010  -3.050  0.00  0.00     0.023 H 
ATOM     46  H   LIG d   1       2.373  -0.969  -4.403  0.00  0.00     0.023 H 
ATOM     47  H   LIG d   1       2.440  -1.611  -2.744  0.00  0.00     0.023 H 
ENDBRANCH  38  44
ENDBRANCH  17  38
ENDBRANCH  15  17
ENDBRANCH  14  15
ENDBRANCH   1  14
BRANCH  11  48
ATOM     48  C   LIG d   1       8.735  -3.140  -5.028  0.00  0.00    -0.033 C 
ATOM     49  H   LIG d   1       9.353  -3.304  -5.911  0.00  0.00     0.028 H 
ATOM     50  H   LIG d   1       8.540  -2.074  -4.914  0.00  0.00     0.028 H 
ATOM     51  H   LIG d   1       9.257  -3.510  -4.146  0.00  0.00     0.028 H 
ENDBRANCH  11  48
BRANCH   5  52
ATOM     52  C   LIG d   1       4.879  -8.165  -5.460  0.00  0.00    -0.038 C 
ATOM     53  H   LIG d   1       4.353  -7.810  -6.346  0.00  0.00     0.028 H 
ATOM     54  H   LIG d   1       5.098  -9.228  -5.568  0.00  0.00     0.028 H 
ATOM     55  H   LIG d   1       4.254  -8.010  -4.580  0.00  0.00     0.028 H 
ENDBRANCH   5  52
BRANCH   6  56
ATOM     56  C   LIG d   1       7.385  -9.557  -5.115  0.00  0.00     0.005 C 
ATOM     57  H   LIG d   1       6.719  -9.949  -5.884  0.00  0.00     0.036 H 
ATOM     58  H   LIG d   1       8.402  -9.899  -5.307  0.00  0.00     0.036 H 
BRANCH  56  59
ATOM     59  C   LIG d   1       6.935 -10.049  -3.763  0.00  0.00    -0.043 A 
ATOM     60  C   LIG d   1       7.594  -9.633  -2.622  0.00  0.00    -0.058 A 
ATOM     61  C   LIG d   1       7.179 -10.082  -1.382  0.00  0.00    -0.061 A 
ATOM     62  H   LIG d   1       8.432  -8.957  -2.698  0.00  0.00     0.062 H 
ATOM     63  C   LIG d   1       6.108 -10.953  -1.284  0.00  0.00    -0.062 A 
ATOM     64  H   LIG d   1       7.691  -9.754  -0.490  0.00  0.00     0.062 H 
ATOM     65  C   LIG d   1       5.453 -11.372  -2.427  0.00  0.00    -0.061 A 
ATOM     66  H   LIG d   1       5.786 -11.305  -0.316  0.00  0.00     0.062 H 
ATOM     67  C   LIG d   1       5.866 -10.919  -3.666  0.00  0.00    -0.058 A 
ATOM     68  H   LIG d   1       4.617 -12.051  -2.351  0.00  0.00     0.062 H 
ATOM     69  H   LIG d   1       5.353 -11.248  -4.558  0.00  0.00     0.062 H 
ENDBRANCH  56  59
ENDBRANCH   6  56
TORSDOF 14
ENDMDL
MODEL 6
REMARK VINA RESULT:      -7.0      1.839      3.007
REMARK  14 active torsions:
REMARK  status: ('A' for Active; 'I' for Inactive)
REMARK    1  A    between atoms: C_1  and  C_2 
REMARK    2  A    between atoms: C_5  and  S_8 
REMARK    3  A    between atoms: S_8  and  N_11 
REMARK    4  A    between atoms: N_11  and  C_12 
REMARK    5  A    between atoms: C_12  and  C_14 
REMARK    6  A    between atoms: C_12  and  C_17 
REMARK    7  A    between atoms: C_14  and  C_15 
REMARK    8  A    between atoms: C_14  and  C_16 
REMARK    9  A    between atoms: C_17  and  O_19 
REMARK   10  A    between atoms: O_19  and  C_20 
REMARK   11  A    between atoms: C_24  and  C_39 
REMARK   12  A    between atoms: C_25  and  C_32 
REMARK   13  A    between atoms: C_30  and  C_31 
REMARK   14  A    between atoms: C_32  and  C_33 
ROOT
ATOM      1  C   LIG d   1       6.673  -4.554  -5.408  0.00  0.00     0.138 A 
ATOM      2  C   LIG d   1       7.961  -5.069  -5.278  0.00  0.00    -0.018 A 
ATOM      3  C   LIG d   1       8.160  -6.415  -5.164  0.00  0.00    -0.047 A 
ATOM      4  C   LIG d   1       7.063  -7.283  -5.178  0.00  0.00     0.021 A 
ATOM      5  C   LIG d   1       7.245  -8.732  -5.058  0.00  0.00    -0.029 A 
ATOM      6  C   LIG d   1       6.141  -9.521  -5.078  0.00  0.00     0.045 A 
ATOM      7  C   LIG d   1       4.863  -8.939  -5.213  0.00  0.00     0.341 A 
ATOM      8  O   LIG d   1       3.881  -9.658  -5.228  0.00  0.00    -0.245 OA
ATOM      9  O   LIG d   1       4.703  -7.611  -5.322  0.00  0.00    -0.422 OA
ATOM     10  C   LIG d   1       5.760  -6.769  -5.309  0.00  0.00     0.146 A 
ATOM     11  C   LIG d   1       5.576  -5.400  -5.419  0.00  0.00     0.035 A 
ATOM     12  H   LIG d   1       8.808  -4.400  -5.268  0.00  0.00     0.066 H 
ATOM     13  H   LIG d   1       9.161  -6.808  -5.065  0.00  0.00     0.063 H 
ENDROOT
BRANCH   1  14
ATOM     14  O   LIG d   1       6.492  -3.213  -5.519  0.00  0.00    -0.424 OA
BRANCH  14  15
ATOM     15  C   LIG d   1       6.622  -2.465  -4.412  0.00  0.00     0.331 C 
ATOM     16  O   LIG d   1       7.512  -2.695  -3.629  0.00  0.00    -0.249 OA
BRANCH  15  17
ATOM     17  C   LIG d   1       5.656  -1.340  -4.145  0.00  0.00     0.128 C 
ATOM     18  H   LIG d   1       6.164  -0.385  -4.281  0.00  0.00     0.059 H 
BRANCH  17  19
ATOM     19  N   LIG d   1       4.530  -1.432  -5.077  0.00  0.00    -0.176 N 
ATOM     20  H   LIG d   1       3.950  -2.210  -5.062  0.00  0.00     0.149 HD
BRANCH  19  21
ATOM     21  S   LIG d   1       4.244  -0.206  -6.154  0.00  0.00     0.059 S 
ATOM     22  O   LIG d   1       5.515   0.263  -6.582  0.00  0.00    -0.153 OA
ATOM     23  O   LIG d   1       3.280   0.648  -5.551  0.00  0.00    -0.153 OA
BRANCH  21  24
ATOM     24  C   LIG d   1       3.469  -0.922  -7.564  0.00  0.00     0.105 A 
ATOM     25  C   LIG d   1       3.865  -2.170  -8.012  0.00  0.00    -0.035 A 
ATOM     26  C   LIG d   1       3.255  -2.732  -9.118  0.00  0.00    -0.057 A 
ATOM     27  H   LIG d   1       4.648  -2.704  -7.497  0.00  0.00     0.064 H 
ATOM     28  C   LIG d   1       2.250  -2.047  -9.776  0.00  0.00    -0.050 A 
ATOM     29  H   LIG d   1       3.564  -3.706  -9.468  0.00  0.00     0.062 H 
ATOM     30  C   LIG d   1       1.859  -0.799  -9.332  0.00  0.00    -0.057 A 
ATOM     31  C   LIG d   1       2.465  -0.238  -8.224  0.00  0.00    -0.035 A 
ATOM     32  H   LIG d   1       1.077  -0.262  -9.849  0.00  0.00     0.062 H 
ATOM     33  H   LIG d   1       2.156   0.736  -7.874  0.00  0.00     0.064 H 
BRANCH  28  34
ATOM     34  C   LIG d   1       1.587  -2.661 -10.982  0.00  0.00    -0.040 C 
ATOM     35  H   LIG d   1       2.336  -2.862 -11.748  0.00  0.00     0.028 H 
ATOM     36  H   LIG d   1       1.101  -3.594 -10.696  0.00  0.00     0.028 H 
ATOM     37  H   LIG d   1       0.842  -1.970 -11.378  0.00  0.00     0.028 H 
ENDBRANCH  28  34
ENDBRANCH  21  24
ENDBRANCH  19  21
ENDBRANCH  17  19
BRANCH  17  38
ATOM     38  C   LIG d   1       5.139  -1.440  -2.709  0.00  0.00    -0.019 C 
ATOM     39  H   LIG d   1       5.900  -1.904  -2.080  0.00  0.00     0.032 H 
BRANCH  38  40
ATOM     40  C   LIG d   1       4.825  -0.040  -2.180  0.00  0.00    -0.061 C 
ATOM     41  H   LIG d   1       3.831  -0.034  -1.732  0.00  0.00     0.023 H 
ATOM     42  H   LIG d   1       5.563   0.239  -1.428  0.00  0.00     0.023 H 
ATOM     43  H   LIG d   1       4.856   0.675  -3.003  0.00  0.00     0.023 H 
ENDBRANCH  38  40
BRANCH  38  44
ATOM     44  C   LIG d   1       3.868  -2.293  -2.683  0.00  0.00    -0.061 C 
ATOM     45  H   LIG d   1       2.994  -1.642  -2.656  0.00  0.00     0.023 H 
ATOM     46  H   LIG d   1       3.831  -2.915  -3.577  0.00  0.00     0.023 H 
ATOM     47  H   LIG d   1       3.877  -2.929  -1.797  0.00  0.00     0.023 H 
ENDBRANCH  38  44
ENDBRANCH  17  38
ENDBRANCH  15  17
ENDBRANCH  14  15
ENDBRANCH   1  14
BRANCH  11  48
ATOM     48  C   LIG d   1       4.186  -4.831  -5.554  0.00  0.00    -0.033 C 
ATOM     49  H   LIG d   1       3.725  -4.760  -4.569  0.00  0.00     0.028 H 
ATOM     50  H   LIG d   1       4.240  -3.840  -6.003  0.00  0.00     0.028 H 
ATOM     51  H   LIG d   1       3.587  -5.484  -6.189  0.00  0.00     0.028 H 
ENDBRANCH  11  48
BRANCH   5  52
ATOM     52  C   LIG d   1       8.622  -9.328  -4.916  0.00  0.00    -0.038 C 
ATOM     53  H   LIG d   1       9.368  -8.535  -4.958  0.00  0.00     0.028 H 
ATOM     54  H   LIG d   1       8.696  -9.848  -3.960  0.00  0.00     0.028 H 
ATOM     55  H   LIG d   1       8.797 -10.035  -5.728  0.00  0.00     0.028 H 
ENDBRANCH   5  52
BRANCH   6  56
ATOM     56  C   LIG d   1       6.280 -11.017  -4.958  0.00  0.00     0.005 C 
ATOM     57  H   LIG d   1       5.369 -11.497  -5.316  0.00  0.00     0.036 H 
ATOM     58  H   LIG d   1       7.127 -11.353  -5.556  0.00  0.00     0.036 H 
BRANCH  56  59
ATOM     59  C   LIG d   1       6.506 -11.386  -3.513  0.00  0.00    -0.043 A 
ATOM     60  C   LIG d   1       5.795 -10.745  -2.517  0.00  0.00    -0.058 A 
ATOM     61  C   LIG d   1       6.000 -11.087  -1.193  0.00  0.00    -0.061 A 
ATOM     62  H   LIG d   1       5.078  -9.980  -2.772  0.00  0.00     0.062 H 
ATOM     63  C   LIG d   1       6.922 -12.064  -0.865  0.00  0.00    -0.062 A 
ATOM     64  H   LIG d   1       5.441 -10.589  -0.415  0.00  0.00     0.062 H 
ATOM     65  C   LIG d   1       7.636 -12.701  -1.862  0.00  0.00    -0.061 A 
ATOM     66  H   LIG d   1       7.083 -12.328   0.169  0.00  0.00     0.062 H 
ATOM     67  C   LIG d   1       7.428 -12.362  -3.187  0.00  0.00    -0.058 A 
ATOM     68  H   LIG d   1       8.356 -13.465  -1.607  0.00  0.00     0.062 H 
ATOM     69  H   LIG d   1       7.987 -12.860  -3.965  0.00  0.00     0.062 H 
ENDBRANCH  56  59
ENDBRANCH   6  56
TORSDOF 14
ENDMDL
MODEL 7
REMARK VINA RESULT:      -7.0      4.752      7.347
REMARK  14 active torsions:
REMARK  status: ('A' for Active; 'I' for Inactive)
REMARK    1  A    between atoms: C_1  and  C_2 
REMARK    2  A    between atoms: C_5  and  S_8 
REMARK    3  A    between atoms: S_8  and  N_11 
REMARK    4  A    between atoms: N_11  and  C_12 
REMARK    5  A    between atoms: C_12  and  C_14 
REMARK    6  A    between atoms: C_12  and  C_17 
REMARK    7  A    between atoms: C_14  and  C_15 
REMARK    8  A    between atoms: C_14  and  C_16 
REMARK    9  A    between atoms: C_17  and  O_19 
REMARK   10  A    between atoms: O_19  and  C_20 
REMARK   11  A    between atoms: C_24  and  C_39 
REMARK   12  A    between atoms: C_25  and  C_32 
REMARK   13  A    between atoms: C_30  and  C_31 
REMARK   14  A    between atoms: C_32  and  C_33 
ROOT
ATOM      1  C   LIG d   1       3.851  -0.668  -7.257  0.00  0.00     0.138 A 
ATOM      2  C   LIG d   1       4.214  -2.009  -7.164  0.00  0.00    -0.018 A 
ATOM      3  C   LIG d   1       3.767  -2.912  -8.085  0.00  0.00    -0.047 A 
ATOM      4  C   LIG d   1       2.939  -2.487  -9.130  0.00  0.00     0.021 A 
ATOM      5  C   LIG d   1       2.444  -3.432 -10.133  0.00  0.00    -0.029 A 
ATOM      6  C   LIG d   1       1.644  -2.958 -11.123  0.00  0.00     0.045 A 
ATOM      7  C   LIG d   1       1.313  -1.588 -11.162  0.00  0.00     0.341 A 
ATOM      8  O   LIG d   1       0.594  -1.175 -12.054  0.00  0.00    -0.245 OA
ATOM      9  O   LIG d   1       1.770  -0.726 -10.239  0.00  0.00    -0.422 OA
ATOM     10  C   LIG d   1       2.569  -1.133  -9.229  0.00  0.00     0.146 A 
ATOM     11  C   LIG d   1       3.028  -0.231  -8.282  0.00  0.00     0.035 A 
ATOM     12  H   LIG d   1       4.852  -2.338  -6.358  0.00  0.00     0.066 H 
ATOM     13  H   LIG d   1       4.052  -3.951  -8.008  0.00  0.00     0.063 H 
ENDROOT
BRANCH   1  14
ATOM     14  O   LIG d   1       4.303   0.218  -6.331  0.00  0.00    -0.424 OA
BRANCH  14  15
ATOM     15  C   LIG d   1       3.856   0.096  -5.071  0.00  0.00     0.331 C 
ATOM     16  O   LIG d   1       2.671   0.147  -4.843  0.00  0.00    -0.249 OA
BRANCH  15  17
ATOM     17  C   LIG d   1       4.832  -0.104  -3.941  0.00  0.00     0.128 C 
ATOM     18  H   LIG d   1       5.393  -1.025  -4.104  0.00  0.00     0.059 H 
BRANCH  17  19
ATOM     19  N   LIG d   1       5.758   1.029  -3.890  0.00  0.00    -0.176 N 
ATOM     20  H   LIG d   1       5.417   1.930  -3.777  0.00  0.00     0.149 HD
BRANCH  19  21
ATOM     21  S   LIG d   1       7.390   0.772  -4.022  0.00  0.00     0.059 S 
ATOM     22  O   LIG d   1       7.619  -0.581  -3.654  0.00  0.00    -0.153 OA
ATOM     23  O   LIG d   1       8.027   1.860  -3.365  0.00  0.00    -0.153 OA
BRANCH  21  24
ATOM     24  C   LIG d   1       7.801   0.907  -5.730  0.00  0.00     0.105 A 
ATOM     25  C   LIG d   1       7.537  -0.144  -6.590  0.00  0.00    -0.035 A 
ATOM     26  C   LIG d   1       7.859  -0.037  -7.930  0.00  0.00    -0.057 A 
ATOM     27  H   LIG d   1       7.080  -1.046  -6.215  0.00  0.00     0.064 H 
ATOM     28  C   LIG d   1       8.444   1.120  -8.411  0.00  0.00    -0.050 A 
ATOM     29  H   LIG d   1       7.654  -0.857  -8.601  0.00  0.00     0.062 H 
ATOM     30  C   LIG d   1       8.712   2.168  -7.551  0.00  0.00    -0.057 A 
ATOM     31  C   LIG d   1       8.387   2.063  -6.211  0.00  0.00    -0.035 A 
ATOM     32  H   LIG d   1       9.173   3.070  -7.924  0.00  0.00     0.062 H 
ATOM     33  H   LIG d   1       8.592   2.884  -5.540  0.00  0.00     0.064 H 
BRANCH  28  34
ATOM     34  C   LIG d   1       8.795   1.235  -9.872  0.00  0.00    -0.040 C 
ATOM     35  H   LIG d   1       8.043   0.720 -10.469  0.00  0.00     0.028 H 
ATOM     36  H   LIG d   1       8.827   2.287 -10.157  0.00  0.00     0.028 H 
ATOM     37  H   LIG d   1       9.771   0.782 -10.047  0.00  0.00     0.028 H 
ENDBRANCH  28  34
ENDBRANCH  21  24
ENDBRANCH  19  21
ENDBRANCH  17  19
BRANCH  17  38
ATOM     38  C   LIG d   1       4.070  -0.199  -2.618  0.00  0.00    -0.019 C 
ATOM     39  H   LIG d   1       3.001  -0.096  -2.807  0.00  0.00     0.032 H 
BRANCH  38  40
ATOM     40  C   LIG d   1       4.344  -1.556  -1.967  0.00  0.00    -0.061 C 
ATOM     41  H   LIG d   1       3.885  -2.345  -2.563  0.00  0.00     0.023 H 
ATOM     42  H   LIG d   1       5.420  -1.722  -1.912  0.00  0.00     0.023 H 
ATOM     43  H   LIG d   1       3.921  -1.568  -0.962  0.00  0.00     0.023 H 
ENDBRANCH  38  40
BRANCH  38  44
ATOM     44  C   LIG d   1       4.531   0.920  -1.682  0.00  0.00    -0.061 C 
ATOM     45  H   LIG d   1       5.603   0.826  -1.504  0.00  0.00     0.023 H 
ATOM     46  H   LIG d   1       4.322   1.886  -2.141  0.00  0.00     0.023 H 
ATOM     47  H   LIG d   1       3.997   0.843  -0.734  0.00  0.00     0.023 H 
ENDBRANCH  38  44
ENDBRANCH  17  38
ENDBRANCH  15  17
ENDBRANCH  14  15
ENDBRANCH   1  14
BRANCH  11  48
ATOM     48  C   LIG d   1       2.637   1.223  -8.369  0.00  0.00    -0.033 C 
ATOM     49  H   LIG d   1       1.636   1.355  -7.962  0.00  0.00     0.028 H 
ATOM     50  H   LIG d   1       3.345   1.825  -7.799  0.00  0.00     0.028 H 
ATOM     51  H   LIG d   1       2.650   1.540  -9.412  0.00  0.00     0.028 H 
ENDBRANCH  11  48
BRANCH   5  52
ATOM     52  C   LIG d   1       2.813  -4.892 -10.069  0.00  0.00    -0.038 C 
ATOM     53  H   LIG d   1       2.546  -5.292  -9.091  0.00  0.00     0.028 H 
ATOM     54  H   LIG d   1       2.275  -5.438 -10.844  0.00  0.00     0.028 H 
ATOM     55  H   LIG d   1       3.887  -5.003 -10.225  0.00  0.00     0.028 H 
ENDBRANCH   5  52
BRANCH   6  56
ATOM     56  C   LIG d   1       1.112  -3.894 -12.177  0.00  0.00     0.005 C 
ATOM     57  H   LIG d   1       1.176  -3.415 -13.155  0.00  0.00     0.036 H 
ATOM     58  H   LIG d   1       1.702  -4.809 -12.182  0.00  0.00     0.036 H 
BRANCH  56  59
ATOM     59  C   LIG d   1      -0.328  -4.224 -11.875  0.00  0.00    -0.043 A 
ATOM     60  C   LIG d   1      -1.305  -3.991 -12.824  0.00  0.00    -0.058 A 
ATOM     61  C   LIG d   1      -2.624  -4.298 -12.547  0.00  0.00    -0.061 A 
ATOM     62  H   LIG d   1      -1.038  -3.572 -13.782  0.00  0.00     0.062 H 
ATOM     63  C   LIG d   1      -2.967  -4.832 -11.319  0.00  0.00    -0.062 A 
ATOM     64  H   LIG d   1      -3.387  -4.120 -13.291  0.00  0.00     0.062 H 
ATOM     65  C   LIG d   1      -1.990  -5.059 -10.368  0.00  0.00    -0.061 A 
ATOM     66  H   LIG d   1      -3.998  -5.069 -11.102  0.00  0.00     0.062 H 
ATOM     67  C   LIG d   1      -0.670  -4.756 -10.646  0.00  0.00    -0.058 A 
ATOM     68  H   LIG d   1      -2.258  -5.476  -9.408  0.00  0.00     0.062 H 
ATOM     69  H   LIG d   1       0.092  -4.935  -9.902  0.00  0.00     0.062 H 
ENDBRANCH  56  59
ENDBRANCH   6  56
TORSDOF 14
ENDMDL
MODEL 8
REMARK VINA RESULT:      -6.9      4.832      8.799
REMARK  14 active torsions:
REMARK  status: ('A' for Active; 'I' for Inactive)
REMARK    1  A    between atoms: C_1  and  C_2 
REMARK    2  A    between atoms: C_5  and  S_8 
REMARK    3  A    between atoms: S_8  and  N_11 
REMARK    4  A    between atoms: N_11  and  C_12 
REMARK    5  A    between atoms: C_12  and  C_14 
REMARK    6  A    between atoms: C_12  and  C_17 
REMARK    7  A    between atoms: C_14  and  C_15 
REMARK    8  A    between atoms: C_14  and  C_16 
REMARK    9  A    between atoms: C_17  and  O_19 
REMARK   10  A    between atoms: O_19  and  C_20 
REMARK   11  A    between atoms: C_24  and  C_39 
REMARK   12  A    between atoms: C_25  and  C_32 
REMARK   13  A    between atoms: C_30  and  C_31 
REMARK   14  A    between atoms: C_32  and  C_33 
ROOT
ATOM      1  C   LIG d   1       7.264  -0.387  -3.941  0.00  0.00     0.138 A 
ATOM      2  C   LIG d   1       7.010   0.858  -3.368  0.00  0.00    -0.018 A 
ATOM      3  C   LIG d   1       7.696   1.963  -3.784  0.00  0.00    -0.047 A 
ATOM      4  C   LIG d   1       8.660   1.845  -4.792  0.00  0.00     0.021 A 
ATOM      5  C   LIG d   1       9.411   3.013  -5.258  0.00  0.00    -0.029 A 
ATOM      6  C   LIG d   1      10.333   2.834  -6.238  0.00  0.00     0.045 A 
ATOM      7  C   LIG d   1      10.543   1.548  -6.778  0.00  0.00     0.341 A 
ATOM      8  O   LIG d   1      11.374   1.400  -7.656  0.00  0.00    -0.245 OA
ATOM      9  O   LIG d   1       9.851   0.481  -6.346  0.00  0.00    -0.422 OA
ATOM     10  C   LIG d   1       8.920   0.591  -5.373  0.00  0.00     0.146 A 
ATOM     11  C   LIG d   1       8.218  -0.522  -4.936  0.00  0.00     0.035 A 
ATOM     12  H   LIG d   1       6.267   0.950  -2.591  0.00  0.00     0.066 H 
ATOM     13  H   LIG d   1       7.494   2.925  -3.337  0.00  0.00     0.063 H 
ENDROOT
BRANCH   1  14
ATOM     14  O   LIG d   1       6.575  -1.477  -3.515  0.00  0.00    -0.424 OA
BRANCH  14  15
ATOM     15  C   LIG d   1       5.243  -1.370  -3.386  0.00  0.00     0.331 C 
ATOM     16  O   LIG d   1       4.676  -1.942  -2.485  0.00  0.00    -0.249 OA
BRANCH  15  17
ATOM     17  C   LIG d   1       4.455  -0.536  -4.363  0.00  0.00     0.128 C 
ATOM     18  H   LIG d   1       5.060   0.311  -4.689  0.00  0.00     0.059 H 
BRANCH  17  19
ATOM     19  N   LIG d   1       4.095  -1.355  -5.523  0.00  0.00    -0.176 N 
ATOM     20  H   LIG d   1       3.389  -2.015  -5.450  0.00  0.00     0.149 HD
BRANCH  19  21
ATOM     21  S   LIG d   1       4.894  -1.150  -6.960  0.00  0.00     0.059 S 
ATOM     22  O   LIG d   1       5.673  -2.321  -7.162  0.00  0.00    -0.153 OA
ATOM     23  O   LIG d   1       5.467   0.150  -6.925  0.00  0.00    -0.153 OA
BRANCH  21  24
ATOM     24  C   LIG d   1       3.676  -1.128  -8.233  0.00  0.00     0.105 A 
ATOM     25  C   LIG d   1       3.069   0.062  -8.590  0.00  0.00    -0.035 A 
ATOM     26  C   LIG d   1       2.115   0.079  -9.590  0.00  0.00    -0.057 A 
ATOM     27  H   LIG d   1       3.343   0.978  -8.089  0.00  0.00     0.064 H 
ATOM     28  C   LIG d   1       1.767  -1.095 -10.233  0.00  0.00    -0.050 A 
ATOM     29  H   LIG d   1       1.642   1.009  -9.868  0.00  0.00     0.062 H 
ATOM     30  C   LIG d   1       2.369  -2.285  -9.873  0.00  0.00    -0.057 A 
ATOM     31  C   LIG d   1       3.326  -2.302  -8.875  0.00  0.00    -0.035 A 
ATOM     32  H   LIG d   1       2.094  -3.202 -10.371  0.00  0.00     0.062 H 
ATOM     33  H   LIG d   1       3.800  -3.231  -8.597  0.00  0.00     0.064 H 
BRANCH  28  34
ATOM     34  C   LIG d   1       0.726  -1.075 -11.322  0.00  0.00    -0.040 C 
ATOM     35  H   LIG d   1      -0.217  -1.458 -10.932  0.00  0.00     0.028 H 
ATOM     36  H   LIG d   1       0.585  -0.053 -11.674  0.00  0.00     0.028 H 
ATOM     37  H   LIG d   1       1.056  -1.702 -12.151  0.00  0.00     0.028 H 
ENDBRANCH  28  34
ENDBRANCH  21  24
ENDBRANCH  19  21
ENDBRANCH  17  19
BRANCH  17  38
ATOM     38  C   LIG d   1       3.183  -0.023  -3.687  0.00  0.00    -0.019 C 
ATOM     39  H   LIG d   1       2.752  -0.816  -3.075  0.00  0.00     0.032 H 
BRANCH  38  40
ATOM     40  C   LIG d   1       3.524   1.177  -2.800  0.00  0.00    -0.061 C 
ATOM     41  H   LIG d   1       4.570   1.448  -2.941  0.00  0.00     0.023 H 
ATOM     42  H   LIG d   1       2.890   2.020  -3.071  0.00  0.00     0.023 H 
ATOM     43  H   LIG d   1       3.355   0.915  -1.755  0.00  0.00     0.023 H 
ENDBRANCH  38  40
BRANCH  38  44
ATOM     44  C   LIG d   1       2.173   0.402  -4.755  0.00  0.00    -0.061 C 
ATOM     45  H   LIG d   1       2.482   1.353  -5.189  0.00  0.00     0.023 H 
ATOM     46  H   LIG d   1       2.131  -0.358  -5.536  0.00  0.00     0.023 H 
ATOM     47  H   LIG d   1       1.188   0.512  -4.301  0.00  0.00     0.023 H 
ENDBRANCH  38  44
ENDBRANCH  17  38
ENDBRANCH  15  17
ENDBRANCH  14  15
ENDBRANCH   1  14
BRANCH  11  48
ATOM     48  C   LIG d   1       8.489  -1.874  -5.544  0.00  0.00    -0.033 C 
ATOM     49  H   LIG d   1       7.719  -2.102  -6.280  0.00  0.00     0.028 H 
ATOM     50  H   LIG d   1       9.465  -1.866  -6.029  0.00  0.00     0.028 H 
ATOM     51  H   LIG d   1       8.480  -2.633  -4.761  0.00  0.00     0.028 H 
ENDBRANCH  11  48
BRANCH   5  52
ATOM     52  C   LIG d   1       9.166   4.377  -4.665  0.00  0.00    -0.038 C 
ATOM     53  H   LIG d   1       8.094   4.560  -4.605  0.00  0.00     0.028 H 
ATOM     54  H   LIG d   1       9.600   4.422  -3.665  0.00  0.00     0.028 H 
ATOM     55  H   LIG d   1       9.630   5.136  -5.296  0.00  0.00     0.028 H 
ENDBRANCH   5  52
BRANCH   6  56
ATOM     56  C   LIG d   1      11.129   4.006  -6.750  0.00  0.00     0.005 C 
ATOM     57  H   LIG d   1      11.423   4.639  -5.912  0.00  0.00     0.036 H 
ATOM     58  H   LIG d   1      12.020   3.645  -7.262  0.00  0.00     0.036 H 
BRANCH  56  59
ATOM     59  C   LIG d   1      10.286   4.805  -7.711  0.00  0.00    -0.043 A 
ATOM     60  C   LIG d   1       9.537   4.159  -8.676  0.00  0.00    -0.058 A 
ATOM     61  C   LIG d   1       8.761   4.892  -9.554  0.00  0.00    -0.061 A 
ATOM     62  H   LIG d   1       9.556   3.082  -8.742  0.00  0.00     0.062 H 
ATOM     63  C   LIG d   1       8.740   6.272  -9.472  0.00  0.00    -0.062 A 
ATOM     64  H   LIG d   1       8.173   4.387 -10.305  0.00  0.00     0.062 H 
ATOM     65  C   LIG d   1       9.493   6.918  -8.510  0.00  0.00    -0.061 A 
ATOM     66  H   LIG d   1       8.136   6.844 -10.161  0.00  0.00     0.062 H 
ATOM     67  C   LIG d   1      10.266   6.185  -7.629  0.00  0.00    -0.058 A 
ATOM     68  H   LIG d   1       9.477   7.996  -8.446  0.00  0.00     0.062 H 
ATOM     69  H   LIG d   1      10.854   6.691  -6.878  0.00  0.00     0.062 H 
ENDBRANCH  56  59
ENDBRANCH   6  56
TORSDOF 14
ENDMDL
MODEL 9
REMARK VINA RESULT:      -6.9      4.460      7.379
REMARK  14 active torsions:
REMARK  status: ('A' for Active; 'I' for Inactive)
REMARK    1  A    between atoms: C_1  and  C_2 
REMARK    2  A    between atoms: C_5  and  S_8 
REMARK    3  A    between atoms: S_8  and  N_11 
REMARK    4  A    between atoms: N_11  and  C_12 
REMARK    5  A    between atoms: C_12  and  C_14 
REMARK    6  A    between atoms: C_12  and  C_17 
REMARK    7  A    between atoms: C_14  and  C_15 
REMARK    8  A    between atoms: C_14  and  C_16 
REMARK    9  A    between atoms: C_17  and  O_19 
REMARK   10  A    between atoms: O_19  and  C_20 
REMARK   11  A    between atoms: C_24  and  C_39 
REMARK   12  A    between atoms: C_25  and  C_32 
REMARK   13  A    between atoms: C_30  and  C_31 
REMARK   14  A    between atoms: C_32  and  C_33 
ROOT
ATOM      1  C   LIG d   1       6.903  -3.034  -9.740  0.00  0.00     0.138 A 
ATOM      2  C   LIG d   1       6.901  -4.132  -8.882  0.00  0.00    -0.018 A 
ATOM      3  C   LIG d   1       6.947  -3.953  -7.529  0.00  0.00    -0.047 A 
ATOM      4  C   LIG d   1       6.996  -2.658  -7.001  0.00  0.00     0.021 A 
ATOM      5  C   LIG d   1       7.047  -2.435  -5.554  0.00  0.00    -0.029 A 
ATOM      6  C   LIG d   1       7.094  -1.155  -5.103  0.00  0.00     0.045 A 
ATOM      7  C   LIG d   1       7.093  -0.086  -6.023  0.00  0.00     0.341 A 
ATOM      8  O   LIG d   1       7.137   1.057  -5.606  0.00  0.00    -0.245 OA
ATOM      9  O   LIG d   1       7.047  -0.298  -7.348  0.00  0.00    -0.422 OA
ATOM     10  C   LIG d   1       6.999  -1.546  -7.862  0.00  0.00     0.146 A 
ATOM     11  C   LIG d   1       6.956  -1.746  -9.233  0.00  0.00     0.035 A 
ATOM     12  H   LIG d   1       6.862  -5.131  -9.289  0.00  0.00     0.066 H 
ATOM     13  H   LIG d   1       6.945  -4.808  -6.869  0.00  0.00     0.063 H 
ENDROOT
BRANCH   1  14
ATOM     14  O   LIG d   1       6.858  -3.229 -11.083  0.00  0.00    -0.424 OA
BRANCH  14  15
ATOM     15  C   LIG d   1       5.776  -3.836 -11.596  0.00  0.00     0.331 C 
ATOM     16  O   LIG d   1       5.901  -4.849 -12.242  0.00  0.00    -0.249 OA
BRANCH  15  17
ATOM     17  C   LIG d   1       4.406  -3.252 -11.368  0.00  0.00     0.128 C 
ATOM     18  H   LIG d   1       4.502  -2.247 -10.957  0.00  0.00     0.059 H 
BRANCH  17  19
ATOM     19  N   LIG d   1       3.682  -3.193 -12.640  0.00  0.00    -0.176 N 
ATOM     20  H   LIG d   1       3.526  -4.004 -13.148  0.00  0.00     0.149 HD
BRANCH  19  21
ATOM     21  S   LIG d   1       3.129  -1.739 -13.210  0.00  0.00     0.059 S 
ATOM     22  O   LIG d   1       1.791  -1.953 -13.637  0.00  0.00    -0.153 OA
ATOM     23  O   LIG d   1       4.135  -1.235 -14.079  0.00  0.00    -0.153 OA
BRANCH  21  24
ATOM     24  C   LIG d   1       3.052  -0.637 -11.838  0.00  0.00     0.105 A 
ATOM     25  C   LIG d   1       2.049  -0.775 -10.895  0.00  0.00    -0.035 A 
ATOM     26  C   LIG d   1       1.989   0.089  -9.818  0.00  0.00    -0.057 A 
ATOM     27  H   LIG d   1       1.314  -1.559 -11.001  0.00  0.00     0.064 H 
ATOM     28  C   LIG d   1       2.932   1.091  -9.683  0.00  0.00    -0.050 A 
ATOM     29  H   LIG d   1       1.206  -0.019  -9.083  0.00  0.00     0.062 H 
ATOM     30  C   LIG d   1       3.931   1.233 -10.627  0.00  0.00    -0.057 A 
ATOM     31  C   LIG d   1       3.993   0.366 -11.703  0.00  0.00    -0.035 A 
ATOM     32  H   LIG d   1       4.665   2.018 -10.525  0.00  0.00     0.062 H 
ATOM     33  H   LIG d   1       4.777   0.474 -12.438  0.00  0.00     0.064 H 
BRANCH  28  34
ATOM     34  C   LIG d   1       2.866   2.033  -8.509  0.00  0.00    -0.040 C 
ATOM     35  H   LIG d   1       2.463   2.992  -8.833  0.00  0.00     0.028 H 
ATOM     36  H   LIG d   1       2.221   1.610  -7.738  0.00  0.00     0.028 H 
ATOM     37  H   LIG d   1       3.868   2.179  -8.103  0.00  0.00     0.028 H 
ENDBRANCH  28  34
ENDBRANCH  21  24
ENDBRANCH  19  21
ENDBRANCH  17  19
BRANCH  17  38
ATOM     38  C   LIG d   1       3.634  -4.133 -10.383  0.00  0.00    -0.019 C 
ATOM     39  H   LIG d   1       4.222  -5.022 -10.153  0.00  0.00     0.032 H 
BRANCH  38  40
ATOM     40  C   LIG d   1       3.368  -3.349  -9.097  0.00  0.00    -0.061 C 
ATOM     41  H   LIG d   1       2.963  -4.020  -8.339  0.00  0.00     0.023 H 
ATOM     42  H   LIG d   1       4.301  -2.915  -8.736  0.00  0.00     0.023 H 
ATOM     43  H   LIG d   1       2.650  -2.553  -9.298  0.00  0.00     0.023 H 
ENDBRANCH  38  40
BRANCH  38  44
ATOM     44  C   LIG d   1       2.302  -4.552 -11.010  0.00  0.00    -0.061 C 
ATOM     45  H   LIG d   1       2.060  -5.569 -10.702  0.00  0.00     0.023 H 
ATOM     46  H   LIG d   1       1.515  -3.874 -10.677  0.00  0.00     0.023 H 
ATOM     47  H   LIG d   1       2.383  -4.510 -12.096  0.00  0.00     0.023 H 
ENDBRANCH  38  44
ENDBRANCH  17  38
ENDBRANCH  15  17
ENDBRANCH  14  15
ENDBRANCH   1  14
BRANCH  11  48
ATOM     48  C   LIG d   1       6.964  -0.566 -10.171  0.00  0.00    -0.033 C 
ATOM     49  H   LIG d   1       7.933  -0.500 -10.665  0.00  0.00     0.028 H 
ATOM     50  H   LIG d   1       6.182  -0.691 -10.920  0.00  0.00     0.028 H 
ATOM     51  H   LIG d   1       6.782   0.348  -9.605  0.00  0.00     0.028 H 
ENDBRANCH  11  48
BRANCH   5  52
ATOM     52  C   LIG d   1       7.046  -3.595  -4.592  0.00  0.00    -0.038 C 
ATOM     53  H   LIG d   1       6.415  -4.392  -4.984  0.00  0.00     0.028 H 
ATOM     54  H   LIG d   1       8.064  -3.966  -4.468  0.00  0.00     0.028 H 
ATOM     55  H   LIG d   1       6.659  -3.267  -3.627  0.00  0.00     0.028 H 
ENDBRANCH   5  52
BRANCH   6  56
ATOM     56  C   LIG d   1       7.146  -0.877  -3.623  0.00  0.00     0.005 C 
ATOM     57  H   LIG d   1       7.456  -1.780  -3.094  0.00  0.00     0.036 H 
ATOM     58  H   LIG d   1       7.862  -0.079  -3.428  0.00  0.00     0.036 H 
BRANCH  56  59
ATOM     59  C   LIG d   1       5.780  -0.458  -3.142  0.00  0.00    -0.043 A 
ATOM     60  C   LIG d   1       4.737  -1.365  -3.148  0.00  0.00    -0.058 A 
ATOM     61  C   LIG d   1       3.486  -0.981  -2.703  0.00  0.00    -0.061 A 
ATOM     62  H   LIG d   1       4.900  -2.373  -3.497  0.00  0.00     0.062 H 
ATOM     63  C   LIG d   1       3.276   0.312  -2.259  0.00  0.00    -0.062 A 
ATOM     64  H   LIG d   1       2.672  -1.690  -2.703  0.00  0.00     0.062 H 
ATOM     65  C   LIG d   1       4.319   1.219  -2.258  0.00  0.00    -0.061 A 
ATOM     66  H   LIG d   1       2.298   0.612  -1.913  0.00  0.00     0.062 H 
ATOM     67  C   LIG d   1       5.571   0.834  -2.699  0.00  0.00    -0.058 A 
ATOM     68  H   LIG d   1       4.156   2.229  -1.911  0.00  0.00     0.062 H 
ATOM     69  H   LIG d   1       6.385   1.544  -2.698  0.00  0.00     0.062 H 
ENDBRANCH  56  59
ENDBRANCH   6  56
TORSDOF 14
ENDMDL
