MODEL 1
REMARK VINA RESULT:      -5.8      0.000      0.000
REMARK  6 active torsions:
REMARK  status: ('A' for Active; 'I' for Inactive)
REMARK    1  A    between atoms: C_1  and  C_2 
REMARK    2  A    between atoms: C_3  and  C_18 
REMARK    3  A    between atoms: C_6  and  C_9 
REMARK    4  A    between atoms: C_7  and  O_8 
REMARK    5  A    between atoms: C_12  and  C_14 
REMARK    6  A    between atoms: C_12  and  C_15 
ROOT
ATOM      1  C   LIG d   1       5.231  -0.108  -2.799  0.00  0.00    -0.002 A 
ATOM      2  C   LIG d   1       4.675  -1.321  -3.151  0.00  0.00    -0.002 A 
ATOM      3  C   LIG d   1       5.290  -2.126  -4.103  0.00  0.00     0.129 A 
ATOM      4  C   LIG d   1       6.464  -1.706  -4.703  0.00  0.00     0.001 A 
ATOM      5  C   LIG d   1       7.023  -0.490  -4.348  0.00  0.00    -0.002 A 
ATOM      6  C   LIG d   1       6.406   0.313  -3.402  0.00  0.00     0.123 A 
ATOM      7  C   LIG d   1       7.156  -2.544  -5.747  0.00  0.00    -0.020 C 
ATOM      8  C   LIG d   1       6.648  -3.986  -5.672  0.00  0.00    -0.004 C 
ATOM      9  C   LIG d   1       5.115  -3.955  -5.628  0.00  0.00     0.147 C 
ATOM     10  O   LIG d   1       4.712  -3.316  -4.416  0.00  0.00    -0.480 OA
ATOM     11  H   LIG d   1       6.946  -2.137  -6.737  0.00  0.00     0.032 H 
ATOM     12  H   LIG d   1       8.232  -2.529  -5.572  0.00  0.00     0.032 H 
ATOM     13  H   LIG d   1       6.979  -4.539  -6.551  0.00  0.00     0.031 H 
ATOM     14  H   LIG d   1       7.032  -4.464  -4.770  0.00  0.00     0.031 H 
ENDROOT
BRANCH   9  15
ATOM     15  C   LIG d   1       4.581  -3.169  -6.828  0.00  0.00    -0.019 C 
ATOM     16  H   LIG d   1       4.326  -2.158  -6.514  0.00  0.00     0.027 H 
ATOM     17  H   LIG d   1       5.346  -3.127  -7.603  0.00  0.00     0.027 H 
ATOM     18  H   LIG d   1       3.692  -3.664  -7.220  0.00  0.00     0.027 H 
ENDBRANCH   9  15
BRANCH   9  19
ATOM     19  C   LIG d   1       4.578  -5.363  -5.663  0.00  0.00     0.085 C 
ATOM     20  O   LIG d   1       5.298  -6.298  -5.358  0.00  0.00    -0.546 OA
ATOM     21  O   LIG d   1       3.423  -5.566  -5.997  0.00  0.00    -0.546 OA
ENDBRANCH   9  19
BRANCH   2  22
ATOM     22  C   LIG d   1       3.394  -1.777  -2.498  0.00  0.00    -0.036 C 
ATOM     23  H   LIG d   1       3.347  -1.385  -1.480  0.00  0.00     0.028 H 
ATOM     24  H   LIG d   1       2.543  -1.407  -3.069  0.00  0.00     0.028 H 
ATOM     25  H   LIG d   1       3.368  -2.866  -2.470  0.00  0.00     0.028 H 
ENDBRANCH   2  22
BRANCH   5  26
ATOM     26  C   LIG d   1       8.305  -0.035  -4.997  0.00  0.00    -0.036 C 
ATOM     27  H   LIG d   1       8.598  -0.752  -5.765  0.00  0.00     0.028 H 
ATOM     28  H   LIG d   1       8.156   0.943  -5.452  0.00  0.00     0.028 H 
ATOM     29  H   LIG d   1       9.090   0.030  -4.244  0.00  0.00     0.028 H 
ENDBRANCH   5  26
BRANCH   1  30
ATOM     30  C   LIG d   1       4.558   0.760  -1.767  0.00  0.00    -0.036 C 
ATOM     31  H   LIG d   1       4.084   1.609  -2.260  0.00  0.00     0.028 H 
ATOM     32  H   LIG d   1       3.803   0.178  -1.239  0.00  0.00     0.028 H 
ATOM     33  H   LIG d   1       5.302   1.121  -1.057  0.00  0.00     0.028 H 
ENDBRANCH   1  30
BRANCH   6  34
ATOM     34  O   LIG d   1       6.956   1.509  -3.061  0.00  0.00    -0.506 OA
ATOM     35  H   LIG d   1       7.148   1.600  -2.117  0.00  0.00     0.292 HD
ENDBRANCH   6  34
TORSDOF 6
ENDMDL
MODEL 2
REMARK VINA RESULT:      -5.7      2.163      5.633
REMARK  6 active torsions:
REMARK  status: ('A' for Active; 'I' for Inactive)
REMARK    1  A    between atoms: C_1  and  C_2 
REMARK    2  A    between atoms: C_3  and  C_18 
REMARK    3  A    between atoms: C_6  and  C_9 
REMARK    4  A    between atoms: C_7  and  O_8 
REMARK    5  A    between atoms: C_12  and  C_14 
REMARK    6  A    between atoms: C_12  and  C_15 
ROOT
ATOM      1  C   LIG d   1       3.948  -1.897  -7.864  0.00  0.00    -0.002 A 
ATOM      2  C   LIG d   1       3.847  -0.827  -6.998  0.00  0.00    -0.002 A 
ATOM      3  C   LIG d   1       4.228  -0.962  -5.668  0.00  0.00     0.129 A 
ATOM      4  C   LIG d   1       4.709  -2.177  -5.210  0.00  0.00     0.001 A 
ATOM      5  C   LIG d   1       4.812  -3.249  -6.079  0.00  0.00    -0.002 A 
ATOM      6  C   LIG d   1       4.427  -3.114  -7.404  0.00  0.00     0.123 A 
ATOM      7  C   LIG d   1       5.122  -2.367  -3.773  0.00  0.00    -0.020 C 
ATOM      8  C   LIG d   1       5.348  -1.003  -3.116  0.00  0.00    -0.004 C 
ATOM      9  C   LIG d   1       4.145  -0.107  -3.439  0.00  0.00     0.147 C 
ATOM     10  O   LIG d   1       4.118   0.118  -4.850  0.00  0.00    -0.480 OA
ATOM     11  H   LIG d   1       4.337  -2.902  -3.237  0.00  0.00     0.032 H 
ATOM     12  H   LIG d   1       6.044  -2.946  -3.734  0.00  0.00     0.032 H 
ATOM     13  H   LIG d   1       5.434  -1.125  -2.036  0.00  0.00     0.031 H 
ATOM     14  H   LIG d   1       6.258  -0.552  -3.510  0.00  0.00     0.031 H 
ENDROOT
BRANCH   9  15
ATOM     15  C   LIG d   1       2.853  -0.802  -3.004  0.00  0.00    -0.019 C 
ATOM     16  H   LIG d   1       2.935  -1.098  -1.959  0.00  0.00     0.027 H 
ATOM     17  H   LIG d   1       2.014  -0.115  -3.123  0.00  0.00     0.027 H 
ATOM     18  H   LIG d   1       2.690  -1.686  -3.621  0.00  0.00     0.027 H 
ENDBRANCH   9  15
BRANCH   9  19
ATOM     19  C   LIG d   1       4.283   1.208  -2.718  0.00  0.00     0.085 C 
ATOM     20  O   LIG d   1       3.839   2.228  -3.218  0.00  0.00    -0.546 OA
ATOM     21  O   LIG d   1       4.840   1.254  -1.634  0.00  0.00    -0.546 OA
ENDBRANCH   9  19
BRANCH   2  22
ATOM     22  C   LIG d   1       3.322   0.494  -7.498  0.00  0.00    -0.036 C 
ATOM     23  H   LIG d   1       2.509   0.319  -8.204  0.00  0.00     0.028 H 
ATOM     24  H   LIG d   1       2.951   1.080  -6.657  0.00  0.00     0.028 H 
ATOM     25  H   LIG d   1       4.124   1.040  -7.995  0.00  0.00     0.028 H 
ENDBRANCH   2  22
BRANCH   5  26
ATOM     26  C   LIG d   1       5.340  -4.571  -5.582  0.00  0.00    -0.036 C 
ATOM     27  H   LIG d   1       5.611  -5.197  -6.434  0.00  0.00     0.028 H 
ATOM     28  H   LIG d   1       6.219  -4.401  -4.962  0.00  0.00     0.028 H 
ATOM     29  H   LIG d   1       4.571  -5.071  -4.994  0.00  0.00     0.028 H 
ENDBRANCH   5  26
BRANCH   1  30
ATOM     30  C   LIG d   1       3.531  -1.745  -9.304  0.00  0.00    -0.036 C 
ATOM     31  H   LIG d   1       3.731  -2.672  -9.840  0.00  0.00     0.028 H 
ATOM     32  H   LIG d   1       2.466  -1.519  -9.352  0.00  0.00     0.028 H 
ATOM     33  H   LIG d   1       4.096  -0.932  -9.761  0.00  0.00     0.028 H 
ENDBRANCH   1  30
BRANCH   6  34
ATOM     34  O   LIG d   1       4.526  -4.172  -8.253  0.00  0.00    -0.506 OA
ATOM     35  H   LIG d   1       4.820  -3.937  -9.144  0.00  0.00     0.292 HD
ENDBRANCH   6  34
TORSDOF 6
ENDMDL
MODEL 3
REMARK VINA RESULT:      -5.1      1.823      5.378
REMARK  6 active torsions:
REMARK  status: ('A' for Active; 'I' for Inactive)
REMARK    1  A    between atoms: C_1  and  C_2 
REMARK    2  A    between atoms: C_3  and  C_18 
REMARK    3  A    between atoms: C_6  and  C_9 
REMARK    4  A    between atoms: C_7  and  O_8 
REMARK    5  A    between atoms: C_12  and  C_14 
REMARK    6  A    between atoms: C_12  and  C_15 
ROOT
ATOM      1  C   LIG d   1       7.167  -2.005  -6.360  0.00  0.00    -0.002 A 
ATOM      2  C   LIG d   1       6.760  -0.964  -5.551  0.00  0.00    -0.002 A 
ATOM      3  C   LIG d   1       5.789  -1.171  -4.577  0.00  0.00     0.129 A 
ATOM      4  C   LIG d   1       5.227  -2.426  -4.423  0.00  0.00     0.001 A 
ATOM      5  C   LIG d   1       5.637  -3.470  -5.234  0.00  0.00    -0.002 A 
ATOM      6  C   LIG d   1       6.602  -3.261  -6.206  0.00  0.00     0.123 A 
ATOM      7  C   LIG d   1       4.163  -2.688  -3.387  0.00  0.00    -0.020 C 
ATOM      8  C   LIG d   1       4.175  -1.571  -2.341  0.00  0.00    -0.004 C 
ATOM      9  C   LIG d   1       4.192  -0.224  -3.075  0.00  0.00     0.147 C 
ATOM     10  O   LIG d   1       5.420  -0.121  -3.797  0.00  0.00    -0.480 OA
ATOM     11  H   LIG d   1       3.186  -2.723  -3.870  0.00  0.00     0.032 H 
ATOM     12  H   LIG d   1       4.359  -3.644  -2.900  0.00  0.00     0.032 H 
ATOM     13  H   LIG d   1       3.281  -1.639  -1.721  0.00  0.00     0.031 H 
ATOM     14  H   LIG d   1       5.064  -1.661  -1.717  0.00  0.00     0.031 H 
ENDROOT
BRANCH   9  15
ATOM     15  C   LIG d   1       3.014  -0.153  -4.049  0.00  0.00    -0.019 C 
ATOM     16  H   LIG d   1       3.243   0.555  -4.845  0.00  0.00     0.027 H 
ATOM     17  H   LIG d   1       2.839  -1.140  -4.479  0.00  0.00     0.027 H 
ATOM     18  H   LIG d   1       2.121   0.175  -3.516  0.00  0.00     0.027 H 
ENDBRANCH   9  15
BRANCH   9  19
ATOM     19  C   LIG d   1       4.094   0.900  -2.076  0.00  0.00     0.085 C 
ATOM     20  O   LIG d   1       3.135   1.653  -2.098  0.00  0.00    -0.546 OA
ATOM     21  O   LIG d   1       4.973   1.056  -1.246  0.00  0.00    -0.546 OA
ENDBRANCH   9  19
BRANCH   2  22
ATOM     22  C   LIG d   1       7.372   0.403  -5.721  0.00  0.00    -0.036 C 
ATOM     23  H   LIG d   1       7.507   0.610  -6.784  0.00  0.00     0.028 H 
ATOM     24  H   LIG d   1       6.712   1.153  -5.286  0.00  0.00     0.028 H 
ATOM     25  H   LIG d   1       8.339   0.433  -5.219  0.00  0.00     0.028 H 
ENDBRANCH   2  22
BRANCH   5  26
ATOM     26  C   LIG d   1       5.029  -4.839  -5.062  0.00  0.00    -0.036 C 
ATOM     27  H   LIG d   1       5.725  -5.480  -4.519  0.00  0.00     0.028 H 
ATOM     28  H   LIG d   1       4.099  -4.756  -4.501  0.00  0.00     0.028 H 
ATOM     29  H   LIG d   1       4.826  -5.271  -6.042  0.00  0.00     0.028 H 
ENDBRANCH   5  26
BRANCH   1  30
ATOM     30  C   LIG d   1       8.219  -1.774  -7.415  0.00  0.00    -0.036 C 
ATOM     31  H   LIG d   1       8.519  -2.729  -7.844  0.00  0.00     0.028 H 
ATOM     32  H   LIG d   1       7.814  -1.133  -8.198  0.00  0.00     0.028 H 
ATOM     33  H   LIG d   1       9.085  -1.290  -6.963  0.00  0.00     0.028 H 
ENDBRANCH   1  30
BRANCH   6  34
ATOM     34  O   LIG d   1       6.998  -4.289  -7.004  0.00  0.00    -0.506 OA
ATOM     35  H   LIG d   1       6.568  -5.132  -6.805  0.00  0.00     0.292 HD
ENDBRANCH   6  34
TORSDOF 6
ENDMDL
MODEL 4
REMARK VINA RESULT:      -5.1      3.059      5.194
REMARK  6 active torsions:
REMARK  status: ('A' for Active; 'I' for Inactive)
REMARK    1  A    between atoms: C_1  and  C_2 
REMARK    2  A    between atoms: C_3  and  C_18 
REMARK    3  A    between atoms: C_6  and  C_9 
REMARK    4  A    between atoms: C_7  and  O_8 
REMARK    5  A    between atoms: C_12  and  C_14 
REMARK    6  A    between atoms: C_12  and  C_15 
ROOT
ATOM      1  C   LIG d   1       9.167  -0.246  -5.333  0.00  0.00    -0.002 A 
ATOM      2  C   LIG d   1       8.128   0.567  -4.927  0.00  0.00    -0.002 A 
ATOM      3  C   LIG d   1       7.026   0.026  -4.275  0.00  0.00     0.129 A 
ATOM      4  C   LIG d   1       6.970  -1.337  -4.036  0.00  0.00     0.001 A 
ATOM      5  C   LIG d   1       8.012  -2.152  -4.441  0.00  0.00    -0.002 A 
ATOM      6  C   LIG d   1       9.109  -1.611  -5.094  0.00  0.00     0.123 A 
ATOM      7  C   LIG d   1       5.788  -1.964  -3.342  0.00  0.00    -0.020 C 
ATOM      8  C   LIG d   1       4.989  -0.886  -2.605  0.00  0.00    -0.004 C 
ATOM      9  C   LIG d   1       4.759   0.286  -3.568  0.00  0.00     0.147 C 
ATOM     10  O   LIG d   1       6.028   0.862  -3.886  0.00  0.00    -0.480 OA
ATOM     11  H   LIG d   1       5.148  -2.448  -4.081  0.00  0.00     0.032 H 
ATOM     12  H   LIG d   1       6.139  -2.708  -2.627  0.00  0.00     0.032 H 
ATOM     13  H   LIG d   1       4.029  -1.293  -2.287  0.00  0.00     0.031 H 
ATOM     14  H   LIG d   1       5.550  -0.543  -1.736  0.00  0.00     0.031 H 
ENDROOT
BRANCH   9  15
ATOM     15  C   LIG d   1       4.089  -0.221  -4.847  0.00  0.00    -0.019 C 
ATOM     16  H   LIG d   1       3.414  -1.041  -4.602  0.00  0.00     0.027 H 
ATOM     17  H   LIG d   1       3.523   0.590  -5.306  0.00  0.00     0.027 H 
ATOM     18  H   LIG d   1       4.852  -0.572  -5.542  0.00  0.00     0.027 H 
ENDBRANCH   9  15
BRANCH   9  19
ATOM     19  C   LIG d   1       3.883   1.320  -2.910  0.00  0.00     0.085 C 
ATOM     20  O   LIG d   1       3.617   1.227  -1.724  0.00  0.00    -0.546 OA
ATOM     21  O   LIG d   1       3.439   2.249  -3.564  0.00  0.00    -0.546 OA
ENDBRANCH   9  19
BRANCH   2  22
ATOM     22  C   LIG d   1       8.190   2.050  -5.190  0.00  0.00    -0.036 C 
ATOM     23  H   LIG d   1       7.235   2.387  -5.596  0.00  0.00     0.028 H 
ATOM     24  H   LIG d   1       8.394   2.576  -4.258  0.00  0.00     0.028 H 
ATOM     25  H   LIG d   1       8.984   2.259  -5.907  0.00  0.00     0.028 H 
ENDBRANCH   2  22
BRANCH   5  26
ATOM     26  C   LIG d   1       7.954  -3.634  -4.176  0.00  0.00    -0.036 C 
ATOM     27  H   LIG d   1       8.955  -4.001  -3.943  0.00  0.00     0.028 H 
ATOM     28  H   LIG d   1       7.292  -3.828  -3.333  0.00  0.00     0.028 H 
ATOM     29  H   LIG d   1       7.576  -4.147  -5.060  0.00  0.00     0.028 H 
ENDBRANCH   5  26
BRANCH   1  30
ATOM     30  C   LIG d   1      10.358   0.347  -6.041  0.00  0.00    -0.036 C 
ATOM     31  H   LIG d   1      10.643   1.279  -5.553  0.00  0.00     0.028 H 
ATOM     32  H   LIG d   1      11.191  -0.355  -6.001  0.00  0.00     0.028 H 
ATOM     33  H   LIG d   1      10.099   0.546  -7.081  0.00  0.00     0.028 H 
ENDBRANCH   1  30
BRANCH   6  34
ATOM     34  O   LIG d   1      10.128  -2.416  -5.496  0.00  0.00    -0.506 OA
ATOM     35  H   LIG d   1       9.859  -3.125  -6.096  0.00  0.00     0.292 HD
ENDBRANCH   6  34
TORSDOF 6
ENDMDL
MODEL 5
REMARK VINA RESULT:      -5.0      3.533      5.125
REMARK  6 active torsions:
REMARK  status: ('A' for Active; 'I' for Inactive)
REMARK    1  A    between atoms: C_1  and  C_2 
REMARK    2  A    between atoms: C_3  and  C_18 
REMARK    3  A    between atoms: C_6  and  C_9 
REMARK    4  A    between atoms: C_7  and  O_8 
REMARK    5  A    between atoms: C_12  and  C_14 
REMARK    6  A    between atoms: C_12  and  C_15 
ROOT
ATOM      1  C   LIG d   1       5.975  -1.449  -3.967  0.00  0.00    -0.002 A 
ATOM      2  C   LIG d   1       6.074  -0.935  -5.244  0.00  0.00    -0.002 A 
ATOM      3  C   LIG d   1       4.971  -0.347  -5.852  0.00  0.00     0.129 A 
ATOM      4  C   LIG d   1       3.766  -0.280  -5.173  0.00  0.00     0.001 A 
ATOM      5  C   LIG d   1       3.667  -0.794  -3.892  0.00  0.00    -0.002 A 
ATOM      6  C   LIG d   1       4.767  -1.383  -3.288  0.00  0.00     0.123 A 
ATOM      7  C   LIG d   1       2.544   0.340  -5.801  0.00  0.00    -0.020 C 
ATOM      8  C   LIG d   1       2.960   1.212  -6.988  0.00  0.00    -0.004 C 
ATOM      9  C   LIG d   1       3.927   0.406  -7.864  0.00  0.00     0.147 C 
ATOM     10  O   LIG d   1       5.112   0.152  -7.108  0.00  0.00    -0.480 OA
ATOM     11  H   LIG d   1       1.874  -0.449  -6.147  0.00  0.00     0.032 H 
ATOM     12  H   LIG d   1       2.027   0.953  -5.063  0.00  0.00     0.032 H 
ATOM     13  H   LIG d   1       2.079   1.485  -7.569  0.00  0.00     0.031 H 
ATOM     14  H   LIG d   1       3.455   2.113  -6.625  0.00  0.00     0.031 H 
ENDROOT
BRANCH   9  15
ATOM     15  C   LIG d   1       3.277  -0.920  -8.264  0.00  0.00    -0.019 C 
ATOM     16  H   LIG d   1       3.714  -1.272  -9.197  0.00  0.00     0.027 H 
ATOM     17  H   LIG d   1       3.448  -1.659  -7.481  0.00  0.00     0.027 H 
ATOM     18  H   LIG d   1       2.204  -0.774  -8.396  0.00  0.00     0.027 H 
ENDBRANCH   9  15
BRANCH   9  19
ATOM     19  C   LIG d   1       4.272   1.196  -9.099  0.00  0.00     0.085 C 
ATOM     20  O   LIG d   1       4.621   2.360  -9.001  0.00  0.00    -0.546 OA
ATOM     21  O   LIG d   1       4.201   0.672 -10.198  0.00  0.00    -0.546 OA
ENDBRANCH   9  19
BRANCH   2  22
ATOM     22  C   LIG d   1       7.386  -1.011  -5.983  0.00  0.00    -0.036 C 
ATOM     23  H   LIG d   1       8.200  -0.758  -5.303  0.00  0.00     0.028 H 
ATOM     24  H   LIG d   1       7.531  -2.022  -6.363  0.00  0.00     0.028 H 
ATOM     25  H   LIG d   1       7.376  -0.307  -6.815  0.00  0.00     0.028 H 
ENDBRANCH   2  22
BRANCH   5  26
ATOM     26  C   LIG d   1       2.358  -0.716  -3.150  0.00  0.00    -0.036 C 
ATOM     27  H   LIG d   1       1.673  -1.468  -3.542  0.00  0.00     0.028 H 
ATOM     28  H   LIG d   1       2.528  -0.898  -2.089  0.00  0.00     0.028 H 
ATOM     29  H   LIG d   1       1.924   0.275  -3.283  0.00  0.00     0.028 H 
ENDBRANCH   5  26
BRANCH   1  30
ATOM     30  C   LIG d   1       7.174  -2.087  -3.315  0.00  0.00    -0.036 C 
ATOM     31  H   LIG d   1       8.085  -1.689  -3.761  0.00  0.00     0.028 H 
ATOM     32  H   LIG d   1       7.166  -1.868  -2.247  0.00  0.00     0.028 H 
ATOM     33  H   LIG d   1       7.137  -3.167  -3.465  0.00  0.00     0.028 H 
ENDBRANCH   1  30
BRANCH   6  34
ATOM     34  O   LIG d   1       4.664  -1.891  -2.031  0.00  0.00    -0.506 OA
ATOM     35  H   LIG d   1       5.272  -1.492  -1.393  0.00  0.00     0.292 HD
ENDBRANCH   6  34
TORSDOF 6
ENDMDL
MODEL 6
REMARK VINA RESULT:      -4.9      3.095      5.383
REMARK  6 active torsions:
REMARK  status: ('A' for Active; 'I' for Inactive)
REMARK    1  A    between atoms: C_1  and  C_2 
REMARK    2  A    between atoms: C_3  and  C_18 
REMARK    3  A    between atoms: C_6  and  C_9 
REMARK    4  A    between atoms: C_7  and  O_8 
REMARK    5  A    between atoms: C_12  and  C_14 
REMARK    6  A    between atoms: C_12  and  C_15 
ROOT
ATOM      1  C   LIG d   1       4.866  -1.521  -8.527  0.00  0.00    -0.002 A 
ATOM      2  C   LIG d   1       4.959  -1.960  -7.222  0.00  0.00    -0.002 A 
ATOM      3  C   LIG d   1       4.321  -1.264  -6.201  0.00  0.00     0.129 A 
ATOM      4  C   LIG d   1       3.593  -0.124  -6.497  0.00  0.00     0.001 A 
ATOM      5  C   LIG d   1       3.498   0.314  -7.806  0.00  0.00    -0.002 A 
ATOM      6  C   LIG d   1       4.138  -0.379  -8.822  0.00  0.00     0.123 A 
ATOM      7  C   LIG d   1       2.896   0.664  -5.417  0.00  0.00    -0.020 C 
ATOM      8  C   LIG d   1       2.753  -0.197  -4.159  0.00  0.00    -0.004 C 
ATOM      9  C   LIG d   1       4.111  -0.843  -3.860  0.00  0.00     0.147 C 
ATOM     10  O   LIG d   1       4.432  -1.733  -4.930  0.00  0.00    -0.480 OA
ATOM     11  H   LIG d   1       3.482   1.554  -5.182  0.00  0.00     0.032 H 
ATOM     12  H   LIG d   1       1.908   0.964  -5.766  0.00  0.00     0.032 H 
ATOM     13  H   LIG d   1       2.450   0.427  -3.319  0.00  0.00     0.031 H 
ATOM     14  H   LIG d   1       2.006  -0.973  -4.330  0.00  0.00     0.031 H 
ENDROOT
BRANCH   9  15
ATOM     15  C   LIG d   1       5.185   0.242  -3.752  0.00  0.00    -0.019 C 
ATOM     16  H   LIG d   1       6.171  -0.221  -3.754  0.00  0.00     0.027 H 
ATOM     17  H   LIG d   1       5.100   0.922  -4.600  0.00  0.00     0.027 H 
ATOM     18  H   LIG d   1       5.046   0.799  -2.825  0.00  0.00     0.027 H 
ENDBRANCH   9  15
BRANCH   9  19
ATOM     19  C   LIG d   1       4.034  -1.612  -2.566  0.00  0.00     0.085 C 
ATOM     20  O   LIG d   1       3.661  -2.773  -2.569  0.00  0.00    -0.546 OA
ATOM     21  O   LIG d   1       4.343  -1.073  -1.517  0.00  0.00    -0.546 OA
ENDBRANCH   9  19
BRANCH   2  22
ATOM     22  C   LIG d   1       5.754  -3.200  -6.902  0.00  0.00    -0.036 C 
ATOM     23  H   LIG d   1       5.377  -4.035  -7.494  0.00  0.00     0.028 H 
ATOM     24  H   LIG d   1       6.803  -3.030  -7.141  0.00  0.00     0.028 H 
ATOM     25  H   LIG d   1       5.655  -3.432  -5.842  0.00  0.00     0.028 H 
ENDBRANCH   2  22
BRANCH   5  26
ATOM     26  C   LIG d   1       2.701   1.551  -8.128  0.00  0.00    -0.036 C 
ATOM     27  H   LIG d   1       3.278   2.192  -8.796  0.00  0.00     0.028 H 
ATOM     28  H   LIG d   1       1.768   1.267  -8.615  0.00  0.00     0.028 H 
ATOM     29  H   LIG d   1       2.481   2.091  -7.208  0.00  0.00     0.028 H 
ENDBRANCH   5  26
BRANCH   1  30
ATOM     30  C   LIG d   1       5.561  -2.279  -9.629  0.00  0.00    -0.036 C 
ATOM     31  H   LIG d   1       6.628  -2.061  -9.604  0.00  0.00     0.028 H 
ATOM     32  H   LIG d   1       5.405  -3.349  -9.489  0.00  0.00     0.028 H 
ATOM     33  H   LIG d   1       5.151  -1.975 -10.593  0.00  0.00     0.028 H 
ENDBRANCH   1  30
BRANCH   6  34
ATOM     34  O   LIG d   1       4.046   0.058 -10.107  0.00  0.00    -0.506 OA
ATOM     35  H   LIG d   1       4.557  -0.466 -10.739  0.00  0.00     0.292 HD
ENDBRANCH   6  34
TORSDOF 6
ENDMDL
MODEL 7
REMARK VINA RESULT:      -4.8      8.580     12.459
REMARK  6 active torsions:
REMARK  status: ('A' for Active; 'I' for Inactive)
REMARK    1  A    between atoms: C_1  and  C_2 
REMARK    2  A    between atoms: C_3  and  C_18 
REMARK    3  A    between atoms: C_6  and  C_9 
REMARK    4  A    between atoms: C_7  and  O_8 
REMARK    5  A    between atoms: C_12  and  C_14 
REMARK    6  A    between atoms: C_12  and  C_15 
ROOT
ATOM      1  C   LIG d   1      10.215   5.333  -3.069  0.00  0.00    -0.002 A 
ATOM      2  C   LIG d   1       9.928   6.657  -3.332  0.00  0.00    -0.002 A 
ATOM      3  C   LIG d   1      10.139   7.628  -2.360  0.00  0.00     0.129 A 
ATOM      4  C   LIG d   1      10.637   7.263  -1.121  0.00  0.00     0.001 A 
ATOM      5  C   LIG d   1      10.927   5.936  -0.858  0.00  0.00    -0.002 A 
ATOM      6  C   LIG d   1      10.712   4.969  -1.827  0.00  0.00     0.123 A 
ATOM      7  C   LIG d   1      10.870   8.285  -0.037  0.00  0.00    -0.020 C 
ATOM      8  C   LIG d   1      10.914   9.687  -0.649  0.00  0.00    -0.004 C 
ATOM      9  C   LIG d   1       9.705   9.844  -1.581  0.00  0.00     0.147 C 
ATOM     10  O   LIG d   1       9.849   8.921  -2.663  0.00  0.00    -0.480 OA
ATOM     11  H   LIG d   1      10.060   8.232   0.692  0.00  0.00     0.032 H 
ATOM     12  H   LIG d   1      11.817   8.076   0.461  0.00  0.00     0.032 H 
ATOM     13  H   LIG d   1      10.866  10.435   0.142  0.00  0.00     0.031 H 
ATOM     14  H   LIG d   1      11.835   9.811  -1.218  0.00  0.00     0.031 H 
ENDROOT
BRANCH   9  15
ATOM     15  C   LIG d   1       8.418   9.540  -0.812  0.00  0.00    -0.019 C 
ATOM     16  H   LIG d   1       7.773   8.907  -1.419  0.00  0.00     0.027 H 
ATOM     17  H   LIG d   1       8.664   9.024   0.117  0.00  0.00     0.027 H 
ATOM     18  H   LIG d   1       7.902  10.474  -0.584  0.00  0.00     0.027 H 
ENDBRANCH   9  15
BRANCH   9  19
ATOM     19  C   LIG d   1       9.657  11.251  -2.118  0.00  0.00     0.085 C 
ATOM     20  O   LIG d   1       8.850  11.546  -2.983  0.00  0.00    -0.546 OA
ATOM     21  O   LIG d   1      10.425  12.095  -1.687  0.00  0.00    -0.546 OA
ENDBRANCH   9  19
BRANCH   2  22
ATOM     22  C   LIG d   1       9.384   7.052  -4.682  0.00  0.00    -0.036 C 
ATOM     23  H   LIG d   1       8.596   6.356  -4.973  0.00  0.00     0.028 H 
ATOM     24  H   LIG d   1       8.975   8.061  -4.628  0.00  0.00     0.028 H 
ATOM     25  H   LIG d   1      10.185   7.024  -5.420  0.00  0.00     0.028 H 
ENDBRANCH   2  22
BRANCH   5  26
ATOM     26  C   LIG d   1      11.475   5.540   0.489  0.00  0.00    -0.036 C 
ATOM     27  H   LIG d   1      12.448   5.065   0.360  0.00  0.00     0.028 H 
ATOM     28  H   LIG d   1      11.584   6.426   1.113  0.00  0.00     0.028 H 
ATOM     29  H   LIG d   1      10.790   4.840   0.967  0.00  0.00     0.028 H 
ENDBRANCH   5  26
BRANCH   1  30
ATOM     30  C   LIG d   1       9.982   4.285  -4.127  0.00  0.00    -0.036 C 
ATOM     31  H   LIG d   1      10.685   4.432  -4.945  0.00  0.00     0.028 H 
ATOM     32  H   LIG d   1      10.127   3.295  -3.695  0.00  0.00     0.028 H 
ATOM     33  H   LIG d   1       8.962   4.371  -4.504  0.00  0.00     0.028 H 
ENDBRANCH   1  30
BRANCH   6  34
ATOM     34  O   LIG d   1      10.994   3.665  -1.562  0.00  0.00    -0.506 OA
ATOM     35  H   LIG d   1      10.472   3.036  -2.079  0.00  0.00     0.292 HD
ENDBRANCH   6  34
TORSDOF 6
ENDMDL
MODEL 8
REMARK VINA RESULT:      -4.8      2.285      2.680
REMARK  6 active torsions:
REMARK  status: ('A' for Active; 'I' for Inactive)
REMARK    1  A    between atoms: C_1  and  C_2 
REMARK    2  A    between atoms: C_3  and  C_18 
REMARK    3  A    between atoms: C_6  and  C_9 
REMARK    4  A    between atoms: C_7  and  O_8 
REMARK    5  A    between atoms: C_12  and  C_14 
REMARK    6  A    between atoms: C_12  and  C_15 
ROOT
ATOM      1  C   LIG d   1       3.444  -0.478  -3.951  0.00  0.00    -0.002 A 
ATOM      2  C   LIG d   1       4.053  -1.710  -3.829  0.00  0.00    -0.002 A 
ATOM      3  C   LIG d   1       4.574  -2.350  -4.948  0.00  0.00     0.129 A 
ATOM      4  C   LIG d   1       4.476  -1.749  -6.191  0.00  0.00     0.001 A 
ATOM      5  C   LIG d   1       3.867  -0.513  -6.313  0.00  0.00    -0.002 A 
ATOM      6  C   LIG d   1       3.345   0.123  -5.197  0.00  0.00     0.123 A 
ATOM      7  C   LIG d   1       5.018  -2.415  -7.430  0.00  0.00    -0.020 C 
ATOM      8  C   LIG d   1       6.008  -3.514  -7.035  0.00  0.00    -0.004 C 
ATOM      9  C   LIG d   1       5.362  -4.374  -5.941  0.00  0.00     0.147 C 
ATOM     10  O   LIG d   1       5.171  -3.560  -4.783  0.00  0.00    -0.480 OA
ATOM     11  H   LIG d   1       4.195  -2.855  -7.996  0.00  0.00     0.032 H 
ATOM     12  H   LIG d   1       5.525  -1.675  -8.049  0.00  0.00     0.032 H 
ATOM     13  H   LIG d   1       6.234  -4.133  -7.903  0.00  0.00     0.031 H 
ATOM     14  H   LIG d   1       6.924  -3.063  -6.655  0.00  0.00     0.031 H 
ENDROOT
BRANCH   9  15
ATOM     15  C   LIG d   1       4.011  -4.900  -6.430  0.00  0.00    -0.019 C 
ATOM     16  H   LIG d   1       3.211  -4.287  -6.016  0.00  0.00     0.027 H 
ATOM     17  H   LIG d   1       3.976  -4.856  -7.519  0.00  0.00     0.027 H 
ATOM     18  H   LIG d   1       3.883  -5.933  -6.105  0.00  0.00     0.027 H 
ENDBRANCH   9  15
BRANCH   9  19
ATOM     19  C   LIG d   1       6.266  -5.531  -5.605  0.00  0.00     0.085 C 
ATOM     20  O   LIG d   1       5.850  -6.674  -5.688  0.00  0.00    -0.546 OA
ATOM     21  O   LIG d   1       7.414  -5.325  -5.250  0.00  0.00    -0.546 OA
ENDBRANCH   9  19
BRANCH   2  22
ATOM     22  C   LIG d   1       4.157  -2.364  -2.475  0.00  0.00    -0.036 C 
ATOM     23  H   LIG d   1       4.911  -3.152  -2.509  0.00  0.00     0.028 H 
ATOM     24  H   LIG d   1       4.443  -1.620  -1.732  0.00  0.00     0.028 H 
ATOM     25  H   LIG d   1       3.193  -2.796  -2.205  0.00  0.00     0.028 H 
ENDBRANCH   2  22
BRANCH   5  26
ATOM     26  C   LIG d   1       3.766   0.145  -7.666  0.00  0.00    -0.036 C 
ATOM     27  H   LIG d   1       4.523   0.926  -7.748  0.00  0.00     0.028 H 
ATOM     28  H   LIG d   1       3.926  -0.599  -8.445  0.00  0.00     0.028 H 
ATOM     29  H   LIG d   1       2.776   0.586  -7.781  0.00  0.00     0.028 H 
ENDBRANCH   5  26
BRANCH   1  30
ATOM     30  C   LIG d   1       2.881   0.210  -2.734  0.00  0.00    -0.036 C 
ATOM     31  H   LIG d   1       1.792   0.176  -2.769  0.00  0.00     0.028 H 
ATOM     32  H   LIG d   1       3.232  -0.296  -1.836  0.00  0.00     0.028 H 
ATOM     33  H   LIG d   1       3.211   1.249  -2.719  0.00  0.00     0.028 H 
ENDBRANCH   1  30
BRANCH   6  34
ATOM     34  O   LIG d   1       2.743   1.336  -5.323  0.00  0.00    -0.506 OA
ATOM     35  H   LIG d   1       3.102   2.016  -4.737  0.00  0.00     0.292 HD
ENDBRANCH   6  34
TORSDOF 6
ENDMDL
MODEL 9
REMARK VINA RESULT:      -4.7      8.805     11.849
REMARK  6 active torsions:
REMARK  status: ('A' for Active; 'I' for Inactive)
REMARK    1  A    between atoms: C_1  and  C_2 
REMARK    2  A    between atoms: C_3  and  C_18 
REMARK    3  A    between atoms: C_6  and  C_9 
REMARK    4  A    between atoms: C_7  and  O_8 
REMARK    5  A    between atoms: C_12  and  C_14 
REMARK    6  A    between atoms: C_12  and  C_15 
ROOT
ATOM      1  C   LIG d   1      10.657   6.374  -0.948  0.00  0.00    -0.002 A 
ATOM      2  C   LIG d   1      10.376   7.623  -1.462  0.00  0.00    -0.002 A 
ATOM      3  C   LIG d   1      10.138   7.785  -2.822  0.00  0.00     0.129 A 
ATOM      4  C   LIG d   1      10.186   6.687  -3.664  0.00  0.00     0.001 A 
ATOM      5  C   LIG d   1      10.465   5.434  -3.148  0.00  0.00    -0.002 A 
ATOM      6  C   LIG d   1      10.706   5.275  -1.792  0.00  0.00     0.123 A 
ATOM      7  C   LIG d   1       9.944   6.823  -5.146  0.00  0.00    -0.020 C 
ATOM      8  C   LIG d   1       9.239   8.150  -5.435  0.00  0.00    -0.004 C 
ATOM      9  C   LIG d   1       9.986   9.264  -4.691  0.00  0.00     0.147 C 
ATOM     10  O   LIG d   1       9.859   9.031  -3.288  0.00  0.00    -0.480 OA
ATOM     11  H   LIG d   1      10.899   6.796  -5.673  0.00  0.00     0.032 H 
ATOM     12  H   LIG d   1       9.320   5.997  -5.489  0.00  0.00     0.032 H 
ATOM     13  H   LIG d   1       9.256   8.349  -6.507  0.00  0.00     0.031 H 
ATOM     14  H   LIG d   1       8.208   8.101  -5.086  0.00  0.00     0.031 H 
ENDROOT
BRANCH   9  15
ATOM     15  C   LIG d   1      11.464   9.246  -5.085  0.00  0.00    -0.019 C 
ATOM     16  H   LIG d   1      11.673   8.351  -5.670  0.00  0.00     0.027 H 
ATOM     17  H   LIG d   1      11.692  10.130  -5.681  0.00  0.00     0.027 H 
ATOM     18  H   LIG d   1      12.080   9.246  -4.185  0.00  0.00     0.027 H 
ENDBRANCH   9  15
BRANCH   9  19
ATOM     19  C   LIG d   1       9.383  10.600  -5.041  0.00  0.00     0.085 C 
ATOM     20  O   LIG d   1       9.669  11.141  -6.096  0.00  0.00    -0.546 OA
ATOM     21  O   LIG d   1       8.610  11.141  -4.268  0.00  0.00    -0.546 OA
ENDBRANCH   9  19
BRANCH   2  22
ATOM     22  C   LIG d   1      10.326   8.818  -0.545  0.00  0.00    -0.036 C 
ATOM     23  H   LIG d   1       9.357   8.851  -0.044  0.00  0.00     0.028 H 
ATOM     24  H   LIG d   1      11.117   8.737   0.200  0.00  0.00     0.028 H 
ATOM     25  H   LIG d   1      10.465   9.729  -1.126  0.00  0.00     0.028 H 
ENDBRANCH   2  22
BRANCH   5  26
ATOM     26  C   LIG d   1      10.512   4.237  -4.063  0.00  0.00    -0.036 C 
ATOM     27  H   LIG d   1      11.490   4.185  -4.543  0.00  0.00     0.028 H 
ATOM     28  H   LIG d   1      10.342   3.330  -3.485  0.00  0.00     0.028 H 
ATOM     29  H   LIG d   1       9.739   4.333  -4.825  0.00  0.00     0.028 H 
ENDBRANCH   5  26
BRANCH   1  30
ATOM     30  C   LIG d   1      10.916   6.205   0.527  0.00  0.00    -0.036 C 
ATOM     31  H   LIG d   1      11.986   6.097   0.698  0.00  0.00     0.028 H 
ATOM     32  H   LIG d   1      10.548   7.081   1.063  0.00  0.00     0.028 H 
ATOM     33  H   LIG d   1      10.398   5.316   0.887  0.00  0.00     0.028 H 
ENDBRANCH   1  30
BRANCH   6  34
ATOM     34  O   LIG d   1      10.985   4.042  -1.290  0.00  0.00    -0.506 OA
ATOM     35  H   LIG d   1      10.204   3.499  -1.121  0.00  0.00     0.292 HD
ENDBRANCH   6  34
TORSDOF 6
ENDMDL
MODEL 10
REMARK VINA RESULT:      -4.7      9.576     11.892
REMARK  6 active torsions:
REMARK  status: ('A' for Active; 'I' for Inactive)
REMARK    1  A    between atoms: C_1  and  C_2 
REMARK    2  A    between atoms: C_3  and  C_18 
REMARK    3  A    between atoms: C_6  and  C_9 
REMARK    4  A    between atoms: C_7  and  O_8 
REMARK    5  A    between atoms: C_12  and  C_14 
REMARK    6  A    between atoms: C_12  and  C_15 
ROOT
ATOM      1  C   LIG d   1       9.547   7.981  -6.901  0.00  0.00    -0.002 A 
ATOM      2  C   LIG d   1       9.736   7.127  -5.834  0.00  0.00    -0.002 A 
ATOM      3  C   LIG d   1       9.912   7.633  -4.552  0.00  0.00     0.129 A 
ATOM      4  C   LIG d   1       9.901   9.002  -4.346  0.00  0.00     0.001 A 
ATOM      5  C   LIG d   1       9.710   9.859  -5.416  0.00  0.00    -0.002 A 
ATOM      6  C   LIG d   1       9.538   9.352  -6.695  0.00  0.00     0.123 A 
ATOM      7  C   LIG d   1      10.100   9.591  -2.973  0.00  0.00    -0.020 C 
ATOM      8  C   LIG d   1       9.855   8.518  -1.910  0.00  0.00    -0.004 C 
ATOM      9  C   LIG d   1      10.635   7.259  -2.307  0.00  0.00     0.147 C 
ATOM     10  O   LIG d   1      10.089   6.757  -3.528  0.00  0.00    -0.480 OA
ATOM     11  H   LIG d   1      11.122   9.965  -2.883  0.00  0.00     0.032 H 
ATOM     12  H   LIG d   1       9.401  10.415  -2.826  0.00  0.00     0.032 H 
ATOM     13  H   LIG d   1      10.202   8.875  -0.940  0.00  0.00     0.031 H 
ATOM     14  H   LIG d   1       8.790   8.290  -1.858  0.00  0.00     0.031 H 
ENDROOT
BRANCH   9  15
ATOM     15  C   LIG d   1      12.111   7.610  -2.508  0.00  0.00    -0.019 C 
ATOM     16  H   LIG d   1      12.669   7.364  -1.605  0.00  0.00     0.027 H 
ATOM     17  H   LIG d   1      12.509   7.038  -3.347  0.00  0.00     0.027 H 
ATOM     18  H   LIG d   1      12.206   8.676  -2.716  0.00  0.00     0.027 H 
ENDBRANCH   9  15
BRANCH   9  19
ATOM     19  C   LIG d   1      10.503   6.218  -1.226  0.00  0.00     0.085 C 
ATOM     20  O   LIG d   1      10.109   6.537  -0.117  0.00  0.00    -0.546 OA
ATOM     21  O   LIG d   1      10.790   5.056  -1.460  0.00  0.00    -0.546 OA
ENDBRANCH   9  19
BRANCH   2  22
ATOM     22  C   LIG d   1       9.749   5.636  -6.061  0.00  0.00    -0.036 C 
ATOM     23  H   LIG d   1      10.678   5.218  -5.671  0.00  0.00     0.028 H 
ATOM     24  H   LIG d   1       8.902   5.183  -5.545  0.00  0.00     0.028 H 
ATOM     25  H   LIG d   1       9.677   5.430  -7.129  0.00  0.00     0.028 H 
ENDBRANCH   2  22
BRANCH   5  26
ATOM     26  C   LIG d   1       9.692  11.349  -5.192  0.00  0.00    -0.036 C 
ATOM     27  H   LIG d   1       9.374  11.559  -4.170  0.00  0.00     0.028 H 
ATOM     28  H   LIG d   1      10.691  11.753  -5.351  0.00  0.00     0.028 H 
ATOM     29  H   LIG d   1       8.997  11.813  -5.891  0.00  0.00     0.028 H 
ENDBRANCH   5  26
BRANCH   1  30
ATOM     30  C   LIG d   1       9.357   7.425  -8.290  0.00  0.00    -0.036 C 
ATOM     31  H   LIG d   1       9.767   8.123  -9.019  0.00  0.00     0.028 H 
ATOM     32  H   LIG d   1       9.873   6.469  -8.371  0.00  0.00     0.028 H 
ATOM     33  H   LIG d   1       8.293   7.282  -8.481  0.00  0.00     0.028 H 
ENDBRANCH   1  30
BRANCH   6  34
ATOM     34  O   LIG d   1       9.355  10.198  -7.744  0.00  0.00    -0.506 OA
ATOM     35  H   LIG d   1       9.808   9.926  -8.553  0.00  0.00     0.292 HD
ENDBRANCH   6  34
TORSDOF 6
ENDMDL
