MODEL 1
REMARK VINA RESULT:      -7.7      0.000      0.000
REMARK  3 active torsions:
REMARK  status: ('A' for Active; 'I' for Inactive)
REMARK    1  A    between atoms: C_5  and  C_7 
REMARK    2  A    between atoms: C_7  and  N_8 
REMARK    3  A    between atoms: C_18  and  C_19 
ROOT
ATOM      1  N   LIG d   1       7.112   0.661  -4.628  0.00  0.00    -0.260 N 
ATOM      2  C   LIG d   1       8.248   1.582  -4.478  0.00  0.00     0.034 C 
ATOM      3  C   LIG d   1       8.570   2.206  -5.812  0.00  0.00     0.051 A 
ATOM      4  C   LIG d   1       8.103   1.647  -6.989  0.00  0.00     0.130 A 
ATOM      5  C   LIG d   1       8.412   2.232  -8.218  0.00  0.00    -0.019 A 
ATOM      6  C   LIG d   1       9.175   3.363  -8.272  0.00  0.00    -0.044 A 
ATOM      7  C   LIG d   1       9.651   3.935  -7.092  0.00  0.00     0.068 A 
ATOM      8  C   LIG d   1       9.349   3.357  -5.849  0.00  0.00     0.147 A 
ATOM      9  O   LIG d   1       9.916   4.082  -4.860  0.00  0.00    -0.451 OA
ATOM     10  C   LIG d   1      10.601   5.145  -5.343  0.00  0.00     0.176 A 
ATOM     11  C   LIG d   1      11.279   6.063  -4.609  0.00  0.00    -0.008 C 
ATOM     12  C   LIG d   1      10.478   5.122  -6.810  0.00  0.00     0.232 A 
ATOM     13  O   LIG d   1      10.953   5.909  -7.610  0.00  0.00    -0.283 OA
ATOM     14  O   LIG d   1       7.336   0.526  -6.969  0.00  0.00    -0.476 OA
ATOM     15  C   LIG d   1       7.340  -0.245  -5.765  0.00  0.00     0.144 C 
ATOM     16  H   LIG d   1       7.987   2.371  -3.759  0.00  0.00     0.048 H 
ATOM     17  H   LIG d   1       9.125   1.027  -4.112  0.00  0.00     0.048 H 
ATOM     18  H   LIG d   1       8.043   1.789  -9.131  0.00  0.00     0.065 H 
ATOM     19  H   LIG d   1       9.410   3.812  -9.225  0.00  0.00     0.063 H 
ATOM     20  H   LIG d   1      11.874   6.839  -5.113  0.00  0.00     0.066 H 
ATOM     21  H   LIG d   1       8.311  -0.747  -5.646  0.00  0.00     0.087 H 
ATOM     22  H   LIG d   1       6.539  -0.999  -5.800  0.00  0.00     0.087 H 
ENDROOT
BRANCH   1  23
ATOM     23  C   LIG d   1       6.883  -0.097  -3.390  0.00  0.00     0.044 C 
ATOM     24  H   LIG d   1       7.249   0.485  -2.531  0.00  0.00     0.049 H 
ATOM     25  H   LIG d   1       7.422  -1.054  -3.440  0.00  0.00     0.049 H 
BRANCH  23  26
ATOM     26  C   LIG d   1       5.408  -0.358  -3.227  0.00  0.00     0.055 A 
ATOM     27  N   LIG d   1       4.537   0.544  -3.634  0.00  0.00    -0.259 NA
ATOM     28  C   LIG d   1       3.236   0.357  -3.511  0.00  0.00     0.028 A 
ATOM     29  C   LIG d   1       2.738  -0.802  -2.947  0.00  0.00    -0.044 A 
ATOM     30  H   LIG d   1       2.553   1.119  -3.856  0.00  0.00     0.083 H 
ATOM     31  C   LIG d   1       3.625  -1.774  -2.508  0.00  0.00    -0.059 A 
ATOM     32  H   LIG d   1       1.674  -0.949  -2.851  0.00  0.00     0.063 H 
ATOM     33  C   LIG d   1       4.984  -1.540  -2.648  0.00  0.00    -0.039 A 
ATOM     34  H   LIG d   1       3.264  -2.690  -2.062  0.00  0.00     0.062 H 
ATOM     35  H   LIG d   1       5.702  -2.273  -2.313  0.00  0.00     0.064 H 
ENDBRANCH  23  26
ENDBRANCH   1  23
BRANCH  11  36
ATOM     36  C   LIG d   1      11.217   6.021  -3.142  0.00  0.00    -0.021 A 
ATOM     37  C   LIG d   1      12.215   5.364  -2.415  0.00  0.00    -0.053 A 
ATOM     38  C   LIG d   1      12.150   5.328  -1.039  0.00  0.00    -0.047 A 
ATOM     39  H   LIG d   1      13.036   4.886  -2.930  0.00  0.00     0.062 H 
ATOM     40  C   LIG d   1      11.098   5.939  -0.375  0.00  0.00     0.018 A 
ATOM     41  H   LIG d   1      12.921   4.822  -0.475  0.00  0.00     0.063 H 
ATOM     42  C   LIG d   1      10.105   6.591  -1.088  0.00  0.00    -0.047 A 
ATOM     43 BR   LIG d   1      11.017   5.883   1.514  0.00  0.00    -0.050 Br
ATOM     44  C   LIG d   1      10.161   6.641  -2.464  0.00  0.00    -0.053 A 
ATOM     45  H   LIG d   1       9.289   7.065  -0.564  0.00  0.00     0.063 H 
ATOM     46  H   LIG d   1       9.388   7.154  -3.018  0.00  0.00     0.062 H 
ENDBRANCH  11  36
TORSDOF 3
ENDMDL
MODEL 2
REMARK VINA RESULT:      -7.4      6.967     10.762
REMARK  3 active torsions:
REMARK  status: ('A' for Active; 'I' for Inactive)
REMARK    1  A    between atoms: C_5  and  C_7 
REMARK    2  A    between atoms: C_7  and  N_8 
REMARK    3  A    between atoms: C_18  and  C_19 
ROOT
ATOM      1  N   LIG d   1       7.003  -2.724  -4.920  0.00  0.00    -0.260 N 
ATOM      2  C   LIG d   1       7.414  -4.129  -4.783  0.00  0.00     0.034 C 
ATOM      3  C   LIG d   1       8.836  -4.192  -4.286  0.00  0.00     0.051 A 
ATOM      4  C   LIG d   1       9.666  -3.088  -4.366  0.00  0.00     0.130 A 
ATOM      5  C   LIG d   1      10.982  -3.161  -3.906  0.00  0.00    -0.019 A 
ATOM      6  C   LIG d   1      11.463  -4.321  -3.370  0.00  0.00    -0.044 A 
ATOM      7  C   LIG d   1      10.634  -5.440  -3.284  0.00  0.00     0.068 A 
ATOM      8  C   LIG d   1       9.309  -5.382  -3.743  0.00  0.00     0.147 A 
ATOM      9  O   LIG d   1       8.709  -6.577  -3.557  0.00  0.00    -0.451 OA
ATOM     10  C   LIG d   1       9.545  -7.477  -2.987  0.00  0.00     0.176 A 
ATOM     11  C   LIG d   1       9.244  -8.762  -2.671  0.00  0.00    -0.008 C 
ATOM     12  C   LIG d   1      10.838  -6.808  -2.774  0.00  0.00     0.232 A 
ATOM     13  O   LIG d   1      11.850  -7.279  -2.284  0.00  0.00    -0.283 OA
ATOM     14  O   LIG d   1       9.217  -1.917  -4.889  0.00  0.00    -0.476 OA
ATOM     15  C   LIG d   1       8.021  -1.969  -5.670  0.00  0.00     0.144 C 
ATOM     16  H   LIG d   1       6.753  -4.635  -4.066  0.00  0.00     0.048 H 
ATOM     17  H   LIG d   1       7.345  -4.628  -5.761  0.00  0.00     0.048 H 
ATOM     18  H   LIG d   1      11.623  -2.294  -3.974  0.00  0.00     0.065 H 
ATOM     19  H   LIG d   1      12.481  -4.371  -3.016  0.00  0.00     0.063 H 
ATOM     20  H   LIG d   1      10.029  -9.432  -2.289  0.00  0.00     0.066 H 
ATOM     21  H   LIG d   1       8.220  -2.473  -6.627  0.00  0.00     0.087 H 
ATOM     22  H   LIG d   1       7.654  -0.949  -5.862  0.00  0.00     0.087 H 
ENDROOT
BRANCH   1  23
ATOM     23  C   LIG d   1       5.689  -2.621  -5.568  0.00  0.00     0.044 C 
ATOM     24  H   LIG d   1       5.325  -3.627  -5.821  0.00  0.00     0.049 H 
ATOM     25  H   LIG d   1       5.778  -2.023  -6.487  0.00  0.00     0.049 H 
BRANCH  23  26
ATOM     26  C   LIG d   1       4.716  -1.957  -4.628  0.00  0.00     0.055 A 
ATOM     27  N   LIG d   1       4.080  -0.867  -5.012  0.00  0.00    -0.259 NA
ATOM     28  C   LIG d   1       3.220  -0.252  -4.223  0.00  0.00     0.028 A 
ATOM     29  C   LIG d   1       2.952  -0.735  -2.956  0.00  0.00    -0.044 A 
ATOM     30  H   LIG d   1       2.719   0.639  -4.571  0.00  0.00     0.083 H 
ATOM     31  C   LIG d   1       3.601  -1.880  -2.519  0.00  0.00    -0.059 A 
ATOM     32  H   LIG d   1       2.245  -0.228  -2.317  0.00  0.00     0.063 H 
ATOM     33  C   LIG d   1       4.502  -2.495  -3.373  0.00  0.00    -0.039 A 
ATOM     34  H   LIG d   1       3.411  -2.280  -1.534  0.00  0.00     0.062 H 
ATOM     35  H   LIG d   1       5.029  -3.386  -3.064  0.00  0.00     0.064 H 
ENDBRANCH  23  26
ENDBRANCH   1  23
BRANCH  11  36
ATOM     36  C   LIG d   1       7.872  -9.258  -2.839  0.00  0.00    -0.021 A 
ATOM     37  C   LIG d   1       7.174  -9.777  -1.743  0.00  0.00    -0.053 A 
ATOM     38  C   LIG d   1       5.886 -10.241  -1.908  0.00  0.00    -0.047 A 
ATOM     39  H   LIG d   1       7.641  -9.814  -0.770  0.00  0.00     0.062 H 
ATOM     40  C   LIG d   1       5.284 -10.195  -3.155  0.00  0.00     0.018 A 
ATOM     41  H   LIG d   1       5.345 -10.641  -1.062  0.00  0.00     0.063 H 
ATOM     42  C   LIG d   1       5.969  -9.684  -4.245  0.00  0.00    -0.047 A 
ATOM     43 BR   LIG d   1       3.518 -10.835  -3.370  0.00  0.00    -0.050 Br
ATOM     44  C   LIG d   1       7.254  -9.210  -4.094  0.00  0.00    -0.053 A 
ATOM     45  H   LIG d   1       5.493  -9.651  -5.213  0.00  0.00     0.063 H 
ATOM     46  H   LIG d   1       7.786  -8.807  -4.944  0.00  0.00     0.062 H 
ENDBRANCH  11  36
TORSDOF 3
ENDMDL
MODEL 3
REMARK VINA RESULT:      -7.3      6.732      9.607
REMARK  3 active torsions:
REMARK  status: ('A' for Active; 'I' for Inactive)
REMARK    1  A    between atoms: C_5  and  C_7 
REMARK    2  A    between atoms: C_7  and  N_8 
REMARK    3  A    between atoms: C_18  and  C_19 
ROOT
ATOM      1  N   LIG d   1       2.642  -2.082 -10.568  0.00  0.00    -0.260 N 
ATOM      2  C   LIG d   1       2.809  -2.496  -9.167  0.00  0.00     0.034 C 
ATOM      3  C   LIG d   1       3.341  -3.904  -9.118  0.00  0.00     0.051 A 
ATOM      4  C   LIG d   1       3.266  -4.732 -10.225  0.00  0.00     0.130 A 
ATOM      5  C   LIG d   1       3.759  -6.036 -10.165  0.00  0.00    -0.019 A 
ATOM      6  C   LIG d   1       4.323  -6.509  -9.014  0.00  0.00    -0.044 A 
ATOM      7  C   LIG d   1       4.405  -5.684  -7.892  0.00  0.00     0.068 A 
ATOM      8  C   LIG d   1       3.912  -4.370  -7.938  0.00  0.00     0.147 A 
ATOM      9  O   LIG d   1       4.100  -3.771  -6.743  0.00  0.00    -0.451 OA
ATOM     10  C   LIG d   1       4.704  -4.596  -5.855  0.00  0.00     0.176 A 
ATOM     11  C   LIG d   1       5.030  -4.293  -4.573  0.00  0.00    -0.008 C 
ATOM     12  C   LIG d   1       4.939  -5.881  -6.533  0.00  0.00     0.232 A 
ATOM     13  O   LIG d   1       5.460  -6.882  -6.073  0.00  0.00    -0.283 OA
ATOM     14  O   LIG d   1       2.716  -4.290 -11.386  0.00  0.00    -0.476 OA
ATOM     15  C   LIG d   1       1.907  -3.114 -11.318  0.00  0.00     0.144 C 
ATOM     16  H   LIG d   1       3.517  -1.819  -8.668  0.00  0.00     0.048 H 
ATOM     17  H   LIG d   1       1.837  -2.453  -8.654  0.00  0.00     0.048 H 
ATOM     18  H   LIG d   1       3.695  -6.675 -11.033  0.00  0.00     0.065 H 
ATOM     19  H   LIG d   1       4.703  -7.518  -8.974  0.00  0.00     0.063 H 
ATOM     20  H   LIG d   1       5.441  -5.072  -3.912  0.00  0.00     0.066 H 
ATOM     21  H   LIG d   1       0.962  -3.339 -10.801  0.00  0.00     0.087 H 
ATOM     22  H   LIG d   1       1.692  -2.747 -12.333  0.00  0.00     0.087 H 
ENDROOT
BRANCH   1  23
ATOM     23  C   LIG d   1       1.961  -0.783 -10.656  0.00  0.00     0.044 C 
ATOM     24  H   LIG d   1       1.041  -0.811 -10.055  0.00  0.00     0.049 H 
ATOM     25  H   LIG d   1       1.706  -0.573 -11.705  0.00  0.00     0.049 H 
BRANCH  23  26
ATOM     26  C   LIG d   1       2.870   0.298 -10.133  0.00  0.00     0.055 A 
ATOM     27  N   LIG d   1       4.092   0.412 -10.615  0.00  0.00    -0.259 NA
ATOM     28  C   LIG d   1       4.923   1.343 -10.187  0.00  0.00     0.028 A 
ATOM     29  C   LIG d   1       4.536   2.241  -9.211  0.00  0.00    -0.044 A 
ATOM     30  H   LIG d   1       5.917   1.405 -10.605  0.00  0.00     0.083 H 
ATOM     31  C   LIG d   1       3.258   2.153  -8.681  0.00  0.00    -0.059 A 
ATOM     32  H   LIG d   1       5.220   3.002  -8.866  0.00  0.00     0.063 H 
ATOM     33  C   LIG d   1       2.415   1.158  -9.151  0.00  0.00    -0.039 A 
ATOM     34  H   LIG d   1       2.928   2.841  -7.916  0.00  0.00     0.062 H 
ATOM     35  H   LIG d   1       1.414   1.057  -8.758  0.00  0.00     0.064 H 
ENDBRANCH  23  26
ENDBRANCH   1  23
BRANCH  11  36
ATOM     36  C   LIG d   1       4.836  -2.928  -4.068  0.00  0.00    -0.021 A 
ATOM     37  C   LIG d   1       5.566  -1.867  -4.615  0.00  0.00    -0.053 A 
ATOM     38  C   LIG d   1       5.379  -0.588  -4.136  0.00  0.00    -0.047 A 
ATOM     39  H   LIG d   1       6.274  -2.048  -5.410  0.00  0.00     0.062 H 
ATOM     40  C   LIG d   1       4.472  -0.351  -3.115  0.00  0.00     0.018 A 
ATOM     41  H   LIG d   1       5.942   0.233  -4.557  0.00  0.00     0.063 H 
ATOM     42  C   LIG d   1       3.746  -1.397  -2.569  0.00  0.00    -0.047 A 
ATOM     43 BR   LIG d   1       4.224   1.407  -2.465  0.00  0.00    -0.050 Br
ATOM     44  C   LIG d   1       3.918  -2.680  -3.042  0.00  0.00    -0.053 A 
ATOM     45  H   LIG d   1       3.041  -1.206  -1.774  0.00  0.00     0.063 H 
ATOM     46  H   LIG d   1       3.347  -3.494  -2.617  0.00  0.00     0.062 H 
ENDBRANCH  11  36
TORSDOF 3
ENDMDL
MODEL 4
REMARK VINA RESULT:      -6.9      6.574     11.012
REMARK  3 active torsions:
REMARK  status: ('A' for Active; 'I' for Inactive)
REMARK    1  A    between atoms: C_5  and  C_7 
REMARK    2  A    between atoms: C_7  and  N_8 
REMARK    3  A    between atoms: C_18  and  C_19 
ROOT
ATOM      1  N   LIG d   1       6.382  -2.465  -5.037  0.00  0.00    -0.260 N 
ATOM      2  C   LIG d   1       5.872  -3.839  -4.919  0.00  0.00     0.034 C 
ATOM      3  C   LIG d   1       5.122  -4.208  -6.173  0.00  0.00     0.051 A 
ATOM      4  C   LIG d   1       4.686  -3.232  -7.054  0.00  0.00     0.130 A 
ATOM      5  C   LIG d   1       3.989  -3.587  -8.209  0.00  0.00    -0.019 A 
ATOM      6  C   LIG d   1       3.733  -4.899  -8.486  0.00  0.00    -0.044 A 
ATOM      7  C   LIG d   1       4.168  -5.891  -7.606  0.00  0.00     0.068 A 
ATOM      8  C   LIG d   1       4.869  -5.549  -6.439  0.00  0.00     0.147 A 
ATOM      9  O   LIG d   1       5.183  -6.668  -5.751  0.00  0.00    -0.451 OA
ATOM     10  C   LIG d   1       4.740  -7.785  -6.376  0.00  0.00     0.176 A 
ATOM     11  C   LIG d   1       4.896  -9.061  -5.943  0.00  0.00    -0.008 C 
ATOM     12  C   LIG d   1       4.057  -7.361  -7.609  0.00  0.00     0.232 A 
ATOM     13  O   LIG d   1       3.522  -8.067  -8.446  0.00  0.00    -0.283 OA
ATOM     14  O   LIG d   1       4.930  -1.918  -6.810  0.00  0.00    -0.476 OA
ATOM     15  C   LIG d   1       5.307  -1.561  -5.479  0.00  0.00     0.144 C 
ATOM     16  H   LIG d   1       6.714  -4.531  -4.779  0.00  0.00     0.048 H 
ATOM     17  H   LIG d   1       5.195  -3.905  -4.054  0.00  0.00     0.048 H 
ATOM     18  H   LIG d   1       3.652  -2.819  -8.889  0.00  0.00     0.065 H 
ATOM     19  H   LIG d   1       3.194  -5.168  -9.381  0.00  0.00     0.063 H 
ATOM     20  H   LIG d   1       4.418  -9.889  -6.489  0.00  0.00     0.066 H 
ATOM     21  H   LIG d   1       4.444  -1.661  -4.805  0.00  0.00     0.087 H 
ATOM     22  H   LIG d   1       5.670  -0.522  -5.458  0.00  0.00     0.087 H 
ENDROOT
BRANCH   1  23
ATOM     23  C   LIG d   1       6.965  -2.009  -3.768  0.00  0.00     0.044 C 
ATOM     24  H   LIG d   1       7.946  -1.551  -3.959  0.00  0.00     0.049 H 
ATOM     25  H   LIG d   1       7.087  -2.866  -3.091  0.00  0.00     0.049 H 
BRANCH  23  26
ATOM     26  C   LIG d   1       6.052  -0.992  -3.132  0.00  0.00     0.055 A 
ATOM     27  N   LIG d   1       6.296   0.293  -3.293  0.00  0.00    -0.259 NA
ATOM     28  C   LIG d   1       5.525   1.219  -2.755  0.00  0.00     0.028 A 
ATOM     29  C   LIG d   1       4.422   0.868  -1.999  0.00  0.00    -0.044 A 
ATOM     30  H   LIG d   1       5.757   2.262  -2.907  0.00  0.00     0.083 H 
ATOM     31  C   LIG d   1       4.133  -0.475  -1.810  0.00  0.00    -0.059 A 
ATOM     32  H   LIG d   1       3.794   1.629  -1.563  0.00  0.00     0.063 H 
ATOM     33  C   LIG d   1       4.970  -1.418  -2.385  0.00  0.00    -0.039 A 
ATOM     34  H   LIG d   1       3.278  -0.779  -1.224  0.00  0.00     0.062 H 
ATOM     35  H   LIG d   1       4.777  -2.473  -2.255  0.00  0.00     0.064 H 
ENDBRANCH  23  26
ENDBRANCH   1  23
BRANCH  11  36
ATOM     36  C   LIG d   1       5.703  -9.338  -4.747  0.00  0.00    -0.021 A 
ATOM     37  C   LIG d   1       5.112  -9.919  -3.620  0.00  0.00    -0.053 A 
ATOM     38  C   LIG d   1       5.875 -10.175  -2.501  0.00  0.00    -0.047 A 
ATOM     39  H   LIG d   1       4.061 -10.167  -3.626  0.00  0.00     0.062 H 
ATOM     40  C   LIG d   1       7.224  -9.857  -2.491  0.00  0.00     0.018 A 
ATOM     41  H   LIG d   1       5.421 -10.624  -1.630  0.00  0.00     0.063 H 
ATOM     42  C   LIG d   1       7.816  -9.281  -3.603  0.00  0.00    -0.047 A 
ATOM     43 BR   LIG d   1       8.262 -10.212  -0.951  0.00  0.00    -0.050 Br
ATOM     44  C   LIG d   1       7.067  -9.025  -4.731  0.00  0.00    -0.053 A 
ATOM     45  H   LIG d   1       8.867  -9.037  -3.588  0.00  0.00     0.063 H 
ATOM     46  H   LIG d   1       7.531  -8.580  -5.599  0.00  0.00     0.062 H 
ENDBRANCH  11  36
TORSDOF 3
ENDMDL
MODEL 5
REMARK VINA RESULT:      -6.8      6.193      8.509
REMARK  3 active torsions:
REMARK  status: ('A' for Active; 'I' for Inactive)
REMARK    1  A    between atoms: C_5  and  C_7 
REMARK    2  A    between atoms: C_7  and  N_8 
REMARK    3  A    between atoms: C_18  and  C_19 
ROOT
ATOM      1  N   LIG d   1       3.915  -2.894 -10.106  0.00  0.00    -0.260 N 
ATOM      2  C   LIG d   1       4.331  -3.079  -8.708  0.00  0.00     0.034 C 
ATOM      3  C   LIG d   1       5.514  -4.011  -8.654  0.00  0.00     0.051 A 
ATOM      4  C   LIG d   1       5.828  -4.825  -9.728  0.00  0.00     0.130 A 
ATOM      5  C   LIG d   1       6.924  -5.687  -9.663  0.00  0.00    -0.019 A 
ATOM      6  C   LIG d   1       7.699  -5.734  -8.541  0.00  0.00    -0.044 A 
ATOM      7  C   LIG d   1       7.393  -4.918  -7.451  0.00  0.00     0.068 A 
ATOM      8  C   LIG d   1       6.294  -4.047  -7.502  0.00  0.00     0.147 A 
ATOM      9  O   LIG d   1       6.198  -3.365  -6.340  0.00  0.00    -0.451 OA
ATOM     10  C   LIG d   1       7.178  -3.711  -5.472  0.00  0.00     0.176 A 
ATOM     11  C   LIG d   1       7.357  -3.207  -4.224  0.00  0.00    -0.008 C 
ATOM     12  C   LIG d   1       8.011  -4.732  -6.126  0.00  0.00     0.232 A 
ATOM     13  O   LIG d   1       8.992  -5.295  -5.674  0.00  0.00    -0.283 OA
ATOM     14  O   LIG d   1       5.079  -4.798 -10.862  0.00  0.00    -0.476 OA
ATOM     15  C   LIG d   1       3.784  -4.200 -10.773  0.00  0.00     0.144 C 
ATOM     16  H   LIG d   1       4.611  -2.107  -8.278  0.00  0.00     0.048 H 
ATOM     17  H   LIG d   1       3.498  -3.509  -8.132  0.00  0.00     0.048 H 
ATOM     18  H   LIG d   1       7.160  -6.319 -10.506  0.00  0.00     0.065 H 
ATOM     19  H   LIG d   1       8.546  -6.402  -8.497  0.00  0.00     0.063 H 
ATOM     20  H   LIG d   1       8.138  -3.624  -3.571  0.00  0.00     0.066 H 
ATOM     21  H   LIG d   1       3.113  -4.846 -10.188  0.00  0.00     0.087 H 
ATOM     22  H   LIG d   1       3.367  -4.057 -11.782  0.00  0.00     0.087 H 
ENDROOT
BRANCH   1  23
ATOM     23  C   LIG d   1       2.659  -2.136 -10.185  0.00  0.00     0.044 C 
ATOM     24  H   LIG d   1       1.983  -2.461  -9.381  0.00  0.00     0.049 H 
ATOM     25  H   LIG d   1       2.182  -2.316 -11.160  0.00  0.00     0.049 H 
BRANCH  23  26
ATOM     26  C   LIG d   1       2.950  -0.665 -10.032  0.00  0.00     0.055 A 
ATOM     27  N   LIG d   1       3.675  -0.046 -10.943  0.00  0.00    -0.259 NA
ATOM     28  C   LIG d   1       3.955   1.240 -10.850  0.00  0.00     0.028 A 
ATOM     29  C   LIG d   1       3.491   1.990  -9.786  0.00  0.00    -0.044 A 
ATOM     30  H   LIG d   1       4.553   1.713 -11.615  0.00  0.00     0.083 H 
ATOM     31  C   LIG d   1       2.724   1.373  -8.809  0.00  0.00    -0.059 A 
ATOM     32  H   LIG d   1       3.721   3.042  -9.717  0.00  0.00     0.063 H 
ATOM     33  C   LIG d   1       2.456   0.019  -8.937  0.00  0.00    -0.039 A 
ATOM     34  H   LIG d   1       2.348   1.933  -7.965  0.00  0.00     0.062 H 
ATOM     35  H   LIG d   1       1.866  -0.495  -8.193  0.00  0.00     0.064 H 
ENDBRANCH  23  26
ENDBRANCH   1  23
BRANCH  11  36
ATOM     36  C   LIG d   1       6.509  -2.106  -3.748  0.00  0.00    -0.021 A 
ATOM     37  C   LIG d   1       6.933  -0.780  -3.893  0.00  0.00    -0.053 A 
ATOM     38  C   LIG d   1       6.133   0.248  -3.443  0.00  0.00    -0.047 A 
ATOM     39  H   LIG d   1       7.884  -0.563  -4.357  0.00  0.00     0.062 H 
ATOM     40  C   LIG d   1       4.913  -0.028  -2.847  0.00  0.00     0.018 A 
ATOM     41  H   LIG d   1       6.458   1.272  -3.556  0.00  0.00     0.063 H 
ATOM     42  C   LIG d   1       4.487  -1.338  -2.699  0.00  0.00    -0.047 A 
ATOM     43 BR   LIG d   1       3.823   1.390  -2.233  0.00  0.00    -0.050 Br
ATOM     44  C   LIG d   1       5.273  -2.377  -3.150  0.00  0.00    -0.053 A 
ATOM     45  H   LIG d   1       3.535  -1.546  -2.234  0.00  0.00     0.063 H 
ATOM     46  H   LIG d   1       4.938  -3.397  -3.038  0.00  0.00     0.062 H 
ENDBRANCH  11  36
TORSDOF 3
ENDMDL
MODEL 6
REMARK VINA RESULT:      -6.5      7.596     10.005
REMARK  3 active torsions:
REMARK  status: ('A' for Active; 'I' for Inactive)
REMARK    1  A    between atoms: C_5  and  C_7 
REMARK    2  A    between atoms: C_7  and  N_8 
REMARK    3  A    between atoms: C_18  and  C_19 
ROOT
ATOM      1  N   LIG d   1       4.759  -7.619  -6.342  0.00  0.00    -0.260 N 
ATOM      2  C   LIG d   1       5.998  -6.934  -5.945  0.00  0.00     0.034 C 
ATOM      3  C   LIG d   1       5.767  -5.445  -5.930  0.00  0.00     0.051 A 
ATOM      4  C   LIG d   1       4.682  -4.886  -6.583  0.00  0.00     0.130 A 
ATOM      5  C   LIG d   1       4.482  -3.505  -6.564  0.00  0.00    -0.019 A 
ATOM      6  C   LIG d   1       5.353  -2.691  -5.900  0.00  0.00    -0.044 A 
ATOM      7  C   LIG d   1       6.450  -3.242  -5.237  0.00  0.00     0.068 A 
ATOM      8  C   LIG d   1       6.664  -4.629  -5.248  0.00  0.00     0.147 A 
ATOM      9  O   LIG d   1       7.780  -4.924  -4.546  0.00  0.00    -0.451 OA
ATOM     10  C   LIG d   1       8.363  -3.813  -4.037  0.00  0.00     0.176 A 
ATOM     11  C   LIG d   1       9.493  -3.773  -3.287  0.00  0.00    -0.008 C 
ATOM     12  C   LIG d   1       7.549  -2.658  -4.448  0.00  0.00     0.232 A 
ATOM     13  O   LIG d   1       7.741  -1.482  -4.191  0.00  0.00    -0.283 OA
ATOM     14  O   LIG d   1       3.794  -5.670  -7.249  0.00  0.00    -0.476 OA
ATOM     15  C   LIG d   1       4.206  -7.003  -7.560  0.00  0.00     0.144 C 
ATOM     16  H   LIG d   1       6.295  -7.269  -4.941  0.00  0.00     0.048 H 
ATOM     17  H   LIG d   1       6.796  -7.174  -6.664  0.00  0.00     0.048 H 
ATOM     18  H   LIG d   1       3.633  -3.079  -7.078  0.00  0.00     0.065 H 
ATOM     19  H   LIG d   1       5.193  -1.624  -5.888  0.00  0.00     0.063 H 
ATOM     20  H   LIG d   1       9.927  -2.804  -2.999  0.00  0.00     0.066 H 
ATOM     21  H   LIG d   1       4.978  -6.983  -8.343  0.00  0.00     0.087 H 
ATOM     22  H   LIG d   1       3.344  -7.590  -7.909  0.00  0.00     0.087 H 
ENDROOT
BRANCH   1  23
ATOM     23  C   LIG d   1       4.992  -9.056  -6.540  0.00  0.00     0.044 C 
ATOM     24  H   LIG d   1       5.993  -9.209  -6.970  0.00  0.00     0.049 H 
ATOM     25  H   LIG d   1       4.233  -9.461  -7.226  0.00  0.00     0.049 H 
BRANCH  23  26
ATOM     26  C   LIG d   1       4.902  -9.767  -5.214  0.00  0.00     0.055 A 
ATOM     27  N   LIG d   1       3.900  -9.502  -4.399  0.00  0.00    -0.259 NA
ATOM     28  C   LIG d   1       3.780 -10.100  -3.229  0.00  0.00     0.028 A 
ATOM     29  C   LIG d   1       4.709 -11.035  -2.815  0.00  0.00    -0.044 A 
ATOM     30  H   LIG d   1       2.946  -9.856  -2.588  0.00  0.00     0.083 H 
ATOM     31  C   LIG d   1       5.777 -11.341  -3.646  0.00  0.00    -0.059 A 
ATOM     32  H   LIG d   1       4.605 -11.522  -1.858  0.00  0.00     0.063 H 
ATOM     33  C   LIG d   1       5.872 -10.687  -4.865  0.00  0.00    -0.039 A 
ATOM     34  H   LIG d   1       6.518 -12.068  -3.349  0.00  0.00     0.062 H 
ATOM     35  H   LIG d   1       6.692 -10.898  -5.536  0.00  0.00     0.064 H 
ENDBRANCH  23  26
ENDBRANCH   1  23
BRANCH  11  36
ATOM     36  C   LIG d   1      10.136  -5.023  -2.860  0.00  0.00    -0.021 A 
ATOM     37  C   LIG d   1       9.715  -5.665  -1.691  0.00  0.00    -0.053 A 
ATOM     38  C   LIG d   1      10.324  -6.837  -1.296  0.00  0.00    -0.047 A 
ATOM     39  H   LIG d   1       8.916  -5.245  -1.099  0.00  0.00     0.062 H 
ATOM     40  C   LIG d   1      11.350  -7.379  -2.053  0.00  0.00     0.018 A 
ATOM     41  H   LIG d   1       9.999  -7.335  -0.393  0.00  0.00     0.063 H 
ATOM     42  C   LIG d   1      11.773  -6.748  -3.212  0.00  0.00    -0.047 A 
ATOM     43 BR   LIG d   1      12.178  -8.987  -1.502  0.00  0.00    -0.050 Br
ATOM     44  C   LIG d   1      11.169  -5.579  -3.623  0.00  0.00    -0.053 A 
ATOM     45  H   LIG d   1      12.572  -7.176  -3.797  0.00  0.00     0.063 H 
ATOM     46  H   LIG d   1      11.497  -5.091  -4.529  0.00  0.00     0.062 H 
ENDBRANCH  11  36
TORSDOF 3
ENDMDL
MODEL 7
REMARK VINA RESULT:      -6.5      7.719     10.379
REMARK  3 active torsions:
REMARK  status: ('A' for Active; 'I' for Inactive)
REMARK    1  A    between atoms: C_5  and  C_7 
REMARK    2  A    between atoms: C_7  and  N_8 
REMARK    3  A    between atoms: C_18  and  C_19 
ROOT
ATOM      1  N   LIG d   1       1.506  -3.008 -10.712  0.00  0.00    -0.260 N 
ATOM      2  C   LIG d   1       2.660  -3.060  -9.804  0.00  0.00     0.034 C 
ATOM      3  C   LIG d   1       2.838  -1.720  -9.138  0.00  0.00     0.051 A 
ATOM      4  C   LIG d   1       2.238  -0.584  -9.654  0.00  0.00     0.130 A 
ATOM      5  C   LIG d   1       2.414   0.651  -9.030  0.00  0.00    -0.019 A 
ATOM      6  C   LIG d   1       3.178   0.753  -7.903  0.00  0.00    -0.044 A 
ATOM      7  C   LIG d   1       3.787  -0.385  -7.373  0.00  0.00     0.068 A 
ATOM      8  C   LIG d   1       3.620  -1.634  -7.990  0.00  0.00     0.147 A 
ATOM      9  O   LIG d   1       4.299  -2.577  -7.303  0.00  0.00    -0.451 OA
ATOM     10  C   LIG d   1       4.937  -2.055  -6.228  0.00  0.00     0.176 A 
ATOM     11  C   LIG d   1       5.701  -2.740  -5.339  0.00  0.00    -0.008 C 
ATOM     12  C   LIG d   1       4.652  -0.612  -6.201  0.00  0.00     0.232 A 
ATOM     13  O   LIG d   1       5.043   0.210  -5.391  0.00  0.00    -0.283 OA
ATOM     14  O   LIG d   1       1.468  -0.653 -10.771  0.00  0.00    -0.476 OA
ATOM     15  C   LIG d   1       1.598  -1.823 -11.582  0.00  0.00     0.144 C 
ATOM     16  H   LIG d   1       2.488  -3.830  -9.038  0.00  0.00     0.048 H 
ATOM     17  H   LIG d   1       3.567  -3.309 -10.376  0.00  0.00     0.048 H 
ATOM     18  H   LIG d   1       1.943   1.532  -9.441  0.00  0.00     0.065 H 
ATOM     19  H   LIG d   1       3.310   1.711  -7.424  0.00  0.00     0.063 H 
ATOM     20  H   LIG d   1       6.243  -2.198  -4.550  0.00  0.00     0.066 H 
ATOM     21  H   LIG d   1       2.571  -1.818 -12.093  0.00  0.00     0.087 H 
ATOM     22  H   LIG d   1       0.791  -1.853 -12.329  0.00  0.00     0.087 H 
ENDROOT
BRANCH   1  23
ATOM     23  C   LIG d   1       1.408  -4.238 -11.510  0.00  0.00     0.044 C 
ATOM     24  H   LIG d   1       2.400  -4.707 -11.583  0.00  0.00     0.049 H 
ATOM     25  H   LIG d   1       1.044  -3.994 -12.519  0.00  0.00     0.049 H 
BRANCH  23  26
ATOM     26  C   LIG d   1       0.449  -5.192 -10.847  0.00  0.00     0.055 A 
ATOM     27  N   LIG d   1       0.776  -6.463 -10.722  0.00  0.00    -0.259 NA
ATOM     28  C   LIG d   1      -0.032  -7.335 -10.149  0.00  0.00     0.028 A 
ATOM     29  C   LIG d   1      -1.260  -6.940  -9.653  0.00  0.00    -0.044 A 
ATOM     30  H   LIG d   1       0.270  -8.368 -10.065  0.00  0.00     0.083 H 
ATOM     31  C   LIG d   1      -1.638  -5.611  -9.766  0.00  0.00    -0.059 A 
ATOM     32  H   LIG d   1      -1.916  -7.657  -9.183  0.00  0.00     0.063 H 
ATOM     33  C   LIG d   1      -0.765  -4.726 -10.379  0.00  0.00    -0.039 A 
ATOM     34  H   LIG d   1      -2.592  -5.273  -9.388  0.00  0.00     0.062 H 
ATOM     35  H   LIG d   1      -1.029  -3.684 -10.488  0.00  0.00     0.064 H 
ENDBRANCH  23  26
ENDBRANCH   1  23
BRANCH  11  36
ATOM     36  C   LIG d   1       5.801  -4.202  -5.430  0.00  0.00    -0.021 A 
ATOM     37  C   LIG d   1       4.646  -4.990  -5.376  0.00  0.00    -0.053 A 
ATOM     38  C   LIG d   1       4.748  -6.362  -5.461  0.00  0.00    -0.047 A 
ATOM     39  H   LIG d   1       3.677  -4.526  -5.269  0.00  0.00     0.062 H 
ATOM     40  C   LIG d   1       5.990  -6.961  -5.599  0.00  0.00     0.018 A 
ATOM     41  H   LIG d   1       3.857  -6.973  -5.421  0.00  0.00     0.063 H 
ATOM     42  C   LIG d   1       7.138  -6.188  -5.652  0.00  0.00    -0.047 A 
ATOM     43 BR   LIG d   1       6.119  -8.844  -5.714  0.00  0.00    -0.050 Br
ATOM     44  C   LIG d   1       7.051  -4.814  -5.575  0.00  0.00    -0.053 A 
ATOM     45  H   LIG d   1       8.102  -6.661  -5.760  0.00  0.00     0.063 H 
ATOM     46  H   LIG d   1       7.947  -4.212  -5.621  0.00  0.00     0.062 H 
ENDBRANCH  11  36
TORSDOF 3
ENDMDL
MODEL 8
REMARK VINA RESULT:      -6.5      6.390      9.846
REMARK  3 active torsions:
REMARK  status: ('A' for Active; 'I' for Inactive)
REMARK    1  A    between atoms: C_5  and  C_7 
REMARK    2  A    between atoms: C_7  and  N_8 
REMARK    3  A    between atoms: C_18  and  C_19 
ROOT
ATOM      1  N   LIG d   1       6.877  -1.963  -4.560  0.00  0.00    -0.260 N 
ATOM      2  C   LIG d   1       7.464  -3.304  -4.693  0.00  0.00     0.034 C 
ATOM      3  C   LIG d   1       8.967  -3.196  -4.710  0.00  0.00     0.051 A 
ATOM      4  C   LIG d   1       9.591  -1.987  -4.966  0.00  0.00     0.130 A 
ATOM      5  C   LIG d   1      10.983  -1.902  -4.983  0.00  0.00    -0.019 A 
ATOM      6  C   LIG d   1      11.746  -3.008  -4.744  0.00  0.00    -0.044 A 
ATOM      7  C   LIG d   1      11.129  -4.233  -4.484  0.00  0.00     0.068 A 
ATOM      8  C   LIG d   1       9.729  -4.334  -4.464  0.00  0.00     0.147 A 
ATOM      9  O   LIG d   1       9.368  -5.607  -4.194  0.00  0.00    -0.451 OA
ATOM     10  C   LIG d   1      10.444  -6.410  -4.018  0.00  0.00     0.176 A 
ATOM     11  C   LIG d   1      10.417  -7.736  -3.734  0.00  0.00    -0.008 C 
ATOM     12  C   LIG d   1      11.648  -5.582  -4.194  0.00  0.00     0.232 A 
ATOM     13  O   LIG d   1      12.812  -5.932  -4.115  0.00  0.00    -0.283 OA
ATOM     14  O   LIG d   1       8.860  -0.866  -5.203  0.00  0.00    -0.476 OA
ATOM     15  C   LIG d   1       7.482  -1.045  -5.538  0.00  0.00     0.144 C 
ATOM     16  H   LIG d   1       7.151  -3.927  -3.842  0.00  0.00     0.048 H 
ATOM     17  H   LIG d   1       7.119  -3.764  -5.631  0.00  0.00     0.048 H 
ATOM     18  H   LIG d   1      11.460  -0.954  -5.186  0.00  0.00     0.065 H 
ATOM     19  H   LIG d   1      12.823  -2.936  -4.757  0.00  0.00     0.063 H 
ATOM     20  H   LIG d   1      11.355  -8.309  -3.698  0.00  0.00     0.066 H 
ATOM     21  H   LIG d   1       7.395  -1.474  -6.547  0.00  0.00     0.087 H 
ATOM     22  H   LIG d   1       6.960  -0.077  -5.505  0.00  0.00     0.087 H 
ENDROOT
BRANCH   1  23
ATOM     23  C   LIG d   1       5.417  -2.010  -4.717  0.00  0.00     0.044 C 
ATOM     24  H   LIG d   1       5.045  -2.994  -4.395  0.00  0.00     0.049 H 
ATOM     25  H   LIG d   1       5.155  -1.849  -5.773  0.00  0.00     0.049 H 
BRANCH  23  26
ATOM     26  C   LIG d   1       4.785  -0.934  -3.872  0.00  0.00     0.055 A 
ATOM     27  N   LIG d   1       4.001  -0.038  -4.439  0.00  0.00    -0.259 NA
ATOM     28  C   LIG d   1       3.426   0.922  -3.739  0.00  0.00     0.028 A 
ATOM     29  C   LIG d   1       3.628   1.020  -2.375  0.00  0.00    -0.044 A 
ATOM     30  H   LIG d   1       2.791   1.639  -4.237  0.00  0.00     0.083 H 
ATOM     31  C   LIG d   1       4.446   0.095  -1.745  0.00  0.00    -0.059 A 
ATOM     32  H   LIG d   1       3.154   1.807  -1.808  0.00  0.00     0.063 H 
ATOM     33  C   LIG d   1       5.037  -0.896  -2.514  0.00  0.00    -0.039 A 
ATOM     34  H   LIG d   1       4.622   0.147  -0.680  0.00  0.00     0.062 H 
ATOM     35  H   LIG d   1       5.683  -1.631  -2.057  0.00  0.00     0.064 H 
ENDBRANCH  23  26
ENDBRANCH   1  23
BRANCH  11  36
ATOM     36  C   LIG d   1       9.135  -8.405  -3.474  0.00  0.00    -0.021 A 
ATOM     37  C   LIG d   1       8.730  -8.661  -2.159  0.00  0.00    -0.053 A 
ATOM     38  C   LIG d   1       7.527  -9.290  -1.923  0.00  0.00    -0.047 A 
ATOM     39  H   LIG d   1       9.358  -8.366  -1.332  0.00  0.00     0.062 H 
ATOM     40  C   LIG d   1       6.719  -9.670  -2.983  0.00  0.00     0.018 A 
ATOM     41  H   LIG d   1       7.212  -9.487  -0.908  0.00  0.00     0.063 H 
ATOM     42  C   LIG d   1       7.113  -9.421  -4.288  0.00  0.00    -0.047 A 
ATOM     43 BR   LIG d   1       5.070 -10.532  -2.648  0.00  0.00    -0.050 Br
ATOM     44  C   LIG d   1       8.311  -8.787  -4.539  0.00  0.00    -0.053 A 
ATOM     45  H   LIG d   1       6.479  -9.719  -5.108  0.00  0.00     0.063 H 
ATOM     46  H   LIG d   1       8.615  -8.589  -5.557  0.00  0.00     0.062 H 
ENDBRANCH  11  36
TORSDOF 3
ENDMDL
MODEL 9
REMARK VINA RESULT:      -6.3      6.883      9.665
REMARK  3 active torsions:
REMARK  status: ('A' for Active; 'I' for Inactive)
REMARK    1  A    between atoms: C_5  and  C_7 
REMARK    2  A    between atoms: C_7  and  N_8 
REMARK    3  A    between atoms: C_18  and  C_19 
ROOT
ATOM      1  N   LIG d   1       5.062  -7.002  -6.524  0.00  0.00    -0.260 N 
ATOM      2  C   LIG d   1       5.029  -5.548  -6.734  0.00  0.00     0.034 C 
ATOM      3  C   LIG d   1       4.421  -5.246  -8.079  0.00  0.00     0.051 A 
ATOM      4  C   LIG d   1       4.320  -6.228  -9.050  0.00  0.00     0.130 A 
ATOM      5  C   LIG d   1       3.760  -5.935 -10.293  0.00  0.00    -0.019 A 
ATOM      6  C   LIG d   1       3.301  -4.678 -10.565  0.00  0.00    -0.044 A 
ATOM      7  C   LIG d   1       3.397  -3.680  -9.594  0.00  0.00     0.068 A 
ATOM      8  C   LIG d   1       3.960  -3.960  -8.339  0.00  0.00     0.147 A 
ATOM      9  O   LIG d   1       3.945  -2.848  -7.574  0.00  0.00    -0.451 OA
ATOM     10  C   LIG d   1       3.397  -1.795  -8.227  0.00  0.00     0.176 A 
ATOM     11  C   LIG d   1       3.236  -0.541  -7.732  0.00  0.00    -0.008 C 
ATOM     12  C   LIG d   1       3.009  -2.258  -9.568  0.00  0.00     0.232 A 
ATOM     13  O   LIG d   1       2.483  -1.612 -10.457  0.00  0.00    -0.283 OA
ATOM     14  O   LIG d   1       4.762  -7.491  -8.809  0.00  0.00    -0.476 OA
ATOM     15  C   LIG d   1       5.644  -7.672  -7.698  0.00  0.00     0.144 C 
ATOM     16  H   LIG d   1       4.424  -5.078  -5.945  0.00  0.00     0.048 H 
ATOM     17  H   LIG d   1       6.054  -5.149  -6.696  0.00  0.00     0.048 H 
ATOM     18  H   LIG d   1       3.686  -6.707 -11.045  0.00  0.00     0.065 H 
ATOM     19  H   LIG d   1       2.867  -4.457 -11.528  0.00  0.00     0.063 H 
ATOM     20  H   LIG d   1       2.856   0.260  -8.383  0.00  0.00     0.066 H 
ATOM     21  H   LIG d   1       6.625  -7.230  -7.924  0.00  0.00     0.087 H 
ATOM     22  H   LIG d   1       5.764  -8.745  -7.487  0.00  0.00     0.087 H 
ENDROOT
BRANCH   1  23
ATOM     23  C   LIG d   1       5.806  -7.342  -5.303  0.00  0.00     0.044 C 
ATOM     24  H   LIG d   1       5.526  -6.647  -4.498  0.00  0.00     0.049 H 
ATOM     25  H   LIG d   1       6.886  -7.260  -5.497  0.00  0.00     0.049 H 
BRANCH  23  26
ATOM     26  C   LIG d   1       5.475  -8.752  -4.888  0.00  0.00     0.055 A 
ATOM     27  N   LIG d   1       4.218  -9.092  -4.682  0.00  0.00    -0.259 NA
ATOM     28  C   LIG d   1       3.882 -10.315  -4.316  0.00  0.00     0.028 A 
ATOM     29  C   LIG d   1       4.845 -11.290  -4.138  0.00  0.00    -0.044 A 
ATOM     30  H   LIG d   1       2.842 -10.557  -4.156  0.00  0.00     0.083 H 
ATOM     31  C   LIG d   1       6.178 -10.968  -4.347  0.00  0.00    -0.059 A 
ATOM     32  H   LIG d   1       4.563 -12.288  -3.842  0.00  0.00     0.063 H 
ATOM     33  C   LIG d   1       6.493  -9.672  -4.724  0.00  0.00    -0.039 A 
ATOM     34  H   LIG d   1       6.952 -11.710  -4.215  0.00  0.00     0.062 H 
ATOM     35  H   LIG d   1       7.521  -9.386  -4.891  0.00  0.00     0.064 H 
ENDBRANCH  23  26
ENDBRANCH   1  23
BRANCH  11  36
ATOM     36  C   LIG d   1       3.568  -0.256  -6.330  0.00  0.00    -0.021 A 
ATOM     37  C   LIG d   1       2.601   0.283  -5.475  0.00  0.00    -0.053 A 
ATOM     38  C   LIG d   1       2.920   0.548  -4.161  0.00  0.00    -0.047 A 
ATOM     39  H   LIG d   1       1.607   0.490  -5.842  0.00  0.00     0.062 H 
ATOM     40  C   LIG d   1       4.195   0.284  -3.686  0.00  0.00     0.018 A 
ATOM     41  H   LIG d   1       2.174   0.963  -3.498  0.00  0.00     0.063 H 
ATOM     42  C   LIG d   1       5.158  -0.249  -4.527  0.00  0.00    -0.047 A 
ATOM     43 BR   LIG d   1       4.623   0.653  -1.882  0.00  0.00    -0.050 Br
ATOM     44  C   LIG d   1       4.852  -0.526  -5.842  0.00  0.00    -0.053 A 
ATOM     45  H   LIG d   1       6.149  -0.452  -4.151  0.00  0.00     0.063 H 
ATOM     46  H   LIG d   1       5.603  -0.945  -6.496  0.00  0.00     0.062 H 
ENDBRANCH  11  36
TORSDOF 3
ENDMDL
