MODEL 1
REMARK VINA RESULT:      -4.1      0.000      0.000
REMARK  1 active torsions:
REMARK  status: ('A' for Active; 'I' for Inactive)
REMARK    1  A    between atoms: C_3  and  N_6 
ROOT
ATOM      1  C   LIG d   1       3.902  -2.149  -2.506  0.00  0.00    -0.048 A 
ATOM      2  C   LIG d   1       3.423  -0.853  -2.573  0.00  0.00     0.024 A 
ATOM      3  C   LIG d   1       3.650  -0.125  -3.694  0.00  0.00     0.311 A 
ATOM      4  S   LIG d   1       4.577  -1.274  -4.698  0.00  0.00    -0.023 SA
ATOM      5  C   LIG d   1       4.592  -2.649  -3.559  0.00  0.00    -0.018 A 
ATOM      6  H   LIG d   1       3.730  -2.751  -1.626  0.00  0.00     0.062 H 
ATOM      7  H   LIG d   1       2.874  -0.429  -1.745  0.00  0.00     0.069 H 
ATOM      8  H   LIG d   1       5.038  -3.625  -3.679  0.00  0.00     0.070 H 
ENDROOT
BRANCH   3   9
ATOM      9  N   LIG d   1       3.241   1.263  -4.002  0.00  0.00     0.087 N 
ATOM     10  O   LIG d   1       2.545   1.491  -4.974  0.00  0.00     0.042 OA
ATOM     11  O   LIG d   1       3.597   2.178  -3.280  0.00  0.00    -0.576 OA
ENDBRANCH   3   9
TORSDOF 1
ENDMDL
MODEL 2
REMARK VINA RESULT:      -4.1      2.043      2.054
REMARK  1 active torsions:
REMARK  status: ('A' for Active; 'I' for Inactive)
REMARK    1  A    between atoms: C_3  and  N_6 
ROOT
ATOM      1  C   LIG d   1       4.019  -2.567  -2.806  0.00  0.00    -0.048 A 
ATOM      2  C   LIG d   1       4.130  -1.316  -2.227  0.00  0.00     0.024 A 
ATOM      3  C   LIG d   1       4.977  -0.411  -2.774  0.00  0.00     0.311 A 
ATOM      4  S   LIG d   1       5.663  -1.328  -4.143  0.00  0.00    -0.023 SA
ATOM      5  C   LIG d   1       4.767  -2.854  -3.898  0.00  0.00    -0.018 A 
ATOM      6  H   LIG d   1       3.348  -3.304  -2.391  0.00  0.00     0.062 H 
ATOM      7  H   LIG d   1       3.549  -1.064  -1.352  0.00  0.00     0.069 H 
ATOM      8  H   LIG d   1       4.813  -3.768  -4.471  0.00  0.00     0.070 H 
ENDROOT
BRANCH   3   9
ATOM      9  N   LIG d   1       5.265   0.976  -2.344  0.00  0.00     0.087 N 
ATOM     10  O   LIG d   1       5.936   1.706  -3.051  0.00  0.00     0.042 OA
ATOM     11  O   LIG d   1       4.825   1.389  -1.286  0.00  0.00    -0.576 OA
ENDBRANCH   3   9
TORSDOF 1
ENDMDL
MODEL 3
REMARK VINA RESULT:      -3.9      3.343      3.704
REMARK  1 active torsions:
REMARK  status: ('A' for Active; 'I' for Inactive)
REMARK    1  A    between atoms: C_3  and  N_6 
ROOT
ATOM      1  C   LIG d   1       4.387   0.817  -1.750  0.00  0.00    -0.048 A 
ATOM      2  C   LIG d   1       4.869  -0.458  -1.982  0.00  0.00     0.024 A 
ATOM      3  C   LIG d   1       4.563  -1.074  -3.151  0.00  0.00     0.311 A 
ATOM      4  S   LIG d   1       3.555   0.155  -3.962  0.00  0.00    -0.023 SA
ATOM      5  C   LIG d   1       3.616   1.410  -2.693  0.00  0.00    -0.018 A 
ATOM      6  H   LIG d   1       4.620   1.331  -0.829  0.00  0.00     0.062 H 
ATOM      7  H   LIG d   1       5.482  -0.955  -1.244  0.00  0.00     0.069 H 
ATOM      8  H   LIG d   1       3.155   2.386  -2.680  0.00  0.00     0.070 H 
ENDROOT
BRANCH   3   9
ATOM      9  N   LIG d   1       4.958  -2.418  -3.627  0.00  0.00     0.087 N 
ATOM     10  O   LIG d   1       4.129  -3.306  -3.699  0.00  0.00     0.042 OA
ATOM     11  O   LIG d   1       6.112  -2.635  -3.951  0.00  0.00    -0.576 OA
ENDBRANCH   3   9
TORSDOF 1
ENDMDL
MODEL 4
REMARK VINA RESULT:      -3.8      1.580      1.746
REMARK  1 active torsions:
REMARK  status: ('A' for Active; 'I' for Inactive)
REMARK    1  A    between atoms: C_3  and  N_6 
ROOT
ATOM      1  C   LIG d   1       4.383  -2.730  -3.187  0.00  0.00    -0.048 A 
ATOM      2  C   LIG d   1       4.379  -1.599  -2.391  0.00  0.00     0.024 A 
ATOM      3  C   LIG d   1       4.467  -0.381  -2.978  0.00  0.00     0.311 A 
ATOM      4  S   LIG d   1       4.574  -0.812  -4.707  0.00  0.00    -0.023 SA
ATOM      5  C   LIG d   1       4.485  -2.586  -4.531  0.00  0.00    -0.018 A 
ATOM      6  H   LIG d   1       4.309  -3.712  -2.744  0.00  0.00     0.062 H 
ATOM      7  H   LIG d   1       4.303  -1.687  -1.317  0.00  0.00     0.069 H 
ATOM      8  H   LIG d   1       4.509  -3.347  -5.296  0.00  0.00     0.070 H 
ENDROOT
BRANCH   3   9
ATOM      9  N   LIG d   1       4.479   0.958  -2.348  0.00  0.00     0.087 N 
ATOM     10  O   LIG d   1       3.435   1.470  -1.985  0.00  0.00     0.042 OA
ATOM     11  O   LIG d   1       5.533   1.548  -2.189  0.00  0.00    -0.576 OA
ENDBRANCH   3   9
TORSDOF 1
ENDMDL
MODEL 5
REMARK VINA RESULT:      -3.8      3.061      3.354
REMARK  1 active torsions:
REMARK  status: ('A' for Active; 'I' for Inactive)
REMARK    1  A    between atoms: C_3  and  N_6 
ROOT
ATOM      1  C   LIG d   1       4.234   0.455  -1.891  0.00  0.00    -0.048 A 
ATOM      2  C   LIG d   1       5.150   1.281  -2.518  0.00  0.00     0.024 A 
ATOM      3  C   LIG d   1       6.141   0.723  -3.255  0.00  0.00     0.311 A 
ATOM      4  S   LIG d   1       5.803  -1.020  -3.068  0.00  0.00    -0.023 SA
ATOM      5  C   LIG d   1       4.360  -0.887  -2.026  0.00  0.00    -0.018 A 
ATOM      6  H   LIG d   1       3.433   0.875  -1.302  0.00  0.00     0.062 H 
ATOM      7  H   LIG d   1       5.075   2.354  -2.422  0.00  0.00     0.069 H 
ATOM      8  H   LIG d   1       3.747  -1.673  -1.610  0.00  0.00     0.070 H 
ENDROOT
BRANCH   3   9
ATOM      9  N   LIG d   1       7.225   1.386  -4.014  0.00  0.00     0.087 N 
ATOM     10  O   LIG d   1       7.248   1.316  -5.229  0.00  0.00     0.042 OA
ATOM     11  O   LIG d   1       8.091   2.006  -3.423  0.00  0.00    -0.576 OA
ENDBRANCH   3   9
TORSDOF 1
ENDMDL
MODEL 6
REMARK VINA RESULT:      -3.7      2.563      2.949
REMARK  1 active torsions:
REMARK  status: ('A' for Active; 'I' for Inactive)
REMARK    1  A    between atoms: C_3  and  N_6 
ROOT
ATOM      1  C   LIG d   1       3.722  -1.774  -2.526  0.00  0.00    -0.048 A 
ATOM      2  C   LIG d   1       5.026  -1.334  -2.661  0.00  0.00     0.024 A 
ATOM      3  C   LIG d   1       5.257  -0.126  -3.230  0.00  0.00     0.311 A 
ATOM      4  S   LIG d   1       3.602   0.425  -3.610  0.00  0.00    -0.023 SA
ATOM      5  C   LIG d   1       2.714  -0.988  -2.977  0.00  0.00    -0.018 A 
ATOM      6  H   LIG d   1       3.511  -2.731  -2.072  0.00  0.00     0.062 H 
ATOM      7  H   LIG d   1       5.848  -1.943  -2.315  0.00  0.00     0.069 H 
ATOM      8  H   LIG d   1       1.650  -1.170  -2.959  0.00  0.00     0.070 H 
ENDROOT
BRANCH   3   9
ATOM      9  N   LIG d   1       6.546   0.557  -3.478  0.00  0.00     0.087 N 
ATOM     10  O   LIG d   1       6.644   1.758  -3.302  0.00  0.00     0.042 OA
ATOM     11  O   LIG d   1       7.512  -0.083  -3.855  0.00  0.00    -0.576 OA
ENDBRANCH   3   9
TORSDOF 1
ENDMDL
MODEL 7
REMARK VINA RESULT:      -3.4      2.218      2.628
REMARK  1 active torsions:
REMARK  status: ('A' for Active; 'I' for Inactive)
REMARK    1  A    between atoms: C_3  and  N_6 
ROOT
ATOM      1  C   LIG d   1       4.190  -1.903  -2.271  0.00  0.00    -0.048 A 
ATOM      2  C   LIG d   1       4.107  -2.018  -3.646  0.00  0.00     0.024 A 
ATOM      3  C   LIG d   1       4.231  -0.905  -4.409  0.00  0.00     0.311 A 
ATOM      4  S   LIG d   1       4.459   0.364  -3.174  0.00  0.00    -0.023 SA
ATOM      5  C   LIG d   1       4.383  -0.678  -1.725  0.00  0.00    -0.018 A 
ATOM      6  H   LIG d   1       4.099  -2.776  -1.641  0.00  0.00     0.062 H 
ATOM      7  H   LIG d   1       3.948  -2.983  -4.106  0.00  0.00     0.069 H 
ATOM      8  H   LIG d   1       4.467  -0.402  -0.685  0.00  0.00     0.070 H 
ENDROOT
BRANCH   3   9
ATOM      9  N   LIG d   1       4.182  -0.773  -5.882  0.00  0.00     0.087 N 
ATOM     10  O   LIG d   1       4.379  -1.747  -6.587  0.00  0.00     0.042 OA
ATOM     11  O   LIG d   1       3.941   0.307  -6.390  0.00  0.00    -0.576 OA
ENDBRANCH   3   9
TORSDOF 1
ENDMDL
MODEL 8
REMARK VINA RESULT:      -3.3      9.933     10.284
REMARK  1 active torsions:
REMARK  status: ('A' for Active; 'I' for Inactive)
REMARK    1  A    between atoms: C_3  and  N_6 
ROOT
ATOM      1  C   LIG d   1       6.821 -10.197  -2.028  0.00  0.00    -0.048 A 
ATOM      2  C   LIG d   1       5.468 -10.478  -2.082  0.00  0.00     0.024 A 
ATOM      3  C   LIG d   1       4.780 -10.180  -3.211  0.00  0.00     0.311 A 
ATOM      4  S   LIG d   1       6.053  -9.469  -4.242  0.00  0.00    -0.023 SA
ATOM      5  C   LIG d   1       7.417  -9.624  -3.101  0.00  0.00    -0.018 A 
ATOM      6  H   LIG d   1       7.393 -10.429  -1.141  0.00  0.00     0.062 H 
ATOM      7  H   LIG d   1       4.968 -10.930  -1.238  0.00  0.00     0.069 H 
ATOM      8  H   LIG d   1       8.449  -9.334  -3.232  0.00  0.00     0.070 H 
ENDROOT
BRANCH   3   9
ATOM      9  N   LIG d   1       3.345 -10.386  -3.510  0.00  0.00     0.087 N 
ATOM     10  O   LIG d   1       2.509  -9.655  -3.012  0.00  0.00     0.042 OA
ATOM     11  O   LIG d   1       3.001 -11.284  -4.258  0.00  0.00    -0.576 OA
ENDBRANCH   3   9
TORSDOF 1
ENDMDL
MODEL 9
REMARK VINA RESULT:      -3.2     10.445     11.036
REMARK  1 active torsions:
REMARK  status: ('A' for Active; 'I' for Inactive)
REMARK    1  A    between atoms: C_3  and  N_6 
ROOT
ATOM      1  C   LIG d   1       6.714 -11.788  -3.942  0.00  0.00    -0.048 A 
ATOM      2  C   LIG d   1       5.388 -11.592  -4.284  0.00  0.00     0.024 A 
ATOM      3  C   LIG d   1       4.574 -10.945  -3.416  0.00  0.00     0.311 A 
ATOM      4  S   LIG d   1       5.681 -10.600  -2.059  0.00  0.00    -0.023 SA
ATOM      5  C   LIG d   1       7.157 -11.335  -2.745  0.00  0.00    -0.018 A 
ATOM      6  H   LIG d   1       7.384 -12.297  -4.619  0.00  0.00     0.062 H 
ATOM      7  H   LIG d   1       5.008 -11.948  -5.231  0.00  0.00     0.069 H 
ATOM      8  H   LIG d   1       8.145 -11.403  -2.315  0.00  0.00     0.070 H 
ENDROOT
BRANCH   3   9
ATOM      9  N   LIG d   1       3.137 -10.615  -3.554  0.00  0.00     0.087 N 
ATOM     10  O   LIG d   1       2.689  -9.613  -3.026  0.00  0.00     0.042 OA
ATOM     11  O   LIG d   1       2.404 -11.343  -4.199  0.00  0.00    -0.576 OA
ENDBRANCH   3   9
TORSDOF 1
ENDMDL
MODEL 10
REMARK VINA RESULT:      -3.1      5.769      6.313
REMARK  1 active torsions:
REMARK  status: ('A' for Active; 'I' for Inactive)
REMARK    1  A    between atoms: C_3  and  N_6 
ROOT
ATOM      1  C   LIG d   1       1.546  -0.977 -10.722  0.00  0.00    -0.048 A 
ATOM      2  C   LIG d   1       1.709  -0.369  -9.491  0.00  0.00     0.024 A 
ATOM      3  C   LIG d   1       2.766   0.458  -9.301  0.00  0.00     0.311 A 
ATOM      4  S   LIG d   1       3.582   0.384 -10.887  0.00  0.00    -0.023 SA
ATOM      5  C   LIG d   1       2.454  -0.737 -11.699  0.00  0.00    -0.018 A 
ATOM      6  H   LIG d   1       0.709  -1.637 -10.901  0.00  0.00     0.062 H 
ATOM      7  H   LIG d   1       1.002  -0.548  -8.694  0.00  0.00     0.069 H 
ATOM      8  H   LIG d   1       2.488  -1.124 -12.706  0.00  0.00     0.070 H 
ENDROOT
BRANCH   3   9
ATOM      9  N   LIG d   1       3.148   1.219  -8.090  0.00  0.00     0.087 N 
ATOM     10  O   LIG d   1       2.842   2.393  -7.987  0.00  0.00     0.042 OA
ATOM     11  O   LIG d   1       3.765   0.669  -7.195  0.00  0.00    -0.576 OA
ENDBRANCH   3   9
TORSDOF 1
ENDMDL
