MODEL 1
REMARK VINA RESULT:      -6.0      0.000      0.000
REMARK  11 active torsions:
REMARK  status: ('A' for Active; 'I' for Inactive)
REMARK    1  A    between atoms: C_1  and  C_2 
REMARK    2  A    between atoms: C_4  and  O_25 
REMARK    3  A    between atoms: C_5  and  C_10 
REMARK    4  A    between atoms: C_6  and  O_9 
REMARK    5  A    between atoms: C_10  and  C_12 
REMARK    6  A    between atoms: C_13  and  C_21 
REMARK    7  A    between atoms: C_15  and  O_20 
REMARK    8  A    between atoms: C_17  and  O_18 
REMARK    9  A    between atoms: O_18  and  C_19 
REMARK   10  A    between atoms: C_21  and  O_23 
REMARK   11  A    between atoms: O_23  and  C_24 
ROOT
ATOM      1  C   LIG d   1       4.001  -1.808  -8.213  0.00  0.00     0.078 A 
ATOM      2  C   LIG d   1       3.241  -0.650  -8.479  0.00  0.00     0.077 A 
ATOM      3  C   LIG d   1       2.128  -0.732  -9.306  0.00  0.00    -0.005 A 
ATOM      4  C   LIG d   1       1.759  -1.954  -9.858  0.00  0.00     0.121 A 
ATOM      5  C   LIG d   1       2.501  -3.096  -9.596  0.00  0.00     0.022 A 
ATOM      6  C   LIG d   1       3.618  -3.031  -8.776  0.00  0.00     0.135 A 
ATOM      7  H   LIG d   1       1.546   0.153  -9.515  0.00  0.00     0.066 H 
ATOM      8  H   LIG d   1       2.207  -4.040 -10.030  0.00  0.00     0.069 H 
ENDROOT
BRANCH   1   9
ATOM      9  C   LIG d   1       5.188  -1.732  -7.342  0.00  0.00     0.204 C 
ATOM     10  O   LIG d   1       6.303  -1.764  -7.829  0.00  0.00    -0.286 OA
BRANCH   9  11
ATOM     11  C   LIG d   1       5.024  -1.609  -5.885  0.00  0.00     0.106 A 
ATOM     12  C   LIG d   1       4.429  -2.647  -5.151  0.00  0.00     0.132 A 
ATOM     13  C   LIG d   1       4.281  -2.521  -3.779  0.00  0.00    -0.015 A 
ATOM     14  C   LIG d   1       4.715  -1.379  -3.133  0.00  0.00    -0.025 A 
ATOM     15  H   LIG d   1       3.822  -3.319  -3.213  0.00  0.00     0.066 H 
ATOM     16  C   LIG d   1       5.304  -0.351  -3.846  0.00  0.00     0.086 A 
ATOM     17  C   LIG d   1       5.469  -0.457  -5.218  0.00  0.00     0.150 A 
ATOM     18 CL   LIG d   1       5.846   1.077  -3.019  0.00  0.00    -0.080 Cl
BRANCH  12  19
ATOM     19  O   LIG d   1       4.001  -3.769  -5.782  0.00  0.00    -0.506 OA
ATOM     20  H   LIG d   1       3.053  -3.931  -5.696  0.00  0.00     0.292 HD
ENDBRANCH  12  19
BRANCH  14  21
ATOM     21  C   LIG d   1       4.547  -1.254  -1.640  0.00  0.00    -0.038 C 
ATOM     22  H   LIG d   1       4.597  -0.203  -1.357  0.00  0.00     0.028 H 
ATOM     23  H   LIG d   1       3.581  -1.665  -1.348  0.00  0.00     0.028 H 
ATOM     24  H   LIG d   1       5.343  -1.803  -1.138  0.00  0.00     0.028 H 
ENDBRANCH  14  21
BRANCH  17  25
ATOM     25  O   LIG d   1       6.052   0.551  -5.915  0.00  0.00    -0.504 OA
ATOM     26  H   LIG d   1       6.944   0.771  -5.614  0.00  0.00     0.292 HD
ENDBRANCH  17  25
ENDBRANCH   9  11
ENDBRANCH   1   9
BRANCH   6  27
ATOM     27  O   LIG d   1       4.340  -4.152  -8.522  0.00  0.00    -0.494 OA
BRANCH  27  28
ATOM     28  C   LIG d   1       3.736  -5.402  -8.860  0.00  0.00     0.079 C 
ATOM     29  H   LIG d   1       4.512  -6.119  -9.129  0.00  0.00     0.066 H 
ATOM     30  H   LIG d   1       3.175  -5.777  -8.003  0.00  0.00     0.066 H 
ATOM     31  H   LIG d   1       3.062  -5.262  -9.704  0.00  0.00     0.066 H 
ENDBRANCH  27  28
ENDBRANCH   6  27
BRANCH   2  32
ATOM     32  C   LIG d   1       3.631   0.647  -7.885  0.00  0.00     0.340 C 
ATOM     33  O   LIG d   1       3.049   1.065  -6.904  0.00  0.00    -0.245 OA
BRANCH  32  34
ATOM     34  O   LIG d   1       4.629   1.366  -8.433  0.00  0.00    -0.464 OA
BRANCH  34  35
ATOM     35  C   LIG d   1       4.251   2.517  -9.233  0.00  0.00     0.082 C 
ATOM     36  H   LIG d   1       3.781   2.180 -10.156  0.00  0.00     0.066 H 
ATOM     37  H   LIG d   1       3.549   3.135  -8.671  0.00  0.00     0.066 H 
ATOM     38  H   LIG d   1       5.140   3.102  -9.470  0.00  0.00     0.066 H 
ENDBRANCH  34  35
ENDBRANCH  32  34
ENDBRANCH   2  32
BRANCH   4  39
ATOM     39  O   LIG d   1       0.667  -2.029 -10.661  0.00  0.00    -0.507 OA
ATOM     40  H   LIG d   1      -0.172  -2.057 -10.182  0.00  0.00     0.292 HD
ENDBRANCH   4  39
TORSDOF 11
ENDMDL
MODEL 2
REMARK VINA RESULT:      -5.5      1.369      3.533
REMARK  11 active torsions:
REMARK  status: ('A' for Active; 'I' for Inactive)
REMARK    1  A    between atoms: C_1  and  C_2 
REMARK    2  A    between atoms: C_4  and  O_25 
REMARK    3  A    between atoms: C_5  and  C_10 
REMARK    4  A    between atoms: C_6  and  O_9 
REMARK    5  A    between atoms: C_10  and  C_12 
REMARK    6  A    between atoms: C_13  and  C_21 
REMARK    7  A    between atoms: C_15  and  O_20 
REMARK    8  A    between atoms: C_17  and  O_18 
REMARK    9  A    between atoms: O_18  and  C_19 
REMARK   10  A    between atoms: C_21  and  O_23 
REMARK   11  A    between atoms: O_23  and  C_24 
ROOT
ATOM      1  C   LIG d   1       3.622  -0.714  -8.270  0.00  0.00     0.078 A 
ATOM      2  C   LIG d   1       3.573  -2.093  -8.561  0.00  0.00     0.077 A 
ATOM      3  C   LIG d   1       2.600  -2.580  -9.424  0.00  0.00    -0.005 A 
ATOM      4  C   LIG d   1       1.687  -1.709 -10.008  0.00  0.00     0.121 A 
ATOM      5  C   LIG d   1       1.736  -0.351  -9.729  0.00  0.00     0.022 A 
ATOM      6  C   LIG d   1       2.697   0.152  -8.865  0.00  0.00     0.135 A 
ATOM      7  H   LIG d   1       2.556  -3.636  -9.646  0.00  0.00     0.066 H 
ATOM      8  H   LIG d   1       1.022   0.318 -10.188  0.00  0.00     0.069 H 
ENDROOT
BRANCH   1   9
ATOM      9  C   LIG d   1       4.646  -0.186  -7.351  0.00  0.00     0.204 C 
ATOM     10  O   LIG d   1       5.533   0.532  -7.774  0.00  0.00    -0.286 OA
BRANCH   9  11
ATOM     11  C   LIG d   1       4.594  -0.523  -5.919  0.00  0.00     0.106 A 
ATOM     12  C   LIG d   1       3.423  -0.291  -5.181  0.00  0.00     0.132 A 
ATOM     13  C   LIG d   1       3.384  -0.611  -3.834  0.00  0.00    -0.015 A 
ATOM     14  C   LIG d   1       4.493  -1.158  -3.216  0.00  0.00    -0.025 A 
ATOM     15  H   LIG d   1       2.483  -0.432  -3.265  0.00  0.00     0.066 H 
ATOM     16  C   LIG d   1       5.652  -1.392  -3.933  0.00  0.00     0.086 A 
ATOM     17  C   LIG d   1       5.712  -1.085  -5.284  0.00  0.00     0.150 A 
ATOM     18 CL   LIG d   1       7.036  -2.081  -3.142  0.00  0.00    -0.080 Cl
BRANCH  12  19
ATOM     19  O   LIG d   1       2.332   0.246  -5.785  0.00  0.00    -0.506 OA
ATOM     20  H   LIG d   1       1.880   0.916  -5.256  0.00  0.00     0.292 HD
ENDBRANCH  12  19
BRANCH  14  21
ATOM     21  C   LIG d   1       4.438  -1.502  -1.749  0.00  0.00    -0.038 C 
ATOM     22  H   LIG d   1       3.868  -0.740  -1.219  0.00  0.00     0.028 H 
ATOM     23  H   LIG d   1       3.958  -2.472  -1.621  0.00  0.00     0.028 H 
ATOM     24  H   LIG d   1       5.451  -1.542  -1.348  0.00  0.00     0.028 H 
ENDBRANCH  14  21
BRANCH  17  25
ATOM     25  O   LIG d   1       6.848  -1.321  -5.987  0.00  0.00    -0.504 OA
ATOM     26  H   LIG d   1       6.764  -1.153  -6.935  0.00  0.00     0.292 HD
ENDBRANCH  17  25
ENDBRANCH   9  11
ENDBRANCH   1   9
BRANCH   6  27
ATOM     27  O   LIG d   1       2.740   1.481  -8.597  0.00  0.00    -0.494 OA
BRANCH  27  28
ATOM     28  C   LIG d   1       3.284   2.331  -9.610  0.00  0.00     0.079 C 
ATOM     29  H   LIG d   1       2.474   2.854 -10.118  0.00  0.00     0.066 H 
ATOM     30  H   LIG d   1       3.957   3.056  -9.152  0.00  0.00     0.066 H 
ATOM     31  H   LIG d   1       3.835   1.727 -10.331  0.00  0.00     0.066 H 
ENDBRANCH  27  28
ENDBRANCH   6  27
BRANCH   2  32
ATOM     32  C   LIG d   1       4.548  -3.018  -7.944  0.00  0.00     0.340 C 
ATOM     33  O   LIG d   1       5.684  -3.076  -8.371  0.00  0.00    -0.245 OA
BRANCH  32  34
ATOM     34  O   LIG d   1       4.177  -3.797  -6.910  0.00  0.00    -0.464 OA
BRANCH  34  35
ATOM     35  C   LIG d   1       3.930  -5.198  -7.195  0.00  0.00     0.082 C 
ATOM     36  H   LIG d   1       4.176  -5.796  -6.319  0.00  0.00     0.066 H 
ATOM     37  H   LIG d   1       2.879  -5.338  -7.447  0.00  0.00     0.066 H 
ATOM     38  H   LIG d   1       4.549  -5.513  -8.035  0.00  0.00     0.066 H 
ENDBRANCH  34  35
ENDBRANCH  32  34
ENDBRANCH   2  32
BRANCH   4  39
ATOM     39  O   LIG d   1       0.743  -2.190 -10.856  0.00  0.00    -0.507 OA
ATOM     40  H   LIG d   1       0.485  -1.569 -11.551  0.00  0.00     0.292 HD
ENDBRANCH   4  39
TORSDOF 11
ENDMDL
MODEL 3
REMARK VINA RESULT:      -5.4      1.252      3.499
REMARK  11 active torsions:
REMARK  status: ('A' for Active; 'I' for Inactive)
REMARK    1  A    between atoms: C_1  and  C_2 
REMARK    2  A    between atoms: C_4  and  O_25 
REMARK    3  A    between atoms: C_5  and  C_10 
REMARK    4  A    between atoms: C_6  and  O_9 
REMARK    5  A    between atoms: C_10  and  C_12 
REMARK    6  A    between atoms: C_13  and  C_21 
REMARK    7  A    between atoms: C_15  and  O_20 
REMARK    8  A    between atoms: C_17  and  O_18 
REMARK    9  A    between atoms: O_18  and  C_19 
REMARK   10  A    between atoms: C_21  and  O_23 
REMARK   11  A    between atoms: O_23  and  C_24 
ROOT
ATOM      1  C   LIG d   1       3.807  -1.199  -8.451  0.00  0.00     0.078 A 
ATOM      2  C   LIG d   1       3.402  -2.493  -8.838  0.00  0.00     0.077 A 
ATOM      3  C   LIG d   1       2.311  -2.649  -9.682  0.00  0.00    -0.005 A 
ATOM      4  C   LIG d   1       1.629  -1.532 -10.154  0.00  0.00     0.121 A 
ATOM      5  C   LIG d   1       2.027  -0.258  -9.780  0.00  0.00     0.022 A 
ATOM      6  C   LIG d   1       3.112  -0.084  -8.933  0.00  0.00     0.135 A 
ATOM      7  H   LIG d   1       1.995  -3.639  -9.978  0.00  0.00     0.066 H 
ATOM      8  H   LIG d   1       1.491   0.604 -10.151  0.00  0.00     0.069 H 
ENDROOT
BRANCH   1   9
ATOM      9  C   LIG d   1       4.960  -1.022  -7.550  0.00  0.00     0.204 C 
ATOM     10  O   LIG d   1       6.039  -0.686  -8.002  0.00  0.00    -0.286 OA
BRANCH   9  11
ATOM     11  C   LIG d   1       4.805  -1.244  -6.104  0.00  0.00     0.106 A 
ATOM     12  C   LIG d   1       5.473  -2.307  -5.476  0.00  0.00     0.132 A 
ATOM     13  C   LIG d   1       5.321  -2.507  -4.114  0.00  0.00    -0.015 A 
ATOM     14  C   LIG d   1       4.513  -1.665  -3.373  0.00  0.00    -0.025 A 
ATOM     15  H   LIG d   1       5.835  -3.325  -3.630  0.00  0.00     0.066 H 
ATOM     16  C   LIG d   1       3.850  -0.614  -3.980  0.00  0.00     0.086 A 
ATOM     17  C   LIG d   1       3.993  -0.391  -5.340  0.00  0.00     0.150 A 
ATOM     18 CL   LIG d   1       2.840   0.434  -3.033  0.00  0.00    -0.080 Cl
BRANCH  12  19
ATOM     19  O   LIG d   1       6.268  -3.135  -6.202  0.00  0.00    -0.506 OA
ATOM     20  H   LIG d   1       6.070  -3.140  -7.147  0.00  0.00     0.292 HD
ENDBRANCH  12  19
BRANCH  14  21
ATOM     21  C   LIG d   1       4.354  -1.894  -1.891  0.00  0.00    -0.038 C 
ATOM     22  H   LIG d   1       3.826  -2.833  -1.724  0.00  0.00     0.028 H 
ATOM     23  H   LIG d   1       5.337  -1.942  -1.423  0.00  0.00     0.028 H 
ATOM     24  H   LIG d   1       3.783  -1.074  -1.456  0.00  0.00     0.028 H 
ENDBRANCH  14  21
BRANCH  17  25
ATOM     25  O   LIG d   1       3.346   0.644  -5.933  0.00  0.00    -0.504 OA
ATOM     26  H   LIG d   1       3.933   1.276  -6.369  0.00  0.00     0.292 HD
ENDBRANCH  17  25
ENDBRANCH   9  11
ENDBRANCH   1   9
BRANCH   6  27
ATOM     27  O   LIG d   1       3.497   1.166  -8.571  0.00  0.00    -0.494 OA
BRANCH  27  28
ATOM     28  C   LIG d   1       3.504   2.164  -9.594  0.00  0.00     0.079 C 
ATOM     29  H   LIG d   1       2.523   2.205 -10.068  0.00  0.00     0.066 H 
ATOM     30  H   LIG d   1       3.736   3.134  -9.153  0.00  0.00     0.066 H 
ATOM     31  H   LIG d   1       4.257   1.914 -10.340  0.00  0.00     0.066 H 
ENDBRANCH  27  28
ENDBRANCH   6  27
BRANCH   2  32
ATOM     32  C   LIG d   1       4.132  -3.680  -8.341  0.00  0.00     0.340 C 
ATOM     33  O   LIG d   1       5.179  -4.009  -8.860  0.00  0.00    -0.245 OA
BRANCH  32  34
ATOM     34  O   LIG d   1       3.634  -4.396  -7.315  0.00  0.00    -0.464 OA
BRANCH  34  35
ATOM     35  C   LIG d   1       4.140  -5.746  -7.146  0.00  0.00     0.082 C 
ATOM     36  H   LIG d   1       3.695  -6.397  -7.897  0.00  0.00     0.066 H 
ATOM     37  H   LIG d   1       5.224  -5.745  -7.261  0.00  0.00     0.066 H 
ATOM     38  H   LIG d   1       3.881  -6.109  -6.151  0.00  0.00     0.066 H 
ENDBRANCH  34  35
ENDBRANCH  32  34
ENDBRANCH   2  32
BRANCH   4  39
ATOM     39  O   LIG d   1       0.566  -1.691 -10.983  0.00  0.00    -0.507 OA
ATOM     40  H   LIG d   1       0.668  -1.255 -11.840  0.00  0.00     0.292 HD
ENDBRANCH   4  39
TORSDOF 11
ENDMDL
MODEL 4
REMARK VINA RESULT:      -5.3      2.551      6.349
REMARK  11 active torsions:
REMARK  status: ('A' for Active; 'I' for Inactive)
REMARK    1  A    between atoms: C_1  and  C_2 
REMARK    2  A    between atoms: C_4  and  O_25 
REMARK    3  A    between atoms: C_5  and  C_10 
REMARK    4  A    between atoms: C_6  and  O_9 
REMARK    5  A    between atoms: C_10  and  C_12 
REMARK    6  A    between atoms: C_13  and  C_21 
REMARK    7  A    between atoms: C_15  and  O_20 
REMARK    8  A    between atoms: C_17  and  O_18 
REMARK    9  A    between atoms: O_18  and  C_19 
REMARK   10  A    between atoms: C_21  and  O_23 
REMARK   11  A    between atoms: O_23  and  C_24 
ROOT
ATOM      1  C   LIG d   1       5.301  -0.757  -5.723  0.00  0.00     0.078 A 
ATOM      2  C   LIG d   1       5.556  -1.807  -4.816  0.00  0.00     0.077 A 
ATOM      3  C   LIG d   1       6.865  -2.106  -4.461  0.00  0.00    -0.005 A 
ATOM      4  C   LIG d   1       7.917  -1.364  -4.988  0.00  0.00     0.121 A 
ATOM      5  C   LIG d   1       7.670  -0.328  -5.875  0.00  0.00     0.022 A 
ATOM      6  C   LIG d   1       6.369  -0.019  -6.245  0.00  0.00     0.135 A 
ATOM      7  H   LIG d   1       7.065  -2.912  -3.771  0.00  0.00     0.066 H 
ATOM      8  H   LIG d   1       8.493   0.242  -6.279  0.00  0.00     0.069 H 
ENDROOT
BRANCH   1   9
ATOM      9  C   LIG d   1       3.916  -0.434  -6.112  0.00  0.00     0.204 C 
ATOM     10  O   LIG d   1       3.117  -0.066  -5.271  0.00  0.00    -0.286 OA
BRANCH   9  11
ATOM     11  C   LIG d   1       3.501  -0.552  -7.519  0.00  0.00     0.106 A 
ATOM     12  C   LIG d   1       3.133   0.591  -8.245  0.00  0.00     0.132 A 
ATOM     13  C   LIG d   1       2.744   0.470  -9.569  0.00  0.00    -0.015 A 
ATOM     14  C   LIG d   1       2.717  -0.772 -10.175  0.00  0.00    -0.025 A 
ATOM     15  H   LIG d   1       2.461   1.349 -10.129  0.00  0.00     0.066 H 
ATOM     16  C   LIG d   1       3.077  -1.906  -9.470  0.00  0.00     0.086 A 
ATOM     17  C   LIG d   1       3.476  -1.807  -8.146  0.00  0.00     0.150 A 
ATOM     18 CL   LIG d   1       3.037  -3.458 -10.247  0.00  0.00    -0.080 Cl
BRANCH  12  19
ATOM     19  O   LIG d   1       3.160   1.812  -7.653  0.00  0.00    -0.506 OA
ATOM     20  H   LIG d   1       2.600   2.471  -8.085  0.00  0.00     0.292 HD
ENDBRANCH  12  19
BRANCH  14  21
ATOM     21  C   LIG d   1       2.290  -0.892 -11.617  0.00  0.00    -0.038 C 
ATOM     22  H   LIG d   1       3.035  -1.467 -12.168  0.00  0.00     0.028 H 
ATOM     23  H   LIG d   1       1.327  -1.398 -11.670  0.00  0.00     0.028 H 
ATOM     24  H   LIG d   1       2.204   0.102 -12.054  0.00  0.00     0.028 H 
ENDBRANCH  14  21
BRANCH  17  25
ATOM     25  O   LIG d   1       3.834  -2.920  -7.457  0.00  0.00    -0.504 OA
ATOM     26  H   LIG d   1       3.087  -3.460  -7.167  0.00  0.00     0.292 HD
ENDBRANCH  17  25
ENDBRANCH   9  11
ENDBRANCH   1   9
BRANCH   6  27
ATOM     27  O   LIG d   1       6.133   0.997  -7.113  0.00  0.00    -0.494 OA
BRANCH  27  28
ATOM     28  C   LIG d   1       6.859   0.980  -8.345  0.00  0.00     0.079 C 
ATOM     29  H   LIG d   1       6.466   1.749  -9.009  0.00  0.00     0.066 H 
ATOM     30  H   LIG d   1       7.914   1.174  -8.146  0.00  0.00     0.066 H 
ATOM     31  H   LIG d   1       6.751   0.003  -8.815  0.00  0.00     0.066 H 
ENDBRANCH  27  28
ENDBRANCH   6  27
BRANCH   2  32
ATOM     32  C   LIG d   1       4.436  -2.591  -4.252  0.00  0.00     0.340 C 
ATOM     33  O   LIG d   1       4.208  -3.709  -4.668  0.00  0.00    -0.245 OA
BRANCH  32  34
ATOM     34  O   LIG d   1       3.669  -2.065  -3.279  0.00  0.00    -0.464 OA
BRANCH  34  35
ATOM     35  C   LIG d   1       4.342  -1.643  -2.063  0.00  0.00     0.082 C 
ATOM     36  H   LIG d   1       4.556  -0.576  -2.118  0.00  0.00     0.066 H 
ATOM     37  H   LIG d   1       3.700  -1.841  -1.205  0.00  0.00     0.066 H 
ATOM     38  H   LIG d   1       5.275  -2.195  -1.954  0.00  0.00     0.066 H 
ENDBRANCH  34  35
ENDBRANCH  32  34
ENDBRANCH   2  32
BRANCH   4  39
ATOM     39  O   LIG d   1       9.194  -1.658  -4.632  0.00  0.00    -0.507 OA
ATOM     40  H   LIG d   1       9.494  -1.204  -3.833  0.00  0.00     0.292 HD
ENDBRANCH   4  39
TORSDOF 11
ENDMDL
MODEL 5
REMARK VINA RESULT:      -5.1      1.990      4.237
REMARK  11 active torsions:
REMARK  status: ('A' for Active; 'I' for Inactive)
REMARK    1  A    between atoms: C_1  and  C_2 
REMARK    2  A    between atoms: C_4  and  O_25 
REMARK    3  A    between atoms: C_5  and  C_10 
REMARK    4  A    between atoms: C_6  and  O_9 
REMARK    5  A    between atoms: C_10  and  C_12 
REMARK    6  A    between atoms: C_13  and  C_21 
REMARK    7  A    between atoms: C_15  and  O_20 
REMARK    8  A    between atoms: C_17  and  O_18 
REMARK    9  A    between atoms: O_18  and  C_19 
REMARK   10  A    between atoms: C_21  and  O_23 
REMARK   11  A    between atoms: O_23  and  C_24 
ROOT
ATOM      1  C   LIG d   1       5.130  -3.346  -6.609  0.00  0.00     0.078 A 
ATOM      2  C   LIG d   1       4.499  -4.596  -6.776  0.00  0.00     0.077 A 
ATOM      3  C   LIG d   1       3.654  -4.800  -7.859  0.00  0.00    -0.005 A 
ATOM      4  C   LIG d   1       3.442  -3.780  -8.780  0.00  0.00     0.121 A 
ATOM      5  C   LIG d   1       4.065  -2.552  -8.622  0.00  0.00     0.022 A 
ATOM      6  C   LIG d   1       4.908  -2.328  -7.543  0.00  0.00     0.135 A 
ATOM      7  H   LIG d   1       3.165  -5.755  -7.989  0.00  0.00     0.066 H 
ATOM      8  H   LIG d   1       3.894  -1.765  -9.342  0.00  0.00     0.069 H 
ENDROOT
BRANCH   1   9
ATOM      9  C   LIG d   1       6.024  -3.116  -5.460  0.00  0.00     0.204 C 
ATOM     10  O   LIG d   1       7.041  -3.773  -5.338  0.00  0.00    -0.286 OA
BRANCH   9  11
ATOM     11  C   LIG d   1       5.690  -2.087  -4.462  0.00  0.00     0.106 A 
ATOM     12  C   LIG d   1       4.686  -2.323  -3.511  0.00  0.00     0.132 A 
ATOM     13  C   LIG d   1       4.380  -1.348  -2.577  0.00  0.00    -0.015 A 
ATOM     14  C   LIG d   1       5.059  -0.144  -2.578  0.00  0.00    -0.025 A 
ATOM     15  H   LIG d   1       3.606  -1.529  -1.845  0.00  0.00     0.066 H 
ATOM     16  C   LIG d   1       6.052   0.100  -3.510  0.00  0.00     0.086 A 
ATOM     17  C   LIG d   1       6.380  -0.864  -4.450  0.00  0.00     0.150 A 
ATOM     18 CL   LIG d   1       6.897   1.617  -3.497  0.00  0.00    -0.080 Cl
BRANCH  12  19
ATOM     19  O   LIG d   1       4.016  -3.504  -3.507  0.00  0.00    -0.506 OA
ATOM     20  H   LIG d   1       3.980  -3.932  -2.641  0.00  0.00     0.292 HD
ENDBRANCH  12  19
BRANCH  14  21
ATOM     21  C   LIG d   1       4.717   0.910  -1.556  0.00  0.00    -0.038 C 
ATOM     22  H   LIG d   1       5.045   1.885  -1.917  0.00  0.00     0.028 H 
ATOM     23  H   LIG d   1       3.639   0.925  -1.397  0.00  0.00     0.028 H 
ATOM     24  H   LIG d   1       5.220   0.683  -0.617  0.00  0.00     0.028 H 
ENDBRANCH  14  21
BRANCH  17  25
ATOM     25  O   LIG d   1       7.357  -0.625  -5.360  0.00  0.00    -0.504 OA
ATOM     26  H   LIG d   1       8.017   0.018  -5.067  0.00  0.00     0.292 HD
ENDBRANCH  17  25
ENDBRANCH   9  11
ENDBRANCH   1   9
BRANCH   6  27
ATOM     27  O   LIG d   1       5.516  -1.124  -7.394  0.00  0.00    -0.494 OA
BRANCH  27  28
ATOM     28  C   LIG d   1       4.854   0.011  -7.958  0.00  0.00     0.079 C 
ATOM     29  H   LIG d   1       4.104   0.379  -7.258  0.00  0.00     0.066 H 
ATOM     30  H   LIG d   1       5.584   0.795  -8.155  0.00  0.00     0.066 H 
ATOM     31  H   LIG d   1       4.369  -0.279  -8.890  0.00  0.00     0.066 H 
ENDBRANCH  27  28
ENDBRANCH   6  27
BRANCH   2  32
ATOM     32  C   LIG d   1       4.730  -5.682  -5.800  0.00  0.00     0.340 C 
ATOM     33  O   LIG d   1       3.965  -5.834  -4.869  0.00  0.00    -0.245 OA
BRANCH  32  34
ATOM     34  O   LIG d   1       5.788  -6.503  -5.942  0.00  0.00    -0.464 OA
BRANCH  34  35
ATOM     35  C   LIG d   1       5.561  -7.919  -5.715  0.00  0.00     0.082 C 
ATOM     36  H   LIG d   1       5.016  -8.054  -4.782  0.00  0.00     0.066 H 
ATOM     37  H   LIG d   1       4.979  -8.329  -6.540  0.00  0.00     0.066 H 
ATOM     38  H   LIG d   1       6.519  -8.435  -5.654  0.00  0.00     0.066 H 
ENDBRANCH  34  35
ENDBRANCH  32  34
ENDBRANCH   2  32
BRANCH   4  39
ATOM     39  O   LIG d   1       2.620  -3.988  -9.840  0.00  0.00    -0.507 OA
ATOM     40  H   LIG d   1       1.935  -4.652  -9.682  0.00  0.00     0.292 HD
ENDBRANCH   4  39
TORSDOF 11
ENDMDL
MODEL 6
REMARK VINA RESULT:      -5.0      3.350      5.394
REMARK  11 active torsions:
REMARK  status: ('A' for Active; 'I' for Inactive)
REMARK    1  A    between atoms: C_1  and  C_2 
REMARK    2  A    between atoms: C_4  and  O_25 
REMARK    3  A    between atoms: C_5  and  C_10 
REMARK    4  A    between atoms: C_6  and  O_9 
REMARK    5  A    between atoms: C_10  and  C_12 
REMARK    6  A    between atoms: C_13  and  C_21 
REMARK    7  A    between atoms: C_15  and  O_20 
REMARK    8  A    between atoms: C_17  and  O_18 
REMARK    9  A    between atoms: O_18  and  C_19 
REMARK   10  A    between atoms: C_21  and  O_23 
REMARK   11  A    between atoms: O_23  and  C_24 
ROOT
ATOM      1  C   LIG d   1       8.287   0.737  -6.311  0.00  0.00     0.078 A 
ATOM      2  C   LIG d   1       9.043   1.928  -6.308  0.00  0.00     0.077 A 
ATOM      3  C   LIG d   1       8.900   2.836  -7.349  0.00  0.00    -0.005 A 
ATOM      4  C   LIG d   1       8.007   2.576  -8.383  0.00  0.00     0.121 A 
ATOM      5  C   LIG d   1       7.258   1.409  -8.387  0.00  0.00     0.022 A 
ATOM      6  C   LIG d   1       7.391   0.489  -7.357  0.00  0.00     0.135 A 
ATOM      7  H   LIG d   1       9.481   3.747  -7.353  0.00  0.00     0.066 H 
ATOM      8  H   LIG d   1       6.567   1.216  -9.194  0.00  0.00     0.069 H 
ENDROOT
BRANCH   1   9
ATOM      9  C   LIG d   1       8.434  -0.236  -5.214  0.00  0.00     0.204 C 
ATOM     10  O   LIG d   1       9.531  -0.689  -4.945  0.00  0.00    -0.286 OA
BRANCH   9  11
ATOM     11  C   LIG d   1       7.255  -0.656  -4.439  0.00  0.00     0.106 A 
ATOM     12  C   LIG d   1       6.747  -1.957  -4.575  0.00  0.00     0.132 A 
ATOM     13  C   LIG d   1       5.638  -2.342  -3.840  0.00  0.00    -0.015 A 
ATOM     14  C   LIG d   1       5.030  -1.450  -2.977  0.00  0.00    -0.025 A 
ATOM     15  H   LIG d   1       5.245  -3.344  -3.944  0.00  0.00     0.066 H 
ATOM     16  C   LIG d   1       5.522  -0.165  -2.835  0.00  0.00     0.086 A 
ATOM     17  C   LIG d   1       6.636   0.240  -3.555  0.00  0.00     0.150 A 
ATOM     18 CL   LIG d   1       4.748   0.943  -1.745  0.00  0.00    -0.080 Cl
BRANCH  12  19
ATOM     19  O   LIG d   1       7.342  -2.836  -5.421  0.00  0.00    -0.506 OA
ATOM     20  H   LIG d   1       8.303  -2.749  -5.466  0.00  0.00     0.292 HD
ENDBRANCH  12  19
BRANCH  14  21
ATOM     21  C   LIG d   1       3.822  -1.880  -2.184  0.00  0.00    -0.038 C 
ATOM     22  H   LIG d   1       3.832  -1.386  -1.213  0.00  0.00     0.028 H 
ATOM     23  H   LIG d   1       2.916  -1.605  -2.724  0.00  0.00     0.028 H 
ATOM     24  H   LIG d   1       3.847  -2.960  -2.042  0.00  0.00     0.028 H 
ENDBRANCH  14  21
BRANCH  17  25
ATOM     25  O   LIG d   1       7.120   1.499  -3.410  0.00  0.00    -0.504 OA
ATOM     26  H   LIG d   1       7.900   1.556  -2.840  0.00  0.00     0.292 HD
ENDBRANCH  17  25
ENDBRANCH   9  11
ENDBRANCH   1   9
BRANCH   6  27
ATOM     27  O   LIG d   1       6.655  -0.651  -7.366  0.00  0.00    -0.494 OA
BRANCH  27  28
ATOM     28  C   LIG d   1       5.278  -0.531  -7.731  0.00  0.00     0.079 C 
ATOM     29  H   LIG d   1       4.725  -0.069  -6.913  0.00  0.00     0.066 H 
ATOM     30  H   LIG d   1       5.193   0.088  -8.624  0.00  0.00     0.066 H 
ATOM     31  H   LIG d   1       4.870  -1.521  -7.932  0.00  0.00     0.066 H 
ENDBRANCH  27  28
ENDBRANCH   6  27
BRANCH   2  32
ATOM     32  C   LIG d   1       9.988   2.206  -5.205  0.00  0.00     0.340 C 
ATOM     33  O   LIG d   1      11.177   2.015  -5.363  0.00  0.00    -0.245 OA
BRANCH  32  34
ATOM     34  O   LIG d   1       9.531   2.669  -4.026  0.00  0.00    -0.464 OA
BRANCH  34  35
ATOM     35  C   LIG d   1      10.488   2.766  -2.939  0.00  0.00     0.082 C 
ATOM     36  H   LIG d   1      10.441   3.762  -2.501  0.00  0.00     0.066 H 
ATOM     37  H   LIG d   1      10.250   2.022  -2.179  0.00  0.00     0.066 H 
ATOM     38  H   LIG d   1      11.492   2.584  -3.322  0.00  0.00     0.066 H 
ENDBRANCH  34  35
ENDBRANCH  32  34
ENDBRANCH   2  32
BRANCH   4  39
ATOM     39  O   LIG d   1       7.868   3.470  -9.395  0.00  0.00    -0.507 OA
ATOM     40  H   LIG d   1       8.055   3.105 -10.271  0.00  0.00     0.292 HD
ENDBRANCH   4  39
TORSDOF 11
ENDMDL
MODEL 7
REMARK VINA RESULT:      -4.9     11.556     13.719
REMARK  11 active torsions:
REMARK  status: ('A' for Active; 'I' for Inactive)
REMARK    1  A    between atoms: C_1  and  C_2 
REMARK    2  A    between atoms: C_4  and  O_25 
REMARK    3  A    between atoms: C_5  and  C_10 
REMARK    4  A    between atoms: C_6  and  O_9 
REMARK    5  A    between atoms: C_10  and  C_12 
REMARK    6  A    between atoms: C_13  and  C_21 
REMARK    7  A    between atoms: C_15  and  O_20 
REMARK    8  A    between atoms: C_17  and  O_18 
REMARK    9  A    between atoms: O_18  and  C_19 
REMARK   10  A    between atoms: C_21  and  O_23 
REMARK   11  A    between atoms: O_23  and  C_24 
ROOT
ATOM      1  C   LIG d   1      10.511   7.130  -1.337  0.00  0.00     0.078 A 
ATOM      2  C   LIG d   1      11.076   7.053  -2.627  0.00  0.00     0.077 A 
ATOM      3  C   LIG d   1      12.010   6.066  -2.911  0.00  0.00    -0.005 A 
ATOM      4  C   LIG d   1      12.377   5.150  -1.931  0.00  0.00     0.121 A 
ATOM      5  C   LIG d   1      11.820   5.219  -0.663  0.00  0.00     0.022 A 
ATOM      6  C   LIG d   1      10.889   6.202  -0.360  0.00  0.00     0.135 A 
ATOM      7  H   LIG d   1      12.449   6.006  -3.896  0.00  0.00     0.066 H 
ATOM      8  H   LIG d   1      12.111   4.503   0.092  0.00  0.00     0.069 H 
ENDROOT
BRANCH   1   9
ATOM      9  C   LIG d   1       9.523   8.177  -1.022  0.00  0.00     0.204 C 
ATOM     10  O   LIG d   1       8.338   7.903  -0.978  0.00  0.00    -0.286 OA
BRANCH   9  11
ATOM     11  C   LIG d   1       9.970   9.554  -0.755  0.00  0.00     0.106 A 
ATOM     12  C   LIG d   1      10.768   9.833   0.365  0.00  0.00     0.132 A 
ATOM     13  C   LIG d   1      11.183  11.132   0.607  0.00  0.00    -0.015 A 
ATOM     14  C   LIG d   1      10.813  12.152  -0.250  0.00  0.00    -0.025 A 
ATOM     15  H   LIG d   1      11.797  11.349   1.469  0.00  0.00     0.066 H 
ATOM     16  C   LIG d   1      10.028  11.889  -1.357  0.00  0.00     0.086 A 
ATOM     17  C   LIG d   1       9.606  10.596  -1.622  0.00  0.00     0.150 A 
ATOM     18 CL   LIG d   1       9.573  13.182  -2.423  0.00  0.00    -0.080 Cl
BRANCH  12  19
ATOM     19  O   LIG d   1      11.133   8.834   1.208  0.00  0.00    -0.506 OA
ATOM     20  H   LIG d   1      11.570   9.139   2.014  0.00  0.00     0.292 HD
ENDBRANCH  12  19
BRANCH  14  21
ATOM     21  C   LIG d   1      11.271  13.563   0.025  0.00  0.00    -0.038 C 
ATOM     22  H   LIG d   1      11.887  13.912  -0.804  0.00  0.00     0.028 H 
ATOM     23  H   LIG d   1      10.402  14.212   0.131  0.00  0.00     0.028 H 
ATOM     24  H   LIG d   1      11.855  13.583   0.944  0.00  0.00     0.028 H 
ENDBRANCH  14  21
BRANCH  17  25
ATOM     25  O   LIG d   1       8.840  10.338  -2.712  0.00  0.00    -0.504 OA
ATOM     26  H   LIG d   1       9.346  10.117  -3.505  0.00  0.00     0.292 HD
ENDBRANCH  17  25
ENDBRANCH   9  11
ENDBRANCH   1   9
BRANCH   6  27
ATOM     27  O   LIG d   1      10.346   6.264   0.882  0.00  0.00    -0.494 OA
BRANCH  27  28
ATOM     28  C   LIG d   1      10.974   5.485   1.904  0.00  0.00     0.079 C 
ATOM     29  H   LIG d   1      10.212   5.063   2.558  0.00  0.00     0.066 H 
ATOM     30  H   LIG d   1      11.548   4.680   1.444  0.00  0.00     0.066 H 
ATOM     31  H   LIG d   1      11.641   6.121   2.486  0.00  0.00     0.066 H 
ENDBRANCH  27  28
ENDBRANCH   6  27
BRANCH   2  32
ATOM     32  C   LIG d   1      10.681   8.024  -3.670  0.00  0.00     0.340 C 
ATOM     33  O   LIG d   1      11.400   8.969  -3.923  0.00  0.00    -0.245 OA
BRANCH  32  34
ATOM     34  O   LIG d   1       9.524   7.860  -4.340  0.00  0.00    -0.464 OA
BRANCH  34  35
ATOM     35  C   LIG d   1       9.456   8.407  -5.683  0.00  0.00     0.082 C 
ATOM     36  H   LIG d   1      10.260   7.989  -6.287  0.00  0.00     0.066 H 
ATOM     37  H   LIG d   1       8.495   8.152  -6.130  0.00  0.00     0.066 H 
ATOM     38  H   LIG d   1       9.560   9.491  -5.639  0.00  0.00     0.066 H 
ENDBRANCH  34  35
ENDBRANCH  32  34
ENDBRANCH   2  32
BRANCH   4  39
ATOM     39  O   LIG d   1      13.286   4.184  -2.216  0.00  0.00    -0.507 OA
ATOM     40  H   LIG d   1      13.927   4.026  -1.510  0.00  0.00     0.292 HD
ENDBRANCH   4  39
TORSDOF 11
ENDMDL
MODEL 8
REMARK VINA RESULT:      -4.9     11.059     14.256
REMARK  11 active torsions:
REMARK  status: ('A' for Active; 'I' for Inactive)
REMARK    1  A    between atoms: C_1  and  C_2 
REMARK    2  A    between atoms: C_4  and  O_25 
REMARK    3  A    between atoms: C_5  and  C_10 
REMARK    4  A    between atoms: C_6  and  O_9 
REMARK    5  A    between atoms: C_10  and  C_12 
REMARK    6  A    between atoms: C_13  and  C_21 
REMARK    7  A    between atoms: C_15  and  O_20 
REMARK    8  A    between atoms: C_17  and  O_18 
REMARK    9  A    between atoms: O_18  and  C_19 
REMARK   10  A    between atoms: C_21  and  O_23 
REMARK   11  A    between atoms: O_23  and  C_24 
ROOT
ATOM      1  C   LIG d   1      10.966   8.409   0.428  0.00  0.00     0.078 A 
ATOM      2  C   LIG d   1      10.152   8.894  -0.617  0.00  0.00     0.077 A 
ATOM      3  C   LIG d   1       9.835  10.245  -0.671  0.00  0.00    -0.005 A 
ATOM      4  C   LIG d   1      10.330  11.117   0.293  0.00  0.00     0.121 A 
ATOM      5  C   LIG d   1      11.135  10.645   1.318  0.00  0.00     0.022 A 
ATOM      6  C   LIG d   1      11.457   9.298   1.391  0.00  0.00     0.135 A 
ATOM      7  H   LIG d   1       9.208  10.621  -1.467  0.00  0.00     0.066 H 
ATOM      8  H   LIG d   1      11.515  11.330   2.063  0.00  0.00     0.069 H 
ENDROOT
BRANCH   1   9
ATOM      9  C   LIG d   1      11.304   6.976   0.500  0.00  0.00     0.204 C 
ATOM     10  O   LIG d   1      10.781   6.269   1.341  0.00  0.00    -0.286 OA
BRANCH   9  11
ATOM     11  C   LIG d   1      12.268   6.399  -0.451  0.00  0.00     0.106 A 
ATOM     12  C   LIG d   1      13.581   6.889  -0.511  0.00  0.00     0.132 A 
ATOM     13  C   LIG d   1      14.481   6.337  -1.408  0.00  0.00    -0.015 A 
ATOM     14  C   LIG d   1      14.088   5.309  -2.244  0.00  0.00    -0.025 A 
ATOM     15  H   LIG d   1      15.492   6.714  -1.456  0.00  0.00     0.066 H 
ATOM     16  C   LIG d   1      12.797   4.817  -2.194  0.00  0.00     0.086 A 
ATOM     17  C   LIG d   1      11.882   5.349  -1.298  0.00  0.00     0.150 A 
ATOM     18 CL   LIG d   1      12.320   3.524  -3.250  0.00  0.00    -0.080 Cl
BRANCH  12  19
ATOM     19  O   LIG d   1      13.970   7.899   0.309  0.00  0.00    -0.506 OA
ATOM     20  H   LIG d   1      14.918   7.911   0.495  0.00  0.00     0.292 HD
ENDBRANCH  12  19
BRANCH  14  21
ATOM     21  C   LIG d   1      15.076   4.718  -3.218  0.00  0.00    -0.038 C 
ATOM     22  H   LIG d   1      14.599   4.598  -4.190  0.00  0.00     0.028 H 
ATOM     23  H   LIG d   1      15.934   5.382  -3.313  0.00  0.00     0.028 H 
ATOM     24  H   LIG d   1      15.407   3.745  -2.854  0.00  0.00     0.028 H 
ENDBRANCH  14  21
BRANCH  17  25
ATOM     25  O   LIG d   1      10.616   4.862  -1.247  0.00  0.00    -0.504 OA
ATOM     26  H   LIG d   1       9.950   5.524  -1.019  0.00  0.00     0.292 HD
ENDBRANCH  17  25
ENDBRANCH   9  11
ENDBRANCH   1   9
BRANCH   6  27
ATOM     27  O   LIG d   1      12.246   8.842   2.397  0.00  0.00    -0.494 OA
BRANCH  27  28
ATOM     28  C   LIG d   1      12.588   9.773   3.426  0.00  0.00     0.079 C 
ATOM     29  H   LIG d   1      13.667   9.765   3.579  0.00  0.00     0.066 H 
ATOM     30  H   LIG d   1      12.269  10.773   3.131  0.00  0.00     0.066 H 
ATOM     31  H   LIG d   1      12.088   9.489   4.351  0.00  0.00     0.066 H 
ENDBRANCH  27  28
ENDBRANCH   6  27
BRANCH   2  32
ATOM     32  C   LIG d   1       9.631   7.968  -1.645  0.00  0.00     0.340 C 
ATOM     33  O   LIG d   1       8.718   7.214  -1.376  0.00  0.00    -0.245 OA
BRANCH  32  34
ATOM     34  O   LIG d   1      10.171   7.959  -2.879  0.00  0.00    -0.464 OA
BRANCH  34  35
ATOM     35  C   LIG d   1       9.654   6.978  -3.817  0.00  0.00     0.082 C 
ATOM     36  H   LIG d   1       9.999   7.220  -4.822  0.00  0.00     0.066 H 
ATOM     37  H   LIG d   1      10.012   5.987  -3.539  0.00  0.00     0.066 H 
ATOM     38  H   LIG d   1       8.565   6.992  -3.794  0.00  0.00     0.066 H 
ENDBRANCH  34  35
ENDBRANCH  32  34
ENDBRANCH   2  32
BRANCH   4  39
ATOM     39  O   LIG d   1      10.022  12.437   0.230  0.00  0.00    -0.507 OA
ATOM     40  H   LIG d   1       9.072  12.619   0.209  0.00  0.00     0.292 HD
ENDBRANCH   4  39
TORSDOF 11
ENDMDL
MODEL 9
REMARK VINA RESULT:      -4.9     13.444     16.448
REMARK  11 active torsions:
REMARK  status: ('A' for Active; 'I' for Inactive)
REMARK    1  A    between atoms: C_1  and  C_2 
REMARK    2  A    between atoms: C_4  and  O_25 
REMARK    3  A    between atoms: C_5  and  C_10 
REMARK    4  A    between atoms: C_6  and  O_9 
REMARK    5  A    between atoms: C_10  and  C_12 
REMARK    6  A    between atoms: C_13  and  C_21 
REMARK    7  A    between atoms: C_15  and  O_20 
REMARK    8  A    between atoms: C_17  and  O_18 
REMARK    9  A    between atoms: O_18  and  C_19 
REMARK   10  A    between atoms: C_21  and  O_23 
REMARK   11  A    between atoms: O_23  and  C_24 
ROOT
ATOM      1  C   LIG d   1      11.488   9.594   1.090  0.00  0.00     0.078 A 
ATOM      2  C   LIG d   1      11.039   8.478   0.354  0.00  0.00     0.077 A 
ATOM      3  C   LIG d   1       9.901   8.586  -0.434  0.00  0.00    -0.005 A 
ATOM      4  C   LIG d   1       9.215   9.794  -0.507  0.00  0.00     0.121 A 
ATOM      5  C   LIG d   1       9.656  10.895   0.211  0.00  0.00     0.022 A 
ATOM      6  C   LIG d   1      10.788  10.804   1.007  0.00  0.00     0.135 A 
ATOM      7  H   LIG d   1       9.551   7.732  -0.997  0.00  0.00     0.066 H 
ATOM      8  H   LIG d   1       9.116  11.829   0.149  0.00  0.00     0.069 H 
ENDROOT
BRANCH   1   9
ATOM      9  C   LIG d   1      12.691   9.490   1.935  0.00  0.00     0.204 C 
ATOM     10  O   LIG d   1      13.771   9.248   1.429  0.00  0.00    -0.286 OA
BRANCH   9  11
ATOM     11  C   LIG d   1      12.587   9.684   3.390  0.00  0.00     0.106 A 
ATOM     12  C   LIG d   1      13.080  10.856   3.984  0.00  0.00     0.132 A 
ATOM     13  C   LIG d   1      12.977  11.028   5.354  0.00  0.00    -0.015 A 
ATOM     14  C   LIG d   1      12.392  10.051   6.137  0.00  0.00    -0.025 A 
ATOM     15  H   LIG d   1      13.357  11.930   5.813  0.00  0.00     0.066 H 
ATOM     16  C   LIG d   1      11.902   8.892   5.563  0.00  0.00     0.086 A 
ATOM     17  C   LIG d   1      11.988   8.701   4.193  0.00  0.00     0.150 A 
ATOM     18 CL   LIG d   1      11.169   7.674   6.561  0.00  0.00    -0.080 Cl
BRANCH  12  19
ATOM     19  O   LIG d   1      13.655  11.818   3.218  0.00  0.00    -0.506 OA
ATOM     20  H   LIG d   1      14.551  12.054   3.492  0.00  0.00     0.292 HD
ENDBRANCH  12  19
BRANCH  14  21
ATOM     21  C   LIG d   1      12.287  10.250   7.628  0.00  0.00    -0.038 C 
ATOM     22  H   LIG d   1      11.240  10.196   7.928  0.00  0.00     0.028 H 
ATOM     23  H   LIG d   1      12.852   9.471   8.139  0.00  0.00     0.028 H 
ATOM     24  H   LIG d   1      12.690  11.226   7.894  0.00  0.00     0.028 H 
ENDBRANCH  14  21
BRANCH  17  25
ATOM     25  O   LIG d   1      11.502   7.565   3.631  0.00  0.00    -0.504 OA
ATOM     26  H   LIG d   1      10.568   7.617   3.387  0.00  0.00     0.292 HD
ENDBRANCH  17  25
ENDBRANCH   9  11
ENDBRANCH   1   9
BRANCH   6  27
ATOM     27  O   LIG d   1      11.215  11.885   1.707  0.00  0.00    -0.494 OA
BRANCH  27  28
ATOM     28  C   LIG d   1      11.352  13.112   0.986  0.00  0.00     0.079 C 
ATOM     29  H   LIG d   1      10.406  13.651   1.004  0.00  0.00     0.066 H 
ATOM     30  H   LIG d   1      12.128  13.720   1.450  0.00  0.00     0.066 H 
ATOM     31  H   LIG d   1      11.627  12.896  -0.046  0.00  0.00     0.066 H 
ENDBRANCH  27  28
ENDBRANCH   6  27
BRANCH   2  32
ATOM     32  C   LIG d   1      11.773   7.196   0.427  0.00  0.00     0.340 C 
ATOM     33  O   LIG d   1      11.429   6.345   1.222  0.00  0.00    -0.245 OA
BRANCH  32  34
ATOM     34  O   LIG d   1      12.822   6.973  -0.388  0.00  0.00    -0.464 OA
BRANCH  34  35
ATOM     35  C   LIG d   1      13.100   5.592  -0.741  0.00  0.00     0.082 C 
ATOM     36  H   LIG d   1      13.970   5.243  -0.186  0.00  0.00     0.066 H 
ATOM     37  H   LIG d   1      12.238   4.973  -0.494  0.00  0.00     0.066 H 
ATOM     38  H   LIG d   1      13.301   5.525  -1.810  0.00  0.00     0.066 H 
ENDBRANCH  34  35
ENDBRANCH  32  34
ENDBRANCH   2  32
BRANCH   4  39
ATOM     39  O   LIG d   1       8.107   9.895  -1.284  0.00  0.00    -0.507 OA
ATOM     40  H   LIG d   1       7.386   9.307  -1.019  0.00  0.00     0.292 HD
ENDBRANCH   4  39
TORSDOF 11
ENDMDL
MODEL 10
REMARK VINA RESULT:      -4.8      2.810      4.616
REMARK  11 active torsions:
REMARK  status: ('A' for Active; 'I' for Inactive)
REMARK    1  A    between atoms: C_1  and  C_2 
REMARK    2  A    between atoms: C_4  and  O_25 
REMARK    3  A    between atoms: C_5  and  C_10 
REMARK    4  A    between atoms: C_6  and  O_9 
REMARK    5  A    between atoms: C_10  and  C_12 
REMARK    6  A    between atoms: C_13  and  C_21 
REMARK    7  A    between atoms: C_15  and  O_20 
REMARK    8  A    between atoms: C_17  and  O_18 
REMARK    9  A    between atoms: O_18  and  C_19 
REMARK   10  A    between atoms: C_21  and  O_23 
REMARK   11  A    between atoms: O_23  and  C_24 
ROOT
ATOM      1  C   LIG d   1       7.272  -0.328  -7.400  0.00  0.00     0.078 A 
ATOM      2  C   LIG d   1       6.413   0.373  -8.271  0.00  0.00     0.077 A 
ATOM      3  C   LIG d   1       6.948   1.239  -9.216  0.00  0.00    -0.005 A 
ATOM      4  C   LIG d   1       8.326   1.403  -9.310  0.00  0.00     0.121 A 
ATOM      5  C   LIG d   1       9.174   0.711  -8.459  0.00  0.00     0.022 A 
ATOM      6  C   LIG d   1       8.656  -0.154  -7.506  0.00  0.00     0.135 A 
ATOM      7  H   LIG d   1       6.293   1.782  -9.882  0.00  0.00     0.066 H 
ATOM      8  H   LIG d   1      10.243   0.845  -8.539  0.00  0.00     0.069 H 
ENDROOT
BRANCH   1   9
ATOM      9  C   LIG d   1       6.715  -1.245  -6.389  0.00  0.00     0.204 C 
ATOM     10  O   LIG d   1       6.743  -2.448  -6.577  0.00  0.00    -0.286 OA
BRANCH   9  11
ATOM     11  C   LIG d   1       6.131  -0.708  -5.150  0.00  0.00     0.106 A 
ATOM     12  C   LIG d   1       6.939  -0.032  -4.223  0.00  0.00     0.132 A 
ATOM     13  C   LIG d   1       6.379   0.470  -3.060  0.00  0.00    -0.015 A 
ATOM     14  C   LIG d   1       5.030   0.307  -2.810  0.00  0.00    -0.025 A 
ATOM     15  H   LIG d   1       7.001   0.991  -2.345  0.00  0.00     0.066 H 
ATOM     16  C   LIG d   1       4.223  -0.356  -3.717  0.00  0.00     0.086 A 
ATOM     17  C   LIG d   1       4.761  -0.861  -4.890  0.00  0.00     0.150 A 
ATOM     18 CL   LIG d   1       2.529  -0.551  -3.388  0.00  0.00    -0.080 Cl
BRANCH  12  19
ATOM     19  O   LIG d   1       8.265   0.130  -4.466  0.00  0.00    -0.506 OA
ATOM     20  H   LIG d   1       8.463   0.791  -5.142  0.00  0.00     0.292 HD
ENDBRANCH  12  19
BRANCH  14  21
ATOM     21  C   LIG d   1       4.432   0.858  -1.540  0.00  0.00    -0.038 C 
ATOM     22  H   LIG d   1       4.302   0.049  -0.821  0.00  0.00     0.028 H 
ATOM     23  H   LIG d   1       5.098   1.613  -1.123  0.00  0.00     0.028 H 
ATOM     24  H   LIG d   1       3.464   1.307  -1.759  0.00  0.00     0.028 H 
ENDBRANCH  14  21
BRANCH  17  25
ATOM     25  O   LIG d   1       3.967  -1.508  -5.781  0.00  0.00    -0.504 OA
ATOM     26  H   LIG d   1       4.442  -2.120  -6.359  0.00  0.00     0.292 HD
ENDBRANCH  17  25
ENDBRANCH   9  11
ENDBRANCH   1   9
BRANCH   6  27
ATOM     27  O   LIG d   1       9.492  -0.829  -6.676  0.00  0.00    -0.494 OA
BRANCH  27  28
ATOM     28  C   LIG d   1      10.885  -0.521  -6.768  0.00  0.00     0.079 C 
ATOM     29  H   LIG d   1      11.431  -1.081  -6.008  0.00  0.00     0.066 H 
ATOM     30  H   LIG d   1      11.252  -0.795  -7.757  0.00  0.00     0.066 H 
ATOM     31  H   LIG d   1      11.031   0.546  -6.607  0.00  0.00     0.066 H 
ENDBRANCH  27  28
ENDBRANCH   6  27
BRANCH   2  32
ATOM     32  C   LIG d   1       4.948   0.193  -8.174  0.00  0.00     0.340 C 
ATOM     33  O   LIG d   1       4.267   1.041  -7.633  0.00  0.00    -0.245 OA
BRANCH  32  34
ATOM     34  O   LIG d   1       4.369  -0.910  -8.686  0.00  0.00    -0.464 OA
BRANCH  34  35
ATOM     35  C   LIG d   1       2.985  -0.794  -9.107  0.00  0.00     0.082 C 
ATOM     36  H   LIG d   1       2.541  -1.786  -9.173  0.00  0.00     0.066 H 
ATOM     37  H   LIG d   1       2.434  -0.195  -8.382  0.00  0.00     0.066 H 
ATOM     38  H   LIG d   1       2.942  -0.312 -10.084  0.00  0.00     0.066 H 
ENDBRANCH  34  35
ENDBRANCH  32  34
ENDBRANCH   2  32
BRANCH   4  39
ATOM     39  O   LIG d   1       8.843   2.246 -10.239  0.00  0.00    -0.507 OA
ATOM     40  H   LIG d   1       8.527   2.083 -11.138  0.00  0.00     0.292 HD
ENDBRANCH   4  39
TORSDOF 11
ENDMDL
