MODEL 1
REMARK VINA RESULT:      -5.4      0.000      0.000
REMARK  11 active torsions:
REMARK  status: ('A' for Active; 'I' for Inactive)
REMARK    1  A    between atoms: C_1  and  C_2 
REMARK    2  A    between atoms: C_3  and  C_18 
REMARK    3  A    between atoms: C_6  and  O_12 
REMARK    4  A    between atoms: N_10  and  C_11 
REMARK    5  A    between atoms: O_12  and  C_13 
REMARK    6  A    between atoms: C_13  and  C_15 
REMARK    7  A    between atoms: C_18  and  O_20 
REMARK    8  A    between atoms: O_20  and  C_21 
REMARK    9  A    between atoms: C_21  and  C_22 
REMARK   10  A    between atoms: C_22  and  O_23 
REMARK   11  A    between atoms: O_23  and  C_24 
ROOT
ATOM      1  C   LIG d   1       9.913   2.742  -6.522  0.00  0.00     0.030 A 
ATOM      2  C   LIG d   1       9.418   3.230  -5.347  0.00  0.00     0.087 A 
ATOM      3  C   LIG d   1       8.423   2.249  -4.874  0.00  0.00     0.018 A 
ATOM      4  C   LIG d   1       7.592   2.175  -3.759  0.00  0.00    -0.009 A 
ATOM      5  C   LIG d   1       6.752   1.090  -3.603  0.00  0.00     0.132 A 
ATOM      6  C   LIG d   1       6.736   0.074  -4.556  0.00  0.00    -0.017 A 
ATOM      7  C   LIG d   1       7.555   0.139  -5.661  0.00  0.00    -0.034 A 
ATOM      8  C   LIG d   1       8.406   1.225  -5.834  0.00  0.00     0.050 A 
ATOM      9  N   LIG d   1       9.316   1.563  -6.816  0.00  0.00    -0.346 N 
ATOM     10  H   LIG d   1       7.605   2.963  -3.020  0.00  0.00     0.066 H 
ATOM     11  H   LIG d   1       6.076  -0.771  -4.426  0.00  0.00     0.066 H 
ATOM     12  H   LIG d   1       7.535  -0.654  -6.394  0.00  0.00     0.064 H 
ENDROOT
BRANCH   2  13
ATOM     13  C   LIG d   1       9.798   4.483  -4.685  0.00  0.00     0.342 C 
ATOM     14  O   LIG d   1       9.265   5.527  -5.007  0.00  0.00    -0.245 OA
BRANCH  13  15
ATOM     15  O   LIG d   1      10.740   4.476  -3.721  0.00  0.00    -0.459 OA
BRANCH  15  16
ATOM     16  C   LIG d   1      10.285   4.539  -2.368  0.00  0.00     0.116 C 
ATOM     17  H   LIG d   1       9.198   4.466  -2.347  0.00  0.00     0.072 H 
ATOM     18  H   LIG d   1      10.716   3.713  -1.802  0.00  0.00     0.072 H 
BRANCH  16  19
ATOM     19  C   LIG d   1      10.720   5.866  -1.744  0.00  0.00     0.082 C 
ATOM     20  H   LIG d   1      11.808   5.907  -1.697  0.00  0.00     0.059 H 
ATOM     21  H   LIG d   1      10.350   6.692  -2.352  0.00  0.00     0.059 H 
BRANCH  19  22
ATOM     22  O   LIG d   1      10.182   5.970  -0.424  0.00  0.00    -0.380 OA
BRANCH  22  23
ATOM     23  C   LIG d   1      11.170   5.967   0.609  0.00  0.00     0.037 C 
ATOM     24  H   LIG d   1      11.528   4.950   0.767  0.00  0.00     0.052 H 
ATOM     25  H   LIG d   1      12.004   6.605   0.316  0.00  0.00     0.052 H 
ATOM     26  H   LIG d   1      10.731   6.345   1.532  0.00  0.00     0.052 H 
ENDBRANCH  22  23
ENDBRANCH  19  22
ENDBRANCH  16  19
ENDBRANCH  15  16
ENDBRANCH  13  15
ENDBRANCH   2  13
BRANCH   1  27
ATOM     27  C   LIG d   1      10.962   3.418  -7.368  0.00  0.00    -0.023 C 
ATOM     28  H   LIG d   1      10.734   4.481  -7.447  0.00  0.00     0.029 H 
ATOM     29  H   LIG d   1      11.940   3.290  -6.905  0.00  0.00     0.029 H 
ATOM     30  H   LIG d   1      10.969   2.973  -8.362  0.00  0.00     0.029 H 
ENDBRANCH   1  27
BRANCH   9  31
ATOM     31  C   LIG d   1       9.600   0.758  -8.006  0.00  0.00     0.012 C 
ATOM     32  H   LIG d   1       9.111   1.205  -8.872  0.00  0.00     0.046 H 
ATOM     33  H   LIG d   1      10.677   0.726  -8.175  0.00  0.00     0.046 H 
ATOM     34  H   LIG d   1       9.225  -0.255  -7.859  0.00  0.00     0.046 H 
ENDBRANCH   9  31
BRANCH   5  35
ATOM     35  O   LIG d   1       5.938   1.012  -2.516  0.00  0.00    -0.426 OA
BRANCH  35  36
ATOM     36  C   LIG d   1       4.614   1.113  -2.712  0.00  0.00     0.315 C 
ATOM     37  O   LIG d   1       4.156   2.091  -3.255  0.00  0.00    -0.250 OA
BRANCH  36  38
ATOM     38  C   LIG d   1       3.698   0.009  -2.254  0.00  0.00     0.057 A 
ATOM     39  C   LIG d   1       3.420  -1.132  -3.236  0.00  0.00    -0.039 A 
ATOM     40  C   LIG d   1       4.316  -1.370  -2.019  0.00  0.00    -0.039 A 
ATOM     41  H   LIG d   1       2.425  -1.576  -3.222  0.00  0.00     0.027 H 
ATOM     42  H   LIG d   1       3.900  -1.083  -4.212  0.00  0.00     0.027 H 
ATOM     43  H   LIG d   1       5.386  -1.479  -2.195  0.00  0.00     0.027 H 
ATOM     44  H   LIG d   1       3.911  -1.972  -1.205  0.00  0.00     0.027 H 
ATOM     45  H   LIG d   1       2.884   0.315  -1.595  0.00  0.00     0.041 H 
ENDBRANCH  36  38
ENDBRANCH  35  36
ENDBRANCH   5  35
TORSDOF 11
ENDMDL
MODEL 2
REMARK VINA RESULT:      -5.3      4.451      6.610
REMARK  11 active torsions:
REMARK  status: ('A' for Active; 'I' for Inactive)
REMARK    1  A    between atoms: C_1  and  C_2 
REMARK    2  A    between atoms: C_3  and  C_18 
REMARK    3  A    between atoms: C_6  and  O_12 
REMARK    4  A    between atoms: N_10  and  C_11 
REMARK    5  A    between atoms: O_12  and  C_13 
REMARK    6  A    between atoms: C_13  and  C_15 
REMARK    7  A    between atoms: C_18  and  O_20 
REMARK    8  A    between atoms: O_20  and  C_21 
REMARK    9  A    between atoms: C_21  and  C_22 
REMARK   10  A    between atoms: C_22  and  O_23 
REMARK   11  A    between atoms: O_23  and  C_24 
ROOT
ATOM      1  C   LIG d   1       3.687  -1.818  -8.926  0.00  0.00     0.030 A 
ATOM      2  C   LIG d   1       3.883  -0.858  -7.975  0.00  0.00     0.087 A 
ATOM      3  C   LIG d   1       4.340  -1.561  -6.761  0.00  0.00     0.018 A 
ATOM      4  C   LIG d   1       4.698  -1.146  -5.481  0.00  0.00    -0.009 A 
ATOM      5  C   LIG d   1       5.094  -2.082  -4.545  0.00  0.00     0.132 A 
ATOM      6  C   LIG d   1       5.135  -3.433  -4.879  0.00  0.00    -0.017 A 
ATOM      7  C   LIG d   1       4.782  -3.852  -6.143  0.00  0.00    -0.034 A 
ATOM      8  C   LIG d   1       4.381  -2.923  -7.097  0.00  0.00     0.050 A 
ATOM      9  N   LIG d   1       3.974  -3.038  -8.412  0.00  0.00    -0.346 N 
ATOM     10  H   LIG d   1       4.667  -0.097  -5.223  0.00  0.00     0.066 H 
ATOM     11  H   LIG d   1       5.445  -4.158  -4.142  0.00  0.00     0.066 H 
ATOM     12  H   LIG d   1       4.816  -4.902  -6.392  0.00  0.00     0.064 H 
ENDROOT
BRANCH   2  13
ATOM     13  C   LIG d   1       3.680   0.586  -8.129  0.00  0.00     0.342 C 
ATOM     14  O   LIG d   1       2.564   1.025  -8.336  0.00  0.00    -0.245 OA
BRANCH  13  15
ATOM     15  O   LIG d   1       4.729   1.427  -8.043  0.00  0.00    -0.459 OA
BRANCH  15  16
ATOM     16  C   LIG d   1       5.682   1.389  -9.108  0.00  0.00     0.116 C 
ATOM     17  H   LIG d   1       5.687   0.395  -9.555  0.00  0.00     0.072 H 
ATOM     18  H   LIG d   1       5.411   2.126  -9.864  0.00  0.00     0.072 H 
BRANCH  16  19
ATOM     19  C   LIG d   1       7.074   1.708  -8.560  0.00  0.00     0.082 C 
ATOM     20  H   LIG d   1       7.812   1.073  -9.050  0.00  0.00     0.059 H 
ATOM     21  H   LIG d   1       7.309   2.756  -8.753  0.00  0.00     0.059 H 
BRANCH  19  22
ATOM     22  O   LIG d   1       7.098   1.467  -7.152  0.00  0.00    -0.380 OA
BRANCH  22  23
ATOM     23  C   LIG d   1       7.893   0.343  -6.767  0.00  0.00     0.037 C 
ATOM     24  H   LIG d   1       8.804   0.692  -6.281  0.00  0.00     0.052 H 
ATOM     25  H   LIG d   1       7.327  -0.281  -6.075  0.00  0.00     0.052 H 
ATOM     26  H   LIG d   1       8.152  -0.237  -7.652  0.00  0.00     0.052 H 
ENDBRANCH  22  23
ENDBRANCH  19  22
ENDBRANCH  16  19
ENDBRANCH  15  16
ENDBRANCH  13  15
ENDBRANCH   2  13
BRANCH   1  27
ATOM     27  C   LIG d   1       3.216  -1.560 -10.334  0.00  0.00    -0.023 C 
ATOM     28  H   LIG d   1       2.333  -2.164 -10.538  0.00  0.00     0.029 H 
ATOM     29  H   LIG d   1       2.967  -0.504 -10.446  0.00  0.00     0.029 H 
ATOM     30  H   LIG d   1       4.007  -1.823 -11.036  0.00  0.00     0.029 H 
ENDBRANCH   1  27
BRANCH   9  31
ATOM     31  C   LIG d   1       3.871  -4.299  -9.149  0.00  0.00     0.012 C 
ATOM     32  H   LIG d   1       3.302  -4.140 -10.065  0.00  0.00     0.046 H 
ATOM     33  H   LIG d   1       4.870  -4.656  -9.400  0.00  0.00     0.046 H 
ATOM     34  H   LIG d   1       3.365  -5.041  -8.532  0.00  0.00     0.046 H 
ENDBRANCH   9  31
BRANCH   5  35
ATOM     35  O   LIG d   1       5.446  -1.683  -3.293  0.00  0.00    -0.426 OA
BRANCH  35  36
ATOM     36  C   LIG d   1       4.473  -1.262  -2.469  0.00  0.00     0.315 C 
ATOM     37  O   LIG d   1       3.514  -1.967  -2.256  0.00  0.00    -0.250 OA
BRANCH  36  38
ATOM     38  C   LIG d   1       4.576   0.088  -1.810  0.00  0.00     0.057 A 
ATOM     39  C   LIG d   1       5.117   1.246  -2.651  0.00  0.00    -0.039 A 
ATOM     40  C   LIG d   1       3.630   1.187  -2.298  0.00  0.00    -0.039 A 
ATOM     41  H   LIG d   1       5.725   1.996  -2.144  0.00  0.00     0.027 H 
ATOM     42  H   LIG d   1       5.399   1.031  -3.681  0.00  0.00     0.027 H 
ATOM     43  H   LIG d   1       2.932   0.933  -3.097  0.00  0.00     0.027 H 
ATOM     44  H   LIG d   1       3.259   1.897  -1.559  0.00  0.00     0.027 H 
ATOM     45  H   LIG d   1       4.828   0.076  -0.749  0.00  0.00     0.041 H 
ENDBRANCH  36  38
ENDBRANCH  35  36
ENDBRANCH   5  35
TORSDOF 11
ENDMDL
MODEL 3
REMARK VINA RESULT:      -5.3      5.472      8.231
REMARK  11 active torsions:
REMARK  status: ('A' for Active; 'I' for Inactive)
REMARK    1  A    between atoms: C_1  and  C_2 
REMARK    2  A    between atoms: C_3  and  C_18 
REMARK    3  A    between atoms: C_6  and  O_12 
REMARK    4  A    between atoms: N_10  and  C_11 
REMARK    5  A    between atoms: O_12  and  C_13 
REMARK    6  A    between atoms: C_13  and  C_15 
REMARK    7  A    between atoms: C_18  and  O_20 
REMARK    8  A    between atoms: O_20  and  C_21 
REMARK    9  A    between atoms: C_21  and  C_22 
REMARK   10  A    between atoms: C_22  and  O_23 
REMARK   11  A    between atoms: O_23  and  C_24 
ROOT
ATOM      1  C   LIG d   1       6.625  -4.398  -6.911  0.00  0.00     0.030 A 
ATOM      2  C   LIG d   1       5.389  -4.261  -6.347  0.00  0.00     0.087 A 
ATOM      3  C   LIG d   1       5.575  -3.456  -5.125  0.00  0.00     0.018 A 
ATOM      4  C   LIG d   1       4.713  -2.983  -4.138  0.00  0.00    -0.009 A 
ATOM      5  C   LIG d   1       5.217  -2.232  -3.094  0.00  0.00     0.132 A 
ATOM      6  C   LIG d   1       6.578  -1.948  -3.028  0.00  0.00    -0.017 A 
ATOM      7  C   LIG d   1       7.438  -2.412  -4.000  0.00  0.00    -0.034 A 
ATOM      8  C   LIG d   1       6.948  -3.169  -5.058  0.00  0.00     0.050 A 
ATOM      9  N   LIG d   1       7.548  -3.762  -6.152  0.00  0.00    -0.346 N 
ATOM     10  H   LIG d   1       3.657  -3.203  -4.191  0.00  0.00     0.066 H 
ATOM     11  H   LIG d   1       6.964  -1.361  -2.208  0.00  0.00     0.066 H 
ATOM     12  H   LIG d   1       8.492  -2.187  -3.939  0.00  0.00     0.064 H 
ENDROOT
BRANCH   2  13
ATOM     13  C   LIG d   1       4.126  -4.806  -6.856  0.00  0.00     0.342 C 
ATOM     14  O   LIG d   1       3.504  -5.617  -6.196  0.00  0.00    -0.245 OA
BRANCH  13  15
ATOM     15  O   LIG d   1       3.654  -4.408  -8.054  0.00  0.00    -0.459 OA
BRANCH  15  16
ATOM     16  C   LIG d   1       3.642  -3.003  -8.314  0.00  0.00     0.116 C 
ATOM     17  H   LIG d   1       3.155  -2.485  -7.487  0.00  0.00     0.072 H 
ATOM     18  H   LIG d   1       4.666  -2.643  -8.415  0.00  0.00     0.072 H 
BRANCH  16  19
ATOM     19  C   LIG d   1       2.875  -2.729  -9.609  0.00  0.00     0.082 C 
ATOM     20  H   LIG d   1       3.581  -2.508 -10.409  0.00  0.00     0.059 H 
ATOM     21  H   LIG d   1       2.287  -3.608  -9.875  0.00  0.00     0.059 H 
BRANCH  19  22
ATOM     22  O   LIG d   1       2.004  -1.613  -9.420  0.00  0.00    -0.380 OA
BRANCH  22  23
ATOM     23  C   LIG d   1       2.567  -0.561  -8.632  0.00  0.00     0.037 C 
ATOM     24  H   LIG d   1       3.574  -0.342  -8.985  0.00  0.00     0.052 H 
ATOM     25  H   LIG d   1       1.947   0.331  -8.721  0.00  0.00     0.052 H 
ATOM     26  H   LIG d   1       2.608  -0.873  -7.588  0.00  0.00     0.052 H 
ENDBRANCH  22  23
ENDBRANCH  19  22
ENDBRANCH  16  19
ENDBRANCH  15  16
ENDBRANCH  13  15
ENDBRANCH   2  13
BRANCH   1  27
ATOM     27  C   LIG d   1       6.919  -5.152  -8.183  0.00  0.00    -0.023 C 
ATOM     28  H   LIG d   1       6.289  -6.039  -8.233  0.00  0.00     0.029 H 
ATOM     29  H   LIG d   1       6.712  -4.511  -9.040  0.00  0.00     0.029 H 
ATOM     30  H   LIG d   1       7.967  -5.448  -8.195  0.00  0.00     0.029 H 
ENDBRANCH   1  27
BRANCH   9  31
ATOM     31  C   LIG d   1       8.980  -3.706  -6.451  0.00  0.00     0.012 C 
ATOM     32  H   LIG d   1       9.135  -3.172  -7.389  0.00  0.00     0.046 H 
ATOM     33  H   LIG d   1       9.500  -3.183  -5.648  0.00  0.00     0.046 H 
ATOM     34  H   LIG d   1       9.374  -4.718  -6.539  0.00  0.00     0.046 H 
ENDBRANCH   9  31
BRANCH   5  35
ATOM     35  O   LIG d   1       4.380  -1.768  -2.127  0.00  0.00    -0.426 OA
BRANCH  35  36
ATOM     36  C   LIG d   1       3.617  -0.701  -2.413  0.00  0.00     0.315 C 
ATOM     37  O   LIG d   1       2.581  -0.844  -3.020  0.00  0.00    -0.250 OA
BRANCH  36  38
ATOM     38  C   LIG d   1       4.051   0.674  -1.979  0.00  0.00     0.057 A 
ATOM     39  C   LIG d   1       5.133   1.369  -2.808  0.00  0.00    -0.039 A 
ATOM     40  C   LIG d   1       3.683   1.851  -2.885  0.00  0.00    -0.039 A 
ATOM     41  H   LIG d   1       5.845   2.001  -2.278  0.00  0.00     0.027 H 
ATOM     42  H   LIG d   1       5.530   0.831  -3.668  0.00  0.00     0.027 H 
ATOM     43  H   LIG d   1       3.126   1.630  -3.796  0.00  0.00     0.027 H 
ATOM     44  H   LIG d   1       3.441   2.799  -2.405  0.00  0.00     0.027 H 
ATOM     45  H   LIG d   1       4.052   0.849  -0.902  0.00  0.00     0.041 H 
ENDBRANCH  36  38
ENDBRANCH  35  36
ENDBRANCH   5  35
TORSDOF 11
ENDMDL
MODEL 4
REMARK VINA RESULT:      -5.3      4.502      7.473
REMARK  11 active torsions:
REMARK  status: ('A' for Active; 'I' for Inactive)
REMARK    1  A    between atoms: C_1  and  C_2 
REMARK    2  A    between atoms: C_3  and  C_18 
REMARK    3  A    between atoms: C_6  and  O_12 
REMARK    4  A    between atoms: N_10  and  C_11 
REMARK    5  A    between atoms: O_12  and  C_13 
REMARK    6  A    between atoms: C_13  and  C_15 
REMARK    7  A    between atoms: C_18  and  O_20 
REMARK    8  A    between atoms: O_20  and  C_21 
REMARK    9  A    between atoms: C_21  and  C_22 
REMARK   10  A    between atoms: C_22  and  O_23 
REMARK   11  A    between atoms: O_23  and  C_24 
ROOT
ATOM      1  C   LIG d   1       3.744  -2.087  -8.117  0.00  0.00     0.030 A 
ATOM      2  C   LIG d   1       4.081  -0.911  -7.511  0.00  0.00     0.087 A 
ATOM      3  C   LIG d   1       4.808  -1.271  -6.279  0.00  0.00     0.018 A 
ATOM      4  C   LIG d   1       5.397  -0.534  -5.254  0.00  0.00    -0.009 A 
ATOM      5  C   LIG d   1       6.019  -1.191  -4.211  0.00  0.00     0.132 A 
ATOM      6  C   LIG d   1       6.058  -2.583  -4.183  0.00  0.00    -0.017 A 
ATOM      7  C   LIG d   1       5.478  -3.319  -5.192  0.00  0.00    -0.034 A 
ATOM      8  C   LIG d   1       4.847  -2.673  -6.250  0.00  0.00     0.050 A 
ATOM      9  N   LIG d   1       4.188  -3.129  -7.375  0.00  0.00    -0.346 N 
ATOM     10  H   LIG d   1       5.368   0.546  -5.277  0.00  0.00     0.066 H 
ATOM     11  H   LIG d   1       6.547  -3.088  -3.363  0.00  0.00     0.066 H 
ATOM     12  H   LIG d   1       5.513  -4.398  -5.161  0.00  0.00     0.064 H 
ENDROOT
BRANCH   2  13
ATOM     13  C   LIG d   1       3.780   0.442  -7.990  0.00  0.00     0.342 C 
ATOM     14  O   LIG d   1       2.629   0.835  -8.019  0.00  0.00    -0.245 OA
BRANCH  13  15
ATOM     15  O   LIG d   1       4.778   1.250  -8.399  0.00  0.00    -0.459 OA
BRANCH  15  16
ATOM     16  C   LIG d   1       5.525   0.832  -9.544  0.00  0.00     0.116 C 
ATOM     17  H   LIG d   1       6.361   1.513  -9.700  0.00  0.00     0.072 H 
ATOM     18  H   LIG d   1       5.903  -0.177  -9.382  0.00  0.00     0.072 H 
BRANCH  16  19
ATOM     19  C   LIG d   1       4.619   0.845 -10.776  0.00  0.00     0.082 C 
ATOM     20  H   LIG d   1       3.597   0.608 -10.479  0.00  0.00     0.059 H 
ATOM     21  H   LIG d   1       4.645   1.833 -11.236  0.00  0.00     0.059 H 
BRANCH  19  22
ATOM     22  O   LIG d   1       5.079  -0.129 -11.716  0.00  0.00    -0.380 OA
BRANCH  22  23
ATOM     23  C   LIG d   1       4.084  -0.552 -12.650  0.00  0.00     0.037 C 
ATOM     24  H   LIG d   1       4.412  -1.469 -13.140  0.00  0.00     0.052 H 
ATOM     25  H   LIG d   1       3.147  -0.735 -12.125  0.00  0.00     0.052 H 
ATOM     26  H   LIG d   1       3.935   0.226 -13.398  0.00  0.00     0.052 H 
ENDBRANCH  22  23
ENDBRANCH  19  22
ENDBRANCH  16  19
ENDBRANCH  15  16
ENDBRANCH  13  15
ENDBRANCH   2  13
BRANCH   1  27
ATOM     27  C   LIG d   1       2.985  -2.208  -9.414  0.00  0.00    -0.023 C 
ATOM     28  H   LIG d   1       2.881  -1.222  -9.867  0.00  0.00     0.029 H 
ATOM     29  H   LIG d   1       3.530  -2.863 -10.094  0.00  0.00     0.029 H 
ATOM     30  H   LIG d   1       1.998  -2.626  -9.220  0.00  0.00     0.029 H 
ENDBRANCH   1  27
BRANCH   9  31
ATOM     31  C   LIG d   1       4.000  -4.540  -7.720  0.00  0.00     0.012 C 
ATOM     32  H   LIG d   1       4.929  -5.084  -7.545  0.00  0.00     0.046 H 
ATOM     33  H   LIG d   1       3.210  -4.964  -7.100  0.00  0.00     0.046 H 
ATOM     34  H   LIG d   1       3.722  -4.624  -8.770  0.00  0.00     0.046 H 
ENDBRANCH   9  31
BRANCH   5  35
ATOM     35  O   LIG d   1       6.597  -0.477  -3.208  0.00  0.00    -0.426 OA
BRANCH  35  36
ATOM     36  C   LIG d   1       6.046   0.701  -2.873  0.00  0.00     0.315 C 
ATOM     37  O   LIG d   1       6.477   1.726  -3.347  0.00  0.00    -0.250 OA
BRANCH  36  38
ATOM     38  C   LIG d   1       4.891   0.745  -1.908  0.00  0.00     0.057 A 
ATOM     39  C   LIG d   1       3.544   1.239  -2.441  0.00  0.00    -0.039 A 
ATOM     40  C   LIG d   1       3.746  -0.245  -2.130  0.00  0.00    -0.039 A 
ATOM     41  H   LIG d   1       2.914   1.814  -1.761  0.00  0.00     0.027 H 
ATOM     42  H   LIG d   1       3.494   1.532  -3.489  0.00  0.00     0.027 H 
ATOM     43  H   LIG d   1       3.829  -0.930  -2.974  0.00  0.00     0.027 H 
ATOM     44  H   LIG d   1       3.250  -0.647  -1.247  0.00  0.00     0.027 H 
ATOM     45  H   LIG d   1       5.147   0.996  -0.878  0.00  0.00     0.041 H 
ENDBRANCH  36  38
ENDBRANCH  35  36
ENDBRANCH   5  35
TORSDOF 11
ENDMDL
MODEL 5
REMARK VINA RESULT:      -5.3      4.903      6.919
REMARK  11 active torsions:
REMARK  status: ('A' for Active; 'I' for Inactive)
REMARK    1  A    between atoms: C_1  and  C_2 
REMARK    2  A    between atoms: C_3  and  C_18 
REMARK    3  A    between atoms: C_6  and  O_12 
REMARK    4  A    between atoms: N_10  and  C_11 
REMARK    5  A    between atoms: O_12  and  C_13 
REMARK    6  A    between atoms: C_13  and  C_15 
REMARK    7  A    between atoms: C_18  and  O_20 
REMARK    8  A    between atoms: O_20  and  C_21 
REMARK    9  A    between atoms: C_21  and  C_22 
REMARK   10  A    between atoms: C_22  and  O_23 
REMARK   11  A    between atoms: O_23  and  C_24 
ROOT
ATOM      1  C   LIG d   1       5.508  -1.809  -8.831  0.00  0.00     0.030 A 
ATOM      2  C   LIG d   1       5.630  -0.917  -7.804  0.00  0.00     0.087 A 
ATOM      3  C   LIG d   1       5.399  -1.678  -6.562  0.00  0.00     0.018 A 
ATOM      4  C   LIG d   1       5.387  -1.342  -5.210  0.00  0.00    -0.009 A 
ATOM      5  C   LIG d   1       5.132  -2.316  -4.265  0.00  0.00     0.132 A 
ATOM      6  C   LIG d   1       4.887  -3.629  -4.662  0.00  0.00    -0.017 A 
ATOM      7  C   LIG d   1       4.896  -3.970  -5.996  0.00  0.00    -0.034 A 
ATOM      8  C   LIG d   1       5.151  -3.001  -6.960  0.00  0.00     0.050 A 
ATOM      9  N   LIG d   1       5.221  -3.038  -8.339  0.00  0.00    -0.346 N 
ATOM     10  H   LIG d   1       5.578  -0.323  -4.903  0.00  0.00     0.066 H 
ATOM     11  H   LIG d   1       4.688  -4.384  -3.916  0.00  0.00     0.066 H 
ATOM     12  H   LIG d   1       4.704  -4.990  -6.293  0.00  0.00     0.064 H 
ENDROOT
BRANCH   2  13
ATOM     13  C   LIG d   1       5.930   0.514  -7.914  0.00  0.00     0.342 C 
ATOM     14  O   LIG d   1       7.084   0.898  -7.869  0.00  0.00    -0.245 OA
BRANCH  13  15
ATOM     15  O   LIG d   1       4.929   1.404  -8.064  0.00  0.00    -0.459 OA
BRANCH  15  16
ATOM     16  C   LIG d   1       4.839   2.074  -9.323  0.00  0.00     0.116 C 
ATOM     17  H   LIG d   1       4.766   3.149  -9.157  0.00  0.00     0.072 H 
ATOM     18  H   LIG d   1       5.729   1.858  -9.914  0.00  0.00     0.072 H 
BRANCH  16  19
ATOM     19  C   LIG d   1       3.598   1.588 -10.073  0.00  0.00     0.082 C 
ATOM     20  H   LIG d   1       3.155   2.420 -10.621  0.00  0.00     0.059 H 
ATOM     21  H   LIG d   1       3.882   0.801 -10.774  0.00  0.00     0.059 H 
BRANCH  19  22
ATOM     22  O   LIG d   1       2.648   1.073  -9.139  0.00  0.00    -0.380 OA
BRANCH  22  23
ATOM     23  C   LIG d   1       2.151  -0.226  -9.470  0.00  0.00     0.037 C 
ATOM     24  H   LIG d   1       2.829  -0.706 -10.175  0.00  0.00     0.052 H 
ATOM     25  H   LIG d   1       2.080  -0.829  -8.564  0.00  0.00     0.052 H 
ATOM     26  H   LIG d   1       1.163  -0.131  -9.921  0.00  0.00     0.052 H 
ENDBRANCH  22  23
ENDBRANCH  19  22
ENDBRANCH  16  19
ENDBRANCH  15  16
ENDBRANCH  13  15
ENDBRANCH   2  13
BRANCH   1  27
ATOM     27  C   LIG d   1       5.664  -1.475 -10.292  0.00  0.00    -0.023 C 
ATOM     28  H   LIG d   1       5.166  -0.529 -10.503  0.00  0.00     0.029 H 
ATOM     29  H   LIG d   1       6.723  -1.390 -10.534  0.00  0.00     0.029 H 
ATOM     30  H   LIG d   1       5.215  -2.264 -10.895  0.00  0.00     0.029 H 
ENDBRANCH   1  27
BRANCH   9  31
ATOM     31  C   LIG d   1       5.017  -4.237  -9.155  0.00  0.00     0.012 C 
ATOM     32  H   LIG d   1       5.860  -4.361  -9.835  0.00  0.00     0.046 H 
ATOM     33  H   LIG d   1       4.944  -5.110  -8.506  0.00  0.00     0.046 H 
ATOM     34  H   LIG d   1       4.097  -4.134  -9.730  0.00  0.00     0.046 H 
ENDBRANCH   9  31
BRANCH   5  35
ATOM     35  O   LIG d   1       5.119  -1.994  -2.944  0.00  0.00    -0.426 OA
BRANCH  35  36
ATOM     36  C   LIG d   1       4.153  -1.173  -2.504  0.00  0.00     0.315 C 
ATOM     37  O   LIG d   1       2.991  -1.468  -2.662  0.00  0.00    -0.250 OA
BRANCH  36  38
ATOM     38  C   LIG d   1       4.515   0.116  -1.814  0.00  0.00     0.057 A 
ATOM     39  C   LIG d   1       5.213   1.192  -2.647  0.00  0.00    -0.039 A 
ATOM     40  C   LIG d   1       3.754   1.377  -2.226  0.00  0.00    -0.039 A 
ATOM     41  H   LIG d   1       5.962   1.808  -2.149  0.00  0.00     0.027 H 
ATOM     42  H   LIG d   1       5.410   0.968  -3.695  0.00  0.00     0.027 H 
ATOM     43  H   LIG d   1       2.991   1.275  -2.998  0.00  0.00     0.027 H 
ATOM     44  H   LIG d   1       3.543   2.114  -1.452  0.00  0.00     0.027 H 
ATOM     45  H   LIG d   1       4.806   0.023  -0.766  0.00  0.00     0.041 H 
ENDBRANCH  36  38
ENDBRANCH  35  36
ENDBRANCH   5  35
TORSDOF 11
ENDMDL
MODEL 6
REMARK VINA RESULT:      -5.2      5.824      9.389
REMARK  11 active torsions:
REMARK  status: ('A' for Active; 'I' for Inactive)
REMARK    1  A    between atoms: C_1  and  C_2 
REMARK    2  A    between atoms: C_3  and  C_18 
REMARK    3  A    between atoms: C_6  and  O_12 
REMARK    4  A    between atoms: N_10  and  C_11 
REMARK    5  A    between atoms: O_12  and  C_13 
REMARK    6  A    between atoms: C_13  and  C_15 
REMARK    7  A    between atoms: C_18  and  O_20 
REMARK    8  A    between atoms: O_20  and  C_21 
REMARK    9  A    between atoms: C_21  and  C_22 
REMARK   10  A    between atoms: C_22  and  O_23 
REMARK   11  A    between atoms: O_23  and  C_24 
ROOT
ATOM      1  C   LIG d   1       7.904  -5.792  -5.393  0.00  0.00     0.030 A 
ATOM      2  C   LIG d   1       6.567  -5.561  -5.541  0.00  0.00     0.087 A 
ATOM      3  C   LIG d   1       6.314  -4.211  -5.001  0.00  0.00     0.018 A 
ATOM      4  C   LIG d   1       5.176  -3.420  -4.869  0.00  0.00    -0.009 A 
ATOM      5  C   LIG d   1       5.278  -2.163  -4.306  0.00  0.00     0.132 A 
ATOM      6  C   LIG d   1       6.514  -1.689  -3.872  0.00  0.00    -0.017 A 
ATOM      7  C   LIG d   1       7.644  -2.465  -3.998  0.00  0.00    -0.034 A 
ATOM      8  C   LIG d   1       7.559  -3.733  -4.563  0.00  0.00     0.050 A 
ATOM      9  N   LIG d   1       8.493  -4.720  -4.812  0.00  0.00    -0.346 N 
ATOM     10  H   LIG d   1       4.218  -3.788  -5.207  0.00  0.00     0.066 H 
ATOM     11  H   LIG d   1       6.585  -0.705  -3.432  0.00  0.00     0.066 H 
ATOM     12  H   LIG d   1       8.598  -2.088  -3.658  0.00  0.00     0.064 H 
ENDROOT
BRANCH   2  13
ATOM     13  C   LIG d   1       5.576  -6.474  -6.121  0.00  0.00     0.342 C 
ATOM     14  O   LIG d   1       5.534  -6.639  -7.325  0.00  0.00    -0.245 OA
BRANCH  13  15
ATOM     15  O   LIG d   1       4.712  -7.128  -5.320  0.00  0.00    -0.459 OA
BRANCH  15  16
ATOM     16  C   LIG d   1       4.739  -8.557  -5.364  0.00  0.00     0.116 C 
ATOM     17  H   LIG d   1       3.786  -8.949  -5.010  0.00  0.00     0.072 H 
ATOM     18  H   LIG d   1       4.908  -8.885  -6.389  0.00  0.00     0.072 H 
BRANCH  16  19
ATOM     19  C   LIG d   1       5.868  -9.073  -4.470  0.00  0.00     0.082 C 
ATOM     20  H   LIG d   1       6.607  -9.592  -5.081  0.00  0.00     0.059 H 
ATOM     21  H   LIG d   1       6.341  -8.233  -3.961  0.00  0.00     0.059 H 
BRANCH  19  22
ATOM     22  O   LIG d   1       5.332  -9.976  -3.501  0.00  0.00    -0.380 OA
BRANCH  22  23
ATOM     23  C   LIG d   1       3.905  -9.973  -3.428  0.00  0.00     0.037 C 
ATOM     24  H   LIG d   1       3.494  -9.601  -4.366  0.00  0.00     0.052 H 
ATOM     25  H   LIG d   1       3.548 -10.988  -3.251  0.00  0.00     0.052 H 
ATOM     26  H   LIG d   1       3.585  -9.329  -2.610  0.00  0.00     0.052 H 
ENDBRANCH  22  23
ENDBRANCH  19  22
ENDBRANCH  16  19
ENDBRANCH  15  16
ENDBRANCH  13  15
ENDBRANCH   2  13
BRANCH   1  27
ATOM     27  C   LIG d   1       8.617  -7.053  -5.808  0.00  0.00    -0.023 C 
ATOM     28  H   LIG d   1       8.843  -7.009  -6.873  0.00  0.00     0.029 H 
ATOM     29  H   LIG d   1       9.545  -7.148  -5.244  0.00  0.00     0.029 H 
ATOM     30  H   LIG d   1       7.980  -7.914  -5.606  0.00  0.00     0.029 H 
ENDBRANCH   1  27
BRANCH   9  31
ATOM     31  C   LIG d   1       9.919  -4.619  -4.497  0.00  0.00     0.012 C 
ATOM     32  H   LIG d   1      10.101  -3.714  -3.918  0.00  0.00     0.046 H 
ATOM     33  H   LIG d   1      10.225  -5.489  -3.915  0.00  0.00     0.046 H 
ATOM     34  H   LIG d   1      10.495  -4.581  -5.422  0.00  0.00     0.046 H 
ENDBRANCH   9  31
BRANCH   5  35
ATOM     35  O   LIG d   1       4.170  -1.386  -4.175  0.00  0.00    -0.426 OA
BRANCH  35  36
ATOM     36  C   LIG d   1       3.618  -1.275  -2.956  0.00  0.00     0.315 C 
ATOM     37  O   LIG d   1       3.322  -2.269  -2.335  0.00  0.00    -0.250 OA
BRANCH  36  38
ATOM     38  C   LIG d   1       3.367   0.086  -2.363  0.00  0.00     0.057 A 
ATOM     39  C   LIG d   1       4.551   0.799  -1.705  0.00  0.00    -0.039 A 
ATOM     40  C   LIG d   1       4.015   1.288  -3.052  0.00  0.00    -0.039 A 
ATOM     41  H   LIG d   1       4.344   1.414  -0.829  0.00  0.00     0.027 H 
ATOM     42  H   LIG d   1       5.510   0.283  -1.702  0.00  0.00     0.027 H 
ATOM     43  H   LIG d   1       4.623   1.094  -3.936  0.00  0.00     0.027 H 
ATOM     44  H   LIG d   1       3.457   2.224  -3.063  0.00  0.00     0.027 H 
ATOM     45  H   LIG d   1       2.382   0.232  -1.918  0.00  0.00     0.041 H 
ENDBRANCH  36  38
ENDBRANCH  35  36
ENDBRANCH   5  35
TORSDOF 11
ENDMDL
MODEL 7
REMARK VINA RESULT:      -5.1      6.948     10.487
REMARK  11 active torsions:
REMARK  status: ('A' for Active; 'I' for Inactive)
REMARK    1  A    between atoms: C_1  and  C_2 
REMARK    2  A    between atoms: C_3  and  C_18 
REMARK    3  A    between atoms: C_6  and  O_12 
REMARK    4  A    between atoms: N_10  and  C_11 
REMARK    5  A    between atoms: O_12  and  C_13 
REMARK    6  A    between atoms: C_13  and  C_15 
REMARK    7  A    between atoms: C_18  and  O_20 
REMARK    8  A    between atoms: O_20  and  C_21 
REMARK    9  A    between atoms: C_21  and  C_22 
REMARK   10  A    between atoms: C_22  and  O_23 
REMARK   11  A    between atoms: O_23  and  C_24 
ROOT
ATOM      1  C   LIG d   1      10.168  10.595  -1.075  0.00  0.00     0.030 A 
ATOM      2  C   LIG d   1      10.352   9.414  -0.416  0.00  0.00     0.087 A 
ATOM      3  C   LIG d   1      11.118   9.732   0.805  0.00  0.00     0.018 A 
ATOM      4  C   LIG d   1      11.606   8.973   1.865  0.00  0.00    -0.009 A 
ATOM      5  C   LIG d   1      12.304   9.591   2.884  0.00  0.00     0.132 A 
ATOM      6  C   LIG d   1      12.518  10.966   2.852  0.00  0.00    -0.017 A 
ATOM      7  C   LIG d   1      12.039  11.725   1.807  0.00  0.00    -0.034 A 
ATOM      8  C   LIG d   1      11.334  11.119   0.773  0.00  0.00     0.050 A 
ATOM      9  N   LIG d   1      10.750  11.602  -0.381  0.00  0.00    -0.346 N 
ATOM     10  H   LIG d   1      11.439   7.905   1.890  0.00  0.00     0.066 H 
ATOM     11  H   LIG d   1      13.064  11.442   3.653  0.00  0.00     0.066 H 
ATOM     12  H   LIG d   1      12.210  12.791   1.792  0.00  0.00     0.064 H 
ENDROOT
BRANCH   2  13
ATOM     13  C   LIG d   1       9.881   8.090  -0.836  0.00  0.00     0.342 C 
ATOM     14  O   LIG d   1       8.696   7.822  -0.787  0.00  0.00    -0.245 OA
BRANCH  13  15
ATOM     15  O   LIG d   1      10.762   7.170  -1.277  0.00  0.00    -0.459 OA
BRANCH  15  16
ATOM     16  C   LIG d   1      10.622   5.841  -0.771  0.00  0.00     0.116 C 
ATOM     17  H   LIG d   1       9.648   5.736  -0.293  0.00  0.00     0.072 H 
ATOM     18  H   LIG d   1      10.701   5.129  -1.593  0.00  0.00     0.072 H 
BRANCH  16  19
ATOM     19  C   LIG d   1      11.724   5.565   0.252  0.00  0.00     0.082 C 
ATOM     20  H   LIG d   1      11.352   5.778   1.254  0.00  0.00     0.059 H 
ATOM     21  H   LIG d   1      12.023   4.518   0.190  0.00  0.00     0.059 H 
BRANCH  19  22
ATOM     22  O   LIG d   1      12.851   6.398  -0.025  0.00  0.00    -0.380 OA
BRANCH  22  23
ATOM     23  C   LIG d   1      13.905   5.737  -0.728  0.00  0.00     0.037 C 
ATOM     24  H   LIG d   1      14.821   6.322  -0.645  0.00  0.00     0.052 H 
ATOM     25  H   LIG d   1      14.065   4.748  -0.297  0.00  0.00     0.052 H 
ATOM     26  H   LIG d   1      13.633   5.636  -1.779  0.00  0.00     0.052 H 
ENDBRANCH  22  23
ENDBRANCH  19  22
ENDBRANCH  16  19
ENDBRANCH  15  16
ENDBRANCH  13  15
ENDBRANCH   2  13
BRANCH   1  27
ATOM     27  C   LIG d   1       9.434  10.754  -2.381  0.00  0.00    -0.023 C 
ATOM     28  H   LIG d   1       8.369  10.881  -2.187  0.00  0.00     0.029 H 
ATOM     29  H   LIG d   1       9.814  11.630  -2.907  0.00  0.00     0.029 H 
ATOM     30  H   LIG d   1       9.588   9.867  -2.995  0.00  0.00     0.029 H 
ENDBRANCH   1  27
BRANCH   9  31
ATOM     31  C   LIG d   1      10.755  13.007  -0.795  0.00  0.00     0.012 C 
ATOM     32  H   LIG d   1      11.086  13.080  -1.831  0.00  0.00     0.046 H 
ATOM     33  H   LIG d   1       9.747  13.416  -0.708  0.00  0.00     0.046 H 
ATOM     34  H   LIG d   1      11.432  13.573  -0.156  0.00  0.00     0.046 H 
ENDBRANCH   9  31
BRANCH   5  35
ATOM     35  O   LIG d   1      12.783   8.855   3.923  0.00  0.00    -0.426 OA
BRANCH  35  36
ATOM     36  C   LIG d   1      11.951   8.586   4.942  0.00  0.00     0.315 C 
ATOM     37  O   LIG d   1      11.727   9.429   5.778  0.00  0.00    -0.250 OA
BRANCH  36  38
ATOM     38  C   LIG d   1      11.297   7.233   5.043  0.00  0.00     0.057 A 
ATOM     39  C   LIG d   1      11.982   6.180   5.917  0.00  0.00    -0.039 A 
ATOM     40  C   LIG d   1      10.687   6.842   6.391  0.00  0.00    -0.039 A 
ATOM     41  H   LIG d   1      11.926   5.142   5.591  0.00  0.00     0.027 H 
ATOM     42  H   LIG d   1      12.907   6.467   6.417  0.00  0.00     0.027 H 
ATOM     43  H   LIG d   1      10.759   7.564   7.205  0.00  0.00     0.027 H 
ATOM     44  H   LIG d   1       9.779   6.240   6.377  0.00  0.00     0.027 H 
ATOM     45  H   LIG d   1      10.790   6.886   4.142  0.00  0.00     0.041 H 
ENDBRANCH  36  38
ENDBRANCH  35  36
ENDBRANCH   5  35
TORSDOF 11
ENDMDL
MODEL 8
REMARK VINA RESULT:      -5.1      5.166      8.866
REMARK  11 active torsions:
REMARK  status: ('A' for Active; 'I' for Inactive)
REMARK    1  A    between atoms: C_1  and  C_2 
REMARK    2  A    between atoms: C_3  and  C_18 
REMARK    3  A    between atoms: C_6  and  O_12 
REMARK    4  A    between atoms: N_10  and  C_11 
REMARK    5  A    between atoms: O_12  and  C_13 
REMARK    6  A    between atoms: C_13  and  C_15 
REMARK    7  A    between atoms: C_18  and  O_20 
REMARK    8  A    between atoms: O_20  and  C_21 
REMARK    9  A    between atoms: C_21  and  C_22 
REMARK   10  A    between atoms: C_22  and  O_23 
REMARK   11  A    between atoms: O_23  and  C_24 
ROOT
ATOM      1  C   LIG d   1       6.557  -5.283  -5.623  0.00  0.00     0.030 A 
ATOM      2  C   LIG d   1       5.467  -4.504  -5.886  0.00  0.00     0.087 A 
ATOM      3  C   LIG d   1       5.754  -3.176  -5.310  0.00  0.00     0.018 A 
ATOM      4  C   LIG d   1       5.051  -1.975  -5.251  0.00  0.00    -0.009 A 
ATOM      5  C   LIG d   1       5.616  -0.883  -4.623  0.00  0.00     0.132 A 
ATOM      6  C   LIG d   1       6.883  -0.981  -4.052  0.00  0.00    -0.017 A 
ATOM      7  C   LIG d   1       7.585  -2.164  -4.106  0.00  0.00    -0.034 A 
ATOM      8  C   LIG d   1       7.031  -3.274  -4.735  0.00  0.00     0.050 A 
ATOM      9  N   LIG d   1       7.479  -4.564  -4.940  0.00  0.00    -0.346 N 
ATOM     10  H   LIG d   1       4.069  -1.900  -5.695  0.00  0.00     0.066 H 
ATOM     11  H   LIG d   1       7.317  -0.122  -3.562  0.00  0.00     0.066 H 
ATOM     12  H   LIG d   1       8.566  -2.230  -3.660  0.00  0.00     0.064 H 
ENDROOT
BRANCH   2  13
ATOM     13  C   LIG d   1       4.250  -4.907  -6.599  0.00  0.00     0.342 C 
ATOM     14  O   LIG d   1       3.314  -5.383  -5.984  0.00  0.00    -0.245 OA
BRANCH  13  15
ATOM     15  O   LIG d   1       4.169  -4.751  -7.935  0.00  0.00    -0.459 OA
BRANCH  15  16
ATOM     16  C   LIG d   1       3.673  -3.499  -8.415  0.00  0.00     0.116 C 
ATOM     17  H   LIG d   1       2.823  -3.190  -7.808  0.00  0.00     0.072 H 
ATOM     18  H   LIG d   1       4.460  -2.748  -8.347  0.00  0.00     0.072 H 
BRANCH  16  19
ATOM     19  C   LIG d   1       3.235  -3.648  -9.872  0.00  0.00     0.082 C 
ATOM     20  H   LIG d   1       2.961  -2.672 -10.271  0.00  0.00     0.059 H 
ATOM     21  H   LIG d   1       4.055  -4.064 -10.458  0.00  0.00     0.059 H 
BRANCH  19  22
ATOM     22  O   LIG d   1       2.108  -4.525  -9.943  0.00  0.00    -0.380 OA
BRANCH  22  23
ATOM     23  C   LIG d   1       2.274  -5.613 -10.855  0.00  0.00     0.037 C 
ATOM     24  H   LIG d   1       3.277  -5.583 -11.279  0.00  0.00     0.052 H 
ATOM     25  H   LIG d   1       2.130  -6.555 -10.326  0.00  0.00     0.052 H 
ATOM     26  H   LIG d   1       1.538  -5.530 -11.655  0.00  0.00     0.052 H 
ENDBRANCH  22  23
ENDBRANCH  19  22
ENDBRANCH  16  19
ENDBRANCH  15  16
ENDBRANCH  13  15
ENDBRANCH   2  13
BRANCH   1  27
ATOM     27  C   LIG d   1       6.708  -6.727  -6.026  0.00  0.00    -0.023 C 
ATOM     28  H   LIG d   1       5.722  -7.165  -6.183  0.00  0.00     0.029 H 
ATOM     29  H   LIG d   1       7.283  -6.788  -6.950  0.00  0.00     0.029 H 
ATOM     30  H   LIG d   1       7.227  -7.272  -5.238  0.00  0.00     0.029 H 
ENDBRANCH   1  27
BRANCH   9  31
ATOM     31  C   LIG d   1       8.772  -5.082  -4.486  0.00  0.00     0.012 C 
ATOM     32  H   LIG d   1       9.172  -4.431  -3.709  0.00  0.00     0.046 H 
ATOM     33  H   LIG d   1       8.641  -6.087  -4.085  0.00  0.00     0.046 H 
ATOM     34  H   LIG d   1       9.466  -5.115  -5.326  0.00  0.00     0.046 H 
ENDBRANCH   9  31
BRANCH   5  35
ATOM     35  O   LIG d   1       4.935   0.292  -4.561  0.00  0.00    -0.426 OA
BRANCH  35  36
ATOM     36  C   LIG d   1       3.685   0.272  -4.071  0.00  0.00     0.315 C 
ATOM     37  O   LIG d   1       2.743   0.189  -4.823  0.00  0.00    -0.250 OA
BRANCH  36  38
ATOM     38  C   LIG d   1       3.457   0.352  -2.585  0.00  0.00     0.057 A 
ATOM     39  C   LIG d   1       4.272  -0.587  -1.693  0.00  0.00    -0.039 A 
ATOM     40  C   LIG d   1       4.592   0.908  -1.724  0.00  0.00    -0.039 A 
ATOM     41  H   LIG d   1       3.787  -0.979  -0.799  0.00  0.00     0.027 H 
ATOM     42  H   LIG d   1       4.973  -1.263  -2.182  0.00  0.00     0.027 H 
ATOM     43  H   LIG d   1       5.506   1.217  -2.233  0.00  0.00     0.027 H 
ATOM     44  H   LIG d   1       4.319   1.501  -0.851  0.00  0.00     0.027 H 
ATOM     45  H   LIG d   1       2.435   0.578  -2.277  0.00  0.00     0.041 H 
ENDBRANCH  36  38
ENDBRANCH  35  36
ENDBRANCH   5  35
TORSDOF 11
ENDMDL
MODEL 9
REMARK VINA RESULT:      -5.0      3.119      5.451
REMARK  11 active torsions:
REMARK  status: ('A' for Active; 'I' for Inactive)
REMARK    1  A    between atoms: C_1  and  C_2 
REMARK    2  A    between atoms: C_3  and  C_18 
REMARK    3  A    between atoms: C_6  and  O_12 
REMARK    4  A    between atoms: N_10  and  C_11 
REMARK    5  A    between atoms: O_12  and  C_13 
REMARK    6  A    between atoms: C_13  and  C_15 
REMARK    7  A    between atoms: C_18  and  O_20 
REMARK    8  A    between atoms: O_20  and  C_21 
REMARK    9  A    between atoms: C_21  and  C_22 
REMARK   10  A    between atoms: C_22  and  O_23 
REMARK   11  A    between atoms: O_23  and  C_24 
ROOT
ATOM      1  C   LIG d   1       8.583   1.911  -8.305  0.00  0.00     0.030 A 
ATOM      2  C   LIG d   1       7.649   1.006  -7.891  0.00  0.00     0.087 A 
ATOM      3  C   LIG d   1       7.622   1.079  -6.418  0.00  0.00     0.018 A 
ATOM      4  C   LIG d   1       6.893   0.419  -5.431  0.00  0.00    -0.009 A 
ATOM      5  C   LIG d   1       7.109   0.726  -4.102  0.00  0.00     0.132 A 
ATOM      6  C   LIG d   1       8.051   1.691  -3.750  0.00  0.00    -0.017 A 
ATOM      7  C   LIG d   1       8.776   2.347  -4.720  0.00  0.00    -0.034 A 
ATOM      8  C   LIG d   1       8.571   2.050  -6.063  0.00  0.00     0.050 A 
ATOM      9  N   LIG d   1       9.134   2.525  -7.231  0.00  0.00    -0.346 N 
ATOM     10  H   LIG d   1       6.162  -0.328  -5.705  0.00  0.00     0.066 H 
ATOM     11  H   LIG d   1       8.214   1.925  -2.709  0.00  0.00     0.066 H 
ATOM     12  H   LIG d   1       9.504   3.093  -4.437  0.00  0.00     0.064 H 
ENDROOT
BRANCH   2  13
ATOM     13  C   LIG d   1       6.832   0.135  -8.743  0.00  0.00     0.342 C 
ATOM     14  O   LIG d   1       6.919  -1.074  -8.635  0.00  0.00    -0.245 OA
BRANCH  13  15
ATOM     15  O   LIG d   1       5.987   0.673  -9.645  0.00  0.00    -0.459 OA
BRANCH  15  16
ATOM     16  C   LIG d   1       4.991   1.569  -9.148  0.00  0.00     0.116 C 
ATOM     17  H   LIG d   1       5.409   2.160  -8.333  0.00  0.00     0.072 H 
ATOM     18  H   LIG d   1       4.670   2.234  -9.950  0.00  0.00     0.072 H 
BRANCH  16  19
ATOM     19  C   LIG d   1       3.793   0.769  -8.637  0.00  0.00     0.082 C 
ATOM     20  H   LIG d   1       2.909   1.026  -9.221  0.00  0.00     0.059 H 
ATOM     21  H   LIG d   1       3.998  -0.297  -8.738  0.00  0.00     0.059 H 
BRANCH  19  22
ATOM     22  O   LIG d   1       3.563   1.081  -7.262  0.00  0.00    -0.380 OA
BRANCH  22  23
ATOM     23  C   LIG d   1       3.378  -0.064  -6.427  0.00  0.00     0.037 C 
ATOM     24  H   LIG d   1       3.537  -0.970  -7.012  0.00  0.00     0.052 H 
ATOM     25  H   LIG d   1       4.091  -0.032  -5.604  0.00  0.00     0.052 H 
ATOM     26  H   LIG d   1       2.363  -0.063  -6.029  0.00  0.00     0.052 H 
ENDBRANCH  22  23
ENDBRANCH  19  22
ENDBRANCH  16  19
ENDBRANCH  15  16
ENDBRANCH  13  15
ENDBRANCH   2  13
BRANCH   1  27
ATOM     27  C   LIG d   1       8.953   2.181  -9.741  0.00  0.00    -0.023 C 
ATOM     28  H   LIG d   1       8.106   2.638 -10.254  0.00  0.00     0.029 H 
ATOM     29  H   LIG d   1       9.806   2.859  -9.775  0.00  0.00     0.029 H 
ATOM     30  H   LIG d   1       9.213   1.244 -10.232  0.00  0.00     0.029 H 
ENDBRANCH   1  27
BRANCH   9  31
ATOM     31  C   LIG d   1      10.176   3.552  -7.299  0.00  0.00     0.012 C 
ATOM     32  H   LIG d   1      10.902   3.386  -6.503  0.00  0.00     0.046 H 
ATOM     33  H   LIG d   1      10.679   3.495  -8.265  0.00  0.00     0.046 H 
ATOM     34  H   LIG d   1       9.726   4.537  -7.182  0.00  0.00     0.046 H 
ENDBRANCH   9  31
BRANCH   5  35
ATOM     35  O   LIG d   1       6.401   0.086  -3.133  0.00  0.00    -0.426 OA
BRANCH  35  36
ATOM     36  C   LIG d   1       5.201   0.585  -2.796  0.00  0.00     0.315 C 
ATOM     37  O   LIG d   1       4.897   1.706  -3.130  0.00  0.00    -0.250 OA
BRANCH  36  38
ATOM     38  C   LIG d   1       4.233  -0.252  -2.003  0.00  0.00     0.057 A 
ATOM     39  C   LIG d   1       3.137  -0.990  -2.776  0.00  0.00    -0.039 A 
ATOM     40  C   LIG d   1       4.306  -1.770  -2.173  0.00  0.00    -0.039 A 
ATOM     41  H   LIG d   1       2.164  -1.092  -2.296  0.00  0.00     0.027 H 
ATOM     42  H   LIG d   1       3.117  -0.869  -3.858  0.00  0.00     0.027 H 
ATOM     43  H   LIG d   1       5.056  -2.165  -2.860  0.00  0.00     0.027 H 
ATOM     44  H   LIG d   1       4.103  -2.386  -1.297  0.00  0.00     0.027 H 
ATOM     45  H   LIG d   1       3.979   0.132  -1.014  0.00  0.00     0.041 H 
ENDBRANCH  36  38
ENDBRANCH  35  36
ENDBRANCH   5  35
TORSDOF 11
ENDMDL
MODEL 10
REMARK VINA RESULT:      -4.9      5.224      7.932
REMARK  11 active torsions:
REMARK  status: ('A' for Active; 'I' for Inactive)
REMARK    1  A    between atoms: C_1  and  C_2 
REMARK    2  A    between atoms: C_3  and  C_18 
REMARK    3  A    between atoms: C_6  and  O_12 
REMARK    4  A    between atoms: N_10  and  C_11 
REMARK    5  A    between atoms: O_12  and  C_13 
REMARK    6  A    between atoms: C_13  and  C_15 
REMARK    7  A    between atoms: C_18  and  O_20 
REMARK    8  A    between atoms: O_20  and  C_21 
REMARK    9  A    between atoms: C_21  and  C_22 
REMARK   10  A    between atoms: C_22  and  O_23 
REMARK   11  A    between atoms: O_23  and  C_24 
ROOT
ATOM      1  C   LIG d   1       5.781  -0.585  -9.920  0.00  0.00     0.030 A 
ATOM      2  C   LIG d   1       4.580  -0.081  -9.512  0.00  0.00     0.087 A 
ATOM      3  C   LIG d   1       4.490  -0.341  -8.062  0.00  0.00     0.018 A 
ATOM      4  C   LIG d   1       3.529  -0.073  -7.090  0.00  0.00    -0.009 A 
ATOM      5  C   LIG d   1       3.755  -0.457  -5.783  0.00  0.00     0.132 A 
ATOM      6  C   LIG d   1       4.936  -1.109  -5.438  0.00  0.00    -0.017 A 
ATOM      7  C   LIG d   1       5.891  -1.378  -6.393  0.00  0.00    -0.034 A 
ATOM      8  C   LIG d   1       5.680  -0.999  -7.714  0.00  0.00     0.050 A 
ATOM      9  N   LIG d   1       6.431  -1.133  -8.866  0.00  0.00    -0.346 N 
ATOM     10  H   LIG d   1       2.614   0.434  -7.358  0.00  0.00     0.066 H 
ATOM     11  H   LIG d   1       5.104  -1.406  -4.413  0.00  0.00     0.066 H 
ATOM     12  H   LIG d   1       6.804  -1.885  -6.116  0.00  0.00     0.064 H 
ENDROOT
BRANCH   2  13
ATOM     13  C   LIG d   1       3.578   0.587 -10.348  0.00  0.00     0.342 C 
ATOM     14  O   LIG d   1       3.593   1.798 -10.465  0.00  0.00    -0.245 OA
BRANCH  13  15
ATOM     15  O   LIG d   1       2.639  -0.139 -10.986  0.00  0.00    -0.459 OA
BRANCH  15  16
ATOM     16  C   LIG d   1       1.527  -0.590 -10.208  0.00  0.00     0.116 C 
ATOM     17  H   LIG d   1       1.562  -0.127  -9.223  0.00  0.00     0.072 H 
ATOM     18  H   LIG d   1       0.599  -0.311 -10.708  0.00  0.00     0.072 H 
BRANCH  16  19
ATOM     19  C   LIG d   1       1.590  -2.111 -10.061  0.00  0.00     0.082 C 
ATOM     20  H   LIG d   1       1.874  -2.366  -9.041  0.00  0.00     0.059 H 
ATOM     21  H   LIG d   1       0.611  -2.539 -10.284  0.00  0.00     0.059 H 
BRANCH  19  22
ATOM     22  O   LIG d   1       2.557  -2.638 -10.971  0.00  0.00    -0.380 OA
BRANCH  22  23
ATOM     23  C   LIG d   1       3.486  -3.545 -10.373  0.00  0.00     0.037 C 
ATOM     24  H   LIG d   1       3.131  -4.567 -10.504  0.00  0.00     0.052 H 
ATOM     25  H   LIG d   1       4.460  -3.434 -10.849  0.00  0.00     0.052 H 
ATOM     26  H   LIG d   1       3.574  -3.325  -9.310  0.00  0.00     0.052 H 
ENDBRANCH  22  23
ENDBRANCH  19  22
ENDBRANCH  16  19
ENDBRANCH  15  16
ENDBRANCH  13  15
ENDBRANCH   2  13
BRANCH   1  27
ATOM     27  C   LIG d   1       6.302  -0.546 -11.334  0.00  0.00    -0.023 C 
ATOM     28  H   LIG d   1       5.649   0.077 -11.944  0.00  0.00     0.029 H 
ATOM     29  H   LIG d   1       7.309  -0.128 -11.338  0.00  0.00     0.029 H 
ATOM     30  H   LIG d   1       6.327  -1.556 -11.741  0.00  0.00     0.029 H 
ENDBRANCH   1  27
BRANCH   9  31
ATOM     31  C   LIG d   1       7.747  -1.772  -8.936  0.00  0.00     0.012 C 
ATOM     32  H   LIG d   1       8.156  -1.874  -7.931  0.00  0.00     0.046 H 
ATOM     33  H   LIG d   1       7.648  -2.759  -9.389  0.00  0.00     0.046 H 
ATOM     34  H   LIG d   1       8.417  -1.160  -9.541  0.00  0.00     0.046 H 
ENDBRANCH   9  31
BRANCH   5  35
ATOM     35  O   LIG d   1       2.821  -0.197  -4.828  0.00  0.00    -0.426 OA
BRANCH  35  36
ATOM     36  C   LIG d   1       3.137   0.675  -3.858  0.00  0.00     0.315 C 
ATOM     37  O   LIG d   1       3.207   1.856  -4.106  0.00  0.00    -0.250 OA
BRANCH  36  38
ATOM     38  C   LIG d   1       3.405   0.182  -2.460  0.00  0.00     0.057 A 
ATOM     39  C   LIG d   1       4.770  -0.451  -2.183  0.00  0.00    -0.039 A 
ATOM     40  C   LIG d   1       4.444   0.938  -1.631  0.00  0.00    -0.039 A 
ATOM     41  H   LIG d   1       4.807  -1.277  -1.473  0.00  0.00     0.027 H 
ATOM     42  H   LIG d   1       5.474  -0.510  -3.012  0.00  0.00     0.027 H 
ATOM     43  H   LIG d   1       4.935   1.793  -2.096  0.00  0.00     0.027 H 
ATOM     44  H   LIG d   1       4.266   1.026  -0.559  0.00  0.00     0.027 H 
ATOM     45  H   LIG d   1       2.543  -0.229  -1.933  0.00  0.00     0.041 H 
ENDBRANCH  36  38
ENDBRANCH  35  36
ENDBRANCH   5  35
TORSDOF 11
ENDMDL
