MODEL 1
REMARK VINA RESULT:      -4.8      0.000      0.000
REMARK  15 active torsions:
REMARK  status: ('A' for Active; 'I' for Inactive)
REMARK    1  A    between atoms: C_1  and  C_2 
REMARK    2  A    between atoms: C_7  and  O_31 
REMARK    3  A    between atoms: C_8  and  O_29 
REMARK    4  A    between atoms: C_9  and  O_27 
REMARK    5  A    between atoms: C_14  and  O_21 
REMARK    6  A    between atoms: C_15  and  O_19 
REMARK    7  A    between atoms: C_16  and  O_17 
REMARK    8  A    between atoms: O_17  and  C_18 
REMARK    9  A    between atoms: O_19  and  C_20 
REMARK   10  A    between atoms: O_21  and  C_22 
REMARK   11  A    between atoms: C_24  and  C_25 
REMARK   12  A    between atoms: C_24  and  O_26 
REMARK   13  A    between atoms: O_27  and  C_28 
REMARK   14  A    between atoms: O_29  and  C_30 
REMARK   15  A    between atoms: O_31  and  C_32 
ROOT
ATOM      1  C   LIG d   1       5.154  -0.322  -3.145  0.00  0.00    -0.011 C 
ATOM      2  H   LIG d   1       5.573  -0.572  -2.171  0.00  0.00     0.033 H 
ATOM      3  C   LIG d   1       6.280  -0.335  -4.215  0.00  0.00    -0.022 C 
ATOM      4  C   LIG d   1       6.962  -1.705  -4.301  0.00  0.00    -0.032 A 
ATOM      5  C   LIG d   1       7.647  -2.398  -3.385  0.00  0.00    -0.012 A 
ATOM      6  C   LIG d   1       8.312  -3.562  -3.786  0.00  0.00     0.166 A 
ATOM      7  C   LIG d   1       8.250  -3.972  -5.115  0.00  0.00     0.204 A 
ATOM      8  C   LIG d   1       7.513  -3.260  -6.058  0.00  0.00     0.173 A 
ATOM      9  C   LIG d   1       6.833  -2.124  -5.662  0.00  0.00     0.035 A 
ATOM     10  C   LIG d   1       5.956  -1.279  -6.489  0.00  0.00     0.035 A 
ATOM     11  C   LIG d   1       4.611  -1.174  -6.019  0.00  0.00    -0.030 A 
ATOM     12  C   LIG d   1       3.701  -0.375  -6.588  0.00  0.00    -0.012 A 
ATOM     13  C   LIG d   1       4.069   0.362  -7.720  0.00  0.00     0.166 A 
ATOM     14  C   LIG d   1       5.359   0.250  -8.230  0.00  0.00     0.204 A 
ATOM     15  C   LIG d   1       6.308  -0.568  -7.620  0.00  0.00     0.173 A 
ATOM     16  C   LIG d   1       4.502  -2.126  -4.829  0.00  0.00     0.002 C 
ATOM     17  C   LIG d   1       4.047  -1.391  -3.541  0.00  0.00     0.070 C 
ATOM     18  H   LIG d   1       7.026   0.416  -3.956  0.00  0.00     0.032 H 
ATOM     19  H   LIG d   1       5.851  -0.092  -5.186  0.00  0.00     0.032 H 
ATOM     20  H   LIG d   1       7.684  -2.067  -2.358  0.00  0.00     0.066 H 
ATOM     21  H   LIG d   1       2.703  -0.300  -6.183  0.00  0.00     0.066 H 
ATOM     22  H   LIG d   1       3.780  -2.909  -5.065  0.00  0.00     0.034 H 
ATOM     23  H   LIG d   1       5.475  -2.585  -4.651  0.00  0.00     0.034 H 
ENDROOT
BRANCH  17  24
ATOM     24  C   LIG d   1       3.883  -2.402  -2.403  0.00  0.00    -0.035 C 
ATOM     25  H   LIG d   1       2.899  -2.866  -2.469  0.00  0.00     0.026 H 
ATOM     26  H   LIG d   1       4.652  -3.169  -2.486  0.00  0.00     0.026 H 
ATOM     27  H   LIG d   1       3.981  -1.891  -1.446  0.00  0.00     0.026 H 
ENDBRANCH  17  24
BRANCH  17  28
ATOM     28  O   LIG d   1       2.804  -0.730  -3.780  0.00  0.00    -0.388 OA
ATOM     29  H   LIG d   1       2.320  -0.498  -2.975  0.00  0.00     0.210 HD
ENDBRANCH  17  28
BRANCH   1  30
ATOM     30  C   LIG d   1       4.522   1.071  -3.088  0.00  0.00    -0.059 C 
ATOM     31  H   LIG d   1       3.786   1.102  -2.285  0.00  0.00     0.023 H 
ATOM     32  H   LIG d   1       5.296   1.814  -2.898  0.00  0.00     0.023 H 
ATOM     33  H   LIG d   1       4.034   1.288  -4.038  0.00  0.00     0.023 H 
ENDBRANCH   1  30
BRANCH  15  34
ATOM     34  O   LIG d   1       7.564  -0.665  -8.132  0.00  0.00    -0.491 OA
BRANCH  34  35
ATOM     35  C   LIG d   1       8.545   0.240  -7.622  0.00  0.00     0.079 C 
ATOM     36  H   LIG d   1       9.540  -0.114  -7.892  0.00  0.00     0.066 H 
ATOM     37  H   LIG d   1       8.383   1.229  -8.049  0.00  0.00     0.066 H 
ATOM     38  H   LIG d   1       8.461   0.293  -6.536  0.00  0.00     0.066 H 
ENDBRANCH  34  35
ENDBRANCH  15  34
BRANCH  13  39
ATOM     39  O   LIG d   1       3.169   1.184  -8.322  0.00  0.00    -0.491 OA
BRANCH  39  40
ATOM     40  C   LIG d   1       2.248   0.582  -9.233  0.00  0.00     0.079 C 
ATOM     41  H   LIG d   1       2.026   1.281 -10.040  0.00  0.00     0.066 H 
ATOM     42  H   LIG d   1       2.689  -0.324  -9.649  0.00  0.00     0.066 H 
ATOM     43  H   LIG d   1       1.327   0.331  -8.707  0.00  0.00     0.066 H 
ENDBRANCH  39  40
ENDBRANCH  13  39
BRANCH   8  44
ATOM     44  O   LIG d   1       7.464  -3.677  -7.350  0.00  0.00    -0.491 OA
BRANCH  44  45
ATOM     45  C   LIG d   1       6.327  -4.450  -7.740  0.00  0.00     0.079 C 
ATOM     46  H   LIG d   1       6.391  -5.441  -7.290  0.00  0.00     0.066 H 
ATOM     47  H   LIG d   1       5.417  -3.955  -7.399  0.00  0.00     0.066 H 
ATOM     48  H   LIG d   1       6.306  -4.545  -8.825  0.00  0.00     0.066 H 
ENDBRANCH  44  45
ENDBRANCH   8  44
BRANCH   6  49
ATOM     49  O   LIG d   1       9.018  -4.291  -2.880  0.00  0.00    -0.491 OA
BRANCH  49  50
ATOM     50  C   LIG d   1      10.418  -4.020  -2.780  0.00  0.00     0.079 C 
ATOM     51  H   LIG d   1      10.647  -3.096  -3.311  0.00  0.00     0.066 H 
ATOM     52  H   LIG d   1      10.693  -3.915  -1.730  0.00  0.00     0.066 H 
ATOM     53  H   LIG d   1      10.979  -4.843  -3.223  0.00  0.00     0.066 H 
ENDBRANCH  49  50
ENDBRANCH   6  49
BRANCH  14  54
ATOM     54  O   LIG d   1       5.701   0.954  -9.344  0.00  0.00    -0.488 OA
BRANCH  54  55
ATOM     55  C   LIG d   1       5.611   0.270 -10.595  0.00  0.00     0.079 C 
ATOM     56  H   LIG d   1       5.248   0.958 -11.360  0.00  0.00     0.066 H 
ATOM     57  H   LIG d   1       6.595  -0.102 -10.879  0.00  0.00     0.066 H 
ATOM     58  H   LIG d   1       4.918  -0.567 -10.502  0.00  0.00     0.066 H 
ENDBRANCH  54  55
ENDBRANCH  14  54
BRANCH   7  59
ATOM     59  O   LIG d   1       8.924  -5.091  -5.500  0.00  0.00    -0.488 OA
BRANCH  59  60
ATOM     60  C   LIG d   1       8.276  -6.345  -5.284  0.00  0.00     0.079 C 
ATOM     61  H   LIG d   1       7.211  -6.181  -5.120  0.00  0.00     0.066 H 
ATOM     62  H   LIG d   1       8.415  -6.981  -6.158  0.00  0.00     0.066 H 
ATOM     63  H   LIG d   1       8.707  -6.831  -4.409  0.00  0.00     0.066 H 
ENDBRANCH  59  60
ENDBRANCH   7  59
TORSDOF 15
ENDMDL
MODEL 2
REMARK VINA RESULT:      -4.7      2.888      6.433
REMARK  15 active torsions:
REMARK  status: ('A' for Active; 'I' for Inactive)
REMARK    1  A    between atoms: C_1  and  C_2 
REMARK    2  A    between atoms: C_7  and  O_31 
REMARK    3  A    between atoms: C_8  and  O_29 
REMARK    4  A    between atoms: C_9  and  O_27 
REMARK    5  A    between atoms: C_14  and  O_21 
REMARK    6  A    between atoms: C_15  and  O_19 
REMARK    7  A    between atoms: C_16  and  O_17 
REMARK    8  A    between atoms: O_17  and  C_18 
REMARK    9  A    between atoms: O_19  and  C_20 
REMARK   10  A    between atoms: O_21  and  C_22 
REMARK   11  A    between atoms: C_24  and  C_25 
REMARK   12  A    between atoms: C_24  and  O_26 
REMARK   13  A    between atoms: O_27  and  C_28 
REMARK   14  A    between atoms: O_29  and  C_30 
REMARK   15  A    between atoms: O_31  and  C_32 
ROOT
ATOM      1  C   LIG d   1       2.905   0.839  -9.335  0.00  0.00    -0.011 C 
ATOM      2  H   LIG d   1       2.059   0.815 -10.023  0.00  0.00     0.033 H 
ATOM      3  C   LIG d   1       2.770  -0.315  -8.304  0.00  0.00    -0.022 C 
ATOM      4  C   LIG d   1       2.724  -1.684  -8.991  0.00  0.00    -0.032 A 
ATOM      5  C   LIG d   1       1.852  -2.193  -9.867  0.00  0.00    -0.012 A 
ATOM      6  C   LIG d   1       1.958  -3.545 -10.210  0.00  0.00     0.166 A 
ATOM      7  C   LIG d   1       2.958  -4.327  -9.639  0.00  0.00     0.204 A 
ATOM      8  C   LIG d   1       3.880  -3.785  -8.747  0.00  0.00     0.173 A 
ATOM      9  C   LIG d   1       3.796  -2.444  -8.425  0.00  0.00     0.035 A 
ATOM     10  C   LIG d   1       4.708  -1.678  -7.560  0.00  0.00     0.035 A 
ATOM     11  C   LIG d   1       5.352  -0.574  -8.199  0.00  0.00    -0.030 A 
ATOM     12  C   LIG d   1       6.138   0.288  -7.545  0.00  0.00    -0.012 A 
ATOM     13  C   LIG d   1       6.376   0.079  -6.181  0.00  0.00     0.166 A 
ATOM     14  C   LIG d   1       5.798  -1.011  -5.537  0.00  0.00     0.204 A 
ATOM     15  C   LIG d   1       4.964  -1.894  -6.219  0.00  0.00     0.173 A 
ATOM     16  C   LIG d   1       4.953  -0.646  -9.673  0.00  0.00     0.002 C 
ATOM     17  C   LIG d   1       4.258   0.658 -10.146  0.00  0.00     0.070 C 
ATOM     18  H   LIG d   1       1.854  -0.175  -7.731  0.00  0.00     0.032 H 
ATOM     19  H   LIG d   1       3.622  -0.286  -7.627  0.00  0.00     0.032 H 
ATOM     20  H   LIG d   1       1.083  -1.572 -10.302  0.00  0.00     0.066 H 
ATOM     21  H   LIG d   1       6.581   1.129  -8.058  0.00  0.00     0.066 H 
ATOM     22  H   LIG d   1       5.846  -0.811 -10.275  0.00  0.00     0.034 H 
ATOM     23  H   LIG d   1       4.270  -1.483  -9.815  0.00  0.00     0.034 H 
ENDROOT
BRANCH  17  24
ATOM     24  C   LIG d   1       3.949   0.560 -11.642  0.00  0.00    -0.035 C 
ATOM     25  H   LIG d   1       4.801   0.930 -12.214  0.00  0.00     0.026 H 
ATOM     26  H   LIG d   1       3.759  -0.479 -11.906  0.00  0.00     0.026 H 
ATOM     27  H   LIG d   1       3.069   1.161 -11.872  0.00  0.00     0.026 H 
ENDBRANCH  17  24
BRANCH  17  28
ATOM     28  O   LIG d   1       5.117   1.773  -9.905  0.00  0.00    -0.388 OA
ATOM     29  H   LIG d   1       5.878   1.570  -9.342  0.00  0.00     0.210 HD
ENDBRANCH  17  28
BRANCH   1  30
ATOM     30  C   LIG d   1       2.925   2.181  -8.599  0.00  0.00    -0.059 C 
ATOM     31  H   LIG d   1       2.582   2.968  -9.270  0.00  0.00     0.023 H 
ATOM     32  H   LIG d   1       2.266   2.130  -7.732  0.00  0.00     0.023 H 
ATOM     33  H   LIG d   1       3.941   2.400  -8.271  0.00  0.00     0.023 H 
ENDBRANCH   1  30
BRANCH  15  34
ATOM     34  O   LIG d   1       4.408  -2.954  -5.575  0.00  0.00    -0.491 OA
BRANCH  34  35
ATOM     35  C   LIG d   1       5.295  -3.986  -5.137  0.00  0.00     0.079 C 
ATOM     36  H   LIG d   1       4.945  -4.386  -4.185  0.00  0.00     0.066 H 
ATOM     37  H   LIG d   1       5.317  -4.784  -5.879  0.00  0.00     0.066 H 
ATOM     38  H   LIG d   1       6.297  -3.576  -5.013  0.00  0.00     0.066 H 
ENDBRANCH  34  35
ENDBRANCH  15  34
BRANCH  13  39
ATOM     39  O   LIG d   1       7.169   0.938  -5.487  0.00  0.00    -0.491 OA
BRANCH  39  40
ATOM     40  C   LIG d   1       8.214   1.586  -6.214  0.00  0.00     0.079 C 
ATOM     41  H   LIG d   1       9.014   0.873  -6.413  0.00  0.00     0.066 H 
ATOM     42  H   LIG d   1       7.820   1.964  -7.157  0.00  0.00     0.066 H 
ATOM     43  H   LIG d   1       8.606   2.416  -5.625  0.00  0.00     0.066 H 
ENDBRANCH  39  40
ENDBRANCH  13  39
BRANCH   8  44
ATOM     44  O   LIG d   1       4.850  -4.565  -8.202  0.00  0.00    -0.491 OA
BRANCH  44  45
ATOM     45  C   LIG d   1       6.139  -4.524  -8.818  0.00  0.00     0.079 C 
ATOM     46  H   LIG d   1       6.523  -5.539  -8.921  0.00  0.00     0.066 H 
ATOM     47  H   LIG d   1       6.056  -4.065  -9.803  0.00  0.00     0.066 H 
ATOM     48  H   LIG d   1       6.819  -3.939  -8.199  0.00  0.00     0.066 H 
ENDBRANCH  44  45
ENDBRANCH   8  44
BRANCH   6  49
ATOM     49  O   LIG d   1       1.086  -4.094 -11.097  0.00  0.00    -0.491 OA
BRANCH  49  50
ATOM     50  C   LIG d   1      -0.207  -4.448 -10.602  0.00  0.00     0.079 C 
ATOM     51  H   LIG d   1      -0.758  -4.982 -11.377  0.00  0.00     0.066 H 
ATOM     52  H   LIG d   1      -0.098  -5.088  -9.726  0.00  0.00     0.066 H 
ATOM     53  H   LIG d   1      -0.751  -3.544 -10.327  0.00  0.00     0.066 H 
ENDBRANCH  49  50
ENDBRANCH   6  49
BRANCH  14  54
ATOM     54  O   LIG d   1       6.052  -1.218  -4.216  0.00  0.00    -0.488 OA
BRANCH  54  55
ATOM     55  C   LIG d   1       5.167  -0.599  -3.280  0.00  0.00     0.079 C 
ATOM     56  H   LIG d   1       4.240  -0.326  -3.784  0.00  0.00     0.066 H 
ATOM     57  H   LIG d   1       4.950  -1.294  -2.470  0.00  0.00     0.066 H 
ATOM     58  H   LIG d   1       5.638   0.297  -2.875  0.00  0.00     0.066 H 
ENDBRANCH  54  55
ENDBRANCH  14  54
BRANCH   7  59
ATOM     59  O   LIG d   1       3.035  -5.649  -9.958  0.00  0.00    -0.488 OA
BRANCH  59  60
ATOM     60  C   LIG d   1       3.730  -5.987 -11.158  0.00  0.00     0.079 C 
ATOM     61  H   LIG d   1       3.068  -5.850 -12.013  0.00  0.00     0.066 H 
ATOM     62  H   LIG d   1       4.602  -5.342 -11.267  0.00  0.00     0.066 H 
ATOM     63  H   LIG d   1       4.052  -7.028 -11.111  0.00  0.00     0.066 H 
ENDBRANCH  59  60
ENDBRANCH   7  59
TORSDOF 15
ENDMDL
MODEL 3
REMARK VINA RESULT:      -4.5     10.002     12.941
REMARK  15 active torsions:
REMARK  status: ('A' for Active; 'I' for Inactive)
REMARK    1  A    between atoms: C_1  and  C_2 
REMARK    2  A    between atoms: C_7  and  O_31 
REMARK    3  A    between atoms: C_8  and  O_29 
REMARK    4  A    between atoms: C_9  and  O_27 
REMARK    5  A    between atoms: C_14  and  O_21 
REMARK    6  A    between atoms: C_15  and  O_19 
REMARK    7  A    between atoms: C_16  and  O_17 
REMARK    8  A    between atoms: O_17  and  C_18 
REMARK    9  A    between atoms: O_19  and  C_20 
REMARK   10  A    between atoms: O_21  and  C_22 
REMARK   11  A    between atoms: C_24  and  C_25 
REMARK   12  A    between atoms: C_24  and  O_26 
REMARK   13  A    between atoms: O_27  and  C_28 
REMARK   14  A    between atoms: O_29  and  C_30 
REMARK   15  A    between atoms: O_31  and  C_32 
ROOT
ATOM      1  C   LIG d   1      11.440   5.383  -4.029  0.00  0.00    -0.011 C 
ATOM      2  H   LIG d   1      11.424   5.267  -5.113  0.00  0.00     0.033 H 
ATOM      3  C   LIG d   1      11.937   6.809  -3.665  0.00  0.00    -0.022 C 
ATOM      4  C   LIG d   1      11.039   7.892  -4.270  0.00  0.00    -0.032 A 
ATOM      5  C   LIG d   1      10.752   8.178  -5.544  0.00  0.00    -0.012 A 
ATOM      6  C   LIG d   1      10.025   9.341  -5.823  0.00  0.00     0.166 A 
ATOM      7  C   LIG d   1       9.617  10.168  -4.781  0.00  0.00     0.204 A 
ATOM      8  C   LIG d   1       9.895   9.851  -3.453  0.00  0.00     0.173 A 
ATOM      9  C   LIG d   1      10.591   8.691  -3.171  0.00  0.00     0.035 A 
ATOM     10  C   LIG d   1      10.924   8.155  -1.840  0.00  0.00     0.035 A 
ATOM     11  C   LIG d   1      10.399   6.853  -1.572  0.00  0.00    -0.030 A 
ATOM     12  C   LIG d   1      10.678   6.171  -0.456  0.00  0.00    -0.012 A 
ATOM     13  C   LIG d   1      11.488   6.774   0.514  0.00  0.00     0.166 A 
ATOM     14  C   LIG d   1      11.981   8.058   0.304  0.00  0.00     0.204 A 
ATOM     15  C   LIG d   1      11.703   8.755  -0.870  0.00  0.00     0.173 A 
ATOM     16  C   LIG d   1       9.518   6.496  -2.770  0.00  0.00     0.002 C 
ATOM     17  C   LIG d   1       9.975   5.178  -3.449  0.00  0.00     0.070 C 
ATOM     18  H   LIG d   1      12.951   6.938  -4.041  0.00  0.00     0.032 H 
ATOM     19  H   LIG d   1      11.942   6.916  -2.581  0.00  0.00     0.032 H 
ATOM     20  H   LIG d   1      11.075   7.525  -6.341  0.00  0.00     0.066 H 
ATOM     21  H   LIG d   1      10.287   5.176  -0.306  0.00  0.00     0.066 H 
ATOM     22  H   LIG d   1       8.488   6.383  -2.432  0.00  0.00     0.034 H 
ATOM     23  H   LIG d   1       9.565   7.305  -3.499  0.00  0.00     0.034 H 
ENDROOT
BRANCH  17  24
ATOM     24  C   LIG d   1       9.017   4.831  -4.591  0.00  0.00    -0.035 C 
ATOM     25  H   LIG d   1       8.899   5.697  -5.243  0.00  0.00     0.026 H 
ATOM     26  H   LIG d   1       9.422   3.998  -5.165  0.00  0.00     0.026 H 
ATOM     27  H   LIG d   1       8.047   4.552  -4.180  0.00  0.00     0.026 H 
ENDBRANCH  17  24
BRANCH  17  28
ATOM     28  O   LIG d   1       9.981   4.121  -2.488  0.00  0.00    -0.388 OA
ATOM     29  H   LIG d   1      10.850   3.946  -2.100  0.00  0.00     0.210 HD
ENDBRANCH  17  28
BRANCH   1  30
ATOM     30  C   LIG d   1      12.381   4.342  -3.418  0.00  0.00    -0.059 C 
ATOM     31  H   LIG d   1      13.381   4.471  -3.831  0.00  0.00     0.023 H 
ATOM     32  H   LIG d   1      12.417   4.475  -2.336  0.00  0.00     0.023 H 
ATOM     33  H   LIG d   1      12.018   3.341  -3.650  0.00  0.00     0.023 H 
ENDBRANCH   1  30
BRANCH  15  34
ATOM     34  O   LIG d   1      12.192  10.009  -1.059  0.00  0.00    -0.491 OA
BRANCH  34  35
ATOM     35  C   LIG d   1      13.462  10.121  -1.707  0.00  0.00     0.079 C 
ATOM     36  H   LIG d   1      14.246   9.788  -1.028  0.00  0.00     0.066 H 
ATOM     37  H   LIG d   1      13.468   9.497  -2.602  0.00  0.00     0.066 H 
ATOM     38  H   LIG d   1      13.637  11.159  -1.986  0.00  0.00     0.066 H 
ENDBRANCH  34  35
ENDBRANCH  15  34
BRANCH  13  39
ATOM     39  O   LIG d   1      11.792   6.107   1.659  0.00  0.00    -0.491 OA
BRANCH  39  40
ATOM     40  C   LIG d   1      10.696   5.623   2.438  0.00  0.00     0.079 C 
ATOM     41  H   LIG d   1      10.297   4.717   1.980  0.00  0.00     0.066 H 
ATOM     42  H   LIG d   1      11.039   5.399   3.448  0.00  0.00     0.066 H 
ATOM     43  H   LIG d   1       9.915   6.382   2.479  0.00  0.00     0.066 H 
ENDBRANCH  39  40
ENDBRANCH  13  39
BRANCH   8  44
ATOM     44  O   LIG d   1       9.487  10.671  -2.449  0.00  0.00    -0.491 OA
BRANCH  44  45
ATOM     45  C   LIG d   1       8.432  10.195  -1.611  0.00  0.00     0.079 C 
ATOM     46  H   LIG d   1       7.569  10.855  -1.704  0.00  0.00     0.066 H 
ATOM     47  H   LIG d   1       8.154   9.186  -1.915  0.00  0.00     0.066 H 
ATOM     48  H   LIG d   1       8.770  10.183  -0.575  0.00  0.00     0.066 H 
ENDBRANCH  44  45
ENDBRANCH   8  44
BRANCH   6  49
ATOM     49  O   LIG d   1       9.718   9.661  -7.108  0.00  0.00    -0.491 OA
BRANCH  49  50
ATOM     50  C   LIG d   1       9.069   8.656  -7.890  0.00  0.00     0.079 C 
ATOM     51  H   LIG d   1       9.821   8.043  -8.388  0.00  0.00     0.066 H 
ATOM     52  H   LIG d   1       8.459   8.028  -7.241  0.00  0.00     0.066 H 
ATOM     53  H   LIG d   1       8.435   9.131  -8.638  0.00  0.00     0.066 H 
ENDBRANCH  49  50
ENDBRANCH   6  49
BRANCH  14  54
ATOM     54  O   LIG d   1      12.749   8.644   1.262  0.00  0.00    -0.488 OA
BRANCH  54  55
ATOM     55  C   LIG d   1      12.074   9.447   2.233  0.00  0.00     0.079 C 
ATOM     56  H   LIG d   1      12.309  10.498   2.061  0.00  0.00     0.066 H 
ATOM     57  H   LIG d   1      10.999   9.296   2.145  0.00  0.00     0.066 H 
ATOM     58  H   LIG d   1      12.402   9.160   3.232  0.00  0.00     0.066 H 
ENDBRANCH  54  55
ENDBRANCH  14  54
BRANCH   7  59
ATOM     59  O   LIG d   1       8.934  11.311  -5.064  0.00  0.00    -0.488 OA
BRANCH  59  60
ATOM     60  C   LIG d   1       9.707  12.490  -5.292  0.00  0.00     0.079 C 
ATOM     61  H   LIG d   1       9.279  13.319  -4.728  0.00  0.00     0.066 H 
ATOM     62  H   LIG d   1      10.733  12.320  -4.968  0.00  0.00     0.066 H 
ATOM     63  H   LIG d   1       9.696  12.731  -6.356  0.00  0.00     0.066 H 
ENDBRANCH  59  60
ENDBRANCH   7  59
TORSDOF 15
ENDMDL
MODEL 4
REMARK VINA RESULT:      -4.3     10.036     12.040
REMARK  15 active torsions:
REMARK  status: ('A' for Active; 'I' for Inactive)
REMARK    1  A    between atoms: C_1  and  C_2 
REMARK    2  A    between atoms: C_7  and  O_31 
REMARK    3  A    between atoms: C_8  and  O_29 
REMARK    4  A    between atoms: C_9  and  O_27 
REMARK    5  A    between atoms: C_14  and  O_21 
REMARK    6  A    between atoms: C_15  and  O_19 
REMARK    7  A    between atoms: C_16  and  O_17 
REMARK    8  A    between atoms: O_17  and  C_18 
REMARK    9  A    between atoms: O_19  and  C_20 
REMARK   10  A    between atoms: O_21  and  C_22 
REMARK   11  A    between atoms: C_24  and  C_25 
REMARK   12  A    between atoms: C_24  and  O_26 
REMARK   13  A    between atoms: O_27  and  C_28 
REMARK   14  A    between atoms: O_29  and  C_30 
REMARK   15  A    between atoms: O_31  and  C_32 
ROOT
ATOM      1  C   LIG d   1      10.021   5.292  -3.702  0.00  0.00    -0.011 C 
ATOM      2  H   LIG d   1      10.011   4.441  -3.020  0.00  0.00     0.033 H 
ATOM      3  C   LIG d   1       9.595   6.576  -2.939  0.00  0.00    -0.022 C 
ATOM      4  C   LIG d   1      10.528   6.869  -1.760  0.00  0.00    -0.032 A 
ATOM      5  C   LIG d   1      10.802   6.154  -0.664  0.00  0.00    -0.012 A 
ATOM      6  C   LIG d   1      11.575   6.742   0.344  0.00  0.00     0.166 A 
ATOM      7  C   LIG d   1      12.039   8.045   0.189  0.00  0.00     0.204 A 
ATOM      8  C   LIG d   1      11.773   8.775  -0.967  0.00  0.00     0.173 A 
ATOM      9  C   LIG d   1      11.032   8.190  -1.976  0.00  0.00     0.035 A 
ATOM     10  C   LIG d   1      10.702   8.771  -3.289  0.00  0.00     0.035 A 
ATOM     11  C   LIG d   1      11.174   8.022  -4.409  0.00  0.00    -0.030 A 
ATOM     12  C   LIG d   1      10.886   8.346  -5.675  0.00  0.00    -0.012 A 
ATOM     13  C   LIG d   1      10.123   9.494  -5.917  0.00  0.00     0.166 A 
ATOM     14  C   LIG d   1       9.683  10.271  -4.850  0.00  0.00     0.204 A 
ATOM     15  C   LIG d   1       9.969   9.916  -3.533  0.00  0.00     0.173 A 
ATOM     16  C   LIG d   1      12.014   6.881  -3.834  0.00  0.00     0.002 C 
ATOM     17  C   LIG d   1      11.487   5.493  -4.281  0.00  0.00     0.070 C 
ATOM     18  H   LIG d   1       8.580   6.446  -2.564  0.00  0.00     0.032 H 
ATOM     19  H   LIG d   1       9.615   7.420  -3.626  0.00  0.00     0.032 H 
ATOM     20  H   LIG d   1      10.435   5.144  -0.559  0.00  0.00     0.066 H 
ATOM     21  H   LIG d   1      11.236   7.734  -6.494  0.00  0.00     0.066 H 
ATOM     22  H   LIG d   1      13.045   6.995  -4.170  0.00  0.00     0.034 H 
ATOM     23  H   LIG d   1      11.989   6.936  -2.746  0.00  0.00     0.034 H 
ENDROOT
BRANCH  17  24
ATOM     24  C   LIG d   1      12.406   4.396  -3.739  0.00  0.00    -0.035 C 
ATOM     25  H   LIG d   1      13.346   4.840  -3.411  0.00  0.00     0.026 H 
ATOM     26  H   LIG d   1      11.925   3.902  -2.897  0.00  0.00     0.026 H 
ATOM     27  H   LIG d   1      12.603   3.666  -4.524  0.00  0.00     0.026 H 
ENDBRANCH  17  24
BRANCH  17  28
ATOM     28  O   LIG d   1      11.452   5.430  -5.708  0.00  0.00    -0.388 OA
ATOM     29  H   LIG d   1      10.604   5.139  -6.070  0.00  0.00     0.210 HD
ENDBRANCH  17  28
BRANCH   1  30
ATOM     30  C   LIG d   1       9.047   5.035  -4.853  0.00  0.00    -0.059 C 
ATOM     31  H   LIG d   1       8.732   3.992  -4.837  0.00  0.00     0.023 H 
ATOM     32  H   LIG d   1       8.174   5.678  -4.741  0.00  0.00     0.023 H 
ATOM     33  H   LIG d   1       9.538   5.252  -5.802  0.00  0.00     0.023 H 
ENDBRANCH   1  30
BRANCH  15  34
ATOM     34  O   LIG d   1       9.532  10.687  -2.502  0.00  0.00    -0.491 OA
BRANCH  34  35
ATOM     35  C   LIG d   1       8.502  10.142  -1.674  0.00  0.00     0.079 C 
ATOM     36  H   LIG d   1       8.881  10.017  -0.660  0.00  0.00     0.066 H 
ATOM     37  H   LIG d   1       7.649  10.821  -1.662  0.00  0.00     0.066 H 
ATOM     38  H   LIG d   1       8.192   9.175  -2.069  0.00  0.00     0.066 H 
ENDBRANCH  34  35
ENDBRANCH  15  34
BRANCH  13  39
ATOM     39  O   LIG d   1       9.812   9.850  -7.192  0.00  0.00    -0.491 OA
BRANCH  39  40
ATOM     40  C   LIG d   1       9.192   8.856  -8.010  0.00  0.00     0.079 C 
ATOM     41  H   LIG d   1       9.417   7.866  -7.612  0.00  0.00     0.066 H 
ATOM     42  H   LIG d   1       8.113   9.010  -8.013  0.00  0.00     0.066 H 
ATOM     43  H   LIG d   1       9.573   8.933  -9.028  0.00  0.00     0.066 H 
ENDBRANCH  39  40
ENDBRANCH  13  39
BRANCH   8  44
ATOM     44  O   LIG d   1      12.237  10.046  -1.100  0.00  0.00    -0.491 OA
BRANCH  44  45
ATOM     45  C   LIG d   1      13.516  10.209  -1.715  0.00  0.00     0.079 C 
ATOM     46  H   LIG d   1      13.465  11.010  -2.452  0.00  0.00     0.066 H 
ATOM     47  H   LIG d   1      14.255  10.462  -0.954  0.00  0.00     0.066 H 
ATOM     48  H   LIG d   1      13.804   9.280  -2.207  0.00  0.00     0.066 H 
ENDBRANCH  44  45
ENDBRANCH   8  44
BRANCH   6  49
ATOM     49  O   LIG d   1      11.871   6.043   1.472  0.00  0.00    -0.491 OA
BRANCH  49  50
ATOM     50  C   LIG d   1      10.775   5.670   2.311  0.00  0.00     0.079 C 
ATOM     51  H   LIG d   1       9.886   6.227   2.014  0.00  0.00     0.066 H 
ATOM     52  H   LIG d   1      10.587   4.602   2.209  0.00  0.00     0.066 H 
ATOM     53  H   LIG d   1      11.018   5.899   3.349  0.00  0.00     0.066 H 
ENDBRANCH  49  50
ENDBRANCH   6  49
BRANCH  14  54
ATOM     54  O   LIG d   1       8.960  11.397  -5.096  0.00  0.00    -0.488 OA
BRANCH  54  55
ATOM     55  C   LIG d   1       9.692  12.612  -5.269  0.00  0.00     0.079 C 
ATOM     56  H   LIG d   1       9.222  13.212  -6.048  0.00  0.00     0.066 H 
ATOM     57  H   LIG d   1       9.696  13.171  -4.334  0.00  0.00     0.066 H 
ATOM     58  H   LIG d   1      10.718  12.380  -5.559  0.00  0.00     0.066 H 
ENDBRANCH  54  55
ENDBRANCH  14  54
BRANCH   7  59
ATOM     59  O   LIG d   1      12.767   8.618   1.187  0.00  0.00    -0.488 OA
BRANCH  59  60
ATOM     60  C   LIG d   1      12.051   9.392   2.150  0.00  0.00     0.079 C 
ATOM     61  H   LIG d   1      12.249   9.002   3.149  0.00  0.00     0.066 H 
ATOM     62  H   LIG d   1      12.374  10.431   2.094  0.00  0.00     0.066 H 
ATOM     63  H   LIG d   1      10.982   9.331   1.943  0.00  0.00     0.066 H 
ENDBRANCH  59  60
ENDBRANCH   7  59
TORSDOF 15
ENDMDL
MODEL 5
REMARK VINA RESULT:      -4.2     10.224     12.563
REMARK  15 active torsions:
REMARK  status: ('A' for Active; 'I' for Inactive)
REMARK    1  A    between atoms: C_1  and  C_2 
REMARK    2  A    between atoms: C_7  and  O_31 
REMARK    3  A    between atoms: C_8  and  O_29 
REMARK    4  A    between atoms: C_9  and  O_27 
REMARK    5  A    between atoms: C_14  and  O_21 
REMARK    6  A    between atoms: C_15  and  O_19 
REMARK    7  A    between atoms: C_16  and  O_17 
REMARK    8  A    between atoms: O_17  and  C_18 
REMARK    9  A    between atoms: O_19  and  C_20 
REMARK   10  A    between atoms: O_21  and  C_22 
REMARK   11  A    between atoms: C_24  and  C_25 
REMARK   12  A    between atoms: C_24  and  O_26 
REMARK   13  A    between atoms: O_27  and  C_28 
REMARK   14  A    between atoms: O_29  and  C_30 
REMARK   15  A    between atoms: O_31  and  C_32 
ROOT
ATOM      1  C   LIG d   1       9.866   7.054  -7.507  0.00  0.00    -0.011 C 
ATOM      2  H   LIG d   1       9.647   6.011  -7.278  0.00  0.00     0.033 H 
ATOM      3  C   LIG d   1       9.133   7.974  -6.492  0.00  0.00    -0.022 C 
ATOM      4  C   LIG d   1       9.559   7.678  -5.051  0.00  0.00    -0.032 A 
ATOM      5  C   LIG d   1       9.449   6.565  -4.318  0.00  0.00    -0.012 A 
ATOM      6  C   LIG d   1       9.774   6.622  -2.958  0.00  0.00     0.166 A 
ATOM      7  C   LIG d   1      10.203   7.823  -2.400  0.00  0.00     0.204 A 
ATOM      8  C   LIG d   1      10.341   8.972  -3.174  0.00  0.00     0.173 A 
ATOM      9  C   LIG d   1      10.046   8.915  -4.522  0.00  0.00     0.035 A 
ATOM     10  C   LIG d   1      10.189   9.996  -5.512  0.00  0.00     0.035 A 
ATOM     11  C   LIG d   1      11.070   9.701  -6.597  0.00  0.00    -0.030 A 
ATOM     12  C   LIG d   1      11.248  10.524  -7.635  0.00  0.00    -0.012 A 
ATOM     13  C   LIG d   1      10.573  11.751  -7.643  0.00  0.00     0.166 A 
ATOM     14  C   LIG d   1       9.740  12.089  -6.580  0.00  0.00     0.204 A 
ATOM     15  C   LIG d   1       9.543  11.218  -5.511  0.00  0.00     0.173 A 
ATOM     16  C   LIG d   1      11.695   8.342  -6.278  0.00  0.00     0.002 C 
ATOM     17  C   LIG d   1      11.431   7.307  -7.402  0.00  0.00     0.070 C 
ATOM     18  H   LIG d   1       8.058   7.818  -6.583  0.00  0.00     0.032 H 
ATOM     19  H   LIG d   1       9.363   9.013  -6.724  0.00  0.00     0.032 H 
ATOM     20  H   LIG d   1       9.115   5.641  -4.767  0.00  0.00     0.066 H 
ATOM     21  H   LIG d   1      11.899  10.249  -8.452  0.00  0.00     0.066 H 
ATOM     22  H   LIG d   1      12.771   8.467  -6.155  0.00  0.00     0.034 H 
ATOM     23  H   LIG d   1      11.274   7.968  -5.345  0.00  0.00     0.034 H 
ENDROOT
BRANCH  17  24
ATOM     24  C   LIG d   1      12.140   5.993  -7.066  0.00  0.00    -0.035 C 
ATOM     25  H   LIG d   1      13.215   6.116  -7.199  0.00  0.00     0.026 H 
ATOM     26  H   LIG d   1      11.931   5.722  -6.032  0.00  0.00     0.026 H 
ATOM     27  H   LIG d   1      11.780   5.206  -7.729  0.00  0.00     0.026 H 
ENDBRANCH  17  24
BRANCH  17  28
ATOM     28  O   LIG d   1      11.921   7.814  -8.644  0.00  0.00    -0.388 OA
ATOM     29  H   LIG d   1      11.402   7.540  -9.414  0.00  0.00     0.210 HD
ENDBRANCH  17  28
BRANCH   1  30
ATOM     30  C   LIG d   1       9.390   7.378  -8.925  0.00  0.00    -0.059 C 
ATOM     31  H   LIG d   1       9.976   8.205  -9.325  0.00  0.00     0.023 H 
ATOM     32  H   LIG d   1       9.519   6.502  -9.560  0.00  0.00     0.023 H 
ATOM     33  H   LIG d   1       8.336   7.657  -8.900  0.00  0.00     0.023 H 
ENDBRANCH   1  30
BRANCH  15  34
ATOM     34  O   LIG d   1       8.726  11.564  -4.482  0.00  0.00    -0.491 OA
BRANCH  34  35
ATOM     35  C   LIG d   1       9.215  12.548  -3.567  0.00  0.00     0.079 C 
ATOM     36  H   LIG d   1       8.736  12.412  -2.598  0.00  0.00     0.066 H 
ATOM     37  H   LIG d   1      10.294  12.438  -3.458  0.00  0.00     0.066 H 
ATOM     38  H   LIG d   1       8.988  13.543  -3.948  0.00  0.00     0.066 H 
ENDBRANCH  34  35
ENDBRANCH  15  34
BRANCH  13  39
ATOM     39  O   LIG d   1      10.730  12.610  -8.684  0.00  0.00    -0.491 OA
BRANCH  39  40
ATOM     40  C   LIG d   1      12.063  12.824  -9.153  0.00  0.00     0.079 C 
ATOM     41  H   LIG d   1      12.645  13.324  -8.378  0.00  0.00     0.066 H 
ATOM     42  H   LIG d   1      12.523  11.865  -9.389  0.00  0.00     0.066 H 
ATOM     43  H   LIG d   1      12.039  13.447 -10.047  0.00  0.00     0.066 H 
ENDBRANCH  39  40
ENDBRANCH  13  39
BRANCH   8  44
ATOM     44  O   LIG d   1      10.763  10.135  -2.610  0.00  0.00    -0.491 OA
BRANCH  44  45
ATOM     45  C   LIG d   1      12.157  10.436  -2.706  0.00  0.00     0.079 C 
ATOM     46  H   LIG d   1      12.646   9.687  -3.329  0.00  0.00     0.066 H 
ATOM     47  H   LIG d   1      12.285  11.421  -3.155  0.00  0.00     0.066 H 
ATOM     48  H   LIG d   1      12.600  10.428  -1.711  0.00  0.00     0.066 H 
ENDBRANCH  44  45
ENDBRANCH   8  44
BRANCH   6  49
ATOM     49  O   LIG d   1       9.672   5.509  -2.184  0.00  0.00    -0.491 OA
BRANCH  49  50
ATOM     50  C   LIG d   1      10.299   4.321  -2.671  0.00  0.00     0.079 C 
ATOM     51  H   LIG d   1      11.121   4.047  -2.009  0.00  0.00     0.066 H 
ATOM     52  H   LIG d   1       9.570   3.511  -2.700  0.00  0.00     0.066 H 
ATOM     53  H   LIG d   1      10.686   4.499  -3.675  0.00  0.00     0.066 H 
ENDBRANCH  49  50
ENDBRANCH   6  49
BRANCH  14  54
ATOM     54  O   LIG d   1       9.105  13.293  -6.586  0.00  0.00    -0.488 OA
BRANCH  54  55
ATOM     55  C   LIG d   1       9.906  14.449  -6.330  0.00  0.00     0.079 C 
ATOM     56  H   LIG d   1      10.956  14.161  -6.284  0.00  0.00     0.066 H 
ATOM     57  H   LIG d   1       9.763  15.175  -7.130  0.00  0.00     0.066 H 
ATOM     58  H   LIG d   1       9.608  14.892  -5.379  0.00  0.00     0.066 H 
ENDBRANCH  54  55
ENDBRANCH  14  54
BRANCH   7  59
ATOM     59  O   LIG d   1      10.491   7.875  -1.070  0.00  0.00    -0.488 OA
BRANCH  59  60
ATOM     60  C   LIG d   1      11.792   7.444  -0.670  0.00  0.00     0.079 C 
ATOM     61  H   LIG d   1      11.707   6.788   0.196  0.00  0.00     0.066 H 
ATOM     62  H   LIG d   1      12.263   6.903  -1.491  0.00  0.00     0.066 H 
ATOM     63  H   LIG d   1      12.399   8.312  -0.410  0.00  0.00     0.066 H 
ENDBRANCH  59  60
ENDBRANCH   7  59
TORSDOF 15
ENDMDL
MODEL 6
REMARK VINA RESULT:      -4.2     10.137     13.372
REMARK  15 active torsions:
REMARK  status: ('A' for Active; 'I' for Inactive)
REMARK    1  A    between atoms: C_1  and  C_2 
REMARK    2  A    between atoms: C_7  and  O_31 
REMARK    3  A    between atoms: C_8  and  O_29 
REMARK    4  A    between atoms: C_9  and  O_27 
REMARK    5  A    between atoms: C_14  and  O_21 
REMARK    6  A    between atoms: C_15  and  O_19 
REMARK    7  A    between atoms: C_16  and  O_17 
REMARK    8  A    between atoms: O_17  and  C_18 
REMARK    9  A    between atoms: O_19  and  C_20 
REMARK   10  A    between atoms: O_21  and  C_22 
REMARK   11  A    between atoms: C_24  and  C_25 
REMARK   12  A    between atoms: C_24  and  O_26 
REMARK   13  A    between atoms: O_27  and  C_28 
REMARK   14  A    between atoms: O_29  and  C_30 
REMARK   15  A    between atoms: O_31  and  C_32 
ROOT
ATOM      1  C   LIG d   1      11.510   7.288  -7.361  0.00  0.00    -0.011 C 
ATOM      2  H   LIG d   1      11.904   7.652  -8.310  0.00  0.00     0.033 H 
ATOM      3  C   LIG d   1      11.728   8.363  -6.261  0.00  0.00    -0.022 C 
ATOM      4  C   LIG d   1      11.036   9.683  -6.615  0.00  0.00    -0.032 A 
ATOM      5  C   LIG d   1      11.218  10.515  -7.646  0.00  0.00    -0.012 A 
ATOM      6  C   LIG d   1      10.558  11.749  -7.635  0.00  0.00     0.166 A 
ATOM      7  C   LIG d   1       9.733  12.083  -6.565  0.00  0.00     0.204 A 
ATOM      8  C   LIG d   1       9.526  11.201  -5.508  0.00  0.00     0.173 A 
ATOM      9  C   LIG d   1      10.156   9.971  -5.526  0.00  0.00     0.035 A 
ATOM     10  C   LIG d   1      10.015   8.885  -4.541  0.00  0.00     0.035 A 
ATOM     11  C   LIG d   1       9.529   7.652  -5.075  0.00  0.00    -0.030 A 
ATOM     12  C   LIG d   1       9.429   6.533  -4.350  0.00  0.00    -0.012 A 
ATOM     13  C   LIG d   1       9.776   6.579  -2.994  0.00  0.00     0.166 A 
ATOM     14  C   LIG d   1      10.212   7.774  -2.431  0.00  0.00     0.204 A 
ATOM     15  C   LIG d   1      10.334   8.931  -3.197  0.00  0.00     0.173 A 
ATOM     16  C   LIG d   1       9.181   7.932  -6.538  0.00  0.00     0.002 C 
ATOM     17  C   LIG d   1       9.955   6.997  -7.504  0.00  0.00     0.070 C 
ATOM     18  H   LIG d   1      12.797   8.542  -6.146  0.00  0.00     0.032 H 
ATOM     19  H   LIG d   1      11.326   7.993  -5.319  0.00  0.00     0.032 H 
ATOM     20  H   LIG d   1      11.861  10.240  -8.469  0.00  0.00     0.066 H 
ATOM     21  H   LIG d   1       9.087   5.613  -4.800  0.00  0.00     0.066 H 
ATOM     22  H   LIG d   1       8.111   7.786  -6.683  0.00  0.00     0.034 H 
ATOM     23  H   LIG d   1       9.432   8.967  -6.770  0.00  0.00     0.034 H 
ENDROOT
BRANCH  17  24
ATOM     24  C   LIG d   1       9.514   7.269  -8.944  0.00  0.00    -0.035 C 
ATOM     25  H   LIG d   1       9.283   8.329  -9.059  0.00  0.00     0.026 H 
ATOM     26  H   LIG d   1      10.318   6.998  -9.627  0.00  0.00     0.026 H 
ATOM     27  H   LIG d   1       8.628   6.677  -9.171  0.00  0.00     0.026 H 
ENDBRANCH  17  24
BRANCH  17  28
ATOM     28  O   LIG d   1       9.687   5.635  -7.169  0.00  0.00    -0.388 OA
ATOM     29  H   LIG d   1       8.745   5.421  -7.110  0.00  0.00     0.210 HD
ENDBRANCH  17  28
BRANCH   1  30
ATOM     30  C   LIG d   1      12.237   6.000  -6.966  0.00  0.00    -0.059 C 
ATOM     31  H   LIG d   1      11.621   5.140  -7.230  0.00  0.00     0.023 H 
ATOM     32  H   LIG d   1      13.187   5.941  -7.498  0.00  0.00     0.023 H 
ATOM     33  H   LIG d   1      12.421   6.000  -5.892  0.00  0.00     0.023 H 
ENDBRANCH   1  30
BRANCH  15  34
ATOM     34  O   LIG d   1      10.761  10.090  -2.631  0.00  0.00    -0.491 OA
BRANCH  34  35
ATOM     35  C   LIG d   1      12.152  10.398  -2.750  0.00  0.00     0.079 C 
ATOM     36  H   LIG d   1      12.590   9.796  -3.546  0.00  0.00     0.066 H 
ATOM     37  H   LIG d   1      12.270  11.456  -2.989  0.00  0.00     0.066 H 
ATOM     38  H   LIG d   1      12.655  10.179  -1.809  0.00  0.00     0.066 H 
ENDBRANCH  34  35
ENDBRANCH  15  34
BRANCH  13  39
ATOM     39  O   LIG d   1       9.687   5.458  -2.229  0.00  0.00    -0.491 OA
BRANCH  39  40
ATOM     40  C   LIG d   1      10.359   4.292  -2.707  0.00  0.00     0.079 C 
ATOM     41  H   LIG d   1       9.750   3.808  -3.472  0.00  0.00     0.066 H 
ATOM     42  H   LIG d   1      11.321   4.576  -3.134  0.00  0.00     0.066 H 
ATOM     43  H   LIG d   1      10.519   3.599  -1.880  0.00  0.00     0.066 H 
ENDBRANCH  39  40
ENDBRANCH  13  39
BRANCH   8  44
ATOM     44  O   LIG d   1       8.716  11.545  -4.472  0.00  0.00    -0.491 OA
BRANCH  44  45
ATOM     45  C   LIG d   1       9.215  12.518  -3.553  0.00  0.00     0.079 C 
ATOM     46  H   LIG d   1      10.018  13.085  -4.025  0.00  0.00     0.066 H 
ATOM     47  H   LIG d   1       8.410  13.196  -3.269  0.00  0.00     0.066 H 
ATOM     48  H   LIG d   1       9.598  12.016  -2.665  0.00  0.00     0.066 H 
ENDBRANCH  44  45
ENDBRANCH   8  44
BRANCH   6  49
ATOM     49  O   LIG d   1      10.722  12.619  -8.667  0.00  0.00    -0.491 OA
BRANCH  49  50
ATOM     50  C   LIG d   1      12.064  12.899  -9.073  0.00  0.00     0.079 C 
ATOM     51  H   LIG d   1      12.736  12.747  -8.228  0.00  0.00     0.066 H 
ATOM     52  H   LIG d   1      12.344  12.231  -9.887  0.00  0.00     0.066 H 
ATOM     53  H   LIG d   1      12.133  13.933  -9.410  0.00  0.00     0.066 H 
ENDBRANCH  49  50
ENDBRANCH   6  49
BRANCH  14  54
ATOM     54  O   LIG d   1      10.527   7.813  -1.108  0.00  0.00    -0.488 OA
BRANCH  54  55
ATOM     55  C   LIG d   1      11.841   7.388  -0.740  0.00  0.00     0.079 C 
ATOM     56  H   LIG d   1      11.999   6.364  -1.080  0.00  0.00     0.066 H 
ATOM     57  H   LIG d   1      12.578   8.042  -1.204  0.00  0.00     0.066 H 
ATOM     58  H   LIG d   1      11.946   7.432   0.344  0.00  0.00     0.066 H 
ENDBRANCH  54  55
ENDBRANCH  14  54
BRANCH   7  59
ATOM     59  O   LIG d   1       9.117  13.297  -6.551  0.00  0.00    -0.488 OA
BRANCH  59  60
ATOM     60  C   LIG d   1       9.933  14.436  -6.271  0.00  0.00     0.079 C 
ATOM     61  H   LIG d   1      10.695  14.536  -7.044  0.00  0.00     0.066 H 
ATOM     62  H   LIG d   1       9.312  15.332  -6.254  0.00  0.00     0.066 H 
ATOM     63  H   LIG d   1      10.414  14.308  -5.301  0.00  0.00     0.066 H 
ENDBRANCH  59  60
ENDBRANCH   7  59
TORSDOF 15
ENDMDL
MODEL 7
REMARK VINA RESULT:      -4.2      0.784      6.016
REMARK  15 active torsions:
REMARK  status: ('A' for Active; 'I' for Inactive)
REMARK    1  A    between atoms: C_1  and  C_2 
REMARK    2  A    between atoms: C_7  and  O_31 
REMARK    3  A    between atoms: C_8  and  O_29 
REMARK    4  A    between atoms: C_9  and  O_27 
REMARK    5  A    between atoms: C_14  and  O_21 
REMARK    6  A    between atoms: C_15  and  O_19 
REMARK    7  A    between atoms: C_16  and  O_17 
REMARK    8  A    between atoms: O_17  and  C_18 
REMARK    9  A    between atoms: O_19  and  C_20 
REMARK   10  A    between atoms: O_21  and  C_22 
REMARK   11  A    between atoms: C_24  and  C_25 
REMARK   12  A    between atoms: C_24  and  O_26 
REMARK   13  A    between atoms: O_27  and  C_28 
REMARK   14  A    between atoms: O_29  and  C_30 
REMARK   15  A    between atoms: O_31  and  C_32 
ROOT
ATOM      1  C   LIG d   1       4.024  -1.376  -3.750  0.00  0.00    -0.011 C 
ATOM      2  H   LIG d   1       3.075  -0.862  -3.903  0.00  0.00     0.033 H 
ATOM      3  C   LIG d   1       4.429  -2.119  -5.052  0.00  0.00    -0.022 C 
ATOM      4  C   LIG d   1       4.568  -1.154  -6.234  0.00  0.00    -0.032 A 
ATOM      5  C   LIG d   1       3.670  -0.353  -6.818  0.00  0.00    -0.012 A 
ATOM      6  C   LIG d   1       4.028   0.306  -7.999  0.00  0.00     0.166 A 
ATOM      7  C   LIG d   1       5.297   0.118  -8.539  0.00  0.00     0.204 A 
ATOM      8  C   LIG d   1       6.237  -0.697  -7.912  0.00  0.00     0.173 A 
ATOM      9  C   LIG d   1       5.897  -1.329  -6.731  0.00  0.00     0.035 A 
ATOM     10  C   LIG d   1       6.766  -2.173  -5.892  0.00  0.00     0.035 A 
ATOM     11  C   LIG d   1       6.944  -1.702  -4.555  0.00  0.00    -0.030 A 
ATOM     12  C   LIG d   1       7.620  -2.387  -3.626  0.00  0.00    -0.012 A 
ATOM     13  C   LIG d   1       8.216  -3.601  -3.988  0.00  0.00     0.166 A 
ATOM     14  C   LIG d   1       8.097  -4.068  -5.294  0.00  0.00     0.204 A 
ATOM     15  C   LIG d   1       7.375  -3.360  -6.252  0.00  0.00     0.173 A 
ATOM     16  C   LIG d   1       6.241  -0.346  -4.485  0.00  0.00     0.002 C 
ATOM     17  C   LIG d   1       5.151  -0.317  -3.382  0.00  0.00     0.070 C 
ATOM     18  H   LIG d   1       3.668  -2.862  -5.289  0.00  0.00     0.032 H 
ATOM     19  H   LIG d   1       5.382  -2.623  -4.892  0.00  0.00     0.032 H 
ATOM     20  H   LIG d   1       2.690  -0.218  -6.385  0.00  0.00     0.066 H 
ATOM     21  H   LIG d   1       7.705  -2.011  -2.617  0.00  0.00     0.066 H 
ATOM     22  H   LIG d   1       6.980   0.427  -4.274  0.00  0.00     0.034 H 
ATOM     23  H   LIG d   1       5.776  -0.138  -5.449  0.00  0.00     0.034 H 
ENDROOT
BRANCH  17  24
ATOM     24  C   LIG d   1       4.534   1.081  -3.307  0.00  0.00    -0.035 C 
ATOM     25  H   LIG d   1       5.321   1.817  -3.144  0.00  0.00     0.026 H 
ATOM     26  H   LIG d   1       4.019   1.302  -4.242  0.00  0.00     0.026 H 
ATOM     27  H   LIG d   1       3.822   1.121  -2.483  0.00  0.00     0.026 H 
ENDBRANCH  17  24
BRANCH  17  28
ATOM     28  O   LIG d   1       5.734  -0.654  -2.123  0.00  0.00    -0.388 OA
ATOM     29  H   LIG d   1       5.137  -1.125  -1.525  0.00  0.00     0.210 HD
ENDBRANCH  17  28
BRANCH   1  30
ATOM     30  C   LIG d   1       3.881  -2.386  -2.609  0.00  0.00    -0.059 C 
ATOM     31  H   LIG d   1       4.834  -2.891  -2.449  0.00  0.00     0.023 H 
ATOM     32  H   LIG d   1       3.589  -1.866  -1.697  0.00  0.00     0.023 H 
ATOM     33  H   LIG d   1       3.119  -3.121  -2.868  0.00  0.00     0.023 H 
ENDBRANCH   1  30
BRANCH  15  34
ATOM     34  O   LIG d   1       7.270  -3.830  -7.522  0.00  0.00    -0.491 OA
BRANCH  34  35
ATOM     35  C   LIG d   1       6.152  -4.672  -7.814  0.00  0.00     0.079 C 
ATOM     36  H   LIG d   1       5.920  -4.612  -8.877  0.00  0.00     0.066 H 
ATOM     37  H   LIG d   1       6.396  -5.702  -7.553  0.00  0.00     0.066 H 
ATOM     38  H   LIG d   1       5.289  -4.345  -7.234  0.00  0.00     0.066 H 
ENDBRANCH  34  35
ENDBRANCH  15  34
BRANCH  13  39
ATOM     39  O   LIG d   1       8.908  -4.323  -3.068  0.00  0.00    -0.491 OA
BRANCH  39  40
ATOM     40  C   LIG d   1      10.263  -3.937  -2.827  0.00  0.00     0.079 C 
ATOM     41  H   LIG d   1      10.477  -3.010  -3.360  0.00  0.00     0.066 H 
ATOM     42  H   LIG d   1      10.412  -3.784  -1.758  0.00  0.00     0.066 H 
ATOM     43  H   LIG d   1      10.933  -4.721  -3.180  0.00  0.00     0.066 H 
ENDBRANCH  39  40
ENDBRANCH  13  39
BRANCH   8  44
ATOM     44  O   LIG d   1       7.472  -0.866  -8.454  0.00  0.00    -0.491 OA
BRANCH  44  45
ATOM     45  C   LIG d   1       8.497   0.032  -8.027  0.00  0.00     0.079 C 
ATOM     46  H   LIG d   1       9.133   0.287  -8.875  0.00  0.00     0.066 H 
ATOM     47  H   LIG d   1       8.043   0.939  -7.628  0.00  0.00     0.066 H 
ATOM     48  H   LIG d   1       9.098  -0.444  -7.253  0.00  0.00     0.066 H 
ENDBRANCH  44  45
ENDBRANCH   8  44
BRANCH   6  49
ATOM     49  O   LIG d   1       3.139   1.127  -8.619  0.00  0.00    -0.491 OA
BRANCH  49  50
ATOM     50  C   LIG d   1       2.139   0.506  -9.430  0.00  0.00     0.079 C 
ATOM     51  H   LIG d   1       1.752  -0.375  -8.917  0.00  0.00     0.066 H 
ATOM     52  H   LIG d   1       1.326   1.211  -9.607  0.00  0.00     0.066 H 
ATOM     53  H   LIG d   1       2.577   0.209 -10.383  0.00  0.00     0.066 H 
ENDBRANCH  49  50
ENDBRANCH   6  49
BRANCH  14  54
ATOM     54  O   LIG d   1       8.698  -5.238  -5.642  0.00  0.00    -0.488 OA
BRANCH  54  55
ATOM     55  C   LIG d   1       9.981  -5.148  -6.265  0.00  0.00     0.079 C 
ATOM     56  H   LIG d   1      10.688  -4.687  -5.575  0.00  0.00     0.066 H 
ATOM     57  H   LIG d   1      10.329  -6.147  -6.527  0.00  0.00     0.066 H 
ATOM     58  H   LIG d   1       9.905  -4.541  -7.167  0.00  0.00     0.066 H 
ENDBRANCH  54  55
ENDBRANCH  14  54
BRANCH   7  59
ATOM     59  O   LIG d   1       5.626   0.742  -9.703  0.00  0.00    -0.488 OA
BRANCH  59  60
ATOM     60  C   LIG d   1       5.460  -0.005 -10.909  0.00  0.00     0.079 C 
ATOM     61  H   LIG d   1       5.896  -0.997 -10.786  0.00  0.00     0.066 H 
ATOM     62  H   LIG d   1       4.399  -0.100 -11.135  0.00  0.00     0.066 H 
ATOM     63  H   LIG d   1       5.962   0.511 -11.729  0.00  0.00     0.066 H 
ENDBRANCH  59  60
ENDBRANCH   7  59
TORSDOF 15
ENDMDL
MODEL 8
REMARK VINA RESULT:      -4.2     10.500     12.064
REMARK  15 active torsions:
REMARK  status: ('A' for Active; 'I' for Inactive)
REMARK    1  A    between atoms: C_1  and  C_2 
REMARK    2  A    between atoms: C_7  and  O_31 
REMARK    3  A    between atoms: C_8  and  O_29 
REMARK    4  A    between atoms: C_9  and  O_27 
REMARK    5  A    between atoms: C_14  and  O_21 
REMARK    6  A    between atoms: C_15  and  O_19 
REMARK    7  A    between atoms: C_16  and  O_17 
REMARK    8  A    between atoms: O_17  and  C_18 
REMARK    9  A    between atoms: O_19  and  C_20 
REMARK   10  A    between atoms: O_21  and  C_22 
REMARK   11  A    between atoms: C_24  and  C_25 
REMARK   12  A    between atoms: C_24  and  O_26 
REMARK   13  A    between atoms: O_27  and  C_28 
REMARK   14  A    between atoms: O_29  and  C_30 
REMARK   15  A    between atoms: O_31  and  C_32 
ROOT
ATOM      1  C   LIG d   1      11.768  11.008  -1.511  0.00  0.00    -0.011 C 
ATOM      2  H   LIG d   1      12.297  10.659  -0.624  0.00  0.00     0.033 H 
ATOM      3  C   LIG d   1      11.958   9.986  -2.665  0.00  0.00    -0.022 C 
ATOM      4  C   LIG d   1      11.433   8.598  -2.284  0.00  0.00    -0.032 A 
ATOM      5  C   LIG d   1      11.805   7.761  -1.310  0.00  0.00    -0.012 A 
ATOM      6  C   LIG d   1      11.264   6.471  -1.292  0.00  0.00     0.166 A 
ATOM      7  C   LIG d   1      10.358   6.087  -2.276  0.00  0.00     0.204 A 
ATOM      8  C   LIG d   1       9.954   6.973  -3.273  0.00  0.00     0.173 A 
ATOM      9  C   LIG d   1      10.467   8.256  -3.280  0.00  0.00     0.035 A 
ATOM     10  C   LIG d   1      10.118   9.348  -4.205  0.00  0.00     0.035 A 
ATOM     11  C   LIG d   1       9.584  10.515  -3.577  0.00  0.00    -0.030 A 
ATOM     12  C   LIG d   1       9.302  11.637  -4.248  0.00  0.00    -0.012 A 
ATOM     13  C   LIG d   1       9.498  11.659  -5.634  0.00  0.00     0.166 A 
ATOM     14  C   LIG d   1       9.975  10.525  -6.283  0.00  0.00     0.204 A 
ATOM     15  C   LIG d   1      10.287   9.365  -5.576  0.00  0.00     0.173 A 
ATOM     16  C   LIG d   1       9.430  10.167  -2.097  0.00  0.00     0.002 C 
ATOM     17  C   LIG d   1      10.219  11.147  -1.188  0.00  0.00     0.070 C 
ATOM     18  H   LIG d   1      13.019   9.912  -2.902  0.00  0.00     0.032 H 
ATOM     19  H   LIG d   1      11.421  10.340  -3.544  0.00  0.00     0.032 H 
ATOM     20  H   LIG d   1      12.508   8.075  -0.553  0.00  0.00     0.066 H 
ATOM     21  H   LIG d   1       8.930  12.510  -3.730  0.00  0.00     0.066 H 
ATOM     22  H   LIG d   1       8.374  10.208  -1.830  0.00  0.00     0.034 H 
ATOM     23  H   LIG d   1       9.798   9.155  -1.930  0.00  0.00     0.034 H 
ENDROOT
BRANCH  17  24
ATOM     24  C   LIG d   1       9.969  10.798   0.281  0.00  0.00    -0.035 C 
ATOM     25  H   LIG d   1      10.049   9.719   0.417  0.00  0.00     0.026 H 
ATOM     26  H   LIG d   1      10.709  11.298   0.904  0.00  0.00     0.026 H 
ATOM     27  H   LIG d   1       8.970  11.127   0.568  0.00  0.00     0.026 H 
ENDBRANCH  17  24
BRANCH  17  28
ATOM     28  O   LIG d   1       9.792  12.486  -1.444  0.00  0.00    -0.388 OA
ATOM     29  H   LIG d   1       9.977  12.794  -2.342  0.00  0.00     0.210 HD
ENDBRANCH  17  28
BRANCH   1  30
ATOM     30  C   LIG d   1      12.325  12.368  -1.936  0.00  0.00    -0.059 C 
ATOM     31  H   LIG d   1      11.688  13.161  -1.543  0.00  0.00     0.023 H 
ATOM     32  H   LIG d   1      13.335  12.487  -1.543  0.00  0.00     0.023 H 
ATOM     33  H   LIG d   1      12.350  12.427  -3.024  0.00  0.00     0.023 H 
ENDBRANCH   1  30
BRANCH  15  34
ATOM     34  O   LIG d   1      10.752   8.266  -6.227  0.00  0.00    -0.491 OA
BRANCH  34  35
ATOM     35  C   LIG d   1      12.170   8.091  -6.276  0.00  0.00     0.079 C 
ATOM     36  H   LIG d   1      12.522   8.267  -7.292  0.00  0.00     0.066 H 
ATOM     37  H   LIG d   1      12.646   8.800  -5.598  0.00  0.00     0.066 H 
ATOM     38  H   LIG d   1      12.421   7.075  -5.974  0.00  0.00     0.066 H 
ENDBRANCH  34  35
ENDBRANCH  15  34
BRANCH  13  39
ATOM     39  O   LIG d   1       9.221  12.785  -6.344  0.00  0.00    -0.491 OA
BRANCH  39  40
ATOM     40  C   LIG d   1       9.845  13.995  -5.910  0.00  0.00     0.079 C 
ATOM     41  H   LIG d   1      10.870  13.785  -5.602  0.00  0.00     0.066 H 
ATOM     42  H   LIG d   1       9.853  14.714  -6.729  0.00  0.00     0.066 H 
ATOM     43  H   LIG d   1       9.290  14.409  -5.068  0.00  0.00     0.066 H 
ENDBRANCH  39  40
ENDBRANCH  13  39
BRANCH   8  44
ATOM     44  O   LIG d   1       9.067   6.579  -4.225  0.00  0.00    -0.491 OA
BRANCH  44  45
ATOM     45  C   LIG d   1       9.547   5.680  -5.226  0.00  0.00     0.079 C 
ATOM     46  H   LIG d   1       9.769   6.236  -6.137  0.00  0.00     0.066 H 
ATOM     47  H   LIG d   1      10.453   5.189  -4.870  0.00  0.00     0.066 H 
ATOM     48  H   LIG d   1       8.785   4.929  -5.436  0.00  0.00     0.066 H 
ENDBRANCH  44  45
ENDBRANCH   8  44
BRANCH   6  49
ATOM     49  O   LIG d   1      11.621   5.595  -0.315  0.00  0.00    -0.491 OA
BRANCH  49  50
ATOM     50  C   LIG d   1      11.156   5.872   1.007  0.00  0.00     0.079 C 
ATOM     51  H   LIG d   1      11.521   6.851   1.322  0.00  0.00     0.066 H 
ATOM     52  H   LIG d   1      10.066   5.870   1.017  0.00  0.00     0.066 H 
ATOM     53  H   LIG d   1      11.528   5.109   1.691  0.00  0.00     0.066 H 
ENDBRANCH  49  50
ENDBRANCH   6  49
BRANCH  14  54
ATOM     54  O   LIG d   1      10.141  10.548  -7.634  0.00  0.00    -0.488 OA
BRANCH  54  55
ATOM     55  C   LIG d   1      11.357  11.114  -8.127  0.00  0.00     0.079 C 
ATOM     56  H   LIG d   1      11.165  12.121  -8.499  0.00  0.00     0.066 H 
ATOM     57  H   LIG d   1      12.091  11.158  -7.323  0.00  0.00     0.066 H 
ATOM     58  H   LIG d   1      11.743  10.495  -8.938  0.00  0.00     0.066 H 
ENDBRANCH  54  55
ENDBRANCH  14  54
BRANCH   7  59
ATOM     59  O   LIG d   1       9.857   4.821  -2.266  0.00  0.00    -0.488 OA
BRANCH  59  60
ATOM     60  C   LIG d   1      10.750   3.767  -2.629  0.00  0.00     0.079 C 
ATOM     61  H   LIG d   1      11.132   3.288  -1.728  0.00  0.00     0.066 H 
ATOM     62  H   LIG d   1      10.218   3.033  -3.234  0.00  0.00     0.066 H 
ATOM     63  H   LIG d   1      11.582   4.178  -3.203  0.00  0.00     0.066 H 
ENDBRANCH  59  60
ENDBRANCH   7  59
TORSDOF 15
ENDMDL
MODEL 9
REMARK VINA RESULT:      -4.2      2.977      5.340
REMARK  15 active torsions:
REMARK  status: ('A' for Active; 'I' for Inactive)
REMARK    1  A    between atoms: C_1  and  C_2 
REMARK    2  A    between atoms: C_7  and  O_31 
REMARK    3  A    between atoms: C_8  and  O_29 
REMARK    4  A    between atoms: C_9  and  O_27 
REMARK    5  A    between atoms: C_14  and  O_21 
REMARK    6  A    between atoms: C_15  and  O_19 
REMARK    7  A    between atoms: C_16  and  O_17 
REMARK    8  A    between atoms: O_17  and  C_18 
REMARK    9  A    between atoms: O_19  and  C_20 
REMARK   10  A    between atoms: O_21  and  C_22 
REMARK   11  A    between atoms: C_24  and  C_25 
REMARK   12  A    between atoms: C_24  and  O_26 
REMARK   13  A    between atoms: O_27  and  C_28 
REMARK   14  A    between atoms: O_29  and  C_30 
REMARK   15  A    between atoms: O_31  and  C_32 
ROOT
ATOM      1  C   LIG d   1       4.363   0.543  -9.836  0.00  0.00    -0.011 C 
ATOM      2  H   LIG d   1       4.956   1.411  -9.547  0.00  0.00     0.033 H 
ATOM      3  C   LIG d   1       5.075  -0.754  -9.364  0.00  0.00    -0.022 C 
ATOM      4  C   LIG d   1       5.273  -0.769  -7.845  0.00  0.00    -0.032 A 
ATOM      5  C   LIG d   1       5.962   0.052  -7.046  0.00  0.00    -0.012 A 
ATOM      6  C   LIG d   1       6.115  -0.294  -5.699  0.00  0.00     0.166 A 
ATOM      7  C   LIG d   1       5.552  -1.474  -5.221  0.00  0.00     0.204 A 
ATOM      8  C   LIG d   1       4.813  -2.312  -6.052  0.00  0.00     0.173 A 
ATOM      9  C   LIG d   1       4.638  -1.962  -7.377  0.00  0.00     0.035 A 
ATOM     10  C   LIG d   1       3.843  -2.677  -8.389  0.00  0.00     0.035 A 
ATOM     11  C   LIG d   1       2.784  -1.913  -8.968  0.00  0.00    -0.030 A 
ATOM     12  C   LIG d   1       2.022  -2.366  -9.969  0.00  0.00    -0.012 A 
ATOM     13  C   LIG d   1       2.241  -3.664 -10.446  0.00  0.00     0.166 A 
ATOM     14  C   LIG d   1       3.237  -4.452  -9.875  0.00  0.00     0.204 A 
ATOM     15  C   LIG d   1       4.041  -3.966  -8.847  0.00  0.00     0.173 A 
ATOM     16  C   LIG d   1       2.755  -0.586  -8.208  0.00  0.00     0.002 C 
ATOM     17  C   LIG d   1       2.929   0.627  -9.158  0.00  0.00     0.070 C 
ATOM     18  H   LIG d   1       6.048  -0.823  -9.850  0.00  0.00     0.032 H 
ATOM     19  H   LIG d   1       4.471  -1.614  -9.652  0.00  0.00     0.032 H 
ATOM     20  H   LIG d   1       6.392   0.964  -7.433  0.00  0.00     0.066 H 
ATOM     21  H   LIG d   1       1.251  -1.744 -10.401  0.00  0.00     0.066 H 
ATOM     22  H   LIG d   1       1.801  -0.496  -7.688  0.00  0.00     0.034 H 
ATOM     23  H   LIG d   1       3.560  -0.580  -7.474  0.00  0.00     0.034 H 
ENDROOT
BRANCH  17  24
ATOM     24  C   LIG d   1       2.817   1.927  -8.357  0.00  0.00    -0.035 C 
ATOM     25  H   LIG d   1       3.693   2.547  -8.547  0.00  0.00     0.026 H 
ATOM     26  H   LIG d   1       1.920   2.464  -8.661  0.00  0.00     0.026 H 
ATOM     27  H   LIG d   1       2.759   1.694  -7.294  0.00  0.00     0.026 H 
ENDBRANCH  17  24
BRANCH  17  28
ATOM     28  O   LIG d   1       1.918   0.595 -10.166  0.00  0.00    -0.388 OA
ATOM     29  H   LIG d   1       1.696   1.464 -10.530  0.00  0.00     0.210 HD
ENDBRANCH  17  28
BRANCH   1  30
ATOM     30  C   LIG d   1       4.208   0.515 -11.359  0.00  0.00    -0.059 C 
ATOM     31  H   LIG d   1       4.075  -0.514 -11.691  0.00  0.00     0.023 H 
ATOM     32  H   LIG d   1       3.337   1.104 -11.646  0.00  0.00     0.023 H 
ATOM     33  H   LIG d   1       5.101   0.935 -11.823  0.00  0.00     0.023 H 
ENDBRANCH   1  30
BRANCH  15  34
ATOM     34  O   LIG d   1       5.009  -4.749  -8.301  0.00  0.00    -0.491 OA
BRANCH  34  35
ATOM     35  C   LIG d   1       6.313  -4.671  -8.881  0.00  0.00     0.079 C 
ATOM     36  H   LIG d   1       7.005  -4.239  -8.159  0.00  0.00     0.066 H 
ATOM     37  H   LIG d   1       6.649  -5.671  -9.153  0.00  0.00     0.066 H 
ATOM     38  H   LIG d   1       6.277  -4.044  -9.771  0.00  0.00     0.066 H 
ENDBRANCH  34  35
ENDBRANCH  15  34
BRANCH  13  39
ATOM     39  O   LIG d   1       1.484  -4.154 -11.463  0.00  0.00    -0.491 OA
BRANCH  39  40
ATOM     40  C   LIG d   1       0.085  -4.306 -11.215  0.00  0.00     0.079 C 
ATOM     41  H   LIG d   1      -0.286  -5.180 -11.752  0.00  0.00     0.066 H 
ATOM     42  H   LIG d   1      -0.082  -4.438 -10.147  0.00  0.00     0.066 H 
ATOM     43  H   LIG d   1      -0.444  -3.417 -11.560  0.00  0.00     0.066 H 
ENDBRANCH  39  40
ENDBRANCH  13  39
BRANCH   8  44
ATOM     44  O   LIG d   1       4.270  -3.460  -5.565  0.00  0.00    -0.491 OA
BRANCH  44  45
ATOM     45  C   LIG d   1       5.173  -4.519  -5.242  0.00  0.00     0.079 C 
ATOM     46  H   LIG d   1       5.069  -4.774  -4.187  0.00  0.00     0.066 H 
ATOM     47  H   LIG d   1       4.942  -5.392  -5.852  0.00  0.00     0.066 H 
ATOM     48  H   LIG d   1       6.195  -4.197  -5.439  0.00  0.00     0.066 H 
ENDBRANCH  44  45
ENDBRANCH   8  44
BRANCH   6  49
ATOM     49  O   LIG d   1       6.810   0.518  -4.860  0.00  0.00    -0.491 OA
BRANCH  49  50
ATOM     50  C   LIG d   1       8.235   0.504  -4.975  0.00  0.00     0.079 C 
ATOM     51  H   LIG d   1       8.557   1.346  -5.589  0.00  0.00     0.066 H 
ATOM     52  H   LIG d   1       8.680   0.585  -3.984  0.00  0.00     0.066 H 
ATOM     53  H   LIG d   1       8.552  -0.428  -5.442  0.00  0.00     0.066 H 
ENDBRANCH  49  50
ENDBRANCH   6  49
BRANCH  14  54
ATOM     54  O   LIG d   1       3.428  -5.720 -10.331  0.00  0.00    -0.488 OA
BRANCH  54  55
ATOM     55  C   LIG d   1       2.669  -6.756  -9.704  0.00  0.00     0.079 C 
ATOM     56  H   LIG d   1       2.311  -7.453 -10.461  0.00  0.00     0.066 H 
ATOM     57  H   LIG d   1       3.298  -7.286  -8.990  0.00  0.00     0.066 H 
ATOM     58  H   LIG d   1       1.818  -6.316  -9.182  0.00  0.00     0.066 H 
ENDBRANCH  54  55
ENDBRANCH  14  54
BRANCH   7  59
ATOM     59  O   LIG d   1       5.729  -1.816  -3.915  0.00  0.00    -0.488 OA
BRANCH  59  60
ATOM     60  C   LIG d   1       4.737  -1.374  -2.988  0.00  0.00     0.079 C 
ATOM     61  H   LIG d   1       4.672  -0.286  -3.017  0.00  0.00     0.066 H 
ATOM     62  H   LIG d   1       3.772  -1.803  -3.256  0.00  0.00     0.066 H 
ATOM     63  H   LIG d   1       5.011  -1.694  -1.982  0.00  0.00     0.066 H 
ENDBRANCH  59  60
ENDBRANCH   7  59
TORSDOF 15
ENDMDL
MODEL 10
REMARK VINA RESULT:      -4.2      9.367     11.543
REMARK  15 active torsions:
REMARK  status: ('A' for Active; 'I' for Inactive)
REMARK    1  A    between atoms: C_1  and  C_2 
REMARK    2  A    between atoms: C_7  and  O_31 
REMARK    3  A    between atoms: C_8  and  O_29 
REMARK    4  A    between atoms: C_9  and  O_27 
REMARK    5  A    between atoms: C_14  and  O_21 
REMARK    6  A    between atoms: C_15  and  O_19 
REMARK    7  A    between atoms: C_16  and  O_17 
REMARK    8  A    between atoms: O_17  and  C_18 
REMARK    9  A    between atoms: O_19  and  C_20 
REMARK   10  A    between atoms: O_21  and  C_22 
REMARK   11  A    between atoms: C_24  and  C_25 
REMARK   12  A    between atoms: C_24  and  O_26 
REMARK   13  A    between atoms: O_27  and  C_28 
REMARK   14  A    between atoms: O_29  and  C_30 
REMARK   15  A    between atoms: O_31  and  C_32 
ROOT
ATOM      1  C   LIG d   1      11.421  11.008  -5.450  0.00  0.00    -0.011 C 
ATOM      2  H   LIG d   1      11.862  11.673  -4.707  0.00  0.00     0.033 H 
ATOM      3  C   LIG d   1      11.798   9.537  -5.121  0.00  0.00    -0.022 C 
ATOM      4  C   LIG d   1      11.307   9.126  -3.730  0.00  0.00    -0.032 A 
ATOM      5  C   LIG d   1      11.608   9.609  -2.519  0.00  0.00    -0.012 A 
ATOM      6  C   LIG d   1      11.137   8.928  -1.390  0.00  0.00     0.166 A 
ATOM      7  C   LIG d   1      10.373   7.775  -1.546  0.00  0.00     0.204 A 
ATOM      8  C   LIG d   1      10.041   7.293  -2.810  0.00  0.00     0.173 A 
ATOM      9  C   LIG d   1      10.481   7.975  -3.928  0.00  0.00     0.035 A 
ATOM     10  C   LIG d   1      10.184   7.662  -5.336  0.00  0.00     0.035 A 
ATOM     11  C   LIG d   1       9.521   8.705  -6.052  0.00  0.00    -0.030 A 
ATOM     12  C   LIG d   1       9.258   8.635  -7.362  0.00  0.00    -0.012 A 
ATOM     13  C   LIG d   1       9.611   7.472  -8.057  0.00  0.00     0.166 A 
ATOM     14  C   LIG d   1      10.220   6.419  -7.380  0.00  0.00     0.204 A 
ATOM     15  C   LIG d   1      10.510   6.507  -6.020  0.00  0.00     0.173 A 
ATOM     16  C   LIG d   1       9.215   9.797  -5.027  0.00  0.00     0.002 C 
ATOM     17  C   LIG d   1       9.840  11.158  -5.429  0.00  0.00     0.070 C 
ATOM     18  H   LIG d   1      12.882   9.431  -5.161  0.00  0.00     0.032 H 
ATOM     19  H   LIG d   1      11.347   8.881  -5.865  0.00  0.00     0.032 H 
ATOM     20  H   LIG d   1      12.201  10.505  -2.416  0.00  0.00     0.066 H 
ATOM     21  H   LIG d   1       8.783   9.460  -7.874  0.00  0.00     0.066 H 
ATOM     22  H   LIG d   1       8.134   9.913  -4.943  0.00  0.00     0.034 H 
ATOM     23  H   LIG d   1       9.615   9.495  -4.058  0.00  0.00     0.034 H 
ENDROOT
BRANCH  17  24
ATOM     24  C   LIG d   1       9.441  12.227  -4.409  0.00  0.00    -0.035 C 
ATOM     25  H   LIG d   1      10.294  12.455  -3.769  0.00  0.00     0.026 H 
ATOM     26  H   LIG d   1       9.130  13.130  -4.933  0.00  0.00     0.026 H 
ATOM     27  H   LIG d   1       8.617  11.858  -3.799  0.00  0.00     0.026 H 
ENDBRANCH  17  24
BRANCH  17  28
ATOM     28  O   LIG d   1       9.375  11.534  -6.726  0.00  0.00    -0.388 OA
ATOM     29  H   LIG d   1       9.218  12.483  -6.829  0.00  0.00     0.210 HD
ENDBRANCH  17  28
BRANCH   1  30
ATOM     30  C   LIG d   1      11.951  11.372  -6.839  0.00  0.00    -0.059 C 
ATOM     31  H   LIG d   1      12.150  10.460  -7.402  0.00  0.00     0.023 H 
ATOM     32  H   LIG d   1      11.207  11.969  -7.367  0.00  0.00     0.023 H 
ATOM     33  H   LIG d   1      12.873  11.946  -6.738  0.00  0.00     0.023 H 
ENDBRANCH   1  30
BRANCH  15  34
ATOM     34  O   LIG d   1      11.104   5.469  -5.374  0.00  0.00    -0.491 OA
BRANCH  34  35
ATOM     35  C   LIG d   1      12.533   5.458  -5.339  0.00  0.00     0.079 C 
ATOM     36  H   LIG d   1      12.873   5.640  -4.320  0.00  0.00     0.066 H 
ATOM     37  H   LIG d   1      12.897   4.487  -5.676  0.00  0.00     0.066 H 
ATOM     38  H   LIG d   1      12.919   6.238  -5.996  0.00  0.00     0.066 H 
ENDBRANCH  34  35
ENDBRANCH  15  34
BRANCH  13  39
ATOM     39  O   LIG d   1       9.360   7.370  -9.389  0.00  0.00    -0.491 OA
BRANCH  39  40
ATOM     40  C   LIG d   1      10.233   8.078 -10.270  0.00  0.00     0.079 C 
ATOM     41  H   LIG d   1      10.283   7.558 -11.227  0.00  0.00     0.066 H 
ATOM     42  H   LIG d   1       9.854   9.088 -10.425  0.00  0.00     0.066 H 
ATOM     43  H   LIG d   1      11.230   8.127  -9.832  0.00  0.00     0.066 H 
ENDBRANCH  39  40
ENDBRANCH  13  39
BRANCH   8  44
ATOM     44  O   LIG d   1       9.292   6.166  -2.941  0.00  0.00    -0.491 OA
BRANCH  44  45
ATOM     45  C   LIG d   1       9.946   4.920  -2.696  0.00  0.00     0.079 C 
ATOM     46  H   LIG d   1      10.656   4.719  -3.499  0.00  0.00     0.066 H 
ATOM     47  H   LIG d   1      10.478   4.969  -1.746  0.00  0.00     0.066 H 
ATOM     48  H   LIG d   1       9.206   4.122  -2.658  0.00  0.00     0.066 H 
ENDBRANCH  44  45
ENDBRANCH   8  44
BRANCH   6  49
ATOM     49  O   LIG d   1      11.425   9.392  -0.145  0.00  0.00    -0.491 OA
BRANCH  49  50
ATOM     50  C   LIG d   1      10.624  10.468   0.348  0.00  0.00     0.079 C 
ATOM     51  H   LIG d   1      10.580  11.259  -0.400  0.00  0.00     0.066 H 
ATOM     52  H   LIG d   1       9.617  10.105   0.555  0.00  0.00     0.066 H 
ATOM     53  H   LIG d   1      11.066  10.859   1.265  0.00  0.00     0.066 H 
ENDBRANCH  49  50
ENDBRANCH   6  49
BRANCH  14  54
ATOM     54  O   LIG d   1      10.540   5.284  -8.059  0.00  0.00    -0.488 OA
BRANCH  54  55
ATOM     55  C   LIG d   1       9.550   4.255  -8.103  0.00  0.00     0.079 C 
ATOM     56  H   LIG d   1       8.735   4.505  -7.424  0.00  0.00     0.066 H 
ATOM     57  H   LIG d   1       9.162   4.165  -9.118  0.00  0.00     0.066 H 
ATOM     58  H   LIG d   1       9.998   3.308  -7.800  0.00  0.00     0.066 H 
ENDBRANCH  54  55
ENDBRANCH  14  54
BRANCH   7  59
ATOM     59  O   LIG d   1       9.942   7.106  -0.442  0.00  0.00    -0.488 OA
BRANCH  59  60
ATOM     60  C   LIG d   1      10.917   6.351   0.280  0.00  0.00     0.079 C 
ATOM     61  H   LIG d   1      10.773   5.289   0.083  0.00  0.00     0.066 H 
ATOM     62  H   LIG d   1      11.915   6.648  -0.038  0.00  0.00     0.066 H 
ATOM     63  H   LIG d   1      10.804   6.540   1.348  0.00  0.00     0.066 H 
ENDBRANCH  59  60
ENDBRANCH   7  59
TORSDOF 15
ENDMDL
