MODEL 1
REMARK VINA RESULT:      -5.5      0.000      0.000
REMARK  9 active torsions:
REMARK  status: ('A' for Active; 'I' for Inactive)
REMARK    1  A    between atoms: C_1  and  C_2 
REMARK    2  A    between atoms: C_11  and  O_16 
REMARK    3  A    between atoms: C_12  and  C_13 
REMARK    4  A    between atoms: C_13  and  C_15 
REMARK    5  A    between atoms: O_16  and  C_17 
REMARK    6  A    between atoms: C_17  and  C_18 
REMARK    7  A    between atoms: C_18  and  C_19 
REMARK    8  A    between atoms: C_19  and  C_20 
REMARK    9  A    between atoms: C_19  and  C_21 
ROOT
ATOM      1  C   LIG d   1       3.993   1.061  -8.594  0.00  0.00    -0.033 A 
ATOM      2  C   LIG d   1       5.043   0.816  -9.420  0.00  0.00     0.026 A 
ATOM      3  C   LIG d   1       6.001  -0.157  -9.067  0.00  0.00     0.338 A 
ATOM      4  O   LIG d   1       6.938  -0.367  -9.816  0.00  0.00    -0.245 OA
ATOM      5  O   LIG d   1       5.905  -0.856  -7.925  0.00  0.00    -0.421 OA
ATOM      6  C   LIG d   1       4.889  -0.661  -7.063  0.00  0.00     0.153 A 
ATOM      7  C   LIG d   1       3.897   0.291  -7.351  0.00  0.00     0.021 A 
ATOM      8  C   LIG d   1       2.839   0.498  -6.457  0.00  0.00    -0.047 A 
ATOM      9  C   LIG d   1       2.763  -0.226  -5.301  0.00  0.00    -0.018 A 
ATOM     10  C   LIG d   1       3.731  -1.175  -4.994  0.00  0.00     0.135 A 
ATOM     11  C   LIG d   1       4.804  -1.403  -5.873  0.00  0.00     0.102 A 
ATOM     12  H   LIG d   1       5.144   1.364 -10.345  0.00  0.00     0.069 H 
ATOM     13  H   LIG d   1       2.080   1.232  -6.682  0.00  0.00     0.063 H 
ATOM     14  H   LIG d   1       1.942  -0.059  -4.619  0.00  0.00     0.065 H 
ENDROOT
BRANCH  10  15
ATOM     15  O   LIG d   1       3.639  -1.885  -3.844  0.00  0.00    -0.491 OA
BRANCH  15  16
ATOM     16  C   LIG d   1       3.260  -1.167  -2.668  0.00  0.00     0.090 C 
ATOM     17  H   LIG d   1       2.751  -0.246  -2.953  0.00  0.00     0.070 H 
ATOM     18  H   LIG d   1       2.590  -1.781  -2.067  0.00  0.00     0.070 H 
BRANCH  16  19
ATOM     19  C   LIG d   1       4.509  -0.829  -1.852  0.00  0.00    -0.016 C 
ATOM     20  H   LIG d   1       4.360  -1.134  -0.817  0.00  0.00     0.030 H 
ATOM     21  H   LIG d   1       5.369  -1.357  -2.267  0.00  0.00     0.030 H 
BRANCH  19  22
ATOM     22  C   LIG d   1       4.763   0.679  -1.909  0.00  0.00    -0.044 C 
ATOM     23  H   LIG d   1       5.094   1.029  -0.932  0.00  0.00     0.030 H 
BRANCH  22  24
ATOM     24  C   LIG d   1       5.844   0.975  -2.951  0.00  0.00    -0.063 C 
ATOM     25  H   LIG d   1       5.781   0.246  -3.757  0.00  0.00     0.023 H 
ATOM     26  H   LIG d   1       5.695   1.977  -3.354  0.00  0.00     0.023 H 
ATOM     27  H   LIG d   1       6.826   0.916  -2.482  0.00  0.00     0.023 H 
ENDBRANCH  22  24
BRANCH  22  28
ATOM     28  C   LIG d   1       3.470   1.399  -2.297  0.00  0.00    -0.063 C 
ATOM     29  H   LIG d   1       3.698   2.425  -2.587  0.00  0.00     0.023 H 
ATOM     30  H   LIG d   1       3.002   0.881  -3.134  0.00  0.00     0.023 H 
ATOM     31  H   LIG d   1       2.788   1.406  -1.447  0.00  0.00     0.023 H 
ENDBRANCH  22  28
ENDBRANCH  19  22
ENDBRANCH  16  19
ENDBRANCH  15  16
ENDBRANCH  10  15
BRANCH  11  32
ATOM     32  C   LIG d   1       5.821  -2.407  -5.553  0.00  0.00     0.167 C 
ATOM     33  O   LIG d   1       5.697  -3.546  -5.953  0.00  0.00    -0.292 OA
BRANCH  32  34
ATOM     34  C   LIG d   1       7.023  -2.025  -4.727  0.00  0.00    -0.001 C 
ATOM     35  H   LIG d   1       6.724  -1.729  -3.820  0.00  0.00     0.031 H 
ATOM     36  H   LIG d   1       7.683  -2.887  -4.629  0.00  0.00     0.031 H 
ATOM     37  H   LIG d   1       7.558  -1.212  -5.218  0.00  0.00     0.031 H 
ENDBRANCH  32  34
ENDBRANCH  11  32
BRANCH   1  38
ATOM     38  C   LIG d   1       2.955   2.095  -8.947  0.00  0.00    -0.039 C 
ATOM     39  H   LIG d   1       3.351   2.758  -9.715  0.00  0.00     0.028 H 
ATOM     40  H   LIG d   1       2.060   1.597  -9.321  0.00  0.00     0.028 H 
ATOM     41  H   LIG d   1       2.704   2.676  -8.059  0.00  0.00     0.028 H 
ENDBRANCH   1  38
TORSDOF 9
ENDMDL
MODEL 2
REMARK VINA RESULT:      -5.5      2.309      2.686
REMARK  9 active torsions:
REMARK  status: ('A' for Active; 'I' for Inactive)
REMARK    1  A    between atoms: C_1  and  C_2 
REMARK    2  A    between atoms: C_11  and  O_16 
REMARK    3  A    between atoms: C_12  and  C_13 
REMARK    4  A    between atoms: C_13  and  C_15 
REMARK    5  A    between atoms: O_16  and  C_17 
REMARK    6  A    between atoms: C_17  and  C_18 
REMARK    7  A    between atoms: C_18  and  C_19 
REMARK    8  A    between atoms: C_19  and  C_20 
REMARK    9  A    between atoms: C_19  and  C_21 
ROOT
ATOM      1  C   LIG d   1       3.033  -1.674 -10.343  0.00  0.00    -0.033 A 
ATOM      2  C   LIG d   1       3.553  -2.890 -10.649  0.00  0.00     0.026 A 
ATOM      3  C   LIG d   1       4.266  -3.614  -9.671  0.00  0.00     0.338 A 
ATOM      4  O   LIG d   1       4.728  -4.704  -9.958  0.00  0.00    -0.245 OA
ATOM      5  O   LIG d   1       4.449  -3.130  -8.432  0.00  0.00    -0.421 OA
ATOM      6  C   LIG d   1       3.959  -1.930  -8.066  0.00  0.00     0.153 A 
ATOM      7  C   LIG d   1       3.237  -1.155  -8.988  0.00  0.00     0.021 A 
ATOM      8  C   LIG d   1       2.727   0.093  -8.611  0.00  0.00    -0.047 A 
ATOM      9  C   LIG d   1       2.926   0.565  -7.345  0.00  0.00    -0.018 A 
ATOM     10  C   LIG d   1       3.635  -0.183  -6.413  0.00  0.00     0.135 A 
ATOM     11  C   LIG d   1       4.160  -1.440  -6.764  0.00  0.00     0.102 A 
ATOM     12  H   LIG d   1       3.420  -3.304 -11.638  0.00  0.00     0.069 H 
ATOM     13  H   LIG d   1       2.172   0.686  -9.324  0.00  0.00     0.063 H 
ATOM     14  H   LIG d   1       2.527   1.528  -7.065  0.00  0.00     0.065 H 
ENDROOT
BRANCH  10  15
ATOM     15  O   LIG d   1       3.823   0.299  -5.161  0.00  0.00    -0.491 OA
BRANCH  15  16
ATOM     16  C   LIG d   1       2.653   0.521  -4.370  0.00  0.00     0.090 C 
ATOM     17  H   LIG d   1       2.569   1.582  -4.135  0.00  0.00     0.070 H 
ATOM     18  H   LIG d   1       1.772   0.201  -4.927  0.00  0.00     0.070 H 
BRANCH  16  19
ATOM     19  C   LIG d   1       2.755  -0.282  -3.072  0.00  0.00    -0.016 C 
ATOM     20  H   LIG d   1       2.147   0.193  -2.303  0.00  0.00     0.030 H 
ATOM     21  H   LIG d   1       2.396  -1.298  -3.244  0.00  0.00     0.030 H 
BRANCH  19  22
ATOM     22  C   LIG d   1       4.214  -0.329  -2.614  0.00  0.00    -0.044 C 
ATOM     23  H   LIG d   1       4.870  -0.272  -3.482  0.00  0.00     0.030 H 
BRANCH  22  24
ATOM     24  C   LIG d   1       4.494   0.853  -1.684  0.00  0.00    -0.063 C 
ATOM     25  H   LIG d   1       3.601   1.471  -1.603  0.00  0.00     0.023 H 
ATOM     26  H   LIG d   1       4.772   0.482  -0.697  0.00  0.00     0.023 H 
ATOM     27  H   LIG d   1       5.312   1.449  -2.090  0.00  0.00     0.023 H 
ENDBRANCH  22  24
BRANCH  22  28
ATOM     28  C   LIG d   1       4.472  -1.638  -1.866  0.00  0.00    -0.063 C 
ATOM     29  H   LIG d   1       3.540  -2.198  -1.780  0.00  0.00     0.023 H 
ATOM     30  H   LIG d   1       5.203  -2.233  -2.413  0.00  0.00     0.023 H 
ATOM     31  H   LIG d   1       4.855  -1.418  -0.869  0.00  0.00     0.023 H 
ENDBRANCH  22  28
ENDBRANCH  19  22
ENDBRANCH  16  19
ENDBRANCH  15  16
ENDBRANCH  10  15
BRANCH  11  32
ATOM     32  C   LIG d   1       4.903  -2.232  -5.782  0.00  0.00     0.167 C 
ATOM     33  O   LIG d   1       4.322  -3.045  -5.093  0.00  0.00    -0.292 OA
BRANCH  32  34
ATOM     34  C   LIG d   1       6.389  -2.037  -5.626  0.00  0.00    -0.001 C 
ATOM     35  H   LIG d   1       6.603  -1.061  -5.666  0.00  0.00     0.031 H 
ATOM     36  H   LIG d   1       6.709  -2.439  -4.665  0.00  0.00     0.031 H 
ATOM     37  H   LIG d   1       6.910  -2.557  -6.430  0.00  0.00     0.031 H 
ENDBRANCH  32  34
ENDBRANCH  11  32
BRANCH   1  38
ATOM     38  C   LIG d   1       2.265  -0.880 -11.368  0.00  0.00    -0.039 C 
ATOM     39  H   LIG d   1       1.279  -1.322 -11.505  0.00  0.00     0.028 H 
ATOM     40  H   LIG d   1       2.159   0.150 -11.026  0.00  0.00     0.028 H 
ATOM     41  H   LIG d   1       2.804  -0.894 -12.317  0.00  0.00     0.028 H 
ENDBRANCH   1  38
TORSDOF 9
ENDMDL
MODEL 3
REMARK VINA RESULT:      -5.3      1.672      5.178
REMARK  9 active torsions:
REMARK  status: ('A' for Active; 'I' for Inactive)
REMARK    1  A    between atoms: C_1  and  C_2 
REMARK    2  A    between atoms: C_11  and  O_16 
REMARK    3  A    between atoms: C_12  and  C_13 
REMARK    4  A    between atoms: C_13  and  C_15 
REMARK    5  A    between atoms: O_16  and  C_17 
REMARK    6  A    between atoms: C_17  and  C_18 
REMARK    7  A    between atoms: C_18  and  C_19 
REMARK    8  A    between atoms: C_19  and  C_20 
REMARK    9  A    between atoms: C_19  and  C_21 
ROOT
ATOM      1  C   LIG d   1       4.377   0.182  -3.196  0.00  0.00    -0.033 A 
ATOM      2  C   LIG d   1       5.455  -0.496  -2.725  0.00  0.00     0.026 A 
ATOM      3  C   LIG d   1       6.126  -1.414  -3.560  0.00  0.00     0.338 A 
ATOM      4  O   LIG d   1       7.092  -2.015  -3.127  0.00  0.00    -0.245 OA
ATOM      5  O   LIG d   1       5.725  -1.639  -4.822  0.00  0.00    -0.421 OA
ATOM      6  C   LIG d   1       4.664  -0.999  -5.348  0.00  0.00     0.153 A 
ATOM      7  C   LIG d   1       3.949  -0.071  -4.574  0.00  0.00     0.021 A 
ATOM      8  C   LIG d   1       2.843   0.595  -5.118  0.00  0.00    -0.047 A 
ATOM      9  C   LIG d   1       2.455   0.349  -6.403  0.00  0.00    -0.018 A 
ATOM     10  C   LIG d   1       3.146  -0.564  -7.191  0.00  0.00     0.135 A 
ATOM     11  C   LIG d   1       4.259  -1.248  -6.671  0.00  0.00     0.102 A 
ATOM     12  H   LIG d   1       5.800  -0.334  -1.714  0.00  0.00     0.069 H 
ATOM     13  H   LIG d   1       2.297   1.308  -4.518  0.00  0.00     0.063 H 
ATOM     14  H   LIG d   1       1.601   0.870  -6.812  0.00  0.00     0.065 H 
ENDROOT
BRANCH  10  15
ATOM     15  O   LIG d   1       2.748  -0.796  -8.465  0.00  0.00    -0.491 OA
BRANCH  15  16
ATOM     16  C   LIG d   1       2.513   0.348  -9.288  0.00  0.00     0.090 C 
ATOM     17  H   LIG d   1       1.625   0.181  -9.899  0.00  0.00     0.070 H 
ATOM     18  H   LIG d   1       2.361   1.225  -8.659  0.00  0.00     0.070 H 
BRANCH  16  19
ATOM     19  C   LIG d   1       3.721   0.578 -10.198  0.00  0.00    -0.016 C 
ATOM     20  H   LIG d   1       4.426  -0.244 -10.080  0.00  0.00     0.030 H 
ATOM     21  H   LIG d   1       3.391   0.626 -11.236  0.00  0.00     0.030 H 
BRANCH  19  22
ATOM     22  C   LIG d   1       4.403   1.895  -9.819  0.00  0.00    -0.044 C 
ATOM     23  H   LIG d   1       4.685   2.431 -10.724  0.00  0.00     0.030 H 
BRANCH  22  24
ATOM     24  C   LIG d   1       3.436   2.751  -8.998  0.00  0.00    -0.063 C 
ATOM     25  H   LIG d   1       2.671   2.113  -8.556  0.00  0.00     0.023 H 
ATOM     26  H   LIG d   1       3.986   3.262  -8.207  0.00  0.00     0.023 H 
ATOM     27  H   LIG d   1       2.964   3.489  -9.646  0.00  0.00     0.023 H 
ENDBRANCH  22  24
BRANCH  22  28
ATOM     28  C   LIG d   1       5.654   1.600  -8.989  0.00  0.00    -0.063 C 
ATOM     29  H   LIG d   1       5.560   0.619  -8.525  0.00  0.00     0.023 H 
ATOM     30  H   LIG d   1       6.531   1.613  -9.636  0.00  0.00     0.023 H 
ATOM     31  H   LIG d   1       5.763   2.360  -8.214  0.00  0.00     0.023 H 
ENDBRANCH  22  28
ENDBRANCH  19  22
ENDBRANCH  16  19
ENDBRANCH  15  16
ENDBRANCH  10  15
BRANCH  11  32
ATOM     32  C   LIG d   1       4.992  -2.206  -7.501  0.00  0.00     0.167 C 
ATOM     33  O   LIG d   1       5.936  -1.834  -8.168  0.00  0.00    -0.292 OA
BRANCH  32  34
ATOM     34  C   LIG d   1       4.575  -3.654  -7.528  0.00  0.00    -0.001 C 
ATOM     35  H   LIG d   1       3.644  -3.726  -7.886  0.00  0.00     0.031 H 
ATOM     36  H   LIG d   1       5.255  -4.215  -8.169  0.00  0.00     0.031 H 
ATOM     37  H   LIG d   1       4.609  -4.060  -6.517  0.00  0.00     0.031 H 
ENDBRANCH  32  34
ENDBRANCH  11  32
BRANCH   1  38
ATOM     38  C   LIG d   1       3.642   1.168  -2.325  0.00  0.00    -0.039 C 
ATOM     39  H   LIG d   1       2.734   0.705  -1.940  0.00  0.00     0.028 H 
ATOM     40  H   LIG d   1       4.281   1.465  -1.494  0.00  0.00     0.028 H 
ATOM     41  H   LIG d   1       3.379   2.047  -2.915  0.00  0.00     0.028 H 
ENDBRANCH   1  38
TORSDOF 9
ENDMDL
MODEL 4
REMARK VINA RESULT:      -5.2      1.741      2.171
REMARK  9 active torsions:
REMARK  status: ('A' for Active; 'I' for Inactive)
REMARK    1  A    between atoms: C_1  and  C_2 
REMARK    2  A    between atoms: C_11  and  O_16 
REMARK    3  A    between atoms: C_12  and  C_13 
REMARK    4  A    between atoms: C_13  and  C_15 
REMARK    5  A    between atoms: O_16  and  C_17 
REMARK    6  A    between atoms: C_17  and  C_18 
REMARK    7  A    between atoms: C_18  and  C_19 
REMARK    8  A    between atoms: C_19  and  C_20 
REMARK    9  A    between atoms: C_19  and  C_21 
ROOT
ATOM      1  C   LIG d   1       4.399   0.814  -9.142  0.00  0.00    -0.033 A 
ATOM      2  C   LIG d   1       5.265   1.777  -9.551  0.00  0.00     0.026 A 
ATOM      3  C   LIG d   1       6.454   2.003  -8.827  0.00  0.00     0.338 A 
ATOM      4  O   LIG d   1       7.223   2.870  -9.204  0.00  0.00    -0.245 OA
ATOM      5  O   LIG d   1       6.758   1.287  -7.733  0.00  0.00    -0.421 OA
ATOM      6  C   LIG d   1       5.942   0.318  -7.276  0.00  0.00     0.153 A 
ATOM      7  C   LIG d   1       4.741   0.037  -7.948  0.00  0.00     0.021 A 
ATOM      8  C   LIG d   1       3.889  -0.969  -7.475  0.00  0.00    -0.047 A 
ATOM      9  C   LIG d   1       4.220  -1.684  -6.360  0.00  0.00    -0.018 A 
ATOM     10  C   LIG d   1       5.404  -1.426  -5.678  0.00  0.00     0.135 A 
ATOM     11  C   LIG d   1       6.278  -0.422  -6.130  0.00  0.00     0.102 A 
ATOM     12  H   LIG d   1       5.045   2.368 -10.428  0.00  0.00     0.069 H 
ATOM     13  H   LIG d   1       2.967  -1.181  -7.995  0.00  0.00     0.063 H 
ATOM     14  H   LIG d   1       3.556  -2.458  -6.005  0.00  0.00     0.065 H 
ENDROOT
BRANCH  10  15
ATOM     15  O   LIG d   1       5.717  -2.146  -4.574  0.00  0.00    -0.491 OA
BRANCH  15  16
ATOM     16  C   LIG d   1       4.687  -2.321  -3.600  0.00  0.00     0.090 C 
ATOM     17  H   LIG d   1       3.736  -1.982  -4.012  0.00  0.00     0.070 H 
ATOM     18  H   LIG d   1       4.612  -3.375  -3.334  0.00  0.00     0.070 H 
BRANCH  16  19
ATOM     19  C   LIG d   1       5.021  -1.503  -2.351  0.00  0.00    -0.016 C 
ATOM     20  H   LIG d   1       5.149  -2.173  -1.502  0.00  0.00     0.030 H 
ATOM     21  H   LIG d   1       5.944  -0.946  -2.517  0.00  0.00     0.030 H 
BRANCH  19  22
ATOM     22  C   LIG d   1       3.881  -0.524  -2.062  0.00  0.00    -0.044 C 
ATOM     23  H   LIG d   1       3.491  -0.706  -1.062  0.00  0.00     0.030 H 
BRANCH  22  24
ATOM     24  C   LIG d   1       4.407   0.910  -2.152  0.00  0.00    -0.063 C 
ATOM     25  H   LIG d   1       4.204   1.431  -1.217  0.00  0.00     0.023 H 
ATOM     26  H   LIG d   1       5.482   0.892  -2.333  0.00  0.00     0.023 H 
ATOM     27  H   LIG d   1       3.910   1.429  -2.972  0.00  0.00     0.023 H 
ENDBRANCH  22  24
BRANCH  22  28
ATOM     28  C   LIG d   1       2.765  -0.723  -3.089  0.00  0.00    -0.063 C 
ATOM     29  H   LIG d   1       1.863  -1.069  -2.583  0.00  0.00     0.023 H 
ATOM     30  H   LIG d   1       2.559   0.222  -3.592  0.00  0.00     0.023 H 
ATOM     31  H   LIG d   1       3.076  -1.466  -3.825  0.00  0.00     0.023 H 
ENDBRANCH  22  28
ENDBRANCH  19  22
ENDBRANCH  16  19
ENDBRANCH  15  16
ENDBRANCH  10  15
BRANCH  11  32
ATOM     32  C   LIG d   1       7.527  -0.153  -5.415  0.00  0.00     0.167 C 
ATOM     33  O   LIG d   1       8.552  -0.708  -5.754  0.00  0.00    -0.292 OA
BRANCH  32  34
ATOM     34  C   LIG d   1       7.541   0.813  -4.259  0.00  0.00    -0.001 C 
ATOM     35  H   LIG d   1       7.336   1.734  -4.591  0.00  0.00     0.031 H 
ATOM     36  H   LIG d   1       6.789   0.515  -3.528  0.00  0.00     0.031 H 
ATOM     37  H   LIG d   1       8.526   0.805  -3.791  0.00  0.00     0.031 H 
ENDBRANCH  32  34
ENDBRANCH  11  32
BRANCH   1  38
ATOM     38  C   LIG d   1       3.121   0.550  -9.897  0.00  0.00    -0.039 C 
ATOM     39  H   LIG d   1       3.191  -0.414 -10.401  0.00  0.00     0.028 H 
ATOM     40  H   LIG d   1       2.284   0.538  -9.200  0.00  0.00     0.028 H 
ATOM     41  H   LIG d   1       2.968   1.337 -10.637  0.00  0.00     0.028 H 
ENDBRANCH   1  38
TORSDOF 9
ENDMDL
MODEL 5
REMARK VINA RESULT:      -5.2      3.084      4.253
REMARK  9 active torsions:
REMARK  status: ('A' for Active; 'I' for Inactive)
REMARK    1  A    between atoms: C_1  and  C_2 
REMARK    2  A    between atoms: C_11  and  O_16 
REMARK    3  A    between atoms: C_12  and  C_13 
REMARK    4  A    between atoms: C_13  and  C_15 
REMARK    5  A    between atoms: O_16  and  C_17 
REMARK    6  A    between atoms: C_17  and  C_18 
REMARK    7  A    between atoms: C_18  and  C_19 
REMARK    8  A    between atoms: C_19  and  C_20 
REMARK    9  A    between atoms: C_19  and  C_21 
ROOT
ATOM      1  C   LIG d   1       2.549  -3.319  -9.760  0.00  0.00    -0.033 A 
ATOM      2  C   LIG d   1       1.759  -2.754 -10.708  0.00  0.00     0.026 A 
ATOM      3  C   LIG d   1       1.582  -1.355 -10.732  0.00  0.00     0.338 A 
ATOM      4  O   LIG d   1       0.871  -0.860 -11.588  0.00  0.00    -0.245 OA
ATOM      5  O   LIG d   1       2.179  -0.556  -9.834  0.00  0.00    -0.421 OA
ATOM      6  C   LIG d   1       2.976  -1.054  -8.868  0.00  0.00     0.153 A 
ATOM      7  C   LIG d   1       3.197  -2.438  -8.785  0.00  0.00     0.021 A 
ATOM      8  C   LIG d   1       4.023  -2.960  -7.781  0.00  0.00    -0.047 A 
ATOM      9  C   LIG d   1       4.620  -2.127  -6.879  0.00  0.00    -0.018 A 
ATOM     10  C   LIG d   1       4.418  -0.753  -6.940  0.00  0.00     0.135 A 
ATOM     11  C   LIG d   1       3.593  -0.202  -7.937  0.00  0.00     0.102 A 
ATOM     12  H   LIG d   1       1.266  -3.374 -11.444  0.00  0.00     0.069 H 
ATOM     13  H   LIG d   1       4.191  -4.025  -7.722  0.00  0.00     0.063 H 
ATOM     14  H   LIG d   1       5.256  -2.540  -6.110  0.00  0.00     0.065 H 
ENDROOT
BRANCH  10  15
ATOM     15  O   LIG d   1       5.019   0.059  -6.037  0.00  0.00    -0.491 OA
BRANCH  15  16
ATOM     16  C   LIG d   1       4.905  -0.306  -4.661  0.00  0.00     0.090 C 
ATOM     17  H   LIG d   1       4.981  -1.390  -4.565  0.00  0.00     0.070 H 
ATOM     18  H   LIG d   1       5.705   0.166  -4.092  0.00  0.00     0.070 H 
BRANCH  16  19
ATOM     19  C   LIG d   1       3.551   0.159  -4.120  0.00  0.00    -0.016 C 
ATOM     20  H   LIG d   1       3.445   1.231  -4.281  0.00  0.00     0.030 H 
ATOM     21  H   LIG d   1       2.751  -0.367  -4.642  0.00  0.00     0.030 H 
BRANCH  19  22
ATOM     22  C   LIG d   1       3.469  -0.144  -2.622  0.00  0.00    -0.044 C 
ATOM     23  H   LIG d   1       2.447   0.007  -2.277  0.00  0.00     0.030 H 
BRANCH  22  24
ATOM     24  C   LIG d   1       3.884  -1.595  -2.372  0.00  0.00    -0.063 C 
ATOM     25  H   LIG d   1       4.617  -1.630  -1.568  0.00  0.00     0.023 H 
ATOM     26  H   LIG d   1       3.007  -2.180  -2.092  0.00  0.00     0.023 H 
ATOM     27  H   LIG d   1       4.320  -2.010  -3.281  0.00  0.00     0.023 H 
ENDBRANCH  22  24
BRANCH  22  28
ATOM     28  C   LIG d   1       4.407   0.794  -1.860  0.00  0.00    -0.063 C 
ATOM     29  H   LIG d   1       5.015   0.214  -1.166  0.00  0.00     0.023 H 
ATOM     30  H   LIG d   1       5.057   1.311  -2.566  0.00  0.00     0.023 H 
ATOM     31  H   LIG d   1       3.819   1.525  -1.305  0.00  0.00     0.023 H 
ENDBRANCH  22  28
ENDBRANCH  19  22
ENDBRANCH  16  19
ENDBRANCH  15  16
ENDBRANCH  10  15
BRANCH  11  32
ATOM     32  C   LIG d   1       3.384   1.246  -8.006  0.00  0.00     0.167 C 
ATOM     33  O   LIG d   1       2.654   1.792  -7.205  0.00  0.00    -0.292 OA
BRANCH  32  34
ATOM     34  C   LIG d   1       4.073   2.057  -9.072  0.00  0.00    -0.001 C 
ATOM     35  H   LIG d   1       4.888   1.570  -9.388  0.00  0.00     0.031 H 
ATOM     36  H   LIG d   1       3.393   2.207  -9.911  0.00  0.00     0.031 H 
ATOM     37  H   LIG d   1       4.363   3.024  -8.662  0.00  0.00     0.031 H 
ENDBRANCH  32  34
ENDBRANCH  11  32
BRANCH   1  38
ATOM     38  C   LIG d   1       2.755  -4.811  -9.712  0.00  0.00    -0.039 C 
ATOM     39  H   LIG d   1       3.598  -5.081 -10.348  0.00  0.00     0.028 H 
ATOM     40  H   LIG d   1       2.961  -5.117  -8.686  0.00  0.00     0.028 H 
ATOM     41  H   LIG d   1       1.855  -5.314 -10.068  0.00  0.00     0.028 H 
ENDBRANCH   1  38
TORSDOF 9
ENDMDL
MODEL 6
REMARK VINA RESULT:      -5.1      2.258      3.295
REMARK  9 active torsions:
REMARK  status: ('A' for Active; 'I' for Inactive)
REMARK    1  A    between atoms: C_1  and  C_2 
REMARK    2  A    between atoms: C_11  and  O_16 
REMARK    3  A    between atoms: C_12  and  C_13 
REMARK    4  A    between atoms: C_13  and  C_15 
REMARK    5  A    between atoms: O_16  and  C_17 
REMARK    6  A    between atoms: C_17  and  C_18 
REMARK    7  A    between atoms: C_18  and  C_19 
REMARK    8  A    between atoms: C_19  and  C_20 
REMARK    9  A    between atoms: C_19  and  C_21 
ROOT
ATOM      1  C   LIG d   1       2.583  -0.842 -11.405  0.00  0.00    -0.033 A 
ATOM      2  C   LIG d   1       3.536  -0.887 -12.371  0.00  0.00     0.026 A 
ATOM      3  C   LIG d   1       4.881  -0.614 -12.043  0.00  0.00     0.338 A 
ATOM      4  O   LIG d   1       5.726  -0.658 -12.919  0.00  0.00    -0.245 OA
ATOM      5  O   LIG d   1       5.250  -0.306 -10.790  0.00  0.00    -0.421 OA
ATOM      6  C   LIG d   1       4.353  -0.245  -9.786  0.00  0.00     0.153 A 
ATOM      7  C   LIG d   1       2.997  -0.506 -10.039  0.00  0.00     0.021 A 
ATOM      8  C   LIG d   1       2.062  -0.442  -8.999  0.00  0.00    -0.047 A 
ATOM      9  C   LIG d   1       2.462  -0.127  -7.732  0.00  0.00    -0.018 A 
ATOM     10  C   LIG d   1       3.798   0.135  -7.455  0.00  0.00     0.135 A 
ATOM     11  C   LIG d   1       4.759   0.078  -8.480  0.00  0.00     0.102 A 
ATOM     12  H   LIG d   1       3.267  -1.133 -13.388  0.00  0.00     0.069 H 
ATOM     13  H   LIG d   1       1.020  -0.644  -9.199  0.00  0.00     0.063 H 
ATOM     14  H   LIG d   1       1.732  -0.082  -6.937  0.00  0.00     0.065 H 
ENDROOT
BRANCH  10  15
ATOM     15  O   LIG d   1       4.178   0.445  -6.192  0.00  0.00    -0.491 OA
BRANCH  15  16
ATOM     16  C   LIG d   1       3.818  -0.478  -5.162  0.00  0.00     0.090 C 
ATOM     17  H   LIG d   1       3.459  -1.404  -5.613  0.00  0.00     0.070 H 
ATOM     18  H   LIG d   1       4.689  -0.689  -4.542  0.00  0.00     0.070 H 
BRANCH  16  19
ATOM     19  C   LIG d   1       2.712   0.129  -4.297  0.00  0.00    -0.016 C 
ATOM     20  H   LIG d   1       2.658   1.203  -4.477  0.00  0.00     0.030 H 
ATOM     21  H   LIG d   1       1.757  -0.330  -4.552  0.00  0.00     0.030 H 
BRANCH  19  22
ATOM     22  C   LIG d   1       3.022  -0.126  -2.820  0.00  0.00    -0.044 C 
ATOM     23  H   LIG d   1       2.113  -0.002  -2.232  0.00  0.00     0.030 H 
BRANCH  22  24
ATOM     24  C   LIG d   1       3.551  -1.551  -2.650  0.00  0.00    -0.063 C 
ATOM     25  H   LIG d   1       4.486  -1.527  -2.090  0.00  0.00     0.023 H 
ATOM     26  H   LIG d   1       2.817  -2.148  -2.108  0.00  0.00     0.023 H 
ATOM     27  H   LIG d   1       3.725  -1.994  -3.630  0.00  0.00     0.023 H 
ENDBRANCH  22  24
BRANCH  22  28
ATOM     28  C   LIG d   1       4.078   0.872  -2.341  0.00  0.00    -0.063 C 
ATOM     29  H   LIG d   1       4.701   1.174  -3.183  0.00  0.00     0.023 H 
ATOM     30  H   LIG d   1       3.586   1.749  -1.920  0.00  0.00     0.023 H 
ATOM     31  H   LIG d   1       4.701   0.403  -1.578  0.00  0.00     0.023 H 
ENDBRANCH  22  28
ENDBRANCH  19  22
ENDBRANCH  16  19
ENDBRANCH  15  16
ENDBRANCH  10  15
BRANCH  11  32
ATOM     32  C   LIG d   1       6.168   0.349  -8.189  0.00  0.00     0.167 C 
ATOM     33  O   LIG d   1       6.873  -0.528  -7.733  0.00  0.00    -0.292 OA
BRANCH  32  34
ATOM     34  C   LIG d   1       6.743   1.716  -8.453  0.00  0.00    -0.001 C 
ATOM     35  H   LIG d   1       7.662   1.623  -8.838  0.00  0.00     0.031 H 
ATOM     36  H   LIG d   1       6.105   2.247  -9.160  0.00  0.00     0.031 H 
ATOM     37  H   LIG d   1       6.795   2.275  -7.519  0.00  0.00     0.031 H 
ENDBRANCH  32  34
ENDBRANCH  11  32
BRANCH   1  38
ATOM     38  C   LIG d   1       1.139  -1.131 -11.727  0.00  0.00    -0.039 C 
ATOM     39  H   LIG d   1       0.690  -0.254 -12.193  0.00  0.00     0.028 H 
ATOM     40  H   LIG d   1       1.082  -1.977 -12.411  0.00  0.00     0.028 H 
ATOM     41  H   LIG d   1       0.603  -1.369 -10.808  0.00  0.00     0.028 H 
ENDBRANCH   1  38
TORSDOF 9
ENDMDL
MODEL 7
REMARK VINA RESULT:      -5.1      2.264      5.011
REMARK  9 active torsions:
REMARK  status: ('A' for Active; 'I' for Inactive)
REMARK    1  A    between atoms: C_1  and  C_2 
REMARK    2  A    between atoms: C_11  and  O_16 
REMARK    3  A    between atoms: C_12  and  C_13 
REMARK    4  A    between atoms: C_13  and  C_15 
REMARK    5  A    between atoms: O_16  and  C_17 
REMARK    6  A    between atoms: C_17  and  C_18 
REMARK    7  A    between atoms: C_18  and  C_19 
REMARK    8  A    between atoms: C_19  and  C_20 
REMARK    9  A    between atoms: C_19  and  C_21 
ROOT
ATOM      1  C   LIG d   1       6.107  -5.865  -5.754  0.00  0.00    -0.033 A 
ATOM      2  C   LIG d   1       5.001  -6.175  -6.479  0.00  0.00     0.026 A 
ATOM      3  C   LIG d   1       4.121  -5.152  -6.888  0.00  0.00     0.338 A 
ATOM      4  O   LIG d   1       3.133  -5.443  -7.537  0.00  0.00    -0.245 OA
ATOM      5  O   LIG d   1       4.347  -3.865  -6.578  0.00  0.00    -0.421 OA
ATOM      6  C   LIG d   1       5.425  -3.491  -5.863  0.00  0.00     0.153 A 
ATOM      7  C   LIG d   1       6.345  -4.457  -5.423  0.00  0.00     0.021 A 
ATOM      8  C   LIG d   1       7.467  -4.073  -4.678  0.00  0.00    -0.047 A 
ATOM      9  C   LIG d   1       7.675  -2.757  -4.376  0.00  0.00    -0.018 A 
ATOM     10  C   LIG d   1       6.780  -1.782  -4.800  0.00  0.00     0.135 A 
ATOM     11  C   LIG d   1       5.645  -2.139  -5.549  0.00  0.00     0.102 A 
ATOM     12  H   LIG d   1       4.796  -7.202  -6.742  0.00  0.00     0.069 H 
ATOM     13  H   LIG d   1       8.171  -4.819  -4.342  0.00  0.00     0.063 H 
ATOM     14  H   LIG d   1       8.544  -2.472  -3.801  0.00  0.00     0.065 H 
ENDROOT
BRANCH  10  15
ATOM     15  O   LIG d   1       7.002  -0.481  -4.493  0.00  0.00    -0.491 OA
BRANCH  15  16
ATOM     16  C   LIG d   1       6.817  -0.098  -3.129  0.00  0.00     0.090 C 
ATOM     17  H   LIG d   1       6.472  -0.957  -2.553  0.00  0.00     0.070 H 
ATOM     18  H   LIG d   1       7.762   0.258  -2.719  0.00  0.00     0.070 H 
BRANCH  16  19
ATOM     19  C   LIG d   1       5.774   1.019  -3.051  0.00  0.00    -0.016 C 
ATOM     20  H   LIG d   1       6.264   1.954  -2.778  0.00  0.00     0.030 H 
ATOM     21  H   LIG d   1       5.289   1.132  -4.021  0.00  0.00     0.030 H 
BRANCH  19  22
ATOM     22  C   LIG d   1       4.725   0.664  -1.995  0.00  0.00    -0.044 C 
ATOM     23  H   LIG d   1       5.052   1.028  -1.022  0.00  0.00     0.030 H 
BRANCH  22  24
ATOM     24  C   LIG d   1       3.391   1.318  -2.363  0.00  0.00    -0.063 C 
ATOM     25  H   LIG d   1       2.707   1.248  -1.519  0.00  0.00     0.023 H 
ATOM     26  H   LIG d   1       3.557   2.367  -2.611  0.00  0.00     0.023 H 
ATOM     27  H   LIG d   1       2.961   0.806  -3.224  0.00  0.00     0.023 H 
ENDBRANCH  22  24
BRANCH  22  28
ATOM     28  C   LIG d   1       4.550  -0.854  -1.940  0.00  0.00    -0.063 C 
ATOM     29  H   LIG d   1       3.614  -1.095  -1.437  0.00  0.00     0.023 H 
ATOM     30  H   LIG d   1       4.532  -1.256  -2.953  0.00  0.00     0.023 H 
ATOM     31  H   LIG d   1       5.382  -1.296  -1.389  0.00  0.00     0.023 H 
ENDBRANCH  22  28
ENDBRANCH  19  22
ENDBRANCH  16  19
ENDBRANCH  15  16
ENDBRANCH  10  15
BRANCH  11  32
ATOM     32  C   LIG d   1       4.705  -1.112  -6.002  0.00  0.00     0.167 C 
ATOM     33  O   LIG d   1       3.761  -0.804  -5.304  0.00  0.00    -0.292 OA
BRANCH  32  34
ATOM     34  C   LIG d   1       4.908  -0.439  -7.335  0.00  0.00    -0.001 C 
ATOM     35  H   LIG d   1       4.082   0.068  -7.582  0.00  0.00     0.031 H 
ATOM     36  H   LIG d   1       5.751   0.250  -7.267  0.00  0.00     0.031 H 
ATOM     37  H   LIG d   1       5.115  -1.192  -8.095  0.00  0.00     0.031 H 
ENDBRANCH  32  34
ENDBRANCH  11  32
BRANCH   1  38
ATOM     38  C   LIG d   1       7.065  -6.938  -5.305  0.00  0.00    -0.039 C 
ATOM     39  H   LIG d   1       6.753  -7.318  -4.332  0.00  0.00     0.028 H 
ATOM     40  H   LIG d   1       7.065  -7.751  -6.031  0.00  0.00     0.028 H 
ATOM     41  H   LIG d   1       8.069  -6.519  -5.227  0.00  0.00     0.028 H 
ENDBRANCH   1  38
TORSDOF 9
ENDMDL
MODEL 8
REMARK VINA RESULT:      -5.0      2.762      5.564
REMARK  9 active torsions:
REMARK  status: ('A' for Active; 'I' for Inactive)
REMARK    1  A    between atoms: C_1  and  C_2 
REMARK    2  A    between atoms: C_11  and  O_16 
REMARK    3  A    between atoms: C_12  and  C_13 
REMARK    4  A    between atoms: C_13  and  C_15 
REMARK    5  A    between atoms: O_16  and  C_17 
REMARK    6  A    between atoms: C_17  and  C_18 
REMARK    7  A    between atoms: C_18  and  C_19 
REMARK    8  A    between atoms: C_19  and  C_20 
REMARK    9  A    between atoms: C_19  and  C_21 
ROOT
ATOM      1  C   LIG d   1       8.753  -4.904  -4.236  0.00  0.00    -0.033 A 
ATOM      2  C   LIG d   1       8.760  -6.201  -4.640  0.00  0.00     0.026 A 
ATOM      3  C   LIG d   1       7.669  -6.713  -5.373  0.00  0.00     0.338 A 
ATOM      4  O   LIG d   1       7.688  -7.877  -5.729  0.00  0.00    -0.245 OA
ATOM      5  O   LIG d   1       6.612  -5.948  -5.687  0.00  0.00    -0.421 OA
ATOM      6  C   LIG d   1       6.543  -4.655  -5.316  0.00  0.00     0.153 A 
ATOM      7  C   LIG d   1       7.594  -4.078  -4.585  0.00  0.00     0.021 A 
ATOM      8  C   LIG d   1       7.526  -2.734  -4.196  0.00  0.00    -0.047 A 
ATOM      9  C   LIG d   1       6.440  -1.975  -4.527  0.00  0.00    -0.018 A 
ATOM     10  C   LIG d   1       5.387  -2.522  -5.252  0.00  0.00     0.135 A 
ATOM     11  C   LIG d   1       5.428  -3.869  -5.654  0.00  0.00     0.102 A 
ATOM     12  H   LIG d   1       9.598  -6.839  -4.401  0.00  0.00     0.069 H 
ATOM     13  H   LIG d   1       8.337  -2.294  -3.634  0.00  0.00     0.063 H 
ATOM     14  H   LIG d   1       6.399  -0.940  -4.224  0.00  0.00     0.065 H 
ENDROOT
BRANCH  10  15
ATOM     15  O   LIG d   1       4.318  -1.756  -5.573  0.00  0.00    -0.491 OA
BRANCH  15  16
ATOM     16  C   LIG d   1       4.158  -0.533  -4.851  0.00  0.00     0.090 C 
ATOM     17  H   LIG d   1       5.022  -0.375  -4.206  0.00  0.00     0.070 H 
ATOM     18  H   LIG d   1       4.073   0.296  -5.554  0.00  0.00     0.070 H 
BRANCH  16  19
ATOM     19  C   LIG d   1       2.891  -0.607  -3.997  0.00  0.00    -0.016 C 
ATOM     20  H   LIG d   1       2.287   0.283  -4.165  0.00  0.00     0.030 H 
ATOM     21  H   LIG d   1       2.318  -1.493  -4.272  0.00  0.00     0.030 H 
BRANCH  19  22
ATOM     22  C   LIG d   1       3.278  -0.690  -2.518  0.00  0.00    -0.044 C 
ATOM     23  H   LIG d   1       2.410  -0.458  -1.902  0.00  0.00     0.030 H 
BRANCH  22  24
ATOM     24  C   LIG d   1       3.767  -2.104  -2.198  0.00  0.00    -0.063 C 
ATOM     25  H   LIG d   1       3.578  -2.756  -3.050  0.00  0.00     0.023 H 
ATOM     26  H   LIG d   1       4.837  -2.079  -1.989  0.00  0.00     0.023 H 
ATOM     27  H   LIG d   1       3.236  -2.484  -1.325  0.00  0.00     0.023 H 
ENDBRANCH  22  24
BRANCH  22  28
ATOM     28  C   LIG d   1       4.394   0.314  -2.226  0.00  0.00    -0.063 C 
ATOM     29  H   LIG d   1       4.424   1.064  -3.016  0.00  0.00     0.023 H 
ATOM     30  H   LIG d   1       4.204   0.801  -1.269  0.00  0.00     0.023 H 
ATOM     31  H   LIG d   1       5.350  -0.208  -2.184  0.00  0.00     0.023 H 
ENDBRANCH  22  28
ENDBRANCH  19  22
ENDBRANCH  16  19
ENDBRANCH  15  16
ENDBRANCH  10  15
BRANCH  11  32
ATOM     32  C   LIG d   1       4.323  -4.445  -6.422  0.00  0.00     0.167 C 
ATOM     33  O   LIG d   1       3.493  -5.136  -5.867  0.00  0.00    -0.292 OA
BRANCH  32  34
ATOM     34  C   LIG d   1       4.216  -4.182  -7.902  0.00  0.00    -0.001 C 
ATOM     35  H   LIG d   1       4.817  -3.422  -8.150  0.00  0.00     0.031 H 
ATOM     36  H   LIG d   1       4.513  -5.075  -8.452  0.00  0.00     0.031 H 
ATOM     37  H   LIG d   1       3.185  -3.928  -8.152  0.00  0.00     0.031 H 
ENDBRANCH  32  34
ENDBRANCH  11  32
BRANCH   1  38
ATOM     38  C   LIG d   1       9.905  -4.331  -3.452  0.00  0.00    -0.039 C 
ATOM     39  H   LIG d   1       9.806  -4.613  -2.404  0.00  0.00     0.028 H 
ATOM     40  H   LIG d   1      10.843  -4.721  -3.848  0.00  0.00     0.028 H 
ATOM     41  H   LIG d   1       9.898  -3.244  -3.538  0.00  0.00     0.028 H 
ENDBRANCH   1  38
TORSDOF 9
ENDMDL
MODEL 9
REMARK VINA RESULT:      -5.0      2.246      2.673
REMARK  9 active torsions:
REMARK  status: ('A' for Active; 'I' for Inactive)
REMARK    1  A    between atoms: C_1  and  C_2 
REMARK    2  A    between atoms: C_11  and  O_16 
REMARK    3  A    between atoms: C_12  and  C_13 
REMARK    4  A    between atoms: C_13  and  C_15 
REMARK    5  A    between atoms: O_16  and  C_17 
REMARK    6  A    between atoms: C_17  and  C_18 
REMARK    7  A    between atoms: C_18  and  C_19 
REMARK    8  A    between atoms: C_19  and  C_20 
REMARK    9  A    between atoms: C_19  and  C_21 
ROOT
ATOM      1  C   LIG d   1       2.837   0.361  -9.250  0.00  0.00    -0.033 A 
ATOM      2  C   LIG d   1       2.525  -0.275 -10.409  0.00  0.00     0.026 A 
ATOM      3  C   LIG d   1       2.832  -1.643 -10.563  0.00  0.00     0.338 A 
ATOM      4  O   LIG d   1       2.548  -2.202 -11.606  0.00  0.00    -0.245 OA
ATOM      5  O   LIG d   1       3.432  -2.343  -9.586  0.00  0.00    -0.421 OA
ATOM      6  C   LIG d   1       3.767  -1.771  -8.414  0.00  0.00     0.153 A 
ATOM      7  C   LIG d   1       3.490  -0.412  -8.191  0.00  0.00     0.021 A 
ATOM      8  C   LIG d   1       3.838   0.186  -6.973  0.00  0.00    -0.047 A 
ATOM      9  C   LIG d   1       4.447  -0.546  -5.995  0.00  0.00    -0.018 A 
ATOM     10  C   LIG d   1       4.731  -1.893  -6.190  0.00  0.00     0.135 A 
ATOM     11  C   LIG d   1       4.394  -2.519  -7.403  0.00  0.00     0.102 A 
ATOM     12  H   LIG d   1       2.042   0.264 -11.211  0.00  0.00     0.069 H 
ATOM     13  H   LIG d   1       3.622   1.231  -6.806  0.00  0.00     0.063 H 
ATOM     14  H   LIG d   1       4.710  -0.075  -5.060  0.00  0.00     0.065 H 
ENDROOT
BRANCH  10  15
ATOM     15  O   LIG d   1       5.335  -2.605  -5.209  0.00  0.00    -0.491 OA
BRANCH  15  16
ATOM     16  C   LIG d   1       5.441  -1.982  -3.928  0.00  0.00     0.090 C 
ATOM     17  H   LIG d   1       6.409  -2.219  -3.486  0.00  0.00     0.070 H 
ATOM     18  H   LIG d   1       5.347  -0.902  -4.040  0.00  0.00     0.070 H 
BRANCH  16  19
ATOM     19  C   LIG d   1       4.326  -2.498  -3.017  0.00  0.00    -0.016 C 
ATOM     20  H   LIG d   1       3.580  -3.021  -3.615  0.00  0.00     0.030 H 
ATOM     21  H   LIG d   1       4.746  -3.184  -2.280  0.00  0.00     0.030 H 
BRANCH  19  22
ATOM     22  C   LIG d   1       3.667  -1.319  -2.297  0.00  0.00    -0.044 C 
ATOM     23  H   LIG d   1       3.261  -1.655  -1.344  0.00  0.00     0.030 H 
BRANCH  22  24
ATOM     24  C   LIG d   1       4.709  -0.226  -2.051  0.00  0.00    -0.063 C 
ATOM     25  H   LIG d   1       4.237   0.752  -2.132  0.00  0.00     0.023 H 
ATOM     26  H   LIG d   1       5.132  -0.345  -1.053  0.00  0.00     0.023 H 
ATOM     27  H   LIG d   1       5.504  -0.308  -2.793  0.00  0.00     0.023 H 
ENDBRANCH  22  24
BRANCH  22  28
ATOM     28  C   LIG d   1       2.537  -0.760  -3.164  0.00  0.00    -0.063 C 
ATOM     29  H   LIG d   1       2.873   0.152  -3.657  0.00  0.00     0.023 H 
ATOM     30  H   LIG d   1       2.256  -1.497  -3.916  0.00  0.00     0.023 H 
ATOM     31  H   LIG d   1       1.674  -0.536  -2.535  0.00  0.00     0.023 H 
ENDBRANCH  22  28
ENDBRANCH  19  22
ENDBRANCH  16  19
ENDBRANCH  15  16
ENDBRANCH  10  15
BRANCH  11  32
ATOM     32  C   LIG d   1       4.688  -3.939  -7.609  0.00  0.00     0.167 C 
ATOM     33  O   LIG d   1       5.719  -4.272  -8.154  0.00  0.00    -0.292 OA
BRANCH  32  34
ATOM     34  C   LIG d   1       3.709  -4.986  -7.143  0.00  0.00    -0.001 C 
ATOM     35  H   LIG d   1       3.473  -4.821  -6.185  0.00  0.00     0.031 H 
ATOM     36  H   LIG d   1       2.807  -4.936  -7.753  0.00  0.00     0.031 H 
ATOM     37  H   LIG d   1       4.160  -5.974  -7.242  0.00  0.00     0.031 H 
ENDBRANCH  32  34
ENDBRANCH  11  32
BRANCH   1  38
ATOM     38  C   LIG d   1       2.518   1.822  -9.059  0.00  0.00    -0.039 C 
ATOM     39  H   LIG d   1       1.453   1.937  -8.859  0.00  0.00     0.028 H 
ATOM     40  H   LIG d   1       3.091   2.211  -8.217  0.00  0.00     0.028 H 
ATOM     41  H   LIG d   1       2.780   2.372  -9.963  0.00  0.00     0.028 H 
ENDBRANCH   1  38
TORSDOF 9
ENDMDL
MODEL 10
REMARK VINA RESULT:      -4.9      2.453      6.274
REMARK  9 active torsions:
REMARK  status: ('A' for Active; 'I' for Inactive)
REMARK    1  A    between atoms: C_1  and  C_2 
REMARK    2  A    between atoms: C_11  and  O_16 
REMARK    3  A    between atoms: C_12  and  C_13 
REMARK    4  A    between atoms: C_13  and  C_15 
REMARK    5  A    between atoms: O_16  and  C_17 
REMARK    6  A    between atoms: C_17  and  C_18 
REMARK    7  A    between atoms: C_18  and  C_19 
REMARK    8  A    between atoms: C_19  and  C_20 
REMARK    9  A    between atoms: C_19  and  C_21 
ROOT
ATOM      1  C   LIG d   1       3.887  -1.260  -3.035  0.00  0.00    -0.033 A 
ATOM      2  C   LIG d   1       3.575   0.010  -2.670  0.00  0.00     0.026 A 
ATOM      3  C   LIG d   1       3.487   1.020  -3.651  0.00  0.00     0.338 A 
ATOM      4  O   LIG d   1       3.207   2.155  -3.310  0.00  0.00    -0.245 OA
ATOM      5  O   LIG d   1       3.705   0.759  -4.949  0.00  0.00    -0.421 OA
ATOM      6  C   LIG d   1       4.017  -0.479  -5.376  0.00  0.00     0.153 A 
ATOM      7  C   LIG d   1       4.122  -1.534  -4.455  0.00  0.00     0.021 A 
ATOM      8  C   LIG d   1       4.448  -2.823  -4.895  0.00  0.00    -0.047 A 
ATOM      9  C   LIG d   1       4.665  -3.064  -6.221  0.00  0.00    -0.018 A 
ATOM     10  C   LIG d   1       4.566  -2.037  -7.154  0.00  0.00     0.135 A 
ATOM     11  C   LIG d   1       4.241  -0.733  -6.740  0.00  0.00     0.102 A 
ATOM     12  H   LIG d   1       3.395   0.248  -1.631  0.00  0.00     0.069 H 
ATOM     13  H   LIG d   1       4.527  -3.631  -4.182  0.00  0.00     0.063 H 
ATOM     14  H   LIG d   1       4.914  -4.062  -6.549  0.00  0.00     0.065 H 
ENDROOT
BRANCH  10  15
ATOM     15  O   LIG d   1       4.784  -2.294  -8.466  0.00  0.00    -0.491 OA
BRANCH  15  16
ATOM     16  C   LIG d   1       3.750  -2.983  -9.171  0.00  0.00     0.090 C 
ATOM     17  H   LIG d   1       3.828  -4.053  -8.976  0.00  0.00     0.070 H 
ATOM     18  H   LIG d   1       2.778  -2.623  -8.836  0.00  0.00     0.070 H 
BRANCH  16  19
ATOM     19  C   LIG d   1       3.898  -2.727 -10.672  0.00  0.00    -0.016 C 
ATOM     20  H   LIG d   1       4.662  -1.967 -10.837  0.00  0.00     0.030 H 
ATOM     21  H   LIG d   1       4.192  -3.652 -11.171  0.00  0.00     0.030 H 
BRANCH  19  22
ATOM     22  C   LIG d   1       2.563  -2.243 -11.241  0.00  0.00    -0.044 C 
ATOM     23  H   LIG d   1       2.270  -2.881 -12.074  0.00  0.00     0.030 H 
BRANCH  22  24
ATOM     24  C   LIG d   1       1.492  -2.302 -10.150  0.00  0.00    -0.063 C 
ATOM     25  H   LIG d   1       0.947  -3.242 -10.226  0.00  0.00     0.023 H 
ATOM     26  H   LIG d   1       1.968  -2.234  -9.171  0.00  0.00     0.023 H 
ATOM     27  H   LIG d   1       0.800  -1.469 -10.275  0.00  0.00     0.023 H 
ENDBRANCH  22  24
BRANCH  22  28
ATOM     28  C   LIG d   1       2.712  -0.802 -11.733  0.00  0.00    -0.063 C 
ATOM     29  H   LIG d   1       3.310  -0.234 -11.020  0.00  0.00     0.023 H 
ATOM     30  H   LIG d   1       3.204  -0.797 -12.705  0.00  0.00     0.023 H 
ATOM     31  H   LIG d   1       1.726  -0.345 -11.823  0.00  0.00     0.023 H 
ENDBRANCH  22  28
ENDBRANCH  19  22
ENDBRANCH  16  19
ENDBRANCH  15  16
ENDBRANCH  10  15
BRANCH  11  32
ATOM     32  C   LIG d   1       4.132   0.348  -7.722  0.00  0.00     0.167 C 
ATOM     33  O   LIG d   1       5.114   0.991  -8.028  0.00  0.00    -0.292 OA
BRANCH  32  34
ATOM     34  C   LIG d   1       2.799   0.663  -8.350  0.00  0.00    -0.001 C 
ATOM     35  H   LIG d   1       2.622   0.021  -9.097  0.00  0.00     0.031 H 
ATOM     36  H   LIG d   1       2.014   0.573  -7.600  0.00  0.00     0.031 H 
ATOM     37  H   LIG d   1       2.813   1.680  -8.741  0.00  0.00     0.031 H 
ENDBRANCH  32  34
ENDBRANCH  11  32
BRANCH   1  38
ATOM     38  C   LIG d   1       3.987  -2.358  -2.008  0.00  0.00    -0.039 C 
ATOM     39  H   LIG d   1       5.010  -2.414  -1.636  0.00  0.00     0.028 H 
ATOM     40  H   LIG d   1       3.310  -2.145  -1.181  0.00  0.00     0.028 H 
ATOM     41  H   LIG d   1       3.715  -3.310  -2.465  0.00  0.00     0.028 H 
ENDBRANCH   1  38
TORSDOF 9
ENDMDL
