MODEL 1
REMARK VINA RESULT:      -6.0      0.000      0.000
REMARK  6 active torsions:
REMARK  status: ('A' for Active; 'I' for Inactive)
REMARK    1  A    between atoms: C_1  and  C_2 
REMARK    2  A    between atoms: C_5  and  C_8 
REMARK    3  A    between atoms: C_8  and  C_10 
REMARK    4  A    between atoms: C_10  and  N_11 
REMARK    5  A    between atoms: C_13  and  C_18 
REMARK    6  A    between atoms: C_16  and  C_17 
ROOT
ATOM      1  C   LIG d   1       6.430  -1.370  -5.507  0.00  0.00     0.213 C 
ATOM      2  H   LIG d   1       6.364  -2.335  -6.007  0.00  0.00     0.112 H 
ATOM      3  H   LIG d   1       7.460  -1.189  -5.199  0.00  0.00     0.112 H 
ENDROOT
BRANCH   1   4
ATOM      4  C   LIG d   1       5.992  -0.283  -6.455  0.00  0.00     0.228 C 
ATOM      5  O   LIG d   1       6.596   0.769  -6.491  0.00  0.00    -0.285 OA
BRANCH   4   6
ATOM      6  C   LIG d   1       4.834  -0.497  -7.336  0.00  0.00     0.024 A 
ATOM      7  C   LIG d   1       4.964  -1.272  -8.493  0.00  0.00    -0.051 A 
ATOM      8  C   LIG d   1       3.874  -1.468  -9.313  0.00  0.00    -0.058 A 
ATOM      9  H   LIG d   1       5.917  -1.716  -8.743  0.00  0.00     0.062 H 
ATOM     10  C   LIG d   1       2.652  -0.901  -8.995  0.00  0.00    -0.050 A 
ATOM     11  H   LIG d   1       3.973  -2.066 -10.207  0.00  0.00     0.062 H 
ATOM     12  C   LIG d   1       2.517  -0.128  -7.854  0.00  0.00    -0.058 A 
ATOM     13  C   LIG d   1       3.597   0.074  -7.021  0.00  0.00    -0.051 A 
ATOM     14  H   LIG d   1       1.561   0.315  -7.615  0.00  0.00     0.062 H 
ATOM     15  H   LIG d   1       3.488   0.672  -6.130  0.00  0.00     0.062 H 
BRANCH  10  16
ATOM     16  C   LIG d   1       1.465  -1.121  -9.897  0.00  0.00    -0.040 C 
ATOM     17  H   LIG d   1       0.852  -0.222  -9.916  0.00  0.00     0.028 H 
ATOM     18  H   LIG d   1       1.812  -1.347 -10.905  0.00  0.00     0.028 H 
ATOM     19  H   LIG d   1       0.874  -1.957  -9.521  0.00  0.00     0.028 H 
ENDBRANCH  10  16
ENDBRANCH   4   6
ENDBRANCH   1   4
BRANCH   1  20
ATOM     20  N   LIG d   1       5.560  -1.369  -4.328  0.00  0.00    -0.194 N 
ATOM     21  C   LIG d   1       4.879  -2.458  -4.033  0.00  0.00     0.181 A 
ATOM     22  C   LIG d   1       4.052  -2.497  -2.926  0.00  0.00     0.005 A 
ATOM     23  C   LIG d   1       3.937  -1.368  -2.129  0.00  0.00    -0.047 A 
ATOM     24  H   LIG d   1       3.499  -3.393  -2.687  0.00  0.00     0.068 H 
ATOM     25  C   LIG d   1       4.664  -0.239  -2.474  0.00  0.00     0.013 A 
ATOM     26  H   LIG d   1       3.296  -1.368  -1.260  0.00  0.00     0.062 H 
ATOM     27  C   LIG d   1       5.475  -0.277  -3.593  0.00  0.00     0.175 A 
ATOM     28  H   LIG d   1       6.046   0.598  -3.869  0.00  0.00     0.138 H 
BRANCH  21  29
ATOM     29  C   LIG d   1       5.006  -3.677  -4.909  0.00  0.00     0.021 C 
ATOM     30  H   LIG d   1       6.058  -3.955  -4.993  0.00  0.00     0.034 H 
ATOM     31  H   LIG d   1       4.447  -4.502  -4.468  0.00  0.00     0.034 H 
ATOM     32  H   LIG d   1       4.609  -3.456  -5.900  0.00  0.00     0.034 H 
ENDBRANCH  21  29
BRANCH  25  33
ATOM     33  C   LIG d   1       4.574   1.012  -1.640  0.00  0.00    -0.034 C 
ATOM     34  H   LIG d   1       5.394   1.682  -1.901  0.00  0.00     0.028 H 
ATOM     35  H   LIG d   1       3.624   1.509  -1.831  0.00  0.00     0.028 H 
ATOM     36  H   LIG d   1       4.641   0.751  -0.584  0.00  0.00     0.028 H 
ENDBRANCH  25  33
ENDBRANCH   1  20
TORSDOF 6
ENDMDL
MODEL 2
REMARK VINA RESULT:      -5.8      1.216      1.878
REMARK  6 active torsions:
REMARK  status: ('A' for Active; 'I' for Inactive)
REMARK    1  A    between atoms: C_1  and  C_2 
REMARK    2  A    between atoms: C_5  and  C_8 
REMARK    3  A    between atoms: C_8  and  C_10 
REMARK    4  A    between atoms: C_10  and  N_11 
REMARK    5  A    between atoms: C_13  and  C_18 
REMARK    6  A    between atoms: C_16  and  C_17 
ROOT
ATOM      1  C   LIG d   1       4.950  -0.757  -6.135  0.00  0.00     0.213 C 
ATOM      2  H   LIG d   1       5.173  -1.706  -6.622  0.00  0.00     0.112 H 
ATOM      3  H   LIG d   1       5.791  -0.075  -6.265  0.00  0.00     0.112 H 
ENDROOT
BRANCH   1   4
ATOM      4  C   LIG d   1       3.714  -0.153  -6.750  0.00  0.00     0.228 C 
ATOM      5  O   LIG d   1       3.191   0.813  -6.237  0.00  0.00    -0.285 OA
BRANCH   4   6
ATOM      6  C   LIG d   1       3.142  -0.736  -7.974  0.00  0.00     0.024 A 
ATOM      7  C   LIG d   1       2.214  -0.012  -8.730  0.00  0.00    -0.051 A 
ATOM      8  C   LIG d   1       1.682  -0.565  -9.876  0.00  0.00    -0.058 A 
ATOM      9  H   LIG d   1       1.915   0.978  -8.417  0.00  0.00     0.062 H 
ATOM     10  C   LIG d   1       2.065  -1.832 -10.279  0.00  0.00    -0.050 A 
ATOM     11  H   LIG d   1       0.966  -0.007 -10.460  0.00  0.00     0.062 H 
ATOM     12  C   LIG d   1       2.979  -2.557  -9.533  0.00  0.00    -0.058 A 
ATOM     13  C   LIG d   1       3.523  -2.016  -8.388  0.00  0.00    -0.051 A 
ATOM     14  H   LIG d   1       3.269  -3.547  -9.852  0.00  0.00     0.062 H 
ATOM     15  H   LIG d   1       4.239  -2.581  -7.811  0.00  0.00     0.062 H 
BRANCH  10  16
ATOM     16  C   LIG d   1       1.479  -2.428 -11.533  0.00  0.00    -0.040 C 
ATOM     17  H   LIG d   1       0.399  -2.513 -11.425  0.00  0.00     0.028 H 
ATOM     18  H   LIG d   1       1.710  -1.786 -12.383  0.00  0.00     0.028 H 
ATOM     19  H   LIG d   1       1.907  -3.417 -11.699  0.00  0.00     0.028 H 
ENDBRANCH  10  16
ENDBRANCH   4   6
ENDBRANCH   1   4
BRANCH   1  20
ATOM     20  N   LIG d   1       4.723  -0.984  -4.705  0.00  0.00    -0.194 N 
ATOM     21  C   LIG d   1       4.545  -2.216  -4.271  0.00  0.00     0.181 A 
ATOM     22  C   LIG d   1       4.333  -2.469  -2.929  0.00  0.00     0.005 A 
ATOM     23  C   LIG d   1       4.299  -1.407  -2.038  0.00  0.00    -0.047 A 
ATOM     24  H   LIG d   1       4.191  -3.480  -2.578  0.00  0.00     0.068 H 
ATOM     25  C   LIG d   1       4.485  -0.124  -2.532  0.00  0.00     0.013 A 
ATOM     26  H   LIG d   1       4.132  -1.574  -0.985  0.00  0.00     0.062 H 
ATOM     27  C   LIG d   1       4.697   0.051  -3.887  0.00  0.00     0.175 A 
ATOM     28  H   LIG d   1       4.843   1.046  -4.280  0.00  0.00     0.138 H 
BRANCH  21  29
ATOM     29  C   LIG d   1       4.578  -3.362  -5.249  0.00  0.00     0.021 C 
ATOM     30  H   LIG d   1       5.504  -3.923  -5.119  0.00  0.00     0.034 H 
ATOM     31  H   LIG d   1       3.727  -4.018  -5.068  0.00  0.00     0.034 H 
ATOM     32  H   LIG d   1       4.528  -2.973  -6.266  0.00  0.00     0.034 H 
ENDBRANCH  21  29
BRANCH  25  33
ATOM     33  C   LIG d   1       4.457   1.062  -1.605  0.00  0.00    -0.034 C 
ATOM     34  H   LIG d   1       3.521   1.605  -1.737  0.00  0.00     0.028 H 
ATOM     35  H   LIG d   1       4.536   0.720  -0.574  0.00  0.00     0.028 H 
ATOM     36  H   LIG d   1       5.294   1.722  -1.834  0.00  0.00     0.028 H 
ENDBRANCH  25  33
ENDBRANCH   1  20
TORSDOF 6
ENDMDL
MODEL 3
REMARK VINA RESULT:      -5.5      3.553      5.712
REMARK  6 active torsions:
REMARK  status: ('A' for Active; 'I' for Inactive)
REMARK    1  A    between atoms: C_1  and  C_2 
REMARK    2  A    between atoms: C_5  and  C_8 
REMARK    3  A    between atoms: C_8  and  C_10 
REMARK    4  A    between atoms: C_10  and  N_11 
REMARK    5  A    between atoms: C_13  and  C_18 
REMARK    6  A    between atoms: C_16  and  C_17 
ROOT
ATOM      1  C   LIG d   1       6.384  -3.791  -5.742  0.00  0.00     0.213 C 
ATOM      2  H   LIG d   1       6.071  -4.251  -6.678  0.00  0.00     0.112 H 
ATOM      3  H   LIG d   1       6.796  -2.802  -5.943  0.00  0.00     0.112 H 
ENDROOT
BRANCH   1   4
ATOM      4  C   LIG d   1       5.195  -3.661  -4.824  0.00  0.00     0.228 C 
ATOM      5  O   LIG d   1       4.372  -4.551  -4.769  0.00  0.00    -0.285 OA
BRANCH   4   6
ATOM      6  C   LIG d   1       5.034  -2.457  -3.995  0.00  0.00     0.024 A 
ATOM      7  C   LIG d   1       5.792  -1.312  -4.262  0.00  0.00    -0.051 A 
ATOM      8  C   LIG d   1       5.634  -0.188  -3.480  0.00  0.00    -0.058 A 
ATOM      9  H   LIG d   1       6.499  -1.310  -5.079  0.00  0.00     0.062 H 
ATOM     10  C   LIG d   1       4.729  -0.188  -2.434  0.00  0.00    -0.050 A 
ATOM     11  H   LIG d   1       6.219   0.697  -3.686  0.00  0.00     0.062 H 
ATOM     12  C   LIG d   1       3.979  -1.319  -2.160  0.00  0.00    -0.058 A 
ATOM     13  C   LIG d   1       4.121  -2.451  -2.935  0.00  0.00    -0.051 A 
ATOM     14  H   LIG d   1       3.277  -1.314  -1.339  0.00  0.00     0.062 H 
ATOM     15  H   LIG d   1       3.532  -3.329  -2.723  0.00  0.00     0.062 H 
BRANCH  10  16
ATOM     16  C   LIG d   1       4.563   1.046  -1.585  0.00  0.00    -0.040 C 
ATOM     17  H   LIG d   1       3.712   0.916  -0.918  0.00  0.00     0.028 H 
ATOM     18  H   LIG d   1       5.466   1.206  -0.997  0.00  0.00     0.028 H 
ATOM     19  H   LIG d   1       4.392   1.909  -2.230  0.00  0.00     0.028 H 
ENDBRANCH  10  16
ENDBRANCH   4   6
ENDBRANCH   1   4
BRANCH   1  20
ATOM     20  N   LIG d   1       7.405  -4.626  -5.104  0.00  0.00    -0.194 N 
ATOM     21  C   LIG d   1       7.542  -5.879  -5.489  0.00  0.00     0.181 A 
ATOM     22  C   LIG d   1       8.497  -6.695  -4.913  0.00  0.00     0.005 A 
ATOM     23  C   LIG d   1       9.310  -6.183  -3.913  0.00  0.00    -0.047 A 
ATOM     24  H   LIG d   1       8.607  -7.720  -5.235  0.00  0.00     0.068 H 
ATOM     25  C   LIG d   1       9.133  -4.862  -3.531  0.00  0.00     0.013 A 
ATOM     26  H   LIG d   1      10.062  -6.798  -3.444  0.00  0.00     0.062 H 
ATOM     27  C   LIG d   1       8.160  -4.105  -4.155  0.00  0.00     0.175 A 
ATOM     28  H   LIG d   1       8.016  -3.075  -3.865  0.00  0.00     0.138 H 
BRANCH  21  29
ATOM     29  C   LIG d   1       6.649  -6.427  -6.572  0.00  0.00     0.021 C 
ATOM     30  H   LIG d   1       6.553  -7.507  -6.451  0.00  0.00     0.034 H 
ATOM     31  H   LIG d   1       5.665  -5.964  -6.501  0.00  0.00     0.034 H 
ATOM     32  H   LIG d   1       7.085  -6.208  -7.547  0.00  0.00     0.034 H 
ENDBRANCH  21  29
BRANCH  25  33
ATOM     33  C   LIG d   1       9.991  -4.259  -2.450  0.00  0.00    -0.034 C 
ATOM     34  H   LIG d   1      11.035  -4.273  -2.765  0.00  0.00     0.028 H 
ATOM     35  H   LIG d   1       9.680  -3.230  -2.270  0.00  0.00     0.028 H 
ATOM     36  H   LIG d   1       9.881  -4.837  -1.533  0.00  0.00     0.028 H 
ENDBRANCH  25  33
ENDBRANCH   1  20
TORSDOF 6
ENDMDL
MODEL 4
REMARK VINA RESULT:      -5.4      2.157      5.682
REMARK  6 active torsions:
REMARK  status: ('A' for Active; 'I' for Inactive)
REMARK    1  A    between atoms: C_1  and  C_2 
REMARK    2  A    between atoms: C_5  and  C_8 
REMARK    3  A    between atoms: C_8  and  C_10 
REMARK    4  A    between atoms: C_10  and  N_11 
REMARK    5  A    between atoms: C_13  and  C_18 
REMARK    6  A    between atoms: C_16  and  C_17 
ROOT
ATOM      1  C   LIG d   1       5.462  -3.171  -6.627  0.00  0.00     0.213 C 
ATOM      2  H   LIG d   1       6.194  -2.367  -6.563  0.00  0.00     0.112 H 
ATOM      3  H   LIG d   1       5.958  -4.092  -6.935  0.00  0.00     0.112 H 
ENDROOT
BRANCH   1   4
ATOM      4  C   LIG d   1       4.820  -3.375  -5.279  0.00  0.00     0.228 C 
ATOM      5  O   LIG d   1       4.330  -4.448  -4.996  0.00  0.00    -0.285 OA
BRANCH   4   6
ATOM      6  C   LIG d   1       4.788  -2.273  -4.305  0.00  0.00     0.024 A 
ATOM      7  C   LIG d   1       4.013  -2.381  -3.145  0.00  0.00    -0.051 A 
ATOM      8  C   LIG d   1       3.988  -1.344  -2.237  0.00  0.00    -0.058 A 
ATOM      9  H   LIG d   1       3.436  -3.275  -2.962  0.00  0.00     0.062 H 
ATOM     10  C   LIG d   1       4.728  -0.198  -2.470  0.00  0.00    -0.050 A 
ATOM     11  H   LIG d   1       3.391  -1.427  -1.342  0.00  0.00     0.062 H 
ATOM     12  C   LIG d   1       5.493  -0.080  -3.618  0.00  0.00    -0.058 A 
ATOM     13  C   LIG d   1       5.532  -1.111  -4.534  0.00  0.00    -0.051 A 
ATOM     14  H   LIG d   1       6.063   0.819  -3.795  0.00  0.00     0.062 H 
ATOM     15  H   LIG d   1       6.132  -1.020  -5.425  0.00  0.00     0.062 H 
BRANCH  10  16
ATOM     16  C   LIG d   1       4.695   0.931  -1.472  0.00  0.00    -0.040 C 
ATOM     17  H   LIG d   1       4.008   0.682  -0.664  0.00  0.00     0.028 H 
ATOM     18  H   LIG d   1       5.695   1.085  -1.065  0.00  0.00     0.028 H 
ATOM     19  H   LIG d   1       4.360   1.843  -1.967  0.00  0.00     0.028 H 
ENDBRANCH  10  16
ENDBRANCH   4   6
ENDBRANCH   1   4
BRANCH   1  20
ATOM     20  N   LIG d   1       4.433  -2.818  -7.609  0.00  0.00    -0.194 N 
ATOM     21  C   LIG d   1       3.977  -3.750  -8.422  0.00  0.00     0.181 A 
ATOM     22  C   LIG d   1       3.003  -3.456  -9.359  0.00  0.00     0.005 A 
ATOM     23  C   LIG d   1       2.514  -2.161  -9.441  0.00  0.00    -0.047 A 
ATOM     24  H   LIG d   1       2.630  -4.224 -10.020  0.00  0.00     0.068 H 
ATOM     25  C   LIG d   1       3.023  -1.207  -8.573  0.00  0.00     0.013 A 
ATOM     26  H   LIG d   1       1.756  -1.902 -10.165  0.00  0.00     0.062 H 
ATOM     27  C   LIG d   1       3.992  -1.576  -7.660  0.00  0.00     0.175 A 
ATOM     28  H   LIG d   1       4.393  -0.839  -6.979  0.00  0.00     0.138 H 
BRANCH  21  29
ATOM     29  C   LIG d   1       4.519  -5.152  -8.328  0.00  0.00     0.021 C 
ATOM     30  H   LIG d   1       5.115  -5.371  -9.215  0.00  0.00     0.034 H 
ATOM     31  H   LIG d   1       5.144  -5.241  -7.439  0.00  0.00     0.034 H 
ATOM     32  H   LIG d   1       3.691  -5.859  -8.264  0.00  0.00     0.034 H 
ENDBRANCH  21  29
BRANCH  25  33
ATOM     33  C   LIG d   1       2.524   0.214  -8.623  0.00  0.00    -0.034 C 
ATOM     34  H   LIG d   1       1.505   0.227  -9.011  0.00  0.00     0.028 H 
ATOM     35  H   LIG d   1       2.536   0.639  -7.620  0.00  0.00     0.028 H 
ATOM     36  H   LIG d   1       3.168   0.803  -9.275  0.00  0.00     0.028 H 
ENDBRANCH  25  33
ENDBRANCH   1  20
TORSDOF 6
ENDMDL
MODEL 5
REMARK VINA RESULT:      -5.2      3.232      4.960
REMARK  6 active torsions:
REMARK  status: ('A' for Active; 'I' for Inactive)
REMARK    1  A    between atoms: C_1  and  C_2 
REMARK    2  A    between atoms: C_5  and  C_8 
REMARK    3  A    between atoms: C_8  and  C_10 
REMARK    4  A    between atoms: C_10  and  N_11 
REMARK    5  A    between atoms: C_13  and  C_18 
REMARK    6  A    between atoms: C_16  and  C_17 
ROOT
ATOM      1  C   LIG d   1       7.542  -0.738  -4.804  0.00  0.00     0.213 C 
ATOM      2  H   LIG d   1       7.746  -1.669  -5.332  0.00  0.00     0.112 H 
ATOM      3  H   LIG d   1       8.413  -0.458  -4.210  0.00  0.00     0.112 H 
ENDROOT
BRANCH   1   4
ATOM      4  C   LIG d   1       7.244   0.351  -5.802  0.00  0.00     0.228 C 
ATOM      5  O   LIG d   1       6.323   0.224  -6.581  0.00  0.00    -0.285 OA
BRANCH   4   6
ATOM      6  C   LIG d   1       8.070   1.569  -5.831  0.00  0.00     0.024 A 
ATOM      7  C   LIG d   1       8.291   2.297  -4.657  0.00  0.00    -0.051 A 
ATOM      8  C   LIG d   1       9.066   3.436  -4.693  0.00  0.00    -0.058 A 
ATOM      9  H   LIG d   1       7.856   1.966  -3.725  0.00  0.00     0.062 H 
ATOM     10  C   LIG d   1       9.625   3.860  -5.885  0.00  0.00    -0.050 A 
ATOM     11  H   LIG d   1       9.238   3.999  -3.787  0.00  0.00     0.062 H 
ATOM     12  C   LIG d   1       9.406   3.149  -7.052  0.00  0.00    -0.058 A 
ATOM     13  C   LIG d   1       8.637   2.004  -7.032  0.00  0.00    -0.051 A 
ATOM     14  H   LIG d   1       9.842   3.489  -7.980  0.00  0.00     0.062 H 
ATOM     15  H   LIG d   1       8.472   1.448  -7.942  0.00  0.00     0.062 H 
BRANCH  10  16
ATOM     16  C   LIG d   1      10.472   5.107  -5.914  0.00  0.00    -0.040 C 
ATOM     17  H   LIG d   1      11.342   4.941  -6.548  0.00  0.00     0.028 H 
ATOM     18  H   LIG d   1       9.885   5.935  -6.312  0.00  0.00     0.028 H 
ATOM     19  H   LIG d   1      10.799   5.347  -4.902  0.00  0.00     0.028 H 
ENDBRANCH  10  16
ENDBRANCH   4   6
ENDBRANCH   1   4
BRANCH   1  20
ATOM     20  N   LIG d   1       6.387  -0.920  -3.920  0.00  0.00    -0.194 N 
ATOM     21  C   LIG d   1       5.795  -2.097  -3.873  0.00  0.00     0.181 A 
ATOM     22  C   LIG d   1       4.706  -2.308  -3.048  0.00  0.00     0.005 A 
ATOM     23  C   LIG d   1       4.233  -1.260  -2.273  0.00  0.00    -0.047 A 
ATOM     24  H   LIG d   1       4.228  -3.275  -3.010  0.00  0.00     0.068 H 
ATOM     25  C   LIG d   1       4.878  -0.035  -2.353  0.00  0.00     0.013 A 
ATOM     26  H   LIG d   1       3.383  -1.395  -1.622  0.00  0.00     0.062 H 
ATOM     27  C   LIG d   1       5.964   0.099  -3.198  0.00  0.00     0.175 A 
ATOM     28  H   LIG d   1       6.473   1.049  -3.266  0.00  0.00     0.138 H 
BRANCH  21  29
ATOM     29  C   LIG d   1       6.314  -3.227  -4.724  0.00  0.00     0.021 C 
ATOM     30  H   LIG d   1       5.810  -4.153  -4.445  0.00  0.00     0.034 H 
ATOM     31  H   LIG d   1       6.120  -3.010  -5.774  0.00  0.00     0.034 H 
ATOM     32  H   LIG d   1       7.387  -3.337  -4.568  0.00  0.00     0.034 H 
ENDBRANCH  21  29
BRANCH  25  33
ATOM     33  C   LIG d   1       4.403   1.133  -1.531  0.00  0.00    -0.034 C 
ATOM     34  H   LIG d   1       5.150   1.926  -1.560  0.00  0.00     0.028 H 
ATOM     35  H   LIG d   1       3.463   1.505  -1.937  0.00  0.00     0.028 H 
ATOM     36  H   LIG d   1       4.252   0.815  -0.499  0.00  0.00     0.028 H 
ENDBRANCH  25  33
ENDBRANCH   1  20
TORSDOF 6
ENDMDL
MODEL 6
REMARK VINA RESULT:      -5.2      2.744      5.317
REMARK  6 active torsions:
REMARK  status: ('A' for Active; 'I' for Inactive)
REMARK    1  A    between atoms: C_1  and  C_2 
REMARK    2  A    between atoms: C_5  and  C_8 
REMARK    3  A    between atoms: C_8  and  C_10 
REMARK    4  A    between atoms: C_10  and  N_11 
REMARK    5  A    between atoms: C_13  and  C_18 
REMARK    6  A    between atoms: C_16  and  C_17 
ROOT
ATOM      1  C   LIG d   1       5.461  -1.522  -5.905  0.00  0.00     0.213 C 
ATOM      2  H   LIG d   1       6.485  -1.150  -5.894  0.00  0.00     0.112 H 
ATOM      3  H   LIG d   1       5.098  -1.560  -6.932  0.00  0.00     0.112 H 
ENDROOT
BRANCH   1   4
ATOM      4  C   LIG d   1       5.422  -2.906  -5.308  0.00  0.00     0.228 C 
ATOM      5  O   LIG d   1       4.364  -3.489  -5.197  0.00  0.00    -0.285 OA
BRANCH   4   6
ATOM      6  C   LIG d   1       6.667  -3.549  -4.862  0.00  0.00     0.024 A 
ATOM      7  C   LIG d   1       7.010  -4.821  -5.332  0.00  0.00    -0.051 A 
ATOM      8  C   LIG d   1       8.178  -5.417  -4.909  0.00  0.00    -0.058 A 
ATOM      9  H   LIG d   1       6.360  -5.335  -6.025  0.00  0.00     0.062 H 
ATOM     10  C   LIG d   1       9.013  -4.761  -4.021  0.00  0.00    -0.050 A 
ATOM     11  H   LIG d   1       8.444  -6.399  -5.272  0.00  0.00     0.062 H 
ATOM     12  C   LIG d   1       8.678  -3.504  -3.546  0.00  0.00    -0.058 A 
ATOM     13  C   LIG d   1       7.515  -2.892  -3.964  0.00  0.00    -0.051 A 
ATOM     14  H   LIG d   1       9.332  -3.000  -2.850  0.00  0.00     0.062 H 
ATOM     15  H   LIG d   1       7.259  -1.911  -3.597  0.00  0.00     0.062 H 
BRANCH  10  16
ATOM     16  C   LIG d   1      10.289  -5.420  -3.564  0.00  0.00    -0.040 C 
ATOM     17  H   LIG d   1      11.126  -5.030  -4.141  0.00  0.00     0.028 H 
ATOM     18  H   LIG d   1      10.447  -5.211  -2.506  0.00  0.00     0.028 H 
ATOM     19  H   LIG d   1      10.214  -6.497  -3.714  0.00  0.00     0.028 H 
ENDBRANCH  10  16
ENDBRANCH   4   6
ENDBRANCH   1   4
BRANCH   1  20
ATOM     20  N   LIG d   1       4.607  -0.627  -5.118  0.00  0.00    -0.194 N 
ATOM     21  C   LIG d   1       3.526  -0.119  -5.675  0.00  0.00     0.181 A 
ATOM     22  C   LIG d   1       2.694   0.725  -4.962  0.00  0.00     0.005 A 
ATOM     23  C   LIG d   1       3.016   1.042  -3.651  0.00  0.00    -0.047 A 
ATOM     24  H   LIG d   1       1.808   1.136  -5.422  0.00  0.00     0.068 H 
ATOM     25  C   LIG d   1       4.165   0.492  -3.102  0.00  0.00     0.013 A 
ATOM     26  H   LIG d   1       2.387   1.701  -3.072  0.00  0.00     0.062 H 
ATOM     27  C   LIG d   1       4.945  -0.348  -3.874  0.00  0.00     0.175 A 
ATOM     28  H   LIG d   1       5.841  -0.781  -3.454  0.00  0.00     0.138 H 
BRANCH  21  29
ATOM     29  C   LIG d   1       3.190  -0.465  -7.102  0.00  0.00     0.021 C 
ATOM     30  H   LIG d   1       4.099  -0.443  -7.704  0.00  0.00     0.034 H 
ATOM     31  H   LIG d   1       2.752  -1.462  -7.141  0.00  0.00     0.034 H 
ATOM     32  H   LIG d   1       2.477   0.261  -7.494  0.00  0.00     0.034 H 
ENDBRANCH  21  29
BRANCH  25  33
ATOM     33  C   LIG d   1       4.556   0.805  -1.681  0.00  0.00    -0.034 C 
ATOM     34  H   LIG d   1       5.178   1.700  -1.665  0.00  0.00     0.028 H 
ATOM     35  H   LIG d   1       3.660   0.975  -1.086  0.00  0.00     0.028 H 
ATOM     36  H   LIG d   1       5.116  -0.033  -1.265  0.00  0.00     0.028 H 
ENDBRANCH  25  33
ENDBRANCH   1  20
TORSDOF 6
ENDMDL
MODEL 7
REMARK VINA RESULT:      -5.1      2.499      4.793
REMARK  6 active torsions:
REMARK  status: ('A' for Active; 'I' for Inactive)
REMARK    1  A    between atoms: C_1  and  C_2 
REMARK    2  A    between atoms: C_5  and  C_8 
REMARK    3  A    between atoms: C_8  and  C_10 
REMARK    4  A    between atoms: C_10  and  N_11 
REMARK    5  A    between atoms: C_13  and  C_18 
REMARK    6  A    between atoms: C_16  and  C_17 
ROOT
ATOM      1  C   LIG d   1       5.241  -1.114  -6.708  0.00  0.00     0.213 C 
ATOM      2  H   LIG d   1       5.134  -0.313  -7.439  0.00  0.00     0.112 H 
ATOM      3  H   LIG d   1       5.032  -2.072  -7.185  0.00  0.00     0.112 H 
ENDROOT
BRANCH   1   4
ATOM      4  C   LIG d   1       6.649  -1.118  -6.171  0.00  0.00     0.228 C 
ATOM      5  O   LIG d   1       7.250  -2.166  -6.053  0.00  0.00    -0.285 OA
BRANCH   4   6
ATOM      6  C   LIG d   1       7.296   0.147  -5.790  0.00  0.00     0.024 A 
ATOM      7  C   LIG d   1       7.358   0.529  -4.446  0.00  0.00    -0.051 A 
ATOM      8  C   LIG d   1       7.965   1.716  -4.097  0.00  0.00    -0.058 A 
ATOM      9  H   LIG d   1       6.931  -0.106  -3.683  0.00  0.00     0.062 H 
ATOM     10  C   LIG d   1       8.514   2.529  -5.073  0.00  0.00    -0.050 A 
ATOM     11  H   LIG d   1       8.014   2.011  -3.059  0.00  0.00     0.062 H 
ATOM     12  C   LIG d   1       8.451   2.162  -6.406  0.00  0.00    -0.058 A 
ATOM     13  C   LIG d   1       7.851   0.975  -6.770  0.00  0.00    -0.051 A 
ATOM     14  H   LIG d   1       8.877   2.805  -7.162  0.00  0.00     0.062 H 
ATOM     15  H   LIG d   1       7.808   0.688  -7.810  0.00  0.00     0.062 H 
BRANCH  10  16
ATOM     16  C   LIG d   1       9.176   3.826  -4.682  0.00  0.00    -0.040 C 
ATOM     17  H   LIG d   1      10.135   3.616  -4.210  0.00  0.00     0.028 H 
ATOM     18  H   LIG d   1       9.335   4.435  -5.572  0.00  0.00     0.028 H 
ATOM     19  H   LIG d   1       8.536   4.364  -3.982  0.00  0.00     0.028 H 
ENDBRANCH  10  16
ENDBRANCH   4   6
ENDBRANCH   1   4
BRANCH   1  20
ATOM     20  N   LIG d   1       4.299  -0.900  -5.607  0.00  0.00    -0.194 N 
ATOM     21  C   LIG d   1       3.309  -0.044  -5.767  0.00  0.00     0.181 A 
ATOM     22  C   LIG d   1       2.397   0.180  -4.751  0.00  0.00     0.005 A 
ATOM     23  C   LIG d   1       2.541  -0.501  -3.552  0.00  0.00    -0.047 A 
ATOM     24  H   LIG d   1       1.587   0.879  -4.889  0.00  0.00     0.068 H 
ATOM     25  C   LIG d   1       3.598  -1.389  -3.419  0.00  0.00     0.013 A 
ATOM     26  H   LIG d   1       1.846  -0.343  -2.741  0.00  0.00     0.062 H 
ATOM     27  C   LIG d   1       4.466  -1.565  -4.480  0.00  0.00     0.175 A 
ATOM     28  H   LIG d   1       5.292  -2.256  -4.385  0.00  0.00     0.138 H 
BRANCH  21  29
ATOM     29  C   LIG d   1       3.166   0.695  -7.072  0.00  0.00     0.021 C 
ATOM     30  H   LIG d   1       4.149   1.022  -7.413  0.00  0.00     0.034 H 
ATOM     31  H   LIG d   1       2.725   0.034  -7.817  0.00  0.00     0.034 H 
ATOM     32  H   LIG d   1       2.524   1.564  -6.929  0.00  0.00     0.034 H 
ENDBRANCH  21  29
BRANCH  25  33
ATOM     33  C   LIG d   1       3.796  -2.153  -2.136  0.00  0.00    -0.034 C 
ATOM     34  H   LIG d   1       2.827  -2.345  -1.675  0.00  0.00     0.028 H 
ATOM     35  H   LIG d   1       4.289  -3.100  -2.350  0.00  0.00     0.028 H 
ATOM     36  H   LIG d   1       4.413  -1.567  -1.455  0.00  0.00     0.028 H 
ENDBRANCH  25  33
ENDBRANCH   1  20
TORSDOF 6
ENDMDL
MODEL 8
REMARK VINA RESULT:      -5.1      2.233      6.529
REMARK  6 active torsions:
REMARK  status: ('A' for Active; 'I' for Inactive)
REMARK    1  A    between atoms: C_1  and  C_2 
REMARK    2  A    between atoms: C_5  and  C_8 
REMARK    3  A    between atoms: C_8  and  C_10 
REMARK    4  A    between atoms: C_10  and  N_11 
REMARK    5  A    between atoms: C_13  and  C_18 
REMARK    6  A    between atoms: C_16  and  C_17 
ROOT
ATOM      1  C   LIG d   1       3.144   0.415  -8.254  0.00  0.00     0.213 C 
ATOM      2  H   LIG d   1       2.284   0.439  -7.586  0.00  0.00     0.112 H 
ATOM      3  H   LIG d   1       3.442   1.434  -8.502  0.00  0.00     0.112 H 
ENDROOT
BRANCH   1   4
ATOM      4  C   LIG d   1       4.289  -0.290  -7.572  0.00  0.00     0.228 C 
ATOM      5  O   LIG d   1       5.334  -0.463  -8.165  0.00  0.00    -0.285 OA
BRANCH   4   6
ATOM      6  C   LIG d   1       4.140  -0.768  -6.189  0.00  0.00     0.024 A 
ATOM      7  C   LIG d   1       3.356  -0.053  -5.278  0.00  0.00    -0.051 A 
ATOM      8  C   LIG d   1       3.222  -0.508  -3.984  0.00  0.00    -0.058 A 
ATOM      9  H   LIG d   1       2.857   0.854  -5.588  0.00  0.00     0.062 H 
ATOM     10  C   LIG d   1       3.859  -1.669  -3.585  0.00  0.00    -0.050 A 
ATOM     11  H   LIG d   1       2.616   0.044  -3.280  0.00  0.00     0.062 H 
ATOM     12  C   LIG d   1       4.641  -2.380  -4.478  0.00  0.00    -0.058 A 
ATOM     13  C   LIG d   1       4.782  -1.941  -5.778  0.00  0.00    -0.051 A 
ATOM     14  H   LIG d   1       5.140  -3.283  -4.158  0.00  0.00     0.062 H 
ATOM     15  H   LIG d   1       5.388  -2.499  -6.475  0.00  0.00     0.062 H 
BRANCH  10  16
ATOM     16  C   LIG d   1       3.706  -2.159  -2.168  0.00  0.00    -0.040 C 
ATOM     17  H   LIG d   1       4.394  -2.985  -1.992  0.00  0.00     0.028 H 
ATOM     18  H   LIG d   1       3.928  -1.347  -1.476  0.00  0.00     0.028 H 
ATOM     19  H   LIG d   1       2.682  -2.501  -2.011  0.00  0.00     0.028 H 
ENDBRANCH  10  16
ENDBRANCH   4   6
ENDBRANCH   1   4
BRANCH   1  20
ATOM     20  N   LIG d   1       2.790  -0.303  -9.482  0.00  0.00    -0.194 N 
ATOM     21  C   LIG d   1       3.143   0.205 -10.646  0.00  0.00     0.181 A 
ATOM     22  C   LIG d   1       2.831  -0.446 -11.825  0.00  0.00     0.005 A 
ATOM     23  C   LIG d   1       2.130  -1.642 -11.771  0.00  0.00    -0.047 A 
ATOM     24  H   LIG d   1       3.125  -0.027 -12.775  0.00  0.00     0.068 H 
ATOM     25  C   LIG d   1       1.772  -2.142 -10.529  0.00  0.00     0.013 A 
ATOM     26  H   LIG d   1       1.870  -2.170 -12.676  0.00  0.00     0.062 H 
ATOM     27  C   LIG d   1       2.123  -1.438  -9.392  0.00  0.00     0.175 A 
ATOM     28  H   LIG d   1       1.849  -1.821  -8.420  0.00  0.00     0.138 H 
BRANCH  21  29
ATOM     29  C   LIG d   1       3.898   1.508 -10.692  0.00  0.00     0.021 C 
ATOM     30  H   LIG d   1       4.759   1.404 -11.354  0.00  0.00     0.034 H 
ATOM     31  H   LIG d   1       3.243   2.294 -11.068  0.00  0.00     0.034 H 
ATOM     32  H   LIG d   1       4.240   1.766  -9.690  0.00  0.00     0.034 H 
ENDBRANCH  21  29
BRANCH  25  33
ATOM     33  C   LIG d   1       1.011  -3.437 -10.418  0.00  0.00    -0.034 C 
ATOM     34  H   LIG d   1       0.073  -3.264  -9.890  0.00  0.00     0.028 H 
ATOM     35  H   LIG d   1       0.801  -3.822 -11.415  0.00  0.00     0.028 H 
ATOM     36  H   LIG d   1       1.609  -4.164  -9.867  0.00  0.00     0.028 H 
ENDBRANCH  25  33
ENDBRANCH   1  20
TORSDOF 6
ENDMDL
MODEL 9
REMARK VINA RESULT:      -5.0      2.201      5.620
REMARK  6 active torsions:
REMARK  status: ('A' for Active; 'I' for Inactive)
REMARK    1  A    between atoms: C_1  and  C_2 
REMARK    2  A    between atoms: C_5  and  C_8 
REMARK    3  A    between atoms: C_8  and  C_10 
REMARK    4  A    between atoms: C_10  and  N_11 
REMARK    5  A    between atoms: C_13  and  C_18 
REMARK    6  A    between atoms: C_16  and  C_17 
ROOT
ATOM      1  C   LIG d   1       4.726  -1.544  -7.702  0.00  0.00     0.213 C 
ATOM      2  H   LIG d   1       5.033  -2.237  -8.485  0.00  0.00     0.112 H 
ATOM      3  H   LIG d   1       3.704  -1.771  -7.396  0.00  0.00     0.112 H 
ENDROOT
BRANCH   1   4
ATOM      4  C   LIG d   1       5.646  -1.686  -6.517  0.00  0.00     0.228 C 
ATOM      5  O   LIG d   1       6.634  -2.385  -6.596  0.00  0.00    -0.285 OA
BRANCH   4   6
ATOM      6  C   LIG d   1       5.347  -0.975  -5.264  0.00  0.00     0.024 A 
ATOM      7  C   LIG d   1       6.376  -0.371  -4.534  0.00  0.00    -0.051 A 
ATOM      8  C   LIG d   1       6.087   0.292  -3.361  0.00  0.00    -0.058 A 
ATOM      9  H   LIG d   1       7.395  -0.425  -4.890  0.00  0.00     0.062 H 
ATOM     10  C   LIG d   1       4.782   0.363  -2.905  0.00  0.00    -0.050 A 
ATOM     11  H   LIG d   1       6.881   0.759  -2.797  0.00  0.00     0.062 H 
ATOM     12  C   LIG d   1       3.759  -0.238  -3.617  0.00  0.00    -0.058 A 
ATOM     13  C   LIG d   1       4.031  -0.901  -4.796  0.00  0.00    -0.051 A 
ATOM     14  H   LIG d   1       2.744  -0.183  -3.252  0.00  0.00     0.062 H 
ATOM     15  H   LIG d   1       3.231  -1.364  -5.353  0.00  0.00     0.062 H 
BRANCH  10  16
ATOM     16  C   LIG d   1       4.476   1.091  -1.621  0.00  0.00    -0.040 C 
ATOM     17  H   LIG d   1       4.990   2.051  -1.616  0.00  0.00     0.028 H 
ATOM     18  H   LIG d   1       3.401   1.253  -1.543  0.00  0.00     0.028 H 
ATOM     19  H   LIG d   1       4.815   0.492  -0.775  0.00  0.00     0.028 H 
ENDBRANCH  10  16
ENDBRANCH   4   6
ENDBRANCH   1   4
BRANCH   1  20
ATOM     20  N   LIG d   1       4.791  -0.172  -8.210  0.00  0.00    -0.194 N 
ATOM     21  C   LIG d   1       3.671   0.455  -8.510  0.00  0.00     0.181 A 
ATOM     22  C   LIG d   1       3.692   1.752  -8.988  0.00  0.00     0.005 A 
ATOM     23  C   LIG d   1       4.912   2.389  -9.159  0.00  0.00    -0.047 A 
ATOM     24  H   LIG d   1       2.772   2.262  -9.228  0.00  0.00     0.068 H 
ATOM     25  C   LIG d   1       6.070   1.696  -8.838  0.00  0.00     0.013 A 
ATOM     26  H   LIG d   1       4.960   3.400  -9.533  0.00  0.00     0.062 H 
ATOM     27  C   LIG d   1       5.969   0.402  -8.361  0.00  0.00     0.175 A 
ATOM     28  H   LIG d   1       6.865  -0.145  -8.107  0.00  0.00     0.138 H 
BRANCH  21  29
ATOM     29  C   LIG d   1       2.351  -0.248  -8.326  0.00  0.00     0.021 C 
ATOM     30  H   LIG d   1       2.354  -0.781  -7.375  0.00  0.00     0.034 H 
ATOM     31  H   LIG d   1       1.545   0.485  -8.330  0.00  0.00     0.034 H 
ATOM     32  H   LIG d   1       2.201  -0.959  -9.139  0.00  0.00     0.034 H 
ENDBRANCH  21  29
BRANCH  25  33
ATOM     33  C   LIG d   1       7.419   2.344  -9.005  0.00  0.00    -0.034 C 
ATOM     34  H   LIG d   1       8.118   1.623  -9.429  0.00  0.00     0.028 H 
ATOM     35  H   LIG d   1       7.330   3.200  -9.673  0.00  0.00     0.028 H 
ATOM     36  H   LIG d   1       7.786   2.677  -8.034  0.00  0.00     0.028 H 
ENDBRANCH  25  33
ENDBRANCH   1  20
TORSDOF 6
ENDMDL
