MODEL 1
REMARK VINA RESULT:      -6.3      0.000      0.000
REMARK  10 active torsions:
REMARK  status: ('A' for Active; 'I' for Inactive)
REMARK    1  A    between atoms: C_1  and  C_2 
REMARK    2  A    between atoms: C_3  and  N_9 
REMARK    3  A    between atoms: N_9  and  C_10 
REMARK    4  A    between atoms: C_11  and  C_16 
REMARK    5  A    between atoms: C_16  and  O_18 
REMARK    6  A    between atoms: O_18  and  C_19 
REMARK    7  A    between atoms: C_19  and  C_20 
REMARK    8  A    between atoms: C_20  and  C_22 
REMARK    9  A    between atoms: C_20  and  O_24 
REMARK   10  A    between atoms: C_22  and  O_23 
ROOT
ATOM      1  C   LIG d   1       3.249   0.010  -7.386  0.00  0.00     0.137 A 
ATOM      2  C   LIG d   1       3.169  -0.658  -8.621  0.00  0.00     0.099 A 
ATOM      3  C   LIG d   1       2.984   0.099  -9.785  0.00  0.00    -0.043 A 
ATOM      4  C   LIG d   1       2.888   1.473  -9.667  0.00  0.00    -0.043 A 
ATOM      5  C   LIG d   1       2.976   2.058  -8.416  0.00  0.00     0.030 A 
ATOM      6  N   LIG d   1       3.145   1.329  -7.331  0.00  0.00    -0.239 NA
ATOM      7  H   LIG d   1       2.920  -0.380 -10.751  0.00  0.00     0.063 H 
ATOM      8  H   LIG d   1       2.747   2.086 -10.545  0.00  0.00     0.063 H 
ATOM      9  H   LIG d   1       2.901   3.132  -8.326  0.00  0.00     0.083 H 
ENDROOT
BRANCH   1  10
ATOM     10  N   LIG d   1       3.430  -0.716  -6.223  0.00  0.00    -0.298 N 
ATOM     11  H   LIG d   1       2.867  -1.484  -6.037  0.00  0.00     0.154 HD
BRANCH  10  12
ATOM     12  C   LIG d   1       4.425  -0.343  -5.314  0.00  0.00     0.037 A 
ATOM     13  C   LIG d   1       4.081   0.029  -4.020  0.00  0.00    -0.011 A 
ATOM     14  C   LIG d   1       5.066   0.402  -3.126  0.00  0.00     0.046 A 
ATOM     15  C   LIG d   1       6.395   0.396  -3.516  0.00  0.00    -0.043 A 
ATOM     16 CL   LIG d   1       4.639   0.874  -1.511  0.00  0.00    -0.083 Cl
ATOM     17  C   LIG d   1       6.739   0.027  -4.803  0.00  0.00    -0.059 A 
ATOM     18  H   LIG d   1       7.164   0.685  -2.815  0.00  0.00     0.063 H 
ATOM     19  C   LIG d   1       5.758  -0.342  -5.703  0.00  0.00    -0.040 A 
ATOM     20  H   LIG d   1       7.776   0.026  -5.105  0.00  0.00     0.062 H 
ATOM     21  H   LIG d   1       6.027  -0.631  -6.708  0.00  0.00     0.064 H 
BRANCH  13  22
ATOM     22  C   LIG d   1       2.636   0.030  -3.594  0.00  0.00    -0.037 C 
ATOM     23  H   LIG d   1       2.554  -0.379  -2.587  0.00  0.00     0.028 H 
ATOM     24  H   LIG d   1       2.254   1.052  -3.604  0.00  0.00     0.028 H 
ATOM     25  H   LIG d   1       2.054  -0.582  -4.283  0.00  0.00     0.028 H 
ENDBRANCH  13  22
ENDBRANCH  10  12
ENDBRANCH   1  10
BRANCH   2  26
ATOM     26  C   LIG d   1       3.279  -2.126  -8.690  0.00  0.00     0.343 C 
ATOM     27  O   LIG d   1       2.522  -2.758  -9.400  0.00  0.00    -0.245 OA
BRANCH  26  28
ATOM     28  O   LIG d   1       4.217  -2.766  -7.967  0.00  0.00    -0.458 OA
BRANCH  28  29
ATOM     29  C   LIG d   1       4.382  -4.164  -8.210  0.00  0.00     0.121 C 
ATOM     30  H   LIG d   1       3.564  -4.524  -8.835  0.00  0.00     0.072 H 
ATOM     31  H   LIG d   1       5.331  -4.334  -8.721  0.00  0.00     0.072 H 
BRANCH  29  32
ATOM     32  C   LIG d   1       4.377  -4.919  -6.880  0.00  0.00     0.112 C 
ATOM     33  H   LIG d   1       4.917  -5.859  -6.993  0.00  0.00     0.065 H 
BRANCH  32  34
ATOM     34  C   LIG d   1       5.057  -4.066  -5.807  0.00  0.00     0.073 C 
ATOM     35  H   LIG d   1       5.735  -4.689  -5.224  0.00  0.00     0.058 H 
ATOM     36  H   LIG d   1       5.618  -3.263  -6.283  0.00  0.00     0.058 H 
BRANCH  34  37
ATOM     37  O   LIG d   1       4.064  -3.508  -4.943  0.00  0.00    -0.392 OA
ATOM     38  H   LIG d   1       3.890  -2.569  -5.099  0.00  0.00     0.209 HD
ENDBRANCH  34  37
ENDBRANCH  32  34
BRANCH  32  39
ATOM     39  O   LIG d   1       3.028  -5.190  -6.490  0.00  0.00    -0.386 OA
ATOM     40  H   LIG d   1       2.904  -6.059  -6.087  0.00  0.00     0.210 HD
ENDBRANCH  32  39
ENDBRANCH  29  32
ENDBRANCH  28  29
ENDBRANCH  26  28
ENDBRANCH   2  26
TORSDOF 10
ENDMDL
MODEL 2
REMARK VINA RESULT:      -6.1      2.521      4.625
REMARK  10 active torsions:
REMARK  status: ('A' for Active; 'I' for Inactive)
REMARK    1  A    between atoms: C_1  and  C_2 
REMARK    2  A    between atoms: C_3  and  N_9 
REMARK    3  A    between atoms: N_9  and  C_10 
REMARK    4  A    between atoms: C_11  and  C_16 
REMARK    5  A    between atoms: C_16  and  O_18 
REMARK    6  A    between atoms: O_18  and  C_19 
REMARK    7  A    between atoms: C_19  and  C_20 
REMARK    8  A    between atoms: C_20  and  C_22 
REMARK    9  A    between atoms: C_20  and  O_24 
REMARK   10  A    between atoms: C_22  and  O_23 
ROOT
ATOM      1  C   LIG d   1       3.946  -0.460  -4.663  0.00  0.00     0.137 A 
ATOM      2  C   LIG d   1       4.389  -1.386  -3.701  0.00  0.00     0.099 A 
ATOM      3  C   LIG d   1       4.468  -0.980  -2.363  0.00  0.00    -0.043 A 
ATOM      4  C   LIG d   1       4.105   0.316  -2.047  0.00  0.00    -0.043 A 
ATOM      5  C   LIG d   1       3.679   1.168  -3.049  0.00  0.00     0.030 A 
ATOM      6  N   LIG d   1       3.616   0.771  -4.304  0.00  0.00    -0.239 NA
ATOM      7  H   LIG d   1       4.803  -1.664  -1.597  0.00  0.00     0.063 H 
ATOM      8  H   LIG d   1       4.154   0.660  -1.023  0.00  0.00     0.063 H 
ATOM      9  H   LIG d   1       3.396   2.181  -2.799  0.00  0.00     0.083 H 
ENDROOT
BRANCH   1  10
ATOM     10  N   LIG d   1       3.861  -0.837  -5.991  0.00  0.00    -0.298 N 
ATOM     11  H   LIG d   1       3.287  -1.574  -6.251  0.00  0.00     0.154 HD
BRANCH  10  12
ATOM     12  C   LIG d   1       4.602  -0.154  -6.960  0.00  0.00     0.037 A 
ATOM     13  C   LIG d   1       3.970   0.361  -8.085  0.00  0.00    -0.011 A 
ATOM     14  C   LIG d   1       4.706   1.032  -9.042  0.00  0.00     0.046 A 
ATOM     15  C   LIG d   1       6.071   1.200  -8.876  0.00  0.00    -0.043 A 
ATOM     16 CL   LIG d   1       3.920   1.670 -10.453  0.00  0.00    -0.083 Cl
ATOM     17  C   LIG d   1       6.701   0.688  -7.758  0.00  0.00    -0.059 A 
ATOM     18  H   LIG d   1       6.643   1.727  -9.624  0.00  0.00     0.063 H 
ATOM     19  C   LIG d   1       5.971   0.012  -6.799  0.00  0.00    -0.040 A 
ATOM     20  H   LIG d   1       7.766   0.818  -7.633  0.00  0.00     0.062 H 
ATOM     21  H   LIG d   1       6.465  -0.387  -5.926  0.00  0.00     0.064 H 
BRANCH  13  22
ATOM     22  C   LIG d   1       2.484   0.183  -8.263  0.00  0.00    -0.037 C 
ATOM     23  H   LIG d   1       2.127   0.866  -9.034  0.00  0.00     0.028 H 
ATOM     24  H   LIG d   1       2.274  -0.844  -8.561  0.00  0.00     0.028 H 
ATOM     25  H   LIG d   1       1.977   0.401  -7.322  0.00  0.00     0.028 H 
ENDBRANCH  13  22
ENDBRANCH  10  12
ENDBRANCH   1  10
BRANCH   2  26
ATOM     26  C   LIG d   1       4.763  -2.756  -4.094  0.00  0.00     0.343 C 
ATOM     27  O   LIG d   1       4.205  -3.707  -3.582  0.00  0.00    -0.245 OA
BRANCH  26  28
ATOM     28  O   LIG d   1       5.722  -2.954  -5.018  0.00  0.00    -0.458 OA
BRANCH  28  29
ATOM     29  C   LIG d   1       6.054  -4.308  -5.329  0.00  0.00     0.121 C 
ATOM     30  H   LIG d   1       7.138  -4.422  -5.350  0.00  0.00     0.072 H 
ATOM     31  H   LIG d   1       5.635  -4.968  -4.569  0.00  0.00     0.072 H 
BRANCH  29  32
ATOM     32  C   LIG d   1       5.477  -4.675  -6.697  0.00  0.00     0.112 C 
ATOM     33  H   LIG d   1       6.268  -5.078  -7.329  0.00  0.00     0.065 H 
BRANCH  32  34
ATOM     34  C   LIG d   1       4.379  -5.726  -6.522  0.00  0.00     0.073 C 
ATOM     35  H   LIG d   1       4.245  -6.271  -7.457  0.00  0.00     0.058 H 
ATOM     36  H   LIG d   1       4.664  -6.422  -5.733  0.00  0.00     0.058 H 
BRANCH  34  37
ATOM     37  O   LIG d   1       3.154  -5.080  -6.168  0.00  0.00    -0.392 OA
ATOM     38  H   LIG d   1       2.498  -5.064  -6.879  0.00  0.00     0.209 HD
ENDBRANCH  34  37
ENDBRANCH  32  34
BRANCH  32  39
ATOM     39  O   LIG d   1       4.926  -3.508  -7.311  0.00  0.00    -0.386 OA
ATOM     40  H   LIG d   1       5.524  -3.073  -7.934  0.00  0.00     0.210 HD
ENDBRANCH  32  39
ENDBRANCH  29  32
ENDBRANCH  28  29
ENDBRANCH  26  28
ENDBRANCH   2  26
TORSDOF 10
ENDMDL
MODEL 3
REMARK VINA RESULT:      -5.9      2.321      4.676
REMARK  10 active torsions:
REMARK  status: ('A' for Active; 'I' for Inactive)
REMARK    1  A    between atoms: C_1  and  C_2 
REMARK    2  A    between atoms: C_3  and  N_9 
REMARK    3  A    between atoms: N_9  and  C_10 
REMARK    4  A    between atoms: C_11  and  C_16 
REMARK    5  A    between atoms: C_16  and  O_18 
REMARK    6  A    between atoms: O_18  and  C_19 
REMARK    7  A    between atoms: C_19  and  C_20 
REMARK    8  A    between atoms: C_20  and  C_22 
REMARK    9  A    between atoms: C_20  and  O_24 
REMARK   10  A    between atoms: C_22  and  O_23 
ROOT
ATOM      1  C   LIG d   1       3.843  -0.515  -4.849  0.00  0.00     0.137 A 
ATOM      2  C   LIG d   1       4.303  -1.445  -3.899  0.00  0.00     0.099 A 
ATOM      3  C   LIG d   1       4.382  -1.054  -2.557  0.00  0.00    -0.043 A 
ATOM      4  C   LIG d   1       4.003   0.234  -2.224  0.00  0.00    -0.043 A 
ATOM      5  C   LIG d   1       3.561   1.092  -3.215  0.00  0.00     0.030 A 
ATOM      6  N   LIG d   1       3.498   0.707  -4.474  0.00  0.00    -0.239 NA
ATOM      7  H   LIG d   1       4.729  -1.742  -1.800  0.00  0.00     0.063 H 
ATOM      8  H   LIG d   1       4.051   0.567  -1.197  0.00  0.00     0.063 H 
ATOM      9  H   LIG d   1       3.265   2.097  -2.952  0.00  0.00     0.083 H 
ENDROOT
BRANCH   1  10
ATOM     10  N   LIG d   1       3.758  -0.877  -6.180  0.00  0.00    -0.298 N 
ATOM     11  H   LIG d   1       3.586  -1.801  -6.422  0.00  0.00     0.154 HD
BRANCH  10  12
ATOM     12  C   LIG d   1       3.918   0.088  -7.178  0.00  0.00     0.037 A 
ATOM     13  C   LIG d   1       5.188   0.388  -7.659  0.00  0.00    -0.011 A 
ATOM     14  C   LIG d   1       5.344   1.346  -8.642  0.00  0.00     0.046 A 
ATOM     15  C   LIG d   1       4.236   1.999  -9.155  0.00  0.00    -0.043 A 
ATOM     16 CL   LIG d   1       6.929   1.728  -9.238  0.00  0.00    -0.083 Cl
ATOM     17  C   LIG d   1       2.973   1.702  -8.680  0.00  0.00    -0.059 A 
ATOM     18  H   LIG d   1       4.360   2.745  -9.927  0.00  0.00     0.063 H 
ATOM     19  C   LIG d   1       2.811   0.749  -7.693  0.00  0.00    -0.040 A 
ATOM     20  H   LIG d   1       2.112   2.216  -9.080  0.00  0.00     0.062 H 
ATOM     21  H   LIG d   1       1.824   0.518  -7.322  0.00  0.00     0.064 H 
BRANCH  13  22
ATOM     22  C   LIG d   1       6.392  -0.326  -7.103  0.00  0.00    -0.037 C 
ATOM     23  H   LIG d   1       6.783  -1.015  -7.852  0.00  0.00     0.028 H 
ATOM     24  H   LIG d   1       7.161   0.402  -6.843  0.00  0.00     0.028 H 
ATOM     25  H   LIG d   1       6.104  -0.885  -6.212  0.00  0.00     0.028 H 
ENDBRANCH  13  22
ENDBRANCH  10  12
ENDBRANCH   1  10
BRANCH   2  26
ATOM     26  C   LIG d   1       4.693  -2.805  -4.309  0.00  0.00     0.343 C 
ATOM     27  O   LIG d   1       4.243  -3.769  -3.720  0.00  0.00    -0.245 OA
BRANCH  26  28
ATOM     28  O   LIG d   1       5.548  -2.981  -5.334  0.00  0.00    -0.458 OA
BRANCH  28  29
ATOM     29  C   LIG d   1       5.847  -4.327  -5.707  0.00  0.00     0.121 C 
ATOM     30  H   LIG d   1       6.926  -4.478  -5.695  0.00  0.00     0.072 H 
ATOM     31  H   LIG d   1       5.377  -5.013  -5.001  0.00  0.00     0.072 H 
BRANCH  29  32
ATOM     32  C   LIG d   1       5.310  -4.599  -7.114  0.00  0.00     0.112 C 
ATOM     33  H   LIG d   1       6.109  -5.004  -7.736  0.00  0.00     0.065 H 
BRANCH  32  34
ATOM     34  C   LIG d   1       4.163  -5.608  -7.036  0.00  0.00     0.073 C 
ATOM     35  H   LIG d   1       3.762  -5.779  -8.035  0.00  0.00     0.058 H 
ATOM     36  H   LIG d   1       4.533  -6.547  -6.627  0.00  0.00     0.058 H 
BRANCH  34  37
ATOM     37  O   LIG d   1       3.132  -5.092  -6.191  0.00  0.00    -0.392 OA
ATOM     38  H   LIG d   1       3.371  -5.059  -5.255  0.00  0.00     0.209 HD
ENDBRANCH  34  37
ENDBRANCH  32  34
BRANCH  32  39
ATOM     39  O   LIG d   1       4.834  -3.378  -7.686  0.00  0.00    -0.386 OA
ATOM     40  H   LIG d   1       4.113  -2.967  -7.190  0.00  0.00     0.210 HD
ENDBRANCH  32  39
ENDBRANCH  29  32
ENDBRANCH  28  29
ENDBRANCH  26  28
ENDBRANCH   2  26
TORSDOF 10
ENDMDL
MODEL 4
REMARK VINA RESULT:      -5.7      3.109      5.193
REMARK  10 active torsions:
REMARK  status: ('A' for Active; 'I' for Inactive)
REMARK    1  A    between atoms: C_1  and  C_2 
REMARK    2  A    between atoms: C_3  and  N_9 
REMARK    3  A    between atoms: N_9  and  C_10 
REMARK    4  A    between atoms: C_11  and  C_16 
REMARK    5  A    between atoms: C_16  and  O_18 
REMARK    6  A    between atoms: O_18  and  C_19 
REMARK    7  A    between atoms: C_19  and  C_20 
REMARK    8  A    between atoms: C_20  and  C_22 
REMARK    9  A    between atoms: C_20  and  O_24 
REMARK   10  A    between atoms: C_22  and  O_23 
ROOT
ATOM      1  C   LIG d   1       3.929  -0.350  -4.493  0.00  0.00     0.137 A 
ATOM      2  C   LIG d   1       4.522  -1.100  -3.462  0.00  0.00     0.099 A 
ATOM      3  C   LIG d   1       4.585  -0.547  -2.177  0.00  0.00    -0.043 A 
ATOM      4  C   LIG d   1       4.058   0.716  -1.978  0.00  0.00    -0.043 A 
ATOM      5  C   LIG d   1       3.489   1.392  -3.043  0.00  0.00     0.030 A 
ATOM      6  N   LIG d   1       3.444   0.858  -4.247  0.00  0.00    -0.239 NA
ATOM      7  H   LIG d   1       5.032  -1.095  -1.360  0.00  0.00     0.063 H 
ATOM      8  H   LIG d   1       4.089   1.171  -0.998  0.00  0.00     0.063 H 
ATOM      9  H   LIG d   1       3.078   2.379  -2.886  0.00  0.00     0.083 H 
ENDROOT
BRANCH   1  10
ATOM     10  N   LIG d   1       3.856  -0.874  -5.770  0.00  0.00    -0.298 N 
ATOM     11  H   LIG d   1       3.291  -1.642  -5.949  0.00  0.00     0.154 HD
BRANCH  10  12
ATOM     12  C   LIG d   1       4.599  -0.297  -6.805  0.00  0.00     0.037 A 
ATOM     13  C   LIG d   1       3.960   0.145  -7.957  0.00  0.00    -0.011 A 
ATOM     14  C   LIG d   1       4.697   0.710  -8.979  0.00  0.00     0.046 A 
ATOM     15  C   LIG d   1       6.069   0.846  -8.852  0.00  0.00    -0.043 A 
ATOM     16 CL   LIG d   1       3.902   1.257 -10.423  0.00  0.00    -0.083 Cl
ATOM     17  C   LIG d   1       6.706   0.407  -7.707  0.00  0.00    -0.059 A 
ATOM     18  H   LIG d   1       6.643   1.292  -9.651  0.00  0.00     0.063 H 
ATOM     19  C   LIG d   1       5.975  -0.164  -6.683  0.00  0.00    -0.040 A 
ATOM     20  H   LIG d   1       7.777   0.511  -7.613  0.00  0.00     0.062 H 
ATOM     21  H   LIG d   1       6.474  -0.506  -5.789  0.00  0.00     0.064 H 
BRANCH  13  22
ATOM     22  C   LIG d   1       2.466   0.002  -8.093  0.00  0.00    -0.037 C 
ATOM     23  H   LIG d   1       2.140  -0.901  -7.578  0.00  0.00     0.028 H 
ATOM     24  H   LIG d   1       1.976   0.870  -7.651  0.00  0.00     0.028 H 
ATOM     25  H   LIG d   1       2.202  -0.067  -9.148  0.00  0.00     0.028 H 
ENDBRANCH  13  22
ENDBRANCH  10  12
ENDBRANCH   1  10
BRANCH   2  26
ATOM     26  C   LIG d   1       5.067  -2.443  -3.728  0.00  0.00     0.343 C 
ATOM     27  O   LIG d   1       4.322  -3.348  -4.046  0.00  0.00    -0.245 OA
BRANCH  26  28
ATOM     28  O   LIG d   1       6.391  -2.666  -3.619  0.00  0.00    -0.458 OA
BRANCH  28  29
ATOM     29  C   LIG d   1       7.058  -3.185  -4.771  0.00  0.00     0.121 C 
ATOM     30  H   LIG d   1       6.805  -4.238  -4.894  0.00  0.00     0.072 H 
ATOM     31  H   LIG d   1       6.743  -2.630  -5.655  0.00  0.00     0.072 H 
BRANCH  29  32
ATOM     32  C   LIG d   1       8.571  -3.043  -4.592  0.00  0.00     0.112 C 
ATOM     33  H   LIG d   1       9.078  -3.834  -5.146  0.00  0.00     0.065 H 
BRANCH  32  34
ATOM     34  C   LIG d   1       9.022  -1.681  -5.123  0.00  0.00     0.073 C 
ATOM     35  H   LIG d   1      10.110  -1.634  -5.127  0.00  0.00     0.058 H 
ATOM     36  H   LIG d   1       8.648  -1.544  -6.137  0.00  0.00     0.058 H 
BRANCH  34  37
ATOM     37  O   LIG d   1       8.504  -0.648  -4.281  0.00  0.00    -0.392 OA
ATOM     38  H   LIG d   1       7.591  -0.400  -4.478  0.00  0.00     0.209 HD
ENDBRANCH  34  37
ENDBRANCH  32  34
BRANCH  32  39
ATOM     39  O   LIG d   1       8.900  -3.147  -3.205  0.00  0.00    -0.386 OA
ATOM     40  H   LIG d   1       9.844  -3.266  -3.033  0.00  0.00     0.210 HD
ENDBRANCH  32  39
ENDBRANCH  29  32
ENDBRANCH  28  29
ENDBRANCH  26  28
ENDBRANCH   2  26
TORSDOF 10
ENDMDL
MODEL 5
REMARK VINA RESULT:      -5.7      5.507      7.822
REMARK  10 active torsions:
REMARK  status: ('A' for Active; 'I' for Inactive)
REMARK    1  A    between atoms: C_1  and  C_2 
REMARK    2  A    between atoms: C_3  and  N_9 
REMARK    3  A    between atoms: N_9  and  C_10 
REMARK    4  A    between atoms: C_11  and  C_16 
REMARK    5  A    between atoms: C_16  and  O_18 
REMARK    6  A    between atoms: O_18  and  C_19 
REMARK    7  A    between atoms: C_19  and  C_20 
REMARK    8  A    between atoms: C_20  and  C_22 
REMARK    9  A    between atoms: C_20  and  O_24 
REMARK   10  A    between atoms: C_22  and  O_23 
ROOT
ATOM      1  C   LIG d   1       7.974   0.954  -4.988  0.00  0.00     0.137 A 
ATOM      2  C   LIG d   1       8.806   2.083  -5.100  0.00  0.00     0.099 A 
ATOM      3  C   LIG d   1       9.016   2.641  -6.367  0.00  0.00    -0.043 A 
ATOM      4  C   LIG d   1       8.395   2.055  -7.455  0.00  0.00    -0.043 A 
ATOM      5  C   LIG d   1       7.591   0.946  -7.265  0.00  0.00     0.030 A 
ATOM      6  N   LIG d   1       7.409   0.431  -6.065  0.00  0.00    -0.239 NA
ATOM      7  H   LIG d   1       9.647   3.509  -6.491  0.00  0.00     0.063 H 
ATOM      8  H   LIG d   1       8.536   2.462  -8.446  0.00  0.00     0.063 H 
ATOM      9  H   LIG d   1       7.106   0.489  -8.116  0.00  0.00     0.083 H 
ENDROOT
BRANCH   1  10
ATOM     10  N   LIG d   1       7.752   0.384  -3.748  0.00  0.00    -0.298 N 
ATOM     11  H   LIG d   1       8.497   0.039  -3.232  0.00  0.00     0.154 HD
BRANCH  10  12
ATOM     12  C   LIG d   1       6.453   0.307  -3.237  0.00  0.00     0.037 A 
ATOM     13  C   LIG d   1       5.844  -0.931  -3.069  0.00  0.00    -0.011 A 
ATOM     14  C   LIG d   1       4.558  -1.003  -2.569  0.00  0.00     0.046 A 
ATOM     15  C   LIG d   1       3.881   0.156  -2.226  0.00  0.00    -0.043 A 
ATOM     16 CL   LIG d   1       3.792  -2.547  -2.364  0.00  0.00    -0.083 Cl
ATOM     17  C   LIG d   1       4.485   1.387  -2.392  0.00  0.00    -0.059 A 
ATOM     18  H   LIG d   1       2.877   0.096  -1.832  0.00  0.00     0.063 H 
ATOM     19  C   LIG d   1       5.769   1.467  -2.897  0.00  0.00    -0.040 A 
ATOM     20  H   LIG d   1       3.953   2.289  -2.127  0.00  0.00     0.062 H 
ATOM     21  H   LIG d   1       6.240   2.430  -3.027  0.00  0.00     0.064 H 
BRANCH  13  22
ATOM     22  C   LIG d   1       6.583  -2.191  -3.437  0.00  0.00    -0.037 C 
ATOM     23  H   LIG d   1       7.617  -1.947  -3.678  0.00  0.00     0.028 H 
ATOM     24  H   LIG d   1       6.558  -2.885  -2.597  0.00  0.00     0.028 H 
ATOM     25  H   LIG d   1       6.107  -2.651  -4.303  0.00  0.00     0.028 H 
ENDBRANCH  13  22
ENDBRANCH  10  12
ENDBRANCH   1  10
BRANCH   2  26
ATOM     26  C   LIG d   1       9.443   2.668  -3.908  0.00  0.00     0.343 C 
ATOM     27  O   LIG d   1      10.271   2.030  -3.288  0.00  0.00    -0.245 OA
BRANCH  26  28
ATOM     28  O   LIG d   1       9.107   3.908  -3.504  0.00  0.00    -0.458 OA
BRANCH  28  29
ATOM     29  C   LIG d   1      10.146   4.890  -3.493  0.00  0.00     0.121 C 
ATOM     30  H   LIG d   1      11.112   4.396  -3.387  0.00  0.00     0.072 H 
ATOM     31  H   LIG d   1      10.126   5.451  -4.427  0.00  0.00     0.072 H 
BRANCH  29  32
ATOM     32  C   LIG d   1       9.931   5.847  -2.319  0.00  0.00     0.112 C 
ATOM     33  H   LIG d   1       8.894   5.787  -1.986  0.00  0.00     0.065 H 
BRANCH  32  34
ATOM     34  C   LIG d   1      10.860   5.459  -1.168  0.00  0.00     0.073 C 
ATOM     35  H   LIG d   1      11.768   6.060  -1.215  0.00  0.00     0.058 H 
ATOM     36  H   LIG d   1      10.355   5.636  -0.218  0.00  0.00     0.058 H 
BRANCH  34  37
ATOM     37  O   LIG d   1      11.200   4.075  -1.275  0.00  0.00    -0.392 OA
ATOM     38  H   LIG d   1      12.134   3.913  -1.465  0.00  0.00     0.209 HD
ENDBRANCH  34  37
ENDBRANCH  32  34
BRANCH  32  39
ATOM     39  O   LIG d   1      10.219   7.184  -2.735  0.00  0.00    -0.386 OA
ATOM     40  H   LIG d   1       9.734   7.463  -3.523  0.00  0.00     0.210 HD
ENDBRANCH  32  39
ENDBRANCH  29  32
ENDBRANCH  28  29
ENDBRANCH  26  28
ENDBRANCH   2  26
TORSDOF 10
ENDMDL
MODEL 6
REMARK VINA RESULT:      -5.7      3.167      5.036
REMARK  10 active torsions:
REMARK  status: ('A' for Active; 'I' for Inactive)
REMARK    1  A    between atoms: C_1  and  C_2 
REMARK    2  A    between atoms: C_3  and  N_9 
REMARK    3  A    between atoms: N_9  and  C_10 
REMARK    4  A    between atoms: C_11  and  C_16 
REMARK    5  A    between atoms: C_16  and  O_18 
REMARK    6  A    between atoms: O_18  and  C_19 
REMARK    7  A    between atoms: C_19  and  C_20 
REMARK    8  A    between atoms: C_20  and  C_22 
REMARK    9  A    between atoms: C_20  and  O_24 
REMARK   10  A    between atoms: C_22  and  O_23 
ROOT
ATOM      1  C   LIG d   1       8.334   1.288  -4.332  0.00  0.00     0.137 A 
ATOM      2  C   LIG d   1       8.221   1.570  -5.706  0.00  0.00     0.099 A 
ATOM      3  C   LIG d   1       8.782   2.754  -6.199  0.00  0.00    -0.043 A 
ATOM      4  C   LIG d   1       9.425   3.597  -5.310  0.00  0.00    -0.043 A 
ATOM      5  C   LIG d   1       9.496   3.251  -3.973  0.00  0.00     0.030 A 
ATOM      6  N   LIG d   1       8.957   2.134  -3.526  0.00  0.00    -0.239 NA
ATOM      7  H   LIG d   1       8.715   3.003  -7.248  0.00  0.00     0.063 H 
ATOM      8  H   LIG d   1       9.870   4.518  -5.659  0.00  0.00     0.063 H 
ATOM      9  H   LIG d   1       9.999   3.910  -3.280  0.00  0.00     0.083 H 
ENDROOT
BRANCH   1  10
ATOM     10  N   LIG d   1       7.787   0.125  -3.822  0.00  0.00    -0.298 N 
ATOM     11  H   LIG d   1       8.300  -0.698  -3.832  0.00  0.00     0.154 HD
BRANCH  10  12
ATOM     12  C   LIG d   1       6.494   0.137  -3.291  0.00  0.00     0.037 A 
ATOM     13  C   LIG d   1       5.815  -1.059  -3.086  0.00  0.00    -0.011 A 
ATOM     14  C   LIG d   1       4.536  -1.044  -2.566  0.00  0.00     0.046 A 
ATOM     15  C   LIG d   1       3.935   0.160  -2.238  0.00  0.00    -0.043 A 
ATOM     16 CL   LIG d   1       3.683  -2.536  -2.316  0.00  0.00    -0.083 Cl
ATOM     17  C   LIG d   1       4.608   1.349  -2.440  0.00  0.00    -0.059 A 
ATOM     18  H   LIG d   1       2.935   0.168  -1.828  0.00  0.00     0.063 H 
ATOM     19  C   LIG d   1       5.885   1.341  -2.966  0.00  0.00    -0.040 A 
ATOM     20  H   LIG d   1       4.134   2.286  -2.187  0.00  0.00     0.062 H 
ATOM     21  H   LIG d   1       6.411   2.272  -3.123  0.00  0.00     0.064 H 
BRANCH  13  22
ATOM     22  C   LIG d   1       6.472  -2.369  -3.438  0.00  0.00    -0.037 C 
ATOM     23  H   LIG d   1       7.165  -2.216  -4.265  0.00  0.00     0.028 H 
ATOM     24  H   LIG d   1       7.016  -2.747  -2.572  0.00  0.00     0.028 H 
ATOM     25  H   LIG d   1       5.709  -3.090  -3.732  0.00  0.00     0.028 H 
ENDBRANCH  13  22
ENDBRANCH  10  12
ENDBRANCH   1  10
BRANCH   2  26
ATOM     26  C   LIG d   1       7.525   0.636  -6.609  0.00  0.00     0.343 C 
ATOM     27  O   LIG d   1       8.156  -0.212  -7.208  0.00  0.00    -0.245 OA
BRANCH  26  28
ATOM     28  O   LIG d   1       6.191   0.724  -6.770  0.00  0.00    -0.458 OA
BRANCH  28  29
ATOM     29  C   LIG d   1       5.521  -0.436  -7.268  0.00  0.00     0.121 C 
ATOM     30  H   LIG d   1       5.087  -0.215  -8.244  0.00  0.00     0.072 H 
ATOM     31  H   LIG d   1       6.234  -1.254  -7.365  0.00  0.00     0.072 H 
BRANCH  29  32
ATOM     32  C   LIG d   1       4.410  -0.841  -6.297  0.00  0.00     0.112 C 
ATOM     33  H   LIG d   1       4.778  -0.767  -5.273  0.00  0.00     0.065 H 
BRANCH  32  34
ATOM     34  C   LIG d   1       3.211   0.091  -6.476  0.00  0.00     0.073 C 
ATOM     35  H   LIG d   1       3.556   1.124  -6.521  0.00  0.00     0.058 H 
ATOM     36  H   LIG d   1       2.690  -0.159  -7.400  0.00  0.00     0.058 H 
BRANCH  34  37
ATOM     37  O   LIG d   1       2.318  -0.063  -5.370  0.00  0.00    -0.392 OA
ATOM     38  H   LIG d   1       2.735   0.065  -4.507  0.00  0.00     0.209 HD
ENDBRANCH  34  37
ENDBRANCH  32  34
BRANCH  32  39
ATOM     39  O   LIG d   1       4.012  -2.187  -6.563  0.00  0.00    -0.386 OA
ATOM     40  H   LIG d   1       4.536  -2.851  -6.095  0.00  0.00     0.210 HD
ENDBRANCH  32  39
ENDBRANCH  29  32
ENDBRANCH  28  29
ENDBRANCH  26  28
ENDBRANCH   2  26
TORSDOF 10
ENDMDL
MODEL 7
REMARK VINA RESULT:      -5.6      1.529      2.405
REMARK  10 active torsions:
REMARK  status: ('A' for Active; 'I' for Inactive)
REMARK    1  A    between atoms: C_1  and  C_2 
REMARK    2  A    between atoms: C_3  and  N_9 
REMARK    3  A    between atoms: N_9  and  C_10 
REMARK    4  A    between atoms: C_11  and  C_16 
REMARK    5  A    between atoms: C_16  and  O_18 
REMARK    6  A    between atoms: O_18  and  C_19 
REMARK    7  A    between atoms: C_19  and  C_20 
REMARK    8  A    between atoms: C_20  and  C_22 
REMARK    9  A    between atoms: C_20  and  O_24 
REMARK   10  A    between atoms: C_22  and  O_23 
ROOT
ATOM      1  C   LIG d   1       3.392  -0.198  -7.336  0.00  0.00     0.137 A 
ATOM      2  C   LIG d   1       3.454  -0.827  -8.593  0.00  0.00     0.099 A 
ATOM      3  C   LIG d   1       3.200  -0.065  -9.740  0.00  0.00    -0.043 A 
ATOM      4  C   LIG d   1       2.899   1.276  -9.586  0.00  0.00    -0.043 A 
ATOM      5  C   LIG d   1       2.857   1.823  -8.316  0.00  0.00     0.030 A 
ATOM      6  N   LIG d   1       3.094   1.089  -7.247  0.00  0.00    -0.239 NA
ATOM      7  H   LIG d   1       3.240  -0.514 -10.722  0.00  0.00     0.063 H 
ATOM      8  H   LIG d   1       2.699   1.892 -10.451  0.00  0.00     0.063 H 
ATOM      9  H   LIG d   1       2.621   2.871  -8.197  0.00  0.00     0.083 H 
ENDROOT
BRANCH   1  10
ATOM     10  N   LIG d   1       3.638  -0.930  -6.189  0.00  0.00    -0.298 N 
ATOM     11  H   LIG d   1       3.161  -1.759  -6.030  0.00  0.00     0.154 HD
BRANCH  10  12
ATOM     12  C   LIG d   1       4.575  -0.473  -5.257  0.00  0.00     0.037 A 
ATOM     13  C   LIG d   1       4.161  -0.075  -3.992  0.00  0.00    -0.011 A 
ATOM     14  C   LIG d   1       5.089   0.380  -3.075  0.00  0.00     0.046 A 
ATOM     15  C   LIG d   1       6.431   0.429  -3.413  0.00  0.00    -0.043 A 
ATOM     16 CL   LIG d   1       4.573   0.885  -1.496  0.00  0.00    -0.083 Cl
ATOM     17  C   LIG d   1       6.845   0.033  -4.670  0.00  0.00    -0.059 A 
ATOM     18  H   LIG d   1       7.155   0.782  -2.693  0.00  0.00     0.063 H 
ATOM     19  C   LIG d   1       5.921  -0.418  -5.593  0.00  0.00    -0.040 A 
ATOM     20  H   LIG d   1       7.891   0.076  -4.932  0.00  0.00     0.062 H 
ATOM     21  H   LIG d   1       6.245  -0.727  -6.576  0.00  0.00     0.064 H 
BRANCH  13  22
ATOM     22  C   LIG d   1       2.701  -0.133  -3.623  0.00  0.00    -0.037 C 
ATOM     23  H   LIG d   1       2.099   0.190  -4.472  0.00  0.00     0.028 H 
ATOM     24  H   LIG d   1       2.434  -1.156  -3.356  0.00  0.00     0.028 H 
ATOM     25  H   LIG d   1       2.514   0.525  -2.774  0.00  0.00     0.028 H 
ENDBRANCH  13  22
ENDBRANCH  10  12
ENDBRANCH   1  10
BRANCH   2  26
ATOM     26  C   LIG d   1       3.780  -2.259  -8.701  0.00  0.00     0.343 C 
ATOM     27  O   LIG d   1       4.918  -2.638  -8.505  0.00  0.00    -0.245 OA
BRANCH  26  28
ATOM     28  O   LIG d   1       2.818  -3.147  -9.015  0.00  0.00    -0.458 OA
BRANCH  28  29
ATOM     29  C   LIG d   1       2.861  -3.714 -10.326  0.00  0.00     0.121 C 
ATOM     30  H   LIG d   1       3.296  -2.994 -11.020  0.00  0.00     0.072 H 
ATOM     31  H   LIG d   1       3.472  -4.618 -10.311  0.00  0.00     0.072 H 
BRANCH  29  32
ATOM     32  C   LIG d   1       1.442  -4.065 -10.778  0.00  0.00     0.112 C 
ATOM     33  H   LIG d   1       1.369  -3.957 -11.860  0.00  0.00     0.065 H 
BRANCH  32  34
ATOM     34  C   LIG d   1       1.125  -5.509 -10.387  0.00  0.00     0.073 C 
ATOM     35  H   LIG d   1       0.056  -5.610 -10.203  0.00  0.00     0.058 H 
ATOM     36  H   LIG d   1       1.419  -6.178 -11.196  0.00  0.00     0.058 H 
BRANCH  34  37
ATOM     37  O   LIG d   1       1.846  -5.851  -9.201  0.00  0.00    -0.392 OA
ATOM     38  H   LIG d   1       2.340  -5.115  -8.815  0.00  0.00     0.209 HD
ENDBRANCH  34  37
ENDBRANCH  32  34
BRANCH  32  39
ATOM     39  O   LIG d   1       0.510  -3.184 -10.147  0.00  0.00    -0.386 OA
ATOM     40  H   LIG d   1       0.720  -2.985  -9.225  0.00  0.00     0.210 HD
ENDBRANCH  32  39
ENDBRANCH  29  32
ENDBRANCH  28  29
ENDBRANCH  26  28
ENDBRANCH   2  26
TORSDOF 10
ENDMDL
MODEL 8
REMARK VINA RESULT:      -5.5      3.199      4.304
REMARK  10 active torsions:
REMARK  status: ('A' for Active; 'I' for Inactive)
REMARK    1  A    between atoms: C_1  and  C_2 
REMARK    2  A    between atoms: C_3  and  N_9 
REMARK    3  A    between atoms: N_9  and  C_10 
REMARK    4  A    between atoms: C_11  and  C_16 
REMARK    5  A    between atoms: C_16  and  O_18 
REMARK    6  A    between atoms: O_18  and  C_19 
REMARK    7  A    between atoms: C_19  and  C_20 
REMARK    8  A    between atoms: C_20  and  C_22 
REMARK    9  A    between atoms: C_20  and  O_24 
REMARK   10  A    between atoms: C_22  and  O_23 
ROOT
ATOM      1  C   LIG d   1       3.330   0.184  -8.499  0.00  0.00     0.137 A 
ATOM      2  C   LIG d   1       3.854   0.651  -9.718  0.00  0.00     0.099 A 
ATOM      3  C   LIG d   1       3.243   0.250 -10.912  0.00  0.00    -0.043 A 
ATOM      4  C   LIG d   1       2.147  -0.590 -10.840  0.00  0.00    -0.043 A 
ATOM      5  C   LIG d   1       1.688  -1.007  -9.603  0.00  0.00     0.030 A 
ATOM      6  N   LIG d   1       2.280  -0.624  -8.489  0.00  0.00    -0.239 NA
ATOM      7  H   LIG d   1       3.618   0.590 -11.866  0.00  0.00     0.063 H 
ATOM      8  H   LIG d   1       1.651  -0.917 -11.742  0.00  0.00     0.063 H 
ATOM      9  H   LIG d   1       0.832  -1.664  -9.549  0.00  0.00     0.083 H 
ENDROOT
BRANCH   1  10
ATOM     10  N   LIG d   1       3.917   0.565  -7.307  0.00  0.00    -0.298 N 
ATOM     11  H   LIG d   1       4.111   1.500  -7.138  0.00  0.00     0.154 HD
BRANCH  10  12
ATOM     12  C   LIG d   1       4.231  -0.399  -6.344  0.00  0.00     0.037 A 
ATOM     13  C   LIG d   1       3.578  -0.396  -5.117  0.00  0.00    -0.011 A 
ATOM     14  C   LIG d   1       3.894  -1.347  -4.166  0.00  0.00     0.046 A 
ATOM     15  C   LIG d   1       4.853  -2.308  -4.439  0.00  0.00    -0.043 A 
ATOM     16 CL   LIG d   1       3.084  -1.341  -2.630  0.00  0.00    -0.083 Cl
ATOM     17  C   LIG d   1       5.504  -2.313  -5.658  0.00  0.00    -0.059 A 
ATOM     18  H   LIG d   1       5.096  -3.052  -3.695  0.00  0.00     0.063 H 
ATOM     19  C   LIG d   1       5.196  -1.361  -6.611  0.00  0.00    -0.040 A 
ATOM     20  H   LIG d   1       6.254  -3.061  -5.865  0.00  0.00     0.062 H 
ATOM     21  H   LIG d   1       5.705  -1.366  -7.563  0.00  0.00     0.064 H 
BRANCH  13  22
ATOM     22  C   LIG d   1       2.531   0.647  -4.823  0.00  0.00    -0.037 C 
ATOM     23  H   LIG d   1       2.567   1.423  -5.587  0.00  0.00     0.028 H 
ATOM     24  H   LIG d   1       1.544   0.182  -4.824  0.00  0.00     0.028 H 
ATOM     25  H   LIG d   1       2.723   1.090  -3.846  0.00  0.00     0.028 H 
ENDBRANCH  13  22
ENDBRANCH  10  12
ENDBRANCH   1  10
BRANCH   2  26
ATOM     26  C   LIG d   1       5.025   1.546  -9.737  0.00  0.00     0.343 C 
ATOM     27  O   LIG d   1       4.921   2.689  -9.339  0.00  0.00    -0.245 OA
BRANCH  26  28
ATOM     28  O   LIG d   1       6.208   1.096 -10.196  0.00  0.00    -0.458 OA
BRANCH  28  29
ATOM     29  C   LIG d   1       6.915   0.169  -9.369  0.00  0.00     0.121 C 
ATOM     30  H   LIG d   1       6.202  -0.426  -8.798  0.00  0.00     0.072 H 
ATOM     31  H   LIG d   1       7.517  -0.490  -9.995  0.00  0.00     0.072 H 
BRANCH  29  32
ATOM     32  C   LIG d   1       7.827   0.933  -8.408  0.00  0.00     0.112 C 
ATOM     33  H   LIG d   1       8.516   0.236  -7.930  0.00  0.00     0.065 H 
BRANCH  32  34
ATOM     34  C   LIG d   1       8.622   1.983  -9.185  0.00  0.00     0.073 C 
ATOM     35  H   LIG d   1       9.588   2.137  -8.705  0.00  0.00     0.058 H 
ATOM     36  H   LIG d   1       8.774   1.640 -10.208  0.00  0.00     0.058 H 
BRANCH  34  37
ATOM     37  O   LIG d   1       7.896   3.215  -9.199  0.00  0.00    -0.392 OA
ATOM     38  H   LIG d   1       6.939   3.109  -9.115  0.00  0.00     0.209 HD
ENDBRANCH  34  37
ENDBRANCH  32  34
BRANCH  32  39
ATOM     39  O   LIG d   1       7.033   1.578  -7.409  0.00  0.00    -0.386 OA
ATOM     40  H   LIG d   1       6.946   2.533  -7.534  0.00  0.00     0.210 HD
ENDBRANCH  32  39
ENDBRANCH  29  32
ENDBRANCH  28  29
ENDBRANCH  26  28
ENDBRANCH   2  26
TORSDOF 10
ENDMDL
MODEL 9
REMARK VINA RESULT:      -5.2     10.230     12.909
REMARK  10 active torsions:
REMARK  status: ('A' for Active; 'I' for Inactive)
REMARK    1  A    between atoms: C_1  and  C_2 
REMARK    2  A    between atoms: C_3  and  N_9 
REMARK    3  A    between atoms: N_9  and  C_10 
REMARK    4  A    between atoms: C_11  and  C_16 
REMARK    5  A    between atoms: C_16  and  O_18 
REMARK    6  A    between atoms: O_18  and  C_19 
REMARK    7  A    between atoms: C_19  and  C_20 
REMARK    8  A    between atoms: C_20  and  C_22 
REMARK    9  A    between atoms: C_20  and  O_24 
REMARK   10  A    between atoms: C_22  and  O_23 
ROOT
ATOM      1  C   LIG d   1      10.126   7.020  -0.914  0.00  0.00     0.137 A 
ATOM      2  C   LIG d   1      10.590   8.348  -0.885  0.00  0.00     0.099 A 
ATOM      3  C   LIG d   1      11.306   8.786   0.236  0.00  0.00    -0.043 A 
ATOM      4  C   LIG d   1      11.526   7.891   1.267  0.00  0.00    -0.043 A 
ATOM      5  C   LIG d   1      11.038   6.600   1.165  0.00  0.00     0.030 A 
ATOM      6  N   LIG d   1      10.362   6.207   0.104  0.00  0.00    -0.239 NA
ATOM      7  H   LIG d   1      11.678   9.798   0.293  0.00  0.00     0.063 H 
ATOM      8  H   LIG d   1      12.076   8.197   2.145  0.00  0.00     0.063 H 
ATOM      9  H   LIG d   1      11.212   5.902   1.971  0.00  0.00     0.083 H 
ENDROOT
BRANCH   1  10
ATOM     10  N   LIG d   1       9.416   6.565  -2.010  0.00  0.00    -0.298 N 
ATOM     11  H   LIG d   1       8.562   6.966  -2.236  0.00  0.00     0.154 HD
BRANCH  10  12
ATOM     12  C   LIG d   1       9.929   5.525  -2.791  0.00  0.00     0.037 A 
ATOM     13  C   LIG d   1       9.809   5.571  -4.175  0.00  0.00    -0.011 A 
ATOM     14  C   LIG d   1      10.313   4.540  -4.944  0.00  0.00     0.046 A 
ATOM     15  C   LIG d   1      10.945   3.467  -4.338  0.00  0.00    -0.043 A 
ATOM     16 CL   LIG d   1      10.159   4.591  -6.673  0.00  0.00    -0.083 Cl
ATOM     17  C   LIG d   1      11.065   3.420  -2.962  0.00  0.00    -0.059 A 
ATOM     18  H   LIG d   1      11.341   2.664  -4.942  0.00  0.00     0.063 H 
ATOM     19  C   LIG d   1      10.559   4.445  -2.187  0.00  0.00    -0.040 A 
ATOM     20  H   LIG d   1      11.555   2.580  -2.492  0.00  0.00     0.062 H 
ATOM     21  H   LIG d   1      10.653   4.407  -1.112  0.00  0.00     0.064 H 
BRANCH  13  22
ATOM     22  C   LIG d   1       9.126   6.741  -4.835  0.00  0.00    -0.037 C 
ATOM     23  H   LIG d   1       8.641   6.407  -5.752  0.00  0.00     0.028 H 
ATOM     24  H   LIG d   1       8.379   7.155  -4.158  0.00  0.00     0.028 H 
ATOM     25  H   LIG d   1       9.866   7.506  -5.073  0.00  0.00     0.028 H 
ENDBRANCH  13  22
ENDBRANCH  10  12
ENDBRANCH   1  10
BRANCH   2  26
ATOM     26  C   LIG d   1      10.327   9.260  -2.011  0.00  0.00     0.343 C 
ATOM     27  O   LIG d   1      10.966   9.153  -3.039  0.00  0.00    -0.245 OA
BRANCH  26  28
ATOM     28  O   LIG d   1       9.380  10.211  -1.902  0.00  0.00    -0.458 OA
BRANCH  28  29
ATOM     29  C   LIG d   1       9.757  11.545  -2.249  0.00  0.00     0.121 C 
ATOM     30  H   LIG d   1       9.745  12.170  -1.356  0.00  0.00     0.072 H 
ATOM     31  H   LIG d   1      10.760  11.540  -2.675  0.00  0.00     0.072 H 
BRANCH  29  32
ATOM     32  C   LIG d   1       8.769  12.104  -3.275  0.00  0.00     0.112 C 
ATOM     33  H   LIG d   1       8.740  13.191  -3.196  0.00  0.00     0.065 H 
BRANCH  32  34
ATOM     34  C   LIG d   1       9.218  11.707  -4.683  0.00  0.00     0.073 C 
ATOM     35  H   LIG d   1       8.662  12.288  -5.419  0.00  0.00     0.058 H 
ATOM     36  H   LIG d   1      10.284  11.903  -4.794  0.00  0.00     0.058 H 
BRANCH  34  37
ATOM     37  O   LIG d   1       8.966  10.315  -4.888  0.00  0.00    -0.392 OA
ATOM     38  H   LIG d   1       9.615   9.877  -5.456  0.00  0.00     0.209 HD
ENDBRANCH  34  37
ENDBRANCH  32  34
BRANCH  32  39
ATOM     39  O   LIG d   1       7.467  11.572  -3.022  0.00  0.00    -0.386 OA
ATOM     40  H   LIG d   1       7.237  11.527  -2.084  0.00  0.00     0.210 HD
ENDBRANCH  32  39
ENDBRANCH  29  32
ENDBRANCH  28  29
ENDBRANCH  26  28
ENDBRANCH   2  26
TORSDOF 10
ENDMDL
MODEL 10
REMARK VINA RESULT:      -5.2      3.516      6.280
REMARK  10 active torsions:
REMARK  status: ('A' for Active; 'I' for Inactive)
REMARK    1  A    between atoms: C_1  and  C_2 
REMARK    2  A    between atoms: C_3  and  N_9 
REMARK    3  A    between atoms: N_9  and  C_10 
REMARK    4  A    between atoms: C_11  and  C_16 
REMARK    5  A    between atoms: C_16  and  O_18 
REMARK    6  A    between atoms: O_18  and  C_19 
REMARK    7  A    between atoms: C_19  and  C_20 
REMARK    8  A    between atoms: C_20  and  C_22 
REMARK    9  A    between atoms: C_20  and  O_24 
REMARK   10  A    between atoms: C_22  and  O_23 
ROOT
ATOM      1  C   LIG d   1       4.407  -0.507  -4.753  0.00  0.00     0.137 A 
ATOM      2  C   LIG d   1       5.519  -0.837  -3.956  0.00  0.00     0.099 A 
ATOM      3  C   LIG d   1       5.304  -1.215  -2.625  0.00  0.00    -0.043 A 
ATOM      4  C   LIG d   1       4.005  -1.247  -2.152  0.00  0.00    -0.043 A 
ATOM      5  C   LIG d   1       2.963  -0.909  -2.997  0.00  0.00     0.030 A 
ATOM      6  N   LIG d   1       3.185  -0.550  -4.246  0.00  0.00    -0.239 NA
ATOM      7  H   LIG d   1       6.133  -1.476  -1.984  0.00  0.00     0.063 H 
ATOM      8  H   LIG d   1       3.805  -1.536  -1.130  0.00  0.00     0.063 H 
ATOM      9  H   LIG d   1       1.949  -0.935  -2.625  0.00  0.00     0.083 H 
ENDROOT
BRANCH   1  10
ATOM     10  N   LIG d   1       4.594  -0.129  -6.070  0.00  0.00    -0.298 N 
ATOM     11  H   LIG d   1       5.086   0.680  -6.278  0.00  0.00     0.154 HD
BRANCH  10  12
ATOM     12  C   LIG d   1       4.073  -0.915  -7.102  0.00  0.00     0.037 A 
ATOM     13  C   LIG d   1       3.191  -0.361  -8.022  0.00  0.00    -0.011 A 
ATOM     14  C   LIG d   1       2.674  -1.142  -9.038  0.00  0.00     0.046 A 
ATOM     15  C   LIG d   1       3.044  -2.472  -9.146  0.00  0.00    -0.043 A 
ATOM     16 CL   LIG d   1       1.567  -0.453 -10.183  0.00  0.00    -0.083 Cl
ATOM     17  C   LIG d   1       3.921  -3.025  -8.232  0.00  0.00    -0.059 A 
ATOM     18  H   LIG d   1       2.641  -3.079  -9.943  0.00  0.00     0.063 H 
ATOM     19  C   LIG d   1       4.436  -2.251  -7.211  0.00  0.00    -0.040 A 
ATOM     20  H   LIG d   1       4.203  -4.064  -8.318  0.00  0.00     0.062 H 
ATOM     21  H   LIG d   1       5.122  -2.684  -6.498  0.00  0.00     0.064 H 
BRANCH  13  22
ATOM     22  C   LIG d   1       2.794   1.088  -7.907  0.00  0.00    -0.037 C 
ATOM     23  H   LIG d   1       3.563   1.712  -8.363  0.00  0.00     0.028 H 
ATOM     24  H   LIG d   1       1.845   1.248  -8.419  0.00  0.00     0.028 H 
ATOM     25  H   LIG d   1       2.688   1.353  -6.855  0.00  0.00     0.028 H 
ENDBRANCH  13  22
ENDBRANCH  10  12
ENDBRANCH   1  10
BRANCH   2  26
ATOM     26  C   LIG d   1       6.882  -0.786  -4.511  0.00  0.00     0.343 C 
ATOM     27  O   LIG d   1       7.564  -1.791  -4.538  0.00  0.00    -0.245 OA
BRANCH  26  28
ATOM     28  O   LIG d   1       7.372   0.374  -4.989  0.00  0.00    -0.458 OA
BRANCH  28  29
ATOM     29  C   LIG d   1       8.150   1.168  -4.091  0.00  0.00     0.121 C 
ATOM     30  H   LIG d   1       7.517   1.930  -3.636  0.00  0.00     0.072 H 
ATOM     31  H   LIG d   1       8.569   0.531  -3.311  0.00  0.00     0.072 H 
BRANCH  29  32
ATOM     32  C   LIG d   1       9.287   1.844  -4.860  0.00  0.00     0.112 C 
ATOM     33  H   LIG d   1       9.859   2.477  -4.182  0.00  0.00     0.065 H 
BRANCH  32  34
ATOM     34  C   LIG d   1      10.205   0.776  -5.457  0.00  0.00     0.073 C 
ATOM     35  H   LIG d   1       9.822   0.470  -6.430  0.00  0.00     0.058 H 
ATOM     36  H   LIG d   1      11.209   1.183  -5.573  0.00  0.00     0.058 H 
BRANCH  34  37
ATOM     37  O   LIG d   1      10.247  -0.356  -4.586  0.00  0.00    -0.392 OA
ATOM     38  H   LIG d   1       9.983  -1.186  -5.005  0.00  0.00     0.209 HD
ENDBRANCH  34  37
ENDBRANCH  32  34
BRANCH  32  39
ATOM     39  O   LIG d   1       8.741   2.645  -5.911  0.00  0.00    -0.386 OA
ATOM     40  H   LIG d   1       7.785   2.550  -6.020  0.00  0.00     0.210 HD
ENDBRANCH  32  39
ENDBRANCH  29  32
ENDBRANCH  28  29
ENDBRANCH  26  28
ENDBRANCH   2  26
TORSDOF 10
ENDMDL
