MODEL 1
REMARK VINA RESULT:      -6.9      0.000      0.000
REMARK  6 active torsions:
REMARK  status: ('A' for Active; 'I' for Inactive)
REMARK    1  A    between atoms: C_1  and  C_2 
REMARK    2  A    between atoms: C_2  and  C_3 
REMARK    3  A    between atoms: C_3  and  C_4 
REMARK    4  A    between atoms: C_4  and  C_5 
REMARK    5  A    between atoms: C_5  and  C_6 
REMARK    6  A    between atoms: C_12  and  C_22 
ROOT
ATOM      1  C   LIG d   1       3.705   0.915  -8.136  0.00  0.00     0.120 A 
ATOM      2  H   LIG d   1       4.203   1.876  -8.265  0.00  0.00     0.050 H 
ATOM      3  C   LIG d   1       4.669  -0.222  -8.382  0.00  0.00     0.259 A 
ATOM      4  O   LIG d   1       5.260  -0.460  -9.415  0.00  0.00    -0.270 OA
ATOM      5  N   LIG d   1       4.747  -0.924  -7.225  0.00  0.00    -0.220 N 
ATOM      6  C   LIG d   1       5.508  -2.057  -6.965  0.00  0.00     0.040 A 
ATOM      7  C   LIG d   1       5.487  -2.655  -5.758  0.00  0.00     0.009 A 
ATOM      8  C   LIG d   1       4.634  -2.090  -4.689  0.00  0.00     0.010 A 
ATOM      9  C   LIG d   1       4.580  -2.675  -3.428  0.00  0.00    -0.052 A 
ATOM     10  C   LIG d   1       3.772  -2.122  -2.454  0.00  0.00    -0.061 A 
ATOM     11  C   LIG d   1       3.020  -0.994  -2.728  0.00  0.00    -0.060 A 
ATOM     12  C   LIG d   1       3.066  -0.405  -3.978  0.00  0.00    -0.036 A 
ATOM     13  C   LIG d   1       3.872  -0.949  -4.964  0.00  0.00     0.075 A 
ATOM     14  N   LIG d   1       3.932  -0.366  -6.240  0.00  0.00    -0.213 N 
ATOM     15  C   LIG d   1       3.280   0.727  -6.698  0.00  0.00     0.259 A 
ATOM     16  O   LIG d   1       2.507   1.425  -6.073  0.00  0.00    -0.270 OA
ATOM     17  H   LIG d   1       6.130  -2.466  -7.747  0.00  0.00     0.084 H 
ATOM     18  H   LIG d   1       5.167  -3.556  -3.212  0.00  0.00     0.062 H 
ATOM     19  H   LIG d   1       3.727  -2.573  -1.473  0.00  0.00     0.062 H 
ATOM     20  H   LIG d   1       2.391  -0.570  -1.959  0.00  0.00     0.062 H 
ATOM     21  H   LIG d   1       2.476   0.476  -4.186  0.00  0.00     0.064 H 
ENDROOT
BRANCH   1  22
ATOM     22  C   LIG d   1       2.499   0.808  -9.071  0.00  0.00    -0.033 C 
ATOM     23  H   LIG d   1       1.715   1.487  -8.733  0.00  0.00     0.028 H 
ATOM     24  H   LIG d   1       2.800   1.076 -10.084  0.00  0.00     0.028 H 
BRANCH  22  25
ATOM     25  C   LIG d   1       1.970  -0.627  -9.060  0.00  0.00    -0.052 C 
ATOM     26  H   LIG d   1       2.787  -1.314  -8.837  0.00  0.00     0.027 H 
ATOM     27  H   LIG d   1       1.197  -0.723  -8.296  0.00  0.00     0.027 H 
BRANCH  25  28
ATOM     28  C   LIG d   1       1.379  -0.964 -10.430  0.00  0.00    -0.053 C 
ATOM     29  H   LIG d   1       0.987  -1.980 -10.416  0.00  0.00     0.026 H 
ATOM     30  H   LIG d   1       0.574  -0.266 -10.659  0.00  0.00     0.026 H 
BRANCH  28  31
ATOM     31  C   LIG d   1       2.470  -0.852 -11.497  0.00  0.00    -0.056 C 
ATOM     32  H   LIG d   1       2.562   0.187 -11.815  0.00  0.00     0.026 H 
ATOM     33  H   LIG d   1       3.419  -1.190 -11.082  0.00  0.00     0.026 H 
BRANCH  31  34
ATOM     34  C   LIG d   1       2.099  -1.722 -12.699  0.00  0.00    -0.065 C 
ATOM     35  H   LIG d   1       1.889  -2.738 -12.362  0.00  0.00     0.023 H 
ATOM     36  H   LIG d   1       1.214  -1.311 -13.186  0.00  0.00     0.023 H 
ATOM     37  H   LIG d   1       2.927  -1.739 -13.407  0.00  0.00     0.023 H 
ENDBRANCH  31  34
ENDBRANCH  28  31
ENDBRANCH  25  28
ENDBRANCH  22  25
ENDBRANCH   1  22
BRANCH   7  38
ATOM     38  C   LIG d   1       6.307  -3.863  -5.506  0.00  0.00    -0.016 A 
ATOM     39  C   LIG d   1       5.839  -5.119  -5.891  0.00  0.00    -0.054 A 
ATOM     40  C   LIG d   1       6.607  -6.241  -5.654  0.00  0.00    -0.061 A 
ATOM     41  H   LIG d   1       4.877  -5.214  -6.374  0.00  0.00     0.062 H 
ATOM     42  C   LIG d   1       7.839  -6.120  -5.036  0.00  0.00    -0.062 A 
ATOM     43  H   LIG d   1       6.246  -7.214  -5.952  0.00  0.00     0.062 H 
ATOM     44  C   LIG d   1       8.308  -4.877  -4.652  0.00  0.00    -0.061 A 
ATOM     45  H   LIG d   1       8.436  -7.001  -4.853  0.00  0.00     0.062 H 
ATOM     46  C   LIG d   1       7.552  -3.748  -4.888  0.00  0.00    -0.054 A 
ATOM     47  H   LIG d   1       9.271  -4.791  -4.170  0.00  0.00     0.062 H 
ATOM     48  H   LIG d   1       7.922  -2.778  -4.592  0.00  0.00     0.062 H 
ENDBRANCH   7  38
TORSDOF 6
ENDMDL
MODEL 2
REMARK VINA RESULT:      -6.8      2.068      4.953
REMARK  6 active torsions:
REMARK  status: ('A' for Active; 'I' for Inactive)
REMARK    1  A    between atoms: C_1  and  C_2 
REMARK    2  A    between atoms: C_2  and  C_3 
REMARK    3  A    between atoms: C_3  and  C_4 
REMARK    4  A    between atoms: C_4  and  C_5 
REMARK    5  A    between atoms: C_5  and  C_6 
REMARK    6  A    between atoms: C_12  and  C_22 
ROOT
ATOM      1  C   LIG d   1       2.939  -0.030  -3.186  0.00  0.00     0.120 A 
ATOM      2  H   LIG d   1       1.876  -0.057  -2.951  0.00  0.00     0.050 H 
ATOM      3  C   LIG d   1       3.597  -1.343  -2.826  0.00  0.00     0.259 A 
ATOM      4  O   LIG d   1       3.666  -1.840  -1.721  0.00  0.00    -0.270 OA
ATOM      5  N   LIG d   1       4.094  -1.858  -3.977  0.00  0.00    -0.220 N 
ATOM      6  C   LIG d   1       4.784  -3.050  -4.149  0.00  0.00     0.040 A 
ATOM      7  C   LIG d   1       5.222  -3.440  -5.362  0.00  0.00     0.009 A 
ATOM      8  C   LIG d   1       4.962  -2.574  -6.534  0.00  0.00     0.010 A 
ATOM      9  C   LIG d   1       5.397  -2.935  -7.805  0.00  0.00    -0.052 A 
ATOM     10  C   LIG d   1       5.137  -2.103  -8.876  0.00  0.00    -0.061 A 
ATOM     11  C   LIG d   1       4.449  -0.917  -8.690  0.00  0.00    -0.060 A 
ATOM     12  C   LIG d   1       4.013  -0.549  -7.430  0.00  0.00    -0.036 A 
ATOM     13  C   LIG d   1       4.266  -1.374  -6.347  0.00  0.00     0.075 A 
ATOM     14  N   LIG d   1       3.831  -1.018  -5.061  0.00  0.00    -0.213 N 
ATOM     15  C   LIG d   1       3.151   0.086  -4.677  0.00  0.00     0.259 A 
ATOM     16  O   LIG d   1       2.778   0.993  -5.393  0.00  0.00    -0.270 OA
ATOM     17  H   LIG d   1       4.972  -3.681  -3.293  0.00  0.00     0.084 H 
ATOM     18  H   LIG d   1       5.934  -3.861  -7.953  0.00  0.00     0.062 H 
ATOM     19  H   LIG d   1       5.473  -2.379  -9.865  0.00  0.00     0.062 H 
ATOM     20  H   LIG d   1       4.251  -0.274  -9.534  0.00  0.00     0.062 H 
ATOM     21  H   LIG d   1       3.475   0.377  -7.291  0.00  0.00     0.064 H 
ENDROOT
BRANCH   1  22
ATOM     22  C   LIG d   1       3.620   1.128  -2.454  0.00  0.00    -0.033 C 
ATOM     23  H   LIG d   1       3.661   1.998  -3.110  0.00  0.00     0.028 H 
ATOM     24  H   LIG d   1       3.050   1.377  -1.558  0.00  0.00     0.028 H 
BRANCH  22  25
ATOM     25  C   LIG d   1       5.040   0.720  -2.059  0.00  0.00    -0.052 C 
ATOM     26  H   LIG d   1       5.262   1.101  -1.062  0.00  0.00     0.027 H 
ATOM     27  H   LIG d   1       5.117  -0.367  -2.057  0.00  0.00     0.027 H 
BRANCH  25  28
ATOM     28  C   LIG d   1       6.036   1.301  -3.063  0.00  0.00    -0.053 C 
ATOM     29  H   LIG d   1       5.494   1.739  -3.901  0.00  0.00     0.026 H 
ATOM     30  H   LIG d   1       6.636   2.070  -2.576  0.00  0.00     0.026 H 
BRANCH  28  31
ATOM     31  C   LIG d   1       6.953   0.188  -3.574  0.00  0.00    -0.056 C 
ATOM     32  H   LIG d   1       7.923   0.260  -3.081  0.00  0.00     0.026 H 
ATOM     33  H   LIG d   1       6.505  -0.781  -3.354  0.00  0.00     0.026 H 
BRANCH  31  34
ATOM     34  C   LIG d   1       7.137   0.333  -5.086  0.00  0.00    -0.065 C 
ATOM     35  H   LIG d   1       7.203   1.390  -5.344  0.00  0.00     0.023 H 
ATOM     36  H   LIG d   1       8.054  -0.173  -5.391  0.00  0.00     0.023 H 
ATOM     37  H   LIG d   1       6.287  -0.115  -5.601  0.00  0.00     0.023 H 
ENDBRANCH  31  34
ENDBRANCH  28  31
ENDBRANCH  25  28
ENDBRANCH  22  25
ENDBRANCH   1  22
BRANCH   7  38
ATOM     38  C   LIG d   1       5.957  -4.716  -5.520  0.00  0.00    -0.016 A 
ATOM     39  C   LIG d   1       5.258  -5.904  -5.740  0.00  0.00    -0.054 A 
ATOM     40  C   LIG d   1       5.948  -7.090  -5.887  0.00  0.00    -0.061 A 
ATOM     41  H   LIG d   1       4.179  -5.894  -5.794  0.00  0.00     0.062 H 
ATOM     42  C   LIG d   1       7.329  -7.102  -5.816  0.00  0.00    -0.062 A 
ATOM     43  H   LIG d   1       5.408  -8.009  -6.057  0.00  0.00     0.062 H 
ATOM     44  C   LIG d   1       8.028  -5.928  -5.599  0.00  0.00    -0.061 A 
ATOM     45  H   LIG d   1       7.864  -8.033  -5.932  0.00  0.00     0.062 H 
ATOM     46  C   LIG d   1       7.350  -4.736  -5.456  0.00  0.00    -0.054 A 
ATOM     47  H   LIG d   1       9.107  -5.946  -5.545  0.00  0.00     0.062 H 
ATOM     48  H   LIG d   1       7.897  -3.819  -5.291  0.00  0.00     0.062 H 
ENDBRANCH   7  38
TORSDOF 6
ENDMDL
MODEL 3
REMARK VINA RESULT:      -6.6      4.208      6.396
REMARK  6 active torsions:
REMARK  status: ('A' for Active; 'I' for Inactive)
REMARK    1  A    between atoms: C_1  and  C_2 
REMARK    2  A    between atoms: C_2  and  C_3 
REMARK    3  A    between atoms: C_3  and  C_4 
REMARK    4  A    between atoms: C_4  and  C_5 
REMARK    5  A    between atoms: C_5  and  C_6 
REMARK    6  A    between atoms: C_12  and  C_22 
ROOT
ATOM      1  C   LIG d   1       4.194  -0.976  -2.148  0.00  0.00     0.120 A 
ATOM      2  H   LIG d   1       4.201  -1.437  -1.161  0.00  0.00     0.050 H 
ATOM      3  C   LIG d   1       4.913   0.353  -2.120  0.00  0.00     0.259 A 
ATOM      4  O   LIG d   1       4.611   1.327  -1.462  0.00  0.00    -0.270 OA
ATOM      5  N   LIG d   1       5.962   0.247  -2.972  0.00  0.00    -0.220 N 
ATOM      6  C   LIG d   1       6.911   1.212  -3.280  0.00  0.00     0.040 A 
ATOM      7  C   LIG d   1       7.907   0.965  -4.153  0.00  0.00     0.009 A 
ATOM      8  C   LIG d   1       7.987  -0.365  -4.796  0.00  0.00     0.010 A 
ATOM      9  C   LIG d   1       8.997  -0.665  -5.705  0.00  0.00    -0.052 A 
ATOM     10  C   LIG d   1       9.041  -1.917  -6.287  0.00  0.00    -0.061 A 
ATOM     11  C   LIG d   1       8.088  -2.869  -5.970  0.00  0.00    -0.060 A 
ATOM     12  C   LIG d   1       7.080  -2.580  -5.069  0.00  0.00    -0.036 A 
ATOM     13  C   LIG d   1       7.024  -1.329  -4.478  0.00  0.00     0.075 A 
ATOM     14  N   LIG d   1       6.008  -1.018  -3.560  0.00  0.00    -0.213 N 
ATOM     15  C   LIG d   1       4.996  -1.803  -3.126  0.00  0.00     0.259 A 
ATOM     16  O   LIG d   1       4.777  -2.951  -3.453  0.00  0.00    -0.270 OA
ATOM     17  H   LIG d   1       6.851   2.182  -2.809  0.00  0.00     0.084 H 
ATOM     18  H   LIG d   1       9.743   0.076  -5.953  0.00  0.00     0.062 H 
ATOM     19  H   LIG d   1       9.824  -2.154  -6.992  0.00  0.00     0.062 H 
ATOM     20  H   LIG d   1       8.132  -3.845  -6.431  0.00  0.00     0.062 H 
ATOM     21  H   LIG d   1       6.339  -3.328  -4.826  0.00  0.00     0.064 H 
ENDROOT
BRANCH   1  22
ATOM     22  C   LIG d   1       2.758  -0.798  -2.645  0.00  0.00    -0.033 C 
ATOM     23  H   LIG d   1       2.126  -1.576  -2.216  0.00  0.00     0.028 H 
ATOM     24  H   LIG d   1       2.386   0.181  -2.340  0.00  0.00     0.028 H 
BRANCH  22  25
ATOM     25  C   LIG d   1       2.729  -0.902  -4.171  0.00  0.00    -0.052 C 
ATOM     26  H   LIG d   1       3.696  -1.257  -4.529  0.00  0.00     0.027 H 
ATOM     27  H   LIG d   1       1.951  -1.602  -4.473  0.00  0.00     0.027 H 
BRANCH  25  28
ATOM     28  C   LIG d   1       2.437   0.475  -4.771  0.00  0.00    -0.053 C 
ATOM     29  H   LIG d   1       1.380   0.708  -4.648  0.00  0.00     0.026 H 
ATOM     30  H   LIG d   1       3.038   1.228  -4.261  0.00  0.00     0.026 H 
BRANCH  28  31
ATOM     31  C   LIG d   1       2.789   0.467  -6.261  0.00  0.00    -0.056 C 
ATOM     32  H   LIG d   1       1.932   0.112  -6.834  0.00  0.00     0.026 H 
ATOM     33  H   LIG d   1       3.045   1.478  -6.578  0.00  0.00     0.026 H 
BRANCH  31  34
ATOM     34  C   LIG d   1       3.981  -0.461  -6.498  0.00  0.00    -0.065 C 
ATOM     35  H   LIG d   1       4.626  -0.456  -5.619  0.00  0.00     0.023 H 
ATOM     36  H   LIG d   1       3.623  -1.474  -6.680  0.00  0.00     0.023 H 
ATOM     37  H   LIG d   1       4.545  -0.114  -7.364  0.00  0.00     0.023 H 
ENDBRANCH  31  34
ENDBRANCH  28  31
ENDBRANCH  25  28
ENDBRANCH  22  25
ENDBRANCH   1  22
BRANCH   7  38
ATOM     38  C   LIG d   1       8.907   2.012  -4.466  0.00  0.00    -0.016 A 
ATOM     39  C   LIG d   1       8.770   2.790  -5.616  0.00  0.00    -0.054 A 
ATOM     40  C   LIG d   1       9.705   3.764  -5.902  0.00  0.00    -0.061 A 
ATOM     41  H   LIG d   1       7.935   2.629  -6.282  0.00  0.00     0.062 H 
ATOM     42  C   LIG d   1      10.775   3.970  -5.050  0.00  0.00    -0.062 A 
ATOM     43  H   LIG d   1       9.600   4.366  -6.792  0.00  0.00     0.062 H 
ATOM     44  C   LIG d   1      10.916   3.202  -3.908  0.00  0.00    -0.061 A 
ATOM     45  H   LIG d   1      11.504   4.734  -5.279  0.00  0.00     0.062 H 
ATOM     46  C   LIG d   1       9.986   2.228  -3.609  0.00  0.00    -0.054 A 
ATOM     47  H   LIG d   1      11.755   3.368  -3.247  0.00  0.00     0.062 H 
ATOM     48  H   LIG d   1      10.094   1.634  -2.715  0.00  0.00     0.062 H 
ENDBRANCH   7  38
TORSDOF 6
ENDMDL
MODEL 4
REMARK VINA RESULT:      -6.6      4.099      5.683
REMARK  6 active torsions:
REMARK  status: ('A' for Active; 'I' for Inactive)
REMARK    1  A    between atoms: C_1  and  C_2 
REMARK    2  A    between atoms: C_2  and  C_3 
REMARK    3  A    between atoms: C_3  and  C_4 
REMARK    4  A    between atoms: C_4  and  C_5 
REMARK    5  A    between atoms: C_5  and  C_6 
REMARK    6  A    between atoms: C_12  and  C_22 
ROOT
ATOM      1  C   LIG d   1       8.807   1.096  -5.124  0.00  0.00     0.120 A 
ATOM      2  H   LIG d   1       9.773   1.158  -4.625  0.00  0.00     0.050 H 
ATOM      3  C   LIG d   1       8.693  -0.191  -5.908  0.00  0.00     0.259 A 
ATOM      4  O   LIG d   1       9.398  -0.541  -6.831  0.00  0.00    -0.270 OA
ATOM      5  N   LIG d   1       7.651  -0.878  -5.380  0.00  0.00    -0.220 N 
ATOM      6  C   LIG d   1       7.163  -2.118  -5.769  0.00  0.00     0.040 A 
ATOM      7  C   LIG d   1       6.111  -2.686  -5.148  0.00  0.00     0.009 A 
ATOM      8  C   LIG d   1       5.465  -1.969  -4.026  0.00  0.00     0.010 A 
ATOM      9  C   LIG d   1       4.375  -2.516  -3.356  0.00  0.00    -0.052 A 
ATOM     10  C   LIG d   1       3.796  -1.819  -2.314  0.00  0.00    -0.061 A 
ATOM     11  C   LIG d   1       4.293  -0.584  -1.937  0.00  0.00    -0.060 A 
ATOM     12  C   LIG d   1       5.375  -0.032  -2.598  0.00  0.00    -0.036 A 
ATOM     13  C   LIG d   1       5.966  -0.720  -3.644  0.00  0.00     0.075 A 
ATOM     14  N   LIG d   1       7.065  -0.175  -4.326  0.00  0.00    -0.213 N 
ATOM     15  C   LIG d   1       7.690   1.005  -4.110  0.00  0.00     0.259 A 
ATOM     16  O   LIG d   1       7.412   1.828  -3.263  0.00  0.00    -0.270 OA
ATOM     17  H   LIG d   1       7.637  -2.640  -6.587  0.00  0.00     0.084 H 
ATOM     18  H   LIG d   1       3.986  -3.481  -3.648  0.00  0.00     0.062 H 
ATOM     19  H   LIG d   1       2.950  -2.240  -1.790  0.00  0.00     0.062 H 
ATOM     20  H   LIG d   1       3.832  -0.048  -1.121  0.00  0.00     0.062 H 
ATOM     21  H   LIG d   1       5.759   0.933  -2.298  0.00  0.00     0.064 H 
ENDROOT
BRANCH   1  22
ATOM     22  C   LIG d   1       8.602   2.303  -6.042  0.00  0.00    -0.033 C 
ATOM     23  H   LIG d   1       8.641   1.979  -7.083  0.00  0.00     0.028 H 
ATOM     24  H   LIG d   1       7.629   2.753  -5.839  0.00  0.00     0.028 H 
BRANCH  22  25
ATOM     25  C   LIG d   1       9.703   3.333  -5.787  0.00  0.00    -0.052 C 
ATOM     26  H   LIG d   1      10.552   2.844  -5.307  0.00  0.00     0.027 H 
ATOM     27  H   LIG d   1      10.022   3.766  -6.735  0.00  0.00     0.027 H 
BRANCH  25  28
ATOM     28  C   LIG d   1       9.168   4.437  -4.874  0.00  0.00    -0.053 C 
ATOM     29  H   LIG d   1       8.900   5.306  -5.474  0.00  0.00     0.026 H 
ATOM     30  H   LIG d   1       8.287   4.075  -4.344  0.00  0.00     0.026 H 
BRANCH  28  31
ATOM     31  C   LIG d   1      10.247   4.830  -3.862  0.00  0.00    -0.056 C 
ATOM     32  H   LIG d   1      11.215   4.869  -4.360  0.00  0.00     0.026 H 
ATOM     33  H   LIG d   1      10.013   5.809  -3.444  0.00  0.00     0.026 H 
BRANCH  31  34
ATOM     34  C   LIG d   1      10.293   3.793  -2.738  0.00  0.00    -0.065 C 
ATOM     35  H   LIG d   1       9.433   3.128  -2.821  0.00  0.00     0.023 H 
ATOM     36  H   LIG d   1      11.211   3.211  -2.818  0.00  0.00     0.023 H 
ATOM     37  H   LIG d   1      10.268   4.300  -1.773  0.00  0.00     0.023 H 
ENDBRANCH  31  34
ENDBRANCH  28  31
ENDBRANCH  25  28
ENDBRANCH  22  25
ENDBRANCH   1  22
BRANCH   7  38
ATOM     38  C   LIG d   1       5.608  -4.010  -5.583  0.00  0.00    -0.016 A 
ATOM     39  C   LIG d   1       6.346  -5.163  -5.312  0.00  0.00    -0.054 A 
ATOM     40  C   LIG d   1       5.873  -6.393  -5.719  0.00  0.00    -0.061 A 
ATOM     41  H   LIG d   1       7.287  -5.092  -4.786  0.00  0.00     0.062 H 
ATOM     42  C   LIG d   1       4.668  -6.484  -6.394  0.00  0.00    -0.062 A 
ATOM     43  H   LIG d   1       6.443  -7.286  -5.510  0.00  0.00     0.062 H 
ATOM     44  C   LIG d   1       3.932  -5.345  -6.664  0.00  0.00    -0.061 A 
ATOM     45  H   LIG d   1       4.302  -7.450  -6.710  0.00  0.00     0.062 H 
ATOM     46  C   LIG d   1       4.392  -4.110  -6.258  0.00  0.00    -0.054 A 
ATOM     47  H   LIG d   1       2.992  -5.424  -7.191  0.00  0.00     0.062 H 
ATOM     48  H   LIG d   1       3.814  -3.222  -6.466  0.00  0.00     0.062 H 
ENDBRANCH   7  38
TORSDOF 6
ENDMDL
MODEL 5
REMARK VINA RESULT:      -6.2      2.634      7.029
REMARK  6 active torsions:
REMARK  status: ('A' for Active; 'I' for Inactive)
REMARK    1  A    between atoms: C_1  and  C_2 
REMARK    2  A    between atoms: C_2  and  C_3 
REMARK    3  A    between atoms: C_3  and  C_4 
REMARK    4  A    between atoms: C_4  and  C_5 
REMARK    5  A    between atoms: C_5  and  C_6 
REMARK    6  A    between atoms: C_12  and  C_22 
ROOT
ATOM      1  C   LIG d   1       5.214  -2.333  -4.936  0.00  0.00     0.120 A 
ATOM      2  H   LIG d   1       6.268  -2.141  -4.742  0.00  0.00     0.050 H 
ATOM      3  C   LIG d   1       4.696  -1.416  -6.020  0.00  0.00     0.259 A 
ATOM      4  O   LIG d   1       4.658  -0.204  -5.986  0.00  0.00    -0.270 OA
ATOM      5  N   LIG d   1       4.284  -2.211  -7.038  0.00  0.00    -0.220 N 
ATOM      6  C   LIG d   1       3.733  -1.823  -8.252  0.00  0.00     0.040 A 
ATOM      7  C   LIG d   1       3.366  -2.730  -9.179  0.00  0.00     0.009 A 
ATOM      8  C   LIG d   1       3.556  -4.169  -8.892  0.00  0.00     0.010 A 
ATOM      9  C   LIG d   1       3.191  -5.141  -9.818  0.00  0.00    -0.052 A 
ATOM     10  C   LIG d   1       3.381  -6.476  -9.517  0.00  0.00    -0.061 A 
ATOM     11  C   LIG d   1       3.932  -6.847  -8.303  0.00  0.00    -0.060 A 
ATOM     12  C   LIG d   1       4.297  -5.888  -7.375  0.00  0.00    -0.036 A 
ATOM     13  C   LIG d   1       4.111  -4.547  -7.664  0.00  0.00     0.075 A 
ATOM     14  N   LIG d   1       4.477  -3.559  -6.735  0.00  0.00    -0.213 N 
ATOM     15  C   LIG d   1       5.024  -3.718  -5.508  0.00  0.00     0.259 A 
ATOM     16  O   LIG d   1       5.310  -4.770  -4.973  0.00  0.00    -0.270 OA
ATOM     17  H   LIG d   1       3.596  -0.772  -8.459  0.00  0.00     0.084 H 
ATOM     18  H   LIG d   1       2.761  -4.854 -10.767  0.00  0.00     0.062 H 
ATOM     19  H   LIG d   1       3.100  -7.234 -10.233  0.00  0.00     0.062 H 
ATOM     20  H   LIG d   1       4.076  -7.893  -8.078  0.00  0.00     0.062 H 
ATOM     21  H   LIG d   1       4.726  -6.185  -6.429  0.00  0.00     0.064 H 
ENDROOT
BRANCH   1  22
ATOM     22  C   LIG d   1       4.395  -2.164  -3.654  0.00  0.00    -0.033 C 
ATOM     23  H   LIG d   1       3.466  -1.640  -3.883  0.00  0.00     0.028 H 
ATOM     24  H   LIG d   1       4.164  -3.145  -3.238  0.00  0.00     0.028 H 
BRANCH  22  25
ATOM     25  C   LIG d   1       5.200  -1.355  -2.636  0.00  0.00    -0.052 C 
ATOM     26  H   LIG d   1       5.795  -2.032  -2.023  0.00  0.00     0.027 H 
ATOM     27  H   LIG d   1       5.860  -0.665  -3.162  0.00  0.00     0.027 H 
BRANCH  25  28
ATOM     28  C   LIG d   1       4.243  -0.564  -1.742  0.00  0.00    -0.053 C 
ATOM     29  H   LIG d   1       3.218  -0.725  -2.075  0.00  0.00     0.026 H 
ATOM     30  H   LIG d   1       4.348  -0.901  -0.711  0.00  0.00     0.026 H 
BRANCH  28  31
ATOM     31  C   LIG d   1       4.580   0.927  -1.828  0.00  0.00    -0.056 C 
ATOM     32  H   LIG d   1       3.687   1.484  -2.113  0.00  0.00     0.026 H 
ATOM     33  H   LIG d   1       4.932   1.276  -0.857  0.00  0.00     0.026 H 
BRANCH  31  34
ATOM     34  C   LIG d   1       5.673   1.142  -2.875  0.00  0.00    -0.065 C 
ATOM     35  H   LIG d   1       5.215   1.339  -3.845  0.00  0.00     0.023 H 
ATOM     36  H   LIG d   1       6.291   1.993  -2.586  0.00  0.00     0.023 H 
ATOM     37  H   LIG d   1       6.295   0.249  -2.942  0.00  0.00     0.023 H 
ENDBRANCH  31  34
ENDBRANCH  28  31
ENDBRANCH  25  28
ENDBRANCH  22  25
ENDBRANCH   1  22
BRANCH   7  38
ATOM     38  C   LIG d   1       2.779  -2.292 -10.466  0.00  0.00    -0.016 A 
ATOM     39  C   LIG d   1       1.411  -2.034 -10.560  0.00  0.00    -0.054 A 
ATOM     40  C   LIG d   1       0.870  -1.625 -11.762  0.00  0.00    -0.061 A 
ATOM     41  H   LIG d   1       0.777  -2.155  -9.694  0.00  0.00     0.062 H 
ATOM     42  C   LIG d   1       1.682  -1.470 -12.871  0.00  0.00    -0.062 A 
ATOM     43  H   LIG d   1      -0.188  -1.426 -11.836  0.00  0.00     0.062 H 
ATOM     44  C   LIG d   1       3.039  -1.724 -12.784  0.00  0.00    -0.061 A 
ATOM     45  H   LIG d   1       1.254  -1.150 -13.809  0.00  0.00     0.062 H 
ATOM     46  C   LIG d   1       3.593  -2.128 -11.587  0.00  0.00    -0.054 A 
ATOM     47  H   LIG d   1       3.667  -1.601 -13.654  0.00  0.00     0.062 H 
ATOM     48  H   LIG d   1       4.653  -2.321 -11.519  0.00  0.00     0.062 H 
ENDBRANCH   7  38
TORSDOF 6
ENDMDL
MODEL 6
REMARK VINA RESULT:      -6.2      2.956      6.577
REMARK  6 active torsions:
REMARK  status: ('A' for Active; 'I' for Inactive)
REMARK    1  A    between atoms: C_1  and  C_2 
REMARK    2  A    between atoms: C_2  and  C_3 
REMARK    3  A    between atoms: C_3  and  C_4 
REMARK    4  A    between atoms: C_4  and  C_5 
REMARK    5  A    between atoms: C_5  and  C_6 
REMARK    6  A    between atoms: C_12  and  C_22 
ROOT
ATOM      1  C   LIG d   1       3.856  -5.875  -7.394  0.00  0.00     0.120 A 
ATOM      2  H   LIG d   1       2.917  -6.417  -7.286  0.00  0.00     0.050 H 
ATOM      3  C   LIG d   1       3.715  -4.763  -8.409  0.00  0.00     0.259 A 
ATOM      4  O   LIG d   1       3.439  -4.886  -9.584  0.00  0.00    -0.270 OA
ATOM      5  N   LIG d   1       3.957  -3.603  -7.751  0.00  0.00    -0.220 N 
ATOM      6  C   LIG d   1       3.943  -2.313  -8.266  0.00  0.00     0.040 A 
ATOM      7  C   LIG d   1       4.204  -1.244  -7.489  0.00  0.00     0.009 A 
ATOM      8  C   LIG d   1       4.512  -1.453  -6.057  0.00  0.00     0.010 A 
ATOM      9  C   LIG d   1       4.789  -0.379  -5.216  0.00  0.00    -0.052 A 
ATOM     10  C   LIG d   1       5.073  -0.610  -3.885  0.00  0.00    -0.061 A 
ATOM     11  C   LIG d   1       5.082  -1.901  -3.386  0.00  0.00    -0.060 A 
ATOM     12  C   LIG d   1       4.809  -2.975  -4.213  0.00  0.00    -0.036 A 
ATOM     13  C   LIG d   1       4.523  -2.757  -5.550  0.00  0.00     0.075 A 
ATOM     14  N   LIG d   1       4.243  -3.835  -6.405  0.00  0.00    -0.213 N 
ATOM     15  C   LIG d   1       4.204  -5.155  -6.111  0.00  0.00     0.259 A 
ATOM     16  O   LIG d   1       4.404  -5.663  -5.027  0.00  0.00    -0.270 OA
ATOM     17  H   LIG d   1       3.718  -2.163  -9.311  0.00  0.00     0.084 H 
ATOM     18  H   LIG d   1       4.781   0.630  -5.603  0.00  0.00     0.062 H 
ATOM     19  H   LIG d   1       5.288   0.221  -3.229  0.00  0.00     0.062 H 
ATOM     20  H   LIG d   1       5.306  -2.071  -2.343  0.00  0.00     0.062 H 
ATOM     21  H   LIG d   1       4.818  -3.980  -3.818  0.00  0.00     0.064 H 
ENDROOT
BRANCH   1  22
ATOM     22  C   LIG d   1       4.982  -6.829  -7.797  0.00  0.00    -0.033 C 
ATOM     23  H   LIG d   1       5.226  -6.680  -8.849  0.00  0.00     0.028 H 
ATOM     24  H   LIG d   1       5.864  -6.628  -7.188  0.00  0.00     0.028 H 
BRANCH  22  25
ATOM     25  C   LIG d   1       4.530  -8.274  -7.579  0.00  0.00    -0.052 C 
ATOM     26  H   LIG d   1       3.508  -8.280  -7.198  0.00  0.00     0.027 H 
ATOM     27  H   LIG d   1       4.568  -8.813  -8.525  0.00  0.00     0.027 H 
BRANCH  25  28
ATOM     28  C   LIG d   1       5.456  -8.951  -6.567  0.00  0.00    -0.053 C 
ATOM     29  H   LIG d   1       5.722  -9.944  -6.926  0.00  0.00     0.026 H 
ATOM     30  H   LIG d   1       6.359  -8.354  -6.445  0.00  0.00     0.026 H 
BRANCH  28  31
ATOM     31  C   LIG d   1       4.738  -9.071  -5.220  0.00  0.00    -0.056 C 
ATOM     32  H   LIG d   1       5.311  -8.545  -4.456  0.00  0.00     0.026 H 
ATOM     33  H   LIG d   1       3.745  -8.630  -5.298  0.00  0.00     0.026 H 
BRANCH  31  34
ATOM     34  C   LIG d   1       4.613 -10.547  -4.839  0.00  0.00    -0.065 C 
ATOM     35  H   LIG d   1       5.475 -11.095  -5.220  0.00  0.00     0.023 H 
ATOM     36  H   LIG d   1       4.573 -10.640  -3.754  0.00  0.00     0.023 H 
ATOM     37  H   LIG d   1       3.701 -10.959  -5.272  0.00  0.00     0.023 H 
ENDBRANCH  31  34
ENDBRANCH  28  31
ENDBRANCH  25  28
ENDBRANCH  22  25
ENDBRANCH   1  22
BRANCH   7  38
ATOM     38  C   LIG d   1       4.185   0.122  -8.061  0.00  0.00    -0.016 A 
ATOM     39  C   LIG d   1       3.006   0.868  -8.053  0.00  0.00    -0.054 A 
ATOM     40  C   LIG d   1       2.994   2.140  -8.587  0.00  0.00    -0.061 A 
ATOM     41  H   LIG d   1       2.105   0.450  -7.629  0.00  0.00     0.062 H 
ATOM     42  C   LIG d   1       4.148   2.676  -9.130  0.00  0.00    -0.062 A 
ATOM     43  H   LIG d   1       2.082   2.718  -8.580  0.00  0.00     0.062 H 
ATOM     44  C   LIG d   1       5.320   1.941  -9.141  0.00  0.00    -0.061 A 
ATOM     45  H   LIG d   1       4.133   3.672  -9.546  0.00  0.00     0.062 H 
ATOM     46  C   LIG d   1       5.346   0.670  -8.606  0.00  0.00    -0.054 A 
ATOM     47  H   LIG d   1       6.218   2.366  -9.567  0.00  0.00     0.062 H 
ATOM     48  H   LIG d   1       6.262   0.100  -8.611  0.00  0.00     0.062 H 
ENDBRANCH   7  38
TORSDOF 6
ENDMDL
MODEL 7
REMARK VINA RESULT:      -6.1      2.243      6.950
REMARK  6 active torsions:
REMARK  status: ('A' for Active; 'I' for Inactive)
REMARK    1  A    between atoms: C_1  and  C_2 
REMARK    2  A    between atoms: C_2  and  C_3 
REMARK    3  A    between atoms: C_3  and  C_4 
REMARK    4  A    between atoms: C_4  and  C_5 
REMARK    5  A    between atoms: C_5  and  C_6 
REMARK    6  A    between atoms: C_12  and  C_22 
ROOT
ATOM      1  C   LIG d   1       7.277  -3.326  -4.552  0.00  0.00     0.120 A 
ATOM      2  H   LIG d   1       7.123  -4.303  -4.096  0.00  0.00     0.050 H 
ATOM      3  C   LIG d   1       6.965  -3.373  -6.030  0.00  0.00     0.259 A 
ATOM      4  O   LIG d   1       7.520  -4.054  -6.866  0.00  0.00    -0.270 OA
ATOM      5  N   LIG d   1       5.943  -2.507  -6.240  0.00  0.00    -0.220 N 
ATOM      6  C   LIG d   1       5.313  -2.208  -7.440  0.00  0.00     0.040 A 
ATOM      7  C   LIG d   1       4.302  -1.319  -7.501  0.00  0.00     0.009 A 
ATOM      8  C   LIG d   1       3.858  -0.649  -6.259  0.00  0.00     0.010 A 
ATOM      9  C   LIG d   1       2.819   0.277  -6.273  0.00  0.00    -0.052 A 
ATOM     10  C   LIG d   1       2.431   0.885  -5.095  0.00  0.00    -0.061 A 
ATOM     11  C   LIG d   1       3.069   0.577  -3.907  0.00  0.00    -0.060 A 
ATOM     12  C   LIG d   1       4.103  -0.341  -3.882  0.00  0.00    -0.036 A 
ATOM     13  C   LIG d   1       4.502  -0.958  -5.056  0.00  0.00     0.075 A 
ATOM     14  N   LIG d   1       5.549  -1.893  -5.051  0.00  0.00    -0.213 N 
ATOM     15  C   LIG d   1       6.290  -2.323  -4.003  0.00  0.00     0.259 A 
ATOM     16  O   LIG d   1       6.179  -1.974  -2.845  0.00  0.00    -0.270 OA
ATOM     17  H   LIG d   1       5.638  -2.700  -8.345  0.00  0.00     0.084 H 
ATOM     18  H   LIG d   1       2.319   0.518  -7.200  0.00  0.00     0.062 H 
ATOM     19  H   LIG d   1       1.625   1.604  -5.102  0.00  0.00     0.062 H 
ATOM     20  H   LIG d   1       2.758   1.059  -2.992  0.00  0.00     0.062 H 
ATOM     21  H   LIG d   1       4.597  -0.577  -2.951  0.00  0.00     0.064 H 
ENDROOT
BRANCH   1  22
ATOM     22  C   LIG d   1       8.712  -2.848  -4.322  0.00  0.00    -0.033 C 
ATOM     23  H   LIG d   1       9.120  -2.459  -5.256  0.00  0.00     0.028 H 
ATOM     24  H   LIG d   1       8.717  -2.061  -3.568  0.00  0.00     0.028 H 
BRANCH  22  25
ATOM     25  C   LIG d   1       9.570  -4.020  -3.842  0.00  0.00    -0.052 C 
ATOM     26  H   LIG d   1       9.168  -4.952  -4.242  0.00  0.00     0.027 H 
ATOM     27  H   LIG d   1      10.594  -3.887  -4.191  0.00  0.00     0.027 H 
BRANCH  25  28
ATOM     28  C   LIG d   1       9.554  -4.071  -2.313  0.00  0.00    -0.053 C 
ATOM     29  H   LIG d   1      10.361  -3.454  -1.921  0.00  0.00     0.026 H 
ATOM     30  H   LIG d   1       8.598  -3.698  -1.947  0.00  0.00     0.026 H 
BRANCH  28  31
ATOM     31  C   LIG d   1       9.747  -5.517  -1.850  0.00  0.00    -0.056 C 
ATOM     32  H   LIG d   1      10.024  -5.526  -0.795  0.00  0.00     0.026 H 
ATOM     33  H   LIG d   1       8.817  -6.069  -1.986  0.00  0.00     0.026 H 
BRANCH  31  34
ATOM     34  C   LIG d   1      10.855  -6.173  -2.675  0.00  0.00    -0.065 C 
ATOM     35  H   LIG d   1      11.082  -5.551  -3.540  0.00  0.00     0.023 H 
ATOM     36  H   LIG d   1      11.750  -6.281  -2.061  0.00  0.00     0.023 H 
ATOM     37  H   LIG d   1      10.526  -7.157  -3.011  0.00  0.00     0.023 H 
ENDBRANCH  31  34
ENDBRANCH  28  31
ENDBRANCH  25  28
ENDBRANCH  22  25
ENDBRANCH   1  22
BRANCH   7  38
ATOM     38  C   LIG d   1       3.645  -1.017  -8.794  0.00  0.00    -0.016 A 
ATOM     39  C   LIG d   1       2.531  -1.751  -9.202  0.00  0.00    -0.054 A 
ATOM     40  C   LIG d   1       1.923  -1.464 -10.406  0.00  0.00    -0.061 A 
ATOM     41  H   LIG d   1       2.145  -2.542  -8.575  0.00  0.00     0.062 H 
ATOM     42  C   LIG d   1       2.417  -0.451 -11.209  0.00  0.00    -0.062 A 
ATOM     43  H   LIG d   1       1.061  -2.031 -10.723  0.00  0.00     0.062 H 
ATOM     44  C   LIG d   1       3.521   0.280 -10.810  0.00  0.00    -0.061 A 
ATOM     45  H   LIG d   1       1.937  -0.231 -12.151  0.00  0.00     0.062 H 
ATOM     46  C   LIG d   1       4.134   0.006  -9.605  0.00  0.00    -0.054 A 
ATOM     47  H   LIG d   1       3.901   1.070 -11.442  0.00  0.00     0.062 H 
ATOM     48  H   LIG d   1       4.993   0.581  -9.293  0.00  0.00     0.062 H 
ENDBRANCH   7  38
TORSDOF 6
ENDMDL
MODEL 8
REMARK VINA RESULT:      -6.0      2.574      6.008
REMARK  6 active torsions:
REMARK  status: ('A' for Active; 'I' for Inactive)
REMARK    1  A    between atoms: C_1  and  C_2 
REMARK    2  A    between atoms: C_2  and  C_3 
REMARK    3  A    between atoms: C_3  and  C_4 
REMARK    4  A    between atoms: C_4  and  C_5 
REMARK    5  A    between atoms: C_5  and  C_6 
REMARK    6  A    between atoms: C_12  and  C_22 
ROOT
ATOM      1  C   LIG d   1       4.670  -4.737  -8.511  0.00  0.00     0.120 A 
ATOM      2  H   LIG d   1       5.586  -4.995  -9.040  0.00  0.00     0.050 H 
ATOM      3  C   LIG d   1       4.963  -4.418  -7.063  0.00  0.00     0.259 A 
ATOM      4  O   LIG d   1       5.443  -5.168  -6.239  0.00  0.00    -0.270 OA
ATOM      5  N   LIG d   1       4.585  -3.132  -6.863  0.00  0.00    -0.220 N 
ATOM      6  C   LIG d   1       4.661  -2.394  -5.689  0.00  0.00     0.040 A 
ATOM      7  C   LIG d   1       4.245  -1.113  -5.636  0.00  0.00     0.009 A 
ATOM      8  C   LIG d   1       3.696  -0.484  -6.857  0.00  0.00     0.010 A 
ATOM      9  C   LIG d   1       3.253   0.835  -6.849  0.00  0.00    -0.052 A 
ATOM     10  C   LIG d   1       2.745   1.391  -8.006  0.00  0.00    -0.061 A 
ATOM     11  C   LIG d   1       2.675   0.644  -9.169  0.00  0.00    -0.060 A 
ATOM     12  C   LIG d   1       3.112  -0.668  -9.187  0.00  0.00    -0.036 A 
ATOM     13  C   LIG d   1       3.623  -1.238  -8.033  0.00  0.00     0.075 A 
ATOM     14  N   LIG d   1       4.072  -2.569  -8.032  0.00  0.00    -0.213 N 
ATOM     15  C   LIG d   1       4.087  -3.453  -9.056  0.00  0.00     0.259 A 
ATOM     16  O   LIG d   1       3.710  -3.253 -10.192  0.00  0.00    -0.270 OA
ATOM     17  H   LIG d   1       5.063  -2.855  -4.800  0.00  0.00     0.084 H 
ATOM     18  H   LIG d   1       3.307   1.421  -5.943  0.00  0.00     0.062 H 
ATOM     19  H   LIG d   1       2.400   2.415  -8.005  0.00  0.00     0.062 H 
ATOM     20  H   LIG d   1       2.276   1.088 -10.068  0.00  0.00     0.062 H 
ATOM     21  H   LIG d   1       3.055  -1.247 -10.097  0.00  0.00     0.064 H 
ENDROOT
BRANCH   1  22
ATOM     22  C   LIG d   1       3.653  -5.875  -8.614  0.00  0.00    -0.033 C 
ATOM     23  H   LIG d   1       3.420  -6.246  -7.616  0.00  0.00     0.028 H 
ATOM     24  H   LIG d   1       2.741  -5.506  -9.085  0.00  0.00     0.028 H 
BRANCH  22  25
ATOM     25  C   LIG d   1       4.239  -7.009  -9.456  0.00  0.00    -0.052 C 
ATOM     26  H   LIG d   1       3.430  -7.630  -9.841  0.00  0.00     0.027 H 
ATOM     27  H   LIG d   1       4.802  -6.589 -10.289  0.00  0.00     0.027 H 
BRANCH  25  28
ATOM     28  C   LIG d   1       5.168  -7.861  -8.589  0.00  0.00    -0.053 C 
ATOM     29  H   LIG d   1       5.699  -8.575  -9.218  0.00  0.00     0.026 H 
ATOM     30  H   LIG d   1       5.886  -7.215  -8.084  0.00  0.00     0.026 H 
BRANCH  28  31
ATOM     31  C   LIG d   1       4.341  -8.616  -7.546  0.00  0.00    -0.056 C 
ATOM     32  H   LIG d   1       3.380  -8.118  -7.414  0.00  0.00     0.026 H 
ATOM     33  H   LIG d   1       4.176  -9.639  -7.885  0.00  0.00     0.026 H 
BRANCH  31  34
ATOM     34  C   LIG d   1       5.094  -8.634  -6.214  0.00  0.00    -0.065 C 
ATOM     35  H   LIG d   1       4.393  -8.826  -5.402  0.00  0.00     0.023 H 
ATOM     36  H   LIG d   1       5.849  -9.420  -6.235  0.00  0.00     0.023 H 
ATOM     37  H   LIG d   1       5.578  -7.670  -6.057  0.00  0.00     0.023 H 
ENDBRANCH  31  34
ENDBRANCH  28  31
ENDBRANCH  25  28
ENDBRANCH  22  25
ENDBRANCH   1  22
BRANCH   7  38
ATOM     38  C   LIG d   1       4.336  -0.347  -4.371  0.00  0.00    -0.016 A 
ATOM     39  C   LIG d   1       5.544   0.240  -3.993  0.00  0.00    -0.054 A 
ATOM     40  C   LIG d   1       5.622   0.952  -2.815  0.00  0.00    -0.061 A 
ATOM     41  H   LIG d   1       6.416   0.135  -4.622  0.00  0.00     0.062 H 
ATOM     42  C   LIG d   1       4.505   1.086  -2.009  0.00  0.00    -0.062 A 
ATOM     43  H   LIG d   1       6.556   1.407  -2.521  0.00  0.00     0.062 H 
ATOM     44  C   LIG d   1       3.305   0.507  -2.379  0.00  0.00    -0.061 A 
ATOM     45  H   LIG d   1       4.572   1.646  -1.088  0.00  0.00     0.062 H 
ATOM     46  C   LIG d   1       3.213  -0.204  -3.557  0.00  0.00    -0.054 A 
ATOM     47  H   LIG d   1       2.437   0.615  -1.745  0.00  0.00     0.062 H 
ATOM     48  H   LIG d   1       2.274  -0.651  -3.847  0.00  0.00     0.062 H 
ENDBRANCH   7  38
TORSDOF 6
ENDMDL
MODEL 9
REMARK VINA RESULT:      -5.9      2.747      6.360
REMARK  6 active torsions:
REMARK  status: ('A' for Active; 'I' for Inactive)
REMARK    1  A    between atoms: C_1  and  C_2 
REMARK    2  A    between atoms: C_2  and  C_3 
REMARK    3  A    between atoms: C_3  and  C_4 
REMARK    4  A    between atoms: C_4  and  C_5 
REMARK    5  A    between atoms: C_5  and  C_6 
REMARK    6  A    between atoms: C_12  and  C_22 
ROOT
ATOM      1  C   LIG d   1       8.513  -2.660  -5.200  0.00  0.00     0.120 A 
ATOM      2  H   LIG d   1       8.685  -3.732  -5.119  0.00  0.00     0.050 H 
ATOM      3  C   LIG d   1       7.915  -2.316  -6.545  0.00  0.00     0.259 A 
ATOM      4  O   LIG d   1       8.421  -2.502  -7.631  0.00  0.00    -0.270 OA
ATOM      5  N   LIG d   1       6.702  -1.762  -6.302  0.00  0.00    -0.220 N 
ATOM      6  C   LIG d   1       5.781  -1.287  -7.226  0.00  0.00     0.040 A 
ATOM      7  C   LIG d   1       4.605  -0.757  -6.838  0.00  0.00     0.009 A 
ATOM      8  C   LIG d   1       4.292  -0.680  -5.394  0.00  0.00     0.010 A 
ATOM      9  C   LIG d   1       3.091  -0.139  -4.946  0.00  0.00    -0.052 A 
ATOM     10  C   LIG d   1       2.832  -0.081  -3.591  0.00  0.00    -0.061 A 
ATOM     11  C   LIG d   1       3.759  -0.558  -2.681  0.00  0.00    -0.060 A 
ATOM     12  C   LIG d   1       4.956  -1.096  -3.116  0.00  0.00    -0.036 A 
ATOM     13  C   LIG d   1       5.229  -1.160  -4.472  0.00  0.00     0.075 A 
ATOM     14  N   LIG d   1       6.438  -1.704  -4.933  0.00  0.00    -0.213 N 
ATOM     15  C   LIG d   1       7.461  -2.216  -4.209  0.00  0.00     0.259 A 
ATOM     16  O   LIG d   1       7.520  -2.306  -3.000  0.00  0.00    -0.270 OA
ATOM     17  H   LIG d   1       6.011  -1.346  -8.280  0.00  0.00     0.084 H 
ATOM     18  H   LIG d   1       2.365   0.233  -5.655  0.00  0.00     0.062 H 
ATOM     19  H   LIG d   1       1.900   0.337  -3.239  0.00  0.00     0.062 H 
ATOM     20  H   LIG d   1       3.546  -0.508  -1.624  0.00  0.00     0.062 H 
ATOM     21  H   LIG d   1       5.676  -1.467  -2.401  0.00  0.00     0.064 H 
ENDROOT
BRANCH   1  22
ATOM     22  C   LIG d   1       9.816  -1.890  -4.980  0.00  0.00    -0.033 C 
ATOM     23  H   LIG d   1       9.908  -1.622  -3.927  0.00  0.00     0.028 H 
ATOM     24  H   LIG d   1      10.661  -2.516  -5.270  0.00  0.00     0.028 H 
BRANCH  22  25
ATOM     25  C   LIG d   1       9.808  -0.618  -5.831  0.00  0.00    -0.052 C 
ATOM     26  H   LIG d   1      10.733  -0.560  -6.405  0.00  0.00     0.027 H 
ATOM     27  H   LIG d   1       8.958  -0.643  -6.513  0.00  0.00     0.027 H 
BRANCH  25  28
ATOM     28  C   LIG d   1       9.696   0.605  -4.919  0.00  0.00    -0.053 C 
ATOM     29  H   LIG d   1       9.744   0.287  -3.878  0.00  0.00     0.026 H 
ATOM     30  H   LIG d   1      10.516   1.291  -5.129  0.00  0.00     0.026 H 
BRANCH  28  31
ATOM     31  C   LIG d   1       8.362   1.311  -5.175  0.00  0.00    -0.056 C 
ATOM     32  H   LIG d   1       8.547   2.271  -5.658  0.00  0.00     0.026 H 
ATOM     33  H   LIG d   1       7.742   0.691  -5.824  0.00  0.00     0.026 H 
BRANCH  31  34
ATOM     34  C   LIG d   1       7.642   1.538  -3.845  0.00  0.00    -0.065 C 
ATOM     35  H   LIG d   1       6.571   1.387  -3.980  0.00  0.00     0.023 H 
ATOM     36  H   LIG d   1       8.017   0.832  -3.103  0.00  0.00     0.023 H 
ATOM     37  H   LIG d   1       7.825   2.556  -3.501  0.00  0.00     0.023 H 
ENDBRANCH  31  34
ENDBRANCH  28  31
ENDBRANCH  25  28
ENDBRANCH  22  25
ENDBRANCH   1  22
BRANCH   7  38
ATOM     38  C   LIG d   1       3.639  -0.257  -7.844  0.00  0.00    -0.016 A 
ATOM     39  C   LIG d   1       3.581   1.105  -8.142  0.00  0.00    -0.054 A 
ATOM     40  C   LIG d   1       2.680   1.565  -9.080  0.00  0.00    -0.061 A 
ATOM     41  H   LIG d   1       4.239   1.797  -7.638  0.00  0.00     0.062 H 
ATOM     42  C   LIG d   1       1.836   0.678  -9.725  0.00  0.00    -0.062 A 
ATOM     43  H   LIG d   1       2.634   2.618  -9.311  0.00  0.00     0.062 H 
ATOM     44  C   LIG d   1       1.889  -0.673  -9.434  0.00  0.00    -0.061 A 
ATOM     45  H   LIG d   1       1.133   1.044 -10.458  0.00  0.00     0.062 H 
ATOM     46  C   LIG d   1       2.789  -1.146  -8.501  0.00  0.00    -0.054 A 
ATOM     47  H   LIG d   1       1.227  -1.360  -9.941  0.00  0.00     0.062 H 
ATOM     48  H   LIG d   1       2.833  -2.201  -8.279  0.00  0.00     0.062 H 
ENDBRANCH   7  38
TORSDOF 6
ENDMDL
MODEL 10
REMARK VINA RESULT:      -5.8      2.796      5.347
REMARK  6 active torsions:
REMARK  status: ('A' for Active; 'I' for Inactive)
REMARK    1  A    between atoms: C_1  and  C_2 
REMARK    2  A    between atoms: C_2  and  C_3 
REMARK    3  A    between atoms: C_3  and  C_4 
REMARK    4  A    between atoms: C_4  and  C_5 
REMARK    5  A    between atoms: C_5  and  C_6 
REMARK    6  A    between atoms: C_12  and  C_22 
ROOT
ATOM      1  C   LIG d   1       4.305  -4.515  -8.851  0.00  0.00     0.120 A 
ATOM      2  H   LIG d   1       5.196  -4.795  -9.413  0.00  0.00     0.050 H 
ATOM      3  C   LIG d   1       4.644  -4.285  -7.397  0.00  0.00     0.259 A 
ATOM      4  O   LIG d   1       5.100  -5.099  -6.622  0.00  0.00    -0.270 OA
ATOM      5  N   LIG d   1       4.340  -2.992  -7.126  0.00  0.00    -0.220 N 
ATOM      6  C   LIG d   1       4.480  -2.319  -5.920  0.00  0.00     0.040 A 
ATOM      7  C   LIG d   1       4.135  -1.022  -5.795  0.00  0.00     0.009 A 
ATOM      8  C   LIG d   1       3.596  -0.305  -6.971  0.00  0.00     0.010 A 
ATOM      9  C   LIG d   1       3.225   1.034  -6.889  0.00  0.00    -0.052 A 
ATOM     10  C   LIG d   1       2.724   1.673  -8.006  0.00  0.00    -0.061 A 
ATOM     11  C   LIG d   1       2.591   0.989  -9.201  0.00  0.00    -0.060 A 
ATOM     12  C   LIG d   1       2.956  -0.342  -9.293  0.00  0.00    -0.036 A 
ATOM     13  C   LIG d   1       3.459  -0.995  -8.180  0.00  0.00     0.075 A 
ATOM     14  N   LIG d   1       3.836  -2.345  -8.254  0.00  0.00    -0.213 N 
ATOM     15  C   LIG d   1       3.782  -3.177  -9.320  0.00  0.00     0.259 A 
ATOM     16  O   LIG d   1       3.394  -2.901 -10.436  0.00  0.00    -0.270 OA
ATOM     17  H   LIG d   1       4.874  -2.845  -5.063  0.00  0.00     0.084 H 
ATOM     18  H   LIG d   1       3.329   1.570  -5.956  0.00  0.00     0.062 H 
ATOM     19  H   LIG d   1       2.435   2.712  -7.946  0.00  0.00     0.062 H 
ATOM     20  H   LIG d   1       2.198   1.498 -10.069  0.00  0.00     0.062 H 
ATOM     21  H   LIG d   1       2.850  -0.870 -10.229  0.00  0.00     0.064 H 
ENDROOT
BRANCH   1  22
ATOM     22  C   LIG d   1       3.226  -5.592  -8.987  0.00  0.00    -0.033 C 
ATOM     23  H   LIG d   1       3.191  -6.187  -8.074  0.00  0.00     0.028 H 
ATOM     24  H   LIG d   1       2.258  -5.117  -9.148  0.00  0.00     0.028 H 
BRANCH  22  25
ATOM     25  C   LIG d   1       3.555  -6.497 -10.175  0.00  0.00    -0.052 C 
ATOM     26  H   LIG d   1       4.332  -6.032 -10.782  0.00  0.00     0.027 H 
ATOM     27  H   LIG d   1       3.908  -7.462  -9.809  0.00  0.00     0.027 H 
BRANCH  25  28
ATOM     28  C   LIG d   1       2.298  -6.702 -11.023  0.00  0.00    -0.053 C 
ATOM     29  H   LIG d   1       2.257  -7.734 -11.368  0.00  0.00     0.026 H 
ATOM     30  H   LIG d   1       1.415  -6.482 -10.423  0.00  0.00     0.026 H 
BRANCH  28  31
ATOM     31  C   LIG d   1       2.340  -5.762 -12.231  0.00  0.00    -0.056 C 
ATOM     32  H   LIG d   1       3.243  -5.152 -12.185  0.00  0.00     0.026 H 
ATOM     33  H   LIG d   1       2.345  -6.350 -13.148  0.00  0.00     0.026 H 
BRANCH  31  34
ATOM     34  C   LIG d   1       1.109  -4.854 -12.213  0.00  0.00    -0.065 C 
ATOM     35  H   LIG d   1       0.965  -4.417 -13.200  0.00  0.00     0.023 H 
ATOM     36  H   LIG d   1       0.230  -5.439 -11.942  0.00  0.00     0.023 H 
ATOM     37  H   LIG d   1       1.254  -4.059 -11.481  0.00  0.00     0.023 H 
ENDBRANCH  31  34
ENDBRANCH  28  31
ENDBRANCH  25  28
ENDBRANCH  22  25
ENDBRANCH   1  22
BRANCH   7  38
ATOM     38  C   LIG d   1       4.292  -0.326  -4.497  0.00  0.00    -0.016 A 
ATOM     39  C   LIG d   1       5.538   0.174  -4.117  0.00  0.00    -0.054 A 
ATOM     40  C   LIG d   1       5.678   0.823  -2.907  0.00  0.00    -0.061 A 
ATOM     41  H   LIG d   1       6.390   0.054  -4.769  0.00  0.00     0.062 H 
ATOM     42  C   LIG d   1       4.586   0.977  -2.072  0.00  0.00    -0.062 A 
ATOM     43  H   LIG d   1       6.642   1.210  -2.613  0.00  0.00     0.062 H 
ATOM     44  C   LIG d   1       3.348   0.483  -2.443  0.00  0.00    -0.061 A 
ATOM     45  H   LIG d   1       4.701   1.485  -1.126  0.00  0.00     0.062 H 
ATOM     46  C   LIG d   1       3.194  -0.163  -3.652  0.00  0.00    -0.054 A 
ATOM     47  H   LIG d   1       2.500   0.607  -1.786  0.00  0.00     0.062 H 
ATOM     48  H   LIG d   1       2.227  -0.543  -3.943  0.00  0.00     0.062 H 
ENDBRANCH   7  38
TORSDOF 6
ENDMDL
