MODEL 1
REMARK VINA RESULT:      -5.7      0.000      0.000
REMARK  10 active torsions:
REMARK  status: ('A' for Active; 'I' for Inactive)
REMARK    1  A    between atoms: C_1  and  C_2 
REMARK    2  A    between atoms: C_2  and  C_29 
REMARK    3  A    between atoms: C_3  and  C_10 
REMARK    4  A    between atoms: C_5  and  C_7 
REMARK       I    between atoms: C_10  and  N_12 
REMARK    5  A    between atoms: N_12  and  C_13 
REMARK    6  A    between atoms: C_19  and  O_20 
REMARK    7  A    between atoms: O_20  and  C_21 
REMARK    8  A    between atoms: C_24  and  C_25 
REMARK    9  A    between atoms: C_25  and  O_27 
REMARK   10  A    between atoms: O_27  and  C_28 
ROOT
ATOM      1  C   LIG d   1       4.578  -1.602  -5.072  0.00  0.00     0.077 A 
ATOM      2  C   LIG d   1       4.330  -0.566  -4.069  0.00  0.00     0.063 A 
ATOM      3  C   LIG d   1       5.085  -0.916  -2.933  0.00  0.00     0.052 A 
ATOM      4  C   LIG d   1       5.042  -0.098  -1.806  0.00  0.00    -0.037 A 
ATOM      5  C   LIG d   1       4.266   1.040  -1.808  0.00  0.00    -0.056 A 
ATOM      6  C   LIG d   1       3.520   1.390  -2.923  0.00  0.00    -0.019 A 
ATOM      7  C   LIG d   1       3.545   0.597  -4.055  0.00  0.00     0.131 A 
ATOM      8  N   LIG d   1       5.753  -2.086  -3.212  0.00  0.00    -0.347 N 
ATOM      9  H   LIG d   1       6.346  -2.548  -2.600  0.00  0.00     0.166 HD
ATOM     10  C   LIG d   1       5.447  -2.507  -4.499  0.00  0.00     0.147 A 
ATOM     11  H   LIG d   1       5.617  -0.357  -0.930  0.00  0.00     0.064 H 
ATOM     12  H   LIG d   1       4.238   1.668  -0.929  0.00  0.00     0.062 H 
ATOM     13  H   LIG d   1       2.917   2.285  -2.908  0.00  0.00     0.065 H 
ENDROOT
BRANCH   1  14
ATOM     14  N   LIG d   1       4.037  -1.664  -6.351  0.00  0.00    -0.283 N 
ATOM     15  C   LIG d   1       4.616  -0.986  -7.361  0.00  0.00     0.222 C 
ATOM     16  O   LIG d   1       5.649  -0.379  -7.171  0.00  0.00    -0.275 OA
ATOM     17  H   LIG d   1       3.243  -2.196  -6.517  0.00  0.00     0.155 HD
BRANCH  15  18
ATOM     18  C   LIG d   1       3.979  -0.979  -8.728  0.00  0.00     0.050 A 
ATOM     19  C   LIG d   1       3.478   0.361  -9.269  0.00  0.00    -0.015 A 
ATOM     20  C   LIG d   1       2.477  -0.700  -8.808  0.00  0.00     0.016 A 
ATOM     21  H   LIG d   1       1.949  -0.520  -7.870  0.00  0.00     0.037 H 
ATOM     22  H   LIG d   1       4.398  -1.686  -9.445  0.00  0.00     0.041 H 
BRANCH  19  23
ATOM     23  C   LIG d   1       3.662   1.593  -8.380  0.00  0.00    -0.059 C 
ATOM     24  H   LIG d   1       4.707   1.904  -8.401  0.00  0.00     0.024 H 
ATOM     25  H   LIG d   1       3.034   2.404  -8.748  0.00  0.00     0.024 H 
ATOM     26  H   LIG d   1       3.376   1.350  -7.356  0.00  0.00     0.024 H 
ENDBRANCH  19  23
BRANCH  19  27
ATOM     27  C   LIG d   1       3.603   0.608 -10.773  0.00  0.00    -0.059 C 
ATOM     28  H   LIG d   1       4.304   1.424 -10.951  0.00  0.00     0.024 H 
ATOM     29  H   LIG d   1       3.968  -0.295 -11.261  0.00  0.00     0.024 H 
ATOM     30  H   LIG d   1       2.627   0.872 -11.180  0.00  0.00     0.024 H 
ENDBRANCH  19  27
BRANCH  20  31
ATOM     31  C   LIG d   1       1.690  -1.422  -9.869  0.00  0.00     0.046 C 
ATOM     32  O   LIG d   1       0.932  -0.799 -10.595  0.00  0.00    -0.549 OA
ATOM     33  O   LIG d   1       1.808  -2.628 -10.002  0.00  0.00    -0.549 OA
ENDBRANCH  20  31
ENDBRANCH  15  18
ENDBRANCH   1  14
BRANCH  10  34
ATOM     34  C   LIG d   1       5.947  -3.677  -5.122  0.00  0.00     0.357 C 
ATOM     35  O   LIG d   1       7.059  -4.086  -4.843  0.00  0.00    -0.243 OA
BRANCH  34  36
ATOM     36  O   LIG d   1       5.191  -4.338  -6.022  0.00  0.00    -0.463 OA
BRANCH  36  37
ATOM     37  C   LIG d   1       4.610  -5.574  -5.599  0.00  0.00     0.082 C 
ATOM     38  H   LIG d   1       4.114  -5.432  -4.638  0.00  0.00     0.066 H 
ATOM     39  H   LIG d   1       3.880  -5.904  -6.338  0.00  0.00     0.066 H 
ATOM     40  H   LIG d   1       5.390  -6.328  -5.497  0.00  0.00     0.066 H 
ENDBRANCH  36  37
ENDBRANCH  34  36
ENDBRANCH  10  34
BRANCH   7  41
ATOM     41  O   LIG d   1       2.815   0.941  -5.146  0.00  0.00    -0.494 OA
BRANCH  41  42
ATOM     42  C   LIG d   1       1.519   0.354  -5.272  0.00  0.00     0.079 C 
ATOM     43  H   LIG d   1       0.760   1.135  -5.210  0.00  0.00     0.066 H 
ATOM     44  H   LIG d   1       1.441  -0.154  -6.233  0.00  0.00     0.066 H 
ATOM     45  H   LIG d   1       1.367  -0.365  -4.468  0.00  0.00     0.066 H 
ENDBRANCH  41  42
ENDBRANCH   7  41
TORSDOF 10
ENDMDL
MODEL 2
REMARK VINA RESULT:      -5.7      2.376      4.641
REMARK  10 active torsions:
REMARK  status: ('A' for Active; 'I' for Inactive)
REMARK    1  A    between atoms: C_1  and  C_2 
REMARK    2  A    between atoms: C_2  and  C_29 
REMARK    3  A    between atoms: C_3  and  C_10 
REMARK    4  A    between atoms: C_5  and  C_7 
REMARK       I    between atoms: C_10  and  N_12 
REMARK    5  A    between atoms: N_12  and  C_13 
REMARK    6  A    between atoms: C_19  and  O_20 
REMARK    7  A    between atoms: O_20  and  C_21 
REMARK    8  A    between atoms: C_24  and  C_25 
REMARK    9  A    between atoms: C_25  and  O_27 
REMARK   10  A    between atoms: O_27  and  C_28 
ROOT
ATOM      1  C   LIG d   1       6.362  -0.851  -4.943  0.00  0.00     0.077 A 
ATOM      2  C   LIG d   1       7.097  -2.104  -5.116  0.00  0.00     0.063 A 
ATOM      3  C   LIG d   1       7.668  -2.412  -3.866  0.00  0.00     0.052 A 
ATOM      4  C   LIG d   1       8.434  -3.569  -3.732  0.00  0.00    -0.037 A 
ATOM      5  C   LIG d   1       8.627  -4.398  -4.815  0.00  0.00    -0.056 A 
ATOM      6  C   LIG d   1       8.068  -4.100  -6.048  0.00  0.00    -0.019 A 
ATOM      7  C   LIG d   1       7.303  -2.959  -6.209  0.00  0.00     0.131 A 
ATOM      8  N   LIG d   1       7.313  -1.420  -2.982  0.00  0.00    -0.347 N 
ATOM      9  H   LIG d   1       7.574  -1.387  -2.049  0.00  0.00     0.166 HD
ATOM     10  C   LIG d   1       6.530  -0.472  -3.627  0.00  0.00     0.147 A 
ATOM     11  H   LIG d   1       8.876  -3.814  -2.779  0.00  0.00     0.064 H 
ATOM     12  H   LIG d   1       9.224  -5.292  -4.702  0.00  0.00     0.062 H 
ATOM     13  H   LIG d   1       8.230  -4.760  -6.886  0.00  0.00     0.065 H 
ENDROOT
BRANCH   1  14
ATOM     14  N   LIG d   1       5.641  -0.170  -5.918  0.00  0.00    -0.283 N 
ATOM     15  C   LIG d   1       4.332  -0.434  -6.096  0.00  0.00     0.222 C 
ATOM     16  O   LIG d   1       3.765  -1.212  -5.358  0.00  0.00    -0.275 OA
ATOM     17  H   LIG d   1       6.081   0.496  -6.471  0.00  0.00     0.155 HD
BRANCH  15  18
ATOM     18  C   LIG d   1       3.572   0.237  -7.211  0.00  0.00     0.050 A 
ATOM     19  C   LIG d   1       3.208  -0.613  -8.430  0.00  0.00    -0.015 A 
ATOM     20  C   LIG d   1       4.303   0.449  -8.538  0.00  0.00     0.016 A 
ATOM     21  H   LIG d   1       5.336   0.103  -8.604  0.00  0.00     0.037 H 
ATOM     22  H   LIG d   1       2.860   1.002  -6.901  0.00  0.00     0.041 H 
BRANCH  19  23
ATOM     23  C   LIG d   1       3.644  -2.080  -8.423  0.00  0.00    -0.059 C 
ATOM     24  H   LIG d   1       2.916  -2.673  -7.870  0.00  0.00     0.024 H 
ATOM     25  H   LIG d   1       3.708  -2.446  -9.448  0.00  0.00     0.024 H 
ATOM     26  H   LIG d   1       4.621  -2.167  -7.946  0.00  0.00     0.024 H 
ENDBRANCH  19  23
BRANCH  19  27
ATOM     27  C   LIG d   1       1.874  -0.325  -9.121  0.00  0.00    -0.059 C 
ATOM     28  H   LIG d   1       1.060  -0.740  -8.527  0.00  0.00     0.024 H 
ATOM     29  H   LIG d   1       1.740   0.752  -9.216  0.00  0.00     0.024 H 
ATOM     30  H   LIG d   1       1.871  -0.782 -10.111  0.00  0.00     0.024 H 
ENDBRANCH  19  27
BRANCH  20  31
ATOM     31  C   LIG d   1       3.986   1.699  -9.316  0.00  0.00     0.046 C 
ATOM     32  O   LIG d   1       3.692   2.726  -8.726  0.00  0.00    -0.549 OA
ATOM     33  O   LIG d   1       4.023   1.685 -10.535  0.00  0.00    -0.549 OA
ENDBRANCH  20  31
ENDBRANCH  15  18
ENDBRANCH   1  14
BRANCH  10  34
ATOM     34  C   LIG d   1       5.990   0.693  -3.029  0.00  0.00     0.357 C 
ATOM     35  O   LIG d   1       6.373   1.792  -3.385  0.00  0.00    -0.243 OA
BRANCH  34  36
ATOM     36  O   LIG d   1       5.051   0.584  -2.067  0.00  0.00    -0.463 OA
BRANCH  36  37
ATOM     37  C   LIG d   1       3.747   1.085  -2.372  0.00  0.00     0.082 C 
ATOM     38  H   LIG d   1       3.372   0.597  -3.272  0.00  0.00     0.066 H 
ATOM     39  H   LIG d   1       3.074   0.879  -1.540  0.00  0.00     0.066 H 
ATOM     40  H   LIG d   1       3.799   2.161  -2.539  0.00  0.00     0.066 H 
ENDBRANCH  36  37
ENDBRANCH  34  36
ENDBRANCH  10  34
BRANCH   7  41
ATOM     41  O   LIG d   1       6.756  -2.669  -7.416  0.00  0.00    -0.494 OA
BRANCH  41  42
ATOM     42  C   LIG d   1       7.594  -2.012  -8.368  0.00  0.00     0.079 C 
ATOM     43  H   LIG d   1       7.789  -0.992  -8.036  0.00  0.00     0.066 H 
ATOM     44  H   LIG d   1       8.537  -2.552  -8.457  0.00  0.00     0.066 H 
ATOM     45  H   LIG d   1       7.095  -1.990  -9.337  0.00  0.00     0.066 H 
ENDBRANCH  41  42
ENDBRANCH   7  41
TORSDOF 10
ENDMDL
MODEL 3
REMARK VINA RESULT:      -5.7      1.514      2.111
REMARK  10 active torsions:
REMARK  status: ('A' for Active; 'I' for Inactive)
REMARK    1  A    between atoms: C_1  and  C_2 
REMARK    2  A    between atoms: C_2  and  C_29 
REMARK    3  A    between atoms: C_3  and  C_10 
REMARK    4  A    between atoms: C_5  and  C_7 
REMARK       I    between atoms: C_10  and  N_12 
REMARK    5  A    between atoms: N_12  and  C_13 
REMARK    6  A    between atoms: C_19  and  O_20 
REMARK    7  A    between atoms: O_20  and  C_21 
REMARK    8  A    between atoms: C_24  and  C_25 
REMARK    9  A    between atoms: C_25  and  O_27 
REMARK   10  A    between atoms: O_27  and  C_28 
ROOT
ATOM      1  C   LIG d   1       4.011  -1.364  -5.246  0.00  0.00     0.077 A 
ATOM      2  C   LIG d   1       4.007  -0.499  -4.066  0.00  0.00     0.063 A 
ATOM      3  C   LIG d   1       4.701  -1.194  -3.055  0.00  0.00     0.052 A 
ATOM      4  C   LIG d   1       4.855  -0.602  -1.803  0.00  0.00    -0.037 A 
ATOM      5  C   LIG d   1       4.331   0.649  -1.562  0.00  0.00    -0.056 A 
ATOM      6  C   LIG d   1       3.648   1.338  -2.553  0.00  0.00    -0.019 A 
ATOM      7  C   LIG d   1       3.481   0.774  -3.804  0.00  0.00     0.131 A 
ATOM      8  N   LIG d   1       5.105  -2.402  -3.573  0.00  0.00    -0.347 N 
ATOM      9  H   LIG d   1       5.604  -3.077  -3.086  0.00  0.00     0.166 HD
ATOM     10  C   LIG d   1       4.688  -2.514  -4.892  0.00  0.00     0.147 A 
ATOM     11  H   LIG d   1       5.384  -1.125  -1.022  0.00  0.00     0.064 H 
ATOM     12  H   LIG d   1       4.454   1.100  -0.587  0.00  0.00     0.062 H 
ATOM     13  H   LIG d   1       3.243   2.317  -2.346  0.00  0.00     0.065 H 
ENDROOT
BRANCH   1  14
ATOM     14  N   LIG d   1       3.439  -1.084  -6.482  0.00  0.00    -0.283 N 
ATOM     15  C   LIG d   1       4.096  -0.312  -7.369  0.00  0.00     0.222 C 
ATOM     16  O   LIG d   1       5.217   0.080  -7.120  0.00  0.00    -0.275 OA
ATOM     17  H   LIG d   1       2.567  -1.445  -6.706  0.00  0.00     0.155 HD
BRANCH  15  18
ATOM     18  C   LIG d   1       3.438   0.067  -8.672  0.00  0.00     0.050 A 
ATOM     19  C   LIG d   1       2.930  -1.067  -9.563  0.00  0.00    -0.015 A 
ATOM     20  C   LIG d   1       4.179  -0.280  -9.965  0.00  0.00     0.016 A 
ATOM     21  H   LIG d   1       5.142  -0.783  -9.873  0.00  0.00     0.037 H 
ATOM     22  H   LIG d   1       2.861   0.992  -8.656  0.00  0.00     0.041 H 
BRANCH  19  23
ATOM     23  C   LIG d   1       3.128  -2.500  -9.064  0.00  0.00    -0.059 C 
ATOM     24  H   LIG d   1       3.754  -2.491  -8.171  0.00  0.00     0.024 H 
ATOM     25  H   LIG d   1       2.159  -2.939  -8.824  0.00  0.00     0.024 H 
ATOM     26  H   LIG d   1       3.612  -3.093  -9.841  0.00  0.00     0.024 H 
ENDBRANCH  19  23
BRANCH  19  27
ATOM     27  C   LIG d   1       1.650  -0.818 -10.364  0.00  0.00    -0.059 C 
ATOM     28  H   LIG d   1       1.828  -1.047 -11.414  0.00  0.00     0.024 H 
ATOM     29  H   LIG d   1       0.854  -1.458  -9.983  0.00  0.00     0.024 H 
ATOM     30  H   LIG d   1       1.356   0.227 -10.264  0.00  0.00     0.024 H 
ENDBRANCH  19  27
BRANCH  20  31
ATOM     31  C   LIG d   1       4.054   0.681 -11.118  0.00  0.00     0.046 C 
ATOM     32  O   LIG d   1       3.895   1.871 -10.905  0.00  0.00    -0.549 OA
ATOM     33  O   LIG d   1       4.113   0.269 -12.265  0.00  0.00    -0.549 OA
ENDBRANCH  20  31
ENDBRANCH  15  18
ENDBRANCH   1  14
BRANCH  10  34
ATOM     34  C   LIG d   1       4.921  -3.627  -5.737  0.00  0.00     0.357 C 
ATOM     35  O   LIG d   1       4.002  -4.368  -6.032  0.00  0.00    -0.243 OA
BRANCH  34  36
ATOM     36  O   LIG d   1       6.159  -3.863  -6.215  0.00  0.00    -0.463 OA
BRANCH  36  37
ATOM     37  C   LIG d   1       6.485  -3.292  -7.485  0.00  0.00     0.082 C 
ATOM     38  H   LIG d   1       7.190  -3.941  -8.005  0.00  0.00     0.066 H 
ATOM     39  H   LIG d   1       5.579  -3.189  -8.080  0.00  0.00     0.066 H 
ATOM     40  H   LIG d   1       6.937  -2.312  -7.338  0.00  0.00     0.066 H 
ENDBRANCH  36  37
ENDBRANCH  34  36
ENDBRANCH  10  34
BRANCH   7  41
ATOM     41  O   LIG d   1       2.812   1.449  -4.773  0.00  0.00    -0.494 OA
BRANCH  41  42
ATOM     42  C   LIG d   1       2.233   2.703  -4.409  0.00  0.00     0.079 C 
ATOM     43  H   LIG d   1       2.570   3.474  -5.103  0.00  0.00     0.066 H 
ATOM     44  H   LIG d   1       1.146   2.627  -4.449  0.00  0.00     0.066 H 
ATOM     45  H   LIG d   1       2.541   2.966  -3.397  0.00  0.00     0.066 H 
ENDBRANCH  41  42
ENDBRANCH   7  41
TORSDOF 10
ENDMDL
MODEL 4
REMARK VINA RESULT:      -5.6      1.922      6.098
REMARK  10 active torsions:
REMARK  status: ('A' for Active; 'I' for Inactive)
REMARK    1  A    between atoms: C_1  and  C_2 
REMARK    2  A    between atoms: C_2  and  C_29 
REMARK    3  A    between atoms: C_3  and  C_10 
REMARK    4  A    between atoms: C_5  and  C_7 
REMARK       I    between atoms: C_10  and  N_12 
REMARK    5  A    between atoms: N_12  and  C_13 
REMARK    6  A    between atoms: C_19  and  O_20 
REMARK    7  A    between atoms: O_20  and  C_21 
REMARK    8  A    between atoms: C_24  and  C_25 
REMARK    9  A    between atoms: C_25  and  O_27 
REMARK   10  A    between atoms: O_27  and  C_28 
ROOT
ATOM      1  C   LIG d   1       3.571  -0.384  -6.957  0.00  0.00     0.077 A 
ATOM      2  C   LIG d   1       3.787   0.060  -8.335  0.00  0.00     0.063 A 
ATOM      3  C   LIG d   1       3.286   1.373  -8.418  0.00  0.00     0.052 A 
ATOM      4  C   LIG d   1       3.360   2.056  -9.631  0.00  0.00    -0.037 A 
ATOM      5  C   LIG d   1       3.918   1.448 -10.733  0.00  0.00    -0.056 A 
ATOM      6  C   LIG d   1       4.414   0.155 -10.657  0.00  0.00    -0.019 A 
ATOM      7  C   LIG d   1       4.354  -0.545  -9.466  0.00  0.00     0.131 A 
ATOM      8  N   LIG d   1       2.793   1.718  -7.181  0.00  0.00    -0.347 N 
ATOM      9  H   LIG d   1       2.388   2.572  -6.962  0.00  0.00     0.166 HD
ATOM     10  C   LIG d   1       2.957   0.661  -6.297  0.00  0.00     0.147 A 
ATOM     11  H   LIG d   1       2.978   3.063  -9.706  0.00  0.00     0.064 H 
ATOM     12  H   LIG d   1       3.970   1.984 -11.669  0.00  0.00     0.062 H 
ATOM     13  H   LIG d   1       4.848  -0.307 -11.531  0.00  0.00     0.065 H 
ENDROOT
BRANCH   1  14
ATOM     14  N   LIG d   1       3.912  -1.620  -6.421  0.00  0.00    -0.283 N 
ATOM     15  C   LIG d   1       5.058  -1.761  -5.727  0.00  0.00     0.222 C 
ATOM     16  O   LIG d   1       5.757  -0.795  -5.507  0.00  0.00    -0.275 OA
ATOM     17  H   LIG d   1       3.324  -2.383  -6.546  0.00  0.00     0.155 HD
BRANCH  15  18
ATOM     18  C   LIG d   1       5.472  -3.121  -5.223  0.00  0.00     0.050 A 
ATOM     19  C   LIG d   1       6.716  -3.757  -5.846  0.00  0.00    -0.015 A 
ATOM     20  C   LIG d   1       5.327  -4.305  -6.181  0.00  0.00     0.016 A 
ATOM     21  H   LIG d   1       4.932  -4.100  -7.177  0.00  0.00     0.037 H 
ATOM     22  H   LIG d   1       5.289  -3.305  -4.164  0.00  0.00     0.041 H 
BRANCH  19  23
ATOM     23  C   LIG d   1       7.444  -2.964  -6.934  0.00  0.00    -0.059 C 
ATOM     24  H   LIG d   1       6.813  -2.139  -7.267  0.00  0.00     0.024 H 
ATOM     25  H   LIG d   1       8.378  -2.569  -6.533  0.00  0.00     0.024 H 
ATOM     26  H   LIG d   1       7.660  -3.620  -7.779  0.00  0.00     0.024 H 
ENDBRANCH  19  23
BRANCH  19  27
ATOM     27  C   LIG d   1       7.609  -4.603  -4.937  0.00  0.00    -0.059 C 
ATOM     28  H   LIG d   1       8.313  -3.955  -4.414  0.00  0.00     0.024 H 
ATOM     29  H   LIG d   1       6.991  -5.129  -4.209  0.00  0.00     0.024 H 
ATOM     30  H   LIG d   1       8.158  -5.327  -5.539  0.00  0.00     0.024 H 
ENDBRANCH  19  27
BRANCH  20  31
ATOM     31  C   LIG d   1       4.943  -5.636  -5.590  0.00  0.00     0.046 C 
ATOM     32  O   LIG d   1       3.918  -5.740  -4.937  0.00  0.00    -0.549 OA
ATOM     33  O   LIG d   1       5.657  -6.609  -5.763  0.00  0.00    -0.549 OA
ENDBRANCH  20  31
ENDBRANCH  15  18
ENDBRANCH   1  14
BRANCH  10  34
ATOM     34  C   LIG d   1       2.559   0.657  -4.937  0.00  0.00     0.357 C 
ATOM     35  O   LIG d   1       1.669  -0.085  -4.566  0.00  0.00    -0.243 OA
BRANCH  34  36
ATOM     36  O   LIG d   1       3.169   1.473  -4.053  0.00  0.00    -0.463 OA
BRANCH  36  37
ATOM     37  C   LIG d   1       3.546   0.905  -2.797  0.00  0.00     0.082 C 
ATOM     38  H   LIG d   1       3.996   1.675  -2.170  0.00  0.00     0.066 H 
ATOM     39  H   LIG d   1       2.664   0.503  -2.301  0.00  0.00     0.066 H 
ATOM     40  H   LIG d   1       4.268   0.105  -2.961  0.00  0.00     0.066 H 
ENDBRANCH  36  37
ENDBRANCH  34  36
ENDBRANCH  10  34
BRANCH   7  41
ATOM     41  O   LIG d   1       4.840  -1.810  -9.393  0.00  0.00    -0.494 OA
BRANCH  41  42
ATOM     42  C   LIG d   1       3.978  -2.863  -9.829  0.00  0.00     0.079 C 
ATOM     43  H   LIG d   1       3.026  -2.442 -10.154  0.00  0.00     0.066 H 
ATOM     44  H   LIG d   1       4.443  -3.394 -10.660  0.00  0.00     0.066 H 
ATOM     45  H   LIG d   1       3.806  -3.556  -9.006  0.00  0.00     0.066 H 
ENDBRANCH  41  42
ENDBRANCH   7  41
TORSDOF 10
ENDMDL
MODEL 5
REMARK VINA RESULT:      -5.5      3.618      6.318
REMARK  10 active torsions:
REMARK  status: ('A' for Active; 'I' for Inactive)
REMARK    1  A    between atoms: C_1  and  C_2 
REMARK    2  A    between atoms: C_2  and  C_29 
REMARK    3  A    between atoms: C_3  and  C_10 
REMARK    4  A    between atoms: C_5  and  C_7 
REMARK       I    between atoms: C_10  and  N_12 
REMARK    5  A    between atoms: N_12  and  C_13 
REMARK    6  A    between atoms: C_19  and  O_20 
REMARK    7  A    between atoms: O_20  and  C_21 
REMARK    8  A    between atoms: C_24  and  C_25 
REMARK    9  A    between atoms: C_25  and  O_27 
REMARK   10  A    between atoms: O_27  and  C_28 
ROOT
ATOM      1  C   LIG d   1       5.858  -1.901  -4.576  0.00  0.00     0.077 A 
ATOM      2  C   LIG d   1       5.374  -0.803  -3.740  0.00  0.00     0.063 A 
ATOM      3  C   LIG d   1       4.007  -1.048  -3.503  0.00  0.00     0.052 A 
ATOM      4  C   LIG d   1       3.278  -0.152  -2.724  0.00  0.00    -0.037 A 
ATOM      5  C   LIG d   1       3.892   0.961  -2.195  0.00  0.00    -0.056 A 
ATOM      6  C   LIG d   1       5.237   1.209  -2.425  0.00  0.00    -0.019 A 
ATOM      7  C   LIG d   1       5.984   0.335  -3.193  0.00  0.00     0.131 A 
ATOM      8  N   LIG d   1       3.669  -2.216  -4.147  0.00  0.00    -0.347 N 
ATOM      9  H   LIG d   1       2.786  -2.616  -4.147  0.00  0.00     0.166 HD
ATOM     10  C   LIG d   1       4.779  -2.733  -4.801  0.00  0.00     0.147 A 
ATOM     11  H   LIG d   1       2.230  -0.331  -2.537  0.00  0.00     0.064 H 
ATOM     12  H   LIG d   1       3.318   1.651  -1.593  0.00  0.00     0.062 H 
ATOM     13  H   LIG d   1       5.702   2.086  -2.003  0.00  0.00     0.065 H 
ENDROOT
BRANCH   1  14
ATOM     14  N   LIG d   1       7.152  -2.071  -5.056  0.00  0.00    -0.283 N 
ATOM     15  C   LIG d   1       8.109  -2.572  -4.252  0.00  0.00     0.222 C 
ATOM     16  O   LIG d   1       7.827  -2.942  -3.132  0.00  0.00    -0.275 OA
ATOM     17  H   LIG d   1       7.365  -1.829  -5.972  0.00  0.00     0.155 HD
BRANCH  15  18
ATOM     18  C   LIG d   1       9.531  -2.671  -4.742  0.00  0.00     0.050 A 
ATOM     19  C   LIG d   1       9.965  -3.987  -5.390  0.00  0.00    -0.015 A 
ATOM     20  C   LIG d   1      10.473  -3.617  -3.995  0.00  0.00     0.016 A 
ATOM     21  H   LIG d   1      10.063  -4.169  -3.148  0.00  0.00     0.037 H 
ATOM     22  H   LIG d   1       9.956  -1.749  -5.141  0.00  0.00     0.041 H 
BRANCH  19  23
ATOM     23  C   LIG d   1       8.922  -5.102  -5.490  0.00  0.00    -0.059 C 
ATOM     24  H   LIG d   1       7.959  -4.732  -5.137  0.00  0.00     0.024 H 
ATOM     25  H   LIG d   1       8.831  -5.423  -6.528  0.00  0.00     0.024 H 
ATOM     26  H   LIG d   1       9.233  -5.948  -4.875  0.00  0.00     0.024 H 
ENDBRANCH  19  23
BRANCH  19  27
ATOM     27  C   LIG d   1      10.963  -3.910  -6.548  0.00  0.00    -0.059 C 
ATOM     28  H   LIG d   1      10.420  -3.832  -7.490  0.00  0.00     0.024 H 
ATOM     29  H   LIG d   1      11.599  -3.035  -6.421  0.00  0.00     0.024 H 
ATOM     30  H   LIG d   1      11.578  -4.810  -6.557  0.00  0.00     0.024 H 
ENDBRANCH  19  27
BRANCH  20  31
ATOM     31  C   LIG d   1      11.916  -3.206  -3.865  0.00  0.00     0.046 C 
ATOM     32  O   LIG d   1      12.223  -2.027  -3.943  0.00  0.00    -0.549 OA
ATOM     33  O   LIG d   1      12.777  -4.049  -3.684  0.00  0.00    -0.549 OA
ENDBRANCH  20  31
ENDBRANCH  15  18
ENDBRANCH   1  14
BRANCH  10  34
ATOM     34  C   LIG d   1       4.801  -3.921  -5.572  0.00  0.00     0.357 C 
ATOM     35  O   LIG d   1       5.299  -3.917  -6.682  0.00  0.00    -0.243 OA
BRANCH  34  36
ATOM     36  O   LIG d   1       4.270  -5.057  -5.075  0.00  0.00    -0.463 OA
BRANCH  36  37
ATOM     37  C   LIG d   1       4.760  -6.290  -5.608  0.00  0.00     0.082 C 
ATOM     38  H   LIG d   1       3.919  -6.913  -5.914  0.00  0.00     0.066 H 
ATOM     39  H   LIG d   1       5.394  -6.086  -6.470  0.00  0.00     0.066 H 
ATOM     40  H   LIG d   1       5.339  -6.812  -4.847  0.00  0.00     0.066 H 
ENDBRANCH  36  37
ENDBRANCH  34  36
ENDBRANCH  10  34
BRANCH   7  41
ATOM     41  O   LIG d   1       7.300   0.579  -3.417  0.00  0.00    -0.494 OA
BRANCH  41  42
ATOM     42  C   LIG d   1       7.640   1.848  -3.978  0.00  0.00     0.079 C 
ATOM     43  H   LIG d   1       8.224   1.697  -4.887  0.00  0.00     0.066 H 
ATOM     44  H   LIG d   1       6.729   2.396  -4.218  0.00  0.00     0.066 H 
ATOM     45  H   LIG d   1       8.228   2.417  -3.259  0.00  0.00     0.066 H 
ENDBRANCH  41  42
ENDBRANCH   7  41
TORSDOF 10
ENDMDL
MODEL 6
REMARK VINA RESULT:      -5.5      2.226      4.289
REMARK  10 active torsions:
REMARK  status: ('A' for Active; 'I' for Inactive)
REMARK    1  A    between atoms: C_1  and  C_2 
REMARK    2  A    between atoms: C_2  and  C_29 
REMARK    3  A    between atoms: C_3  and  C_10 
REMARK    4  A    between atoms: C_5  and  C_7 
REMARK       I    between atoms: C_10  and  N_12 
REMARK    5  A    between atoms: N_12  and  C_13 
REMARK    6  A    between atoms: C_19  and  O_20 
REMARK    7  A    between atoms: O_20  and  C_21 
REMARK    8  A    between atoms: C_24  and  C_25 
REMARK    9  A    between atoms: C_25  and  O_27 
REMARK   10  A    between atoms: O_27  and  C_28 
ROOT
ATOM      1  C   LIG d   1       3.824  -0.921  -5.999  0.00  0.00     0.077 A 
ATOM      2  C   LIG d   1       4.055  -0.967  -4.555  0.00  0.00     0.063 A 
ATOM      3  C   LIG d   1       3.527   0.226  -4.024  0.00  0.00     0.052 A 
ATOM      4  C   LIG d   1       3.608   0.457  -2.653  0.00  0.00    -0.037 A 
ATOM      5  C   LIG d   1       4.200  -0.476  -1.829  0.00  0.00    -0.056 A 
ATOM      6  C   LIG d   1       4.722  -1.652  -2.346  0.00  0.00    -0.019 A 
ATOM      7  C   LIG d   1       4.654  -1.907  -3.703  0.00  0.00     0.131 A 
ATOM      8  N   LIG d   1       3.006   0.958  -5.065  0.00  0.00    -0.347 N 
ATOM      9  H   LIG d   1       2.579   1.825  -4.977  0.00  0.00     0.166 HD
ATOM     10  C   LIG d   1       3.186   0.275  -6.260  0.00  0.00     0.147 A 
ATOM     11  H   LIG d   1       3.206   1.367  -2.235  0.00  0.00     0.064 H 
ATOM     12  H   LIG d   1       4.259  -0.287  -0.767  0.00  0.00     0.062 H 
ATOM     13  H   LIG d   1       5.183  -2.371  -1.686  0.00  0.00     0.065 H 
ENDROOT
BRANCH   1  14
ATOM     14  N   LIG d   1       4.182  -1.892  -6.928  0.00  0.00    -0.283 N 
ATOM     15  C   LIG d   1       5.379  -1.827  -7.543  0.00  0.00     0.222 C 
ATOM     16  O   LIG d   1       6.174  -0.964  -7.235  0.00  0.00    -0.275 OA
ATOM     17  H   LIG d   1       3.570  -2.616  -7.134  0.00  0.00     0.155 HD
BRANCH  15  18
ATOM     18  C   LIG d   1       5.731  -2.826  -8.616  0.00  0.00     0.050 A 
ATOM     19  C   LIG d   1       5.565  -2.389 -10.072  0.00  0.00    -0.015 A 
ATOM     20  C   LIG d   1       4.587  -3.392  -9.459  0.00  0.00     0.016 A 
ATOM     21  H   LIG d   1       3.578  -3.041  -9.237  0.00  0.00     0.037 H 
ATOM     22  H   LIG d   1       6.561  -3.493  -8.382  0.00  0.00     0.041 H 
BRANCH  19  23
ATOM     23  C   LIG d   1       5.053  -0.969 -10.329  0.00  0.00    -0.059 C 
ATOM     24  H   LIG d   1       4.404  -0.970 -11.205  0.00  0.00     0.024 H 
ATOM     25  H   LIG d   1       4.492  -0.622  -9.461  0.00  0.00     0.024 H 
ATOM     26  H   LIG d   1       5.899  -0.304 -10.504  0.00  0.00     0.024 H 
ENDBRANCH  19  23
BRANCH  19  27
ATOM     27  C   LIG d   1       6.576  -2.920 -11.090  0.00  0.00    -0.059 C 
ATOM     28  H   LIG d   1       6.865  -2.116 -11.768  0.00  0.00     0.024 H 
ATOM     29  H   LIG d   1       7.458  -3.288 -10.568  0.00  0.00     0.024 H 
ATOM     30  H   LIG d   1       6.125  -3.732 -11.661  0.00  0.00     0.024 H 
ENDBRANCH  19  27
BRANCH  20  31
ATOM     31  C   LIG d   1       4.692  -4.828  -9.902  0.00  0.00     0.046 C 
ATOM     32  O   LIG d   1       4.141  -5.191 -10.928  0.00  0.00    -0.549 OA
ATOM     33  O   LIG d   1       5.327  -5.627  -9.236  0.00  0.00    -0.549 OA
ENDBRANCH  20  31
ENDBRANCH  15  18
ENDBRANCH   1  14
BRANCH  10  34
ATOM     34  C   LIG d   1       2.781   0.731  -7.538  0.00  0.00     0.357 C 
ATOM     35  O   LIG d   1       2.291  -0.048  -8.335  0.00  0.00    -0.243 OA
BRANCH  34  36
ATOM     36  O   LIG d   1       2.935   2.029  -7.872  0.00  0.00    -0.463 OA
BRANCH  36  37
ATOM     37  C   LIG d   1       3.691   2.312  -9.051  0.00  0.00     0.082 C 
ATOM     38  H   LIG d   1       3.042   2.769  -9.798  0.00  0.00     0.066 H 
ATOM     39  H   LIG d   1       4.502   2.997  -8.807  0.00  0.00     0.066 H 
ATOM     40  H   LIG d   1       4.105   1.386  -9.449  0.00  0.00     0.066 H 
ENDBRANCH  36  37
ENDBRANCH  34  36
ENDBRANCH  10  34
BRANCH   7  41
ATOM     41  O   LIG d   1       5.165  -3.058  -4.207  0.00  0.00    -0.494 OA
BRANCH  41  42
ATOM     42  C   LIG d   1       6.582  -3.117  -4.387  0.00  0.00     0.079 C 
ATOM     43  H   LIG d   1       7.045  -3.516  -3.484  0.00  0.00     0.066 H 
ATOM     44  H   LIG d   1       6.814  -3.765  -5.232  0.00  0.00     0.066 H 
ATOM     45  H   LIG d   1       6.965  -2.115  -4.580  0.00  0.00     0.066 H 
ENDBRANCH  41  42
ENDBRANCH   7  41
TORSDOF 10
ENDMDL
MODEL 7
REMARK VINA RESULT:      -5.4      9.263     10.898
REMARK  10 active torsions:
REMARK  status: ('A' for Active; 'I' for Inactive)
REMARK    1  A    between atoms: C_1  and  C_2 
REMARK    2  A    between atoms: C_2  and  C_29 
REMARK    3  A    between atoms: C_3  and  C_10 
REMARK    4  A    between atoms: C_5  and  C_7 
REMARK       I    between atoms: C_10  and  N_12 
REMARK    5  A    between atoms: N_12  and  C_13 
REMARK    6  A    between atoms: C_19  and  O_20 
REMARK    7  A    between atoms: O_20  and  C_21 
REMARK    8  A    between atoms: C_24  and  C_25 
REMARK    9  A    between atoms: C_25  and  O_27 
REMARK   10  A    between atoms: O_27  and  C_28 
ROOT
ATOM      1  C   LIG d   1       9.882   6.348  -2.623  0.00  0.00     0.077 A 
ATOM      2  C   LIG d   1      10.327   6.908  -1.347  0.00  0.00     0.063 A 
ATOM      3  C   LIG d   1      10.765   5.823  -0.562  0.00  0.00     0.052 A 
ATOM      4  C   LIG d   1      11.250   6.061   0.722  0.00  0.00    -0.037 A 
ATOM      5  C   LIG d   1      11.298   7.347   1.214  0.00  0.00    -0.056 A 
ATOM      6  C   LIG d   1      10.869   8.419   0.446  0.00  0.00    -0.019 A 
ATOM      7  C   LIG d   1      10.384   8.211  -0.831  0.00  0.00     0.131 A 
ATOM      8  N   LIG d   1      10.602   4.674  -1.300  0.00  0.00    -0.347 N 
ATOM      9  H   LIG d   1      10.825   3.781  -0.996  0.00  0.00     0.166 HD
ATOM     10  C   LIG d   1      10.064   4.983  -2.542  0.00  0.00     0.147 A 
ATOM     11  H   LIG d   1      11.588   5.238   1.331  0.00  0.00     0.064 H 
ATOM     12  H   LIG d   1      11.675   7.522   2.212  0.00  0.00     0.062 H 
ATOM     13  H   LIG d   1      10.913   9.420   0.848  0.00  0.00     0.065 H 
ENDROOT
BRANCH   1  14
ATOM     14  N   LIG d   1       9.369   7.056  -3.705  0.00  0.00    -0.283 N 
ATOM     15  C   LIG d   1      10.200   7.713  -4.536  0.00  0.00     0.222 C 
ATOM     16  O   LIG d   1      11.400   7.630  -4.384  0.00  0.00    -0.275 OA
ATOM     17  H   LIG d   1       8.411   7.075  -3.862  0.00  0.00     0.155 HD
BRANCH  15  18
ATOM     18  C   LIG d   1       9.639   8.554  -5.655  0.00  0.00     0.050 A 
ATOM     19  C   LIG d   1       9.837   8.050  -7.086  0.00  0.00    -0.015 A 
ATOM     20  C   LIG d   1      10.635   9.253  -6.582  0.00  0.00     0.016 A 
ATOM     21  H   LIG d   1      11.697   9.105  -6.383  0.00  0.00     0.037 H 
ATOM     22  H   LIG d   1       8.710   9.077  -5.429  0.00  0.00     0.041 H 
BRANCH  19  23
ATOM     23  C   LIG d   1      10.589   6.730  -7.271  0.00  0.00    -0.059 C 
ATOM     24  H   LIG d   1      11.152   6.761  -8.205  0.00  0.00     0.024 H 
ATOM     25  H   LIG d   1      11.275   6.581  -6.438  0.00  0.00     0.024 H 
ATOM     26  H   LIG d   1       9.875   5.906  -7.305  0.00  0.00     0.024 H 
ENDBRANCH  19  23
BRANCH  19  27
ATOM     27  C   LIG d   1       8.715   8.317  -8.091  0.00  0.00    -0.059 C 
ATOM     28  H   LIG d   1       8.026   7.472  -8.100  0.00  0.00     0.024 H 
ATOM     29  H   LIG d   1       8.177   9.220  -7.804  0.00  0.00     0.024 H 
ATOM     30  H   LIG d   1       9.142   8.448  -9.085  0.00  0.00     0.024 H 
ENDBRANCH  19  27
BRANCH  20  31
ATOM     31  C   LIG d   1      10.258  10.611  -7.114  0.00  0.00     0.046 C 
ATOM     32  O   LIG d   1       9.650  11.396  -6.404  0.00  0.00    -0.549 OA
ATOM     33  O   LIG d   1      10.558  10.926  -8.253  0.00  0.00    -0.549 OA
ENDBRANCH  20  31
ENDBRANCH  15  18
ENDBRANCH   1  14
BRANCH  10  34
ATOM     34  C   LIG d   1       9.756   4.048  -3.561  0.00  0.00     0.357 C 
ATOM     35  O   LIG d   1      10.140   4.240  -4.699  0.00  0.00    -0.243 OA
BRANCH  34  36
ATOM     36  O   LIG d   1       9.037   2.944  -3.268  0.00  0.00    -0.463 OA
BRANCH  36  37
ATOM     37  C   LIG d   1       8.305   2.343  -4.339  0.00  0.00     0.082 C 
ATOM     38  H   LIG d   1       7.588   3.062  -4.737  0.00  0.00     0.066 H 
ATOM     39  H   LIG d   1       8.994   2.044  -5.127  0.00  0.00     0.066 H 
ATOM     40  H   LIG d   1       7.772   1.467  -3.970  0.00  0.00     0.066 H 
ENDBRANCH  36  37
ENDBRANCH  34  36
ENDBRANCH  10  34
BRANCH   7  41
ATOM     41  O   LIG d   1       9.964   9.261  -1.581  0.00  0.00    -0.494 OA
BRANCH  41  42
ATOM     42  C   LIG d   1       8.812   9.969  -1.121  0.00  0.00     0.079 C 
ATOM     43  H   LIG d   1       8.750  10.932  -1.630  0.00  0.00     0.066 H 
ATOM     44  H   LIG d   1       7.916   9.386  -1.337  0.00  0.00     0.066 H 
ATOM     45  H   LIG d   1       8.890  10.131  -0.046  0.00  0.00     0.066 H 
ENDBRANCH  41  42
ENDBRANCH   7  41
TORSDOF 10
ENDMDL
MODEL 8
REMARK VINA RESULT:      -5.4      2.251      2.748
REMARK  10 active torsions:
REMARK  status: ('A' for Active; 'I' for Inactive)
REMARK    1  A    between atoms: C_1  and  C_2 
REMARK    2  A    between atoms: C_2  and  C_29 
REMARK    3  A    between atoms: C_3  and  C_10 
REMARK    4  A    between atoms: C_5  and  C_7 
REMARK       I    between atoms: C_10  and  N_12 
REMARK    5  A    between atoms: N_12  and  C_13 
REMARK    6  A    between atoms: C_19  and  O_20 
REMARK    7  A    between atoms: O_20  and  C_21 
REMARK    8  A    between atoms: C_24  and  C_25 
REMARK    9  A    between atoms: C_25  and  O_27 
REMARK   10  A    between atoms: O_27  and  C_28 
ROOT
ATOM      1  C   LIG d   1       5.281  -2.331  -5.472  0.00  0.00     0.077 A 
ATOM      2  C   LIG d   1       5.156  -1.412  -4.341  0.00  0.00     0.063 A 
ATOM      3  C   LIG d   1       4.492  -2.118  -3.319  0.00  0.00     0.052 A 
ATOM      4  C   LIG d   1       4.233  -1.482  -2.107  0.00  0.00    -0.037 A 
ATOM      5  C   LIG d   1       4.624  -0.175  -1.915  0.00  0.00    -0.056 A 
ATOM      6  C   LIG d   1       5.278   0.526  -2.917  0.00  0.00    -0.019 A 
ATOM      7  C   LIG d   1       5.548  -0.082  -4.130  0.00  0.00     0.131 A 
ATOM      8  N   LIG d   1       4.225  -3.385  -3.784  0.00  0.00    -0.347 N 
ATOM      9  H   LIG d   1       3.773  -4.079  -3.281  0.00  0.00     0.166 HD
ATOM     10  C   LIG d   1       4.693  -3.518  -5.084  0.00  0.00     0.147 A 
ATOM     11  H   LIG d   1       3.725  -2.014  -1.317  0.00  0.00     0.064 H 
ATOM     12  H   LIG d   1       4.418   0.310  -0.972  0.00  0.00     0.062 H 
ATOM     13  H   LIG d   1       5.577   1.549  -2.751  0.00  0.00     0.065 H 
ENDROOT
BRANCH   1  14
ATOM     14  N   LIG d   1       5.872  -2.059  -6.701  0.00  0.00    -0.283 N 
ATOM     15  C   LIG d   1       5.112  -1.666  -7.742  0.00  0.00     0.222 C 
ATOM     16  O   LIG d   1       3.924  -1.480  -7.590  0.00  0.00    -0.275 OA
ATOM     17  H   LIG d   1       6.832  -2.151  -6.809  0.00  0.00     0.155 HD
BRANCH  15  18
ATOM     18  C   LIG d   1       5.739  -1.459  -9.098  0.00  0.00     0.050 A 
ATOM     19  C   LIG d   1       6.173  -0.039  -9.466  0.00  0.00    -0.015 A 
ATOM     20  C   LIG d   1       4.943  -0.659 -10.131  0.00  0.00     0.016 A 
ATOM     21  H   LIG d   1       3.965  -0.283  -9.829  0.00  0.00     0.037 H 
ATOM     22  H   LIG d   1       6.352  -2.284  -9.463  0.00  0.00     0.041 H 
BRANCH  19  23
ATOM     23  C   LIG d   1       5.937   1.062  -8.430  0.00  0.00    -0.059 C 
ATOM     24  H   LIG d   1       4.874   1.118  -8.194  0.00  0.00     0.024 H 
ATOM     25  H   LIG d   1       6.499   0.836  -7.524  0.00  0.00     0.024 H 
ATOM     26  H   LIG d   1       6.270   2.019  -8.834  0.00  0.00     0.024 H 
ENDBRANCH  19  23
BRANCH  19  27
ATOM     27  C   LIG d   1       7.434   0.116 -10.319  0.00  0.00    -0.059 C 
ATOM     28  H   LIG d   1       7.927  -0.851 -10.419  0.00  0.00     0.024 H 
ATOM     29  H   LIG d   1       7.161   0.488 -11.306  0.00  0.00     0.024 H 
ATOM     30  H   LIG d   1       8.112   0.822  -9.839  0.00  0.00     0.024 H 
ENDBRANCH  19  27
BRANCH  20  31
ATOM     31  C   LIG d   1       5.064  -1.071 -11.574  0.00  0.00     0.046 C 
ATOM     32  O   LIG d   1       4.859  -0.257 -12.460  0.00  0.00    -0.549 OA
ATOM     33  O   LIG d   1       5.367  -2.217 -11.859  0.00  0.00    -0.549 OA
ENDBRANCH  20  31
ENDBRANCH  15  18
ENDBRANCH   1  14
BRANCH  10  34
ATOM     34  C   LIG d   1       4.586  -4.684  -5.882  0.00  0.00     0.357 C 
ATOM     35  O   LIG d   1       3.535  -5.297  -5.924  0.00  0.00    -0.243 OA
BRANCH  34  36
ATOM     36  O   LIG d   1       5.646  -5.112  -6.597  0.00  0.00    -0.463 OA
BRANCH  36  37
ATOM     37  C   LIG d   1       5.416  -5.437  -7.970  0.00  0.00     0.082 C 
ATOM     38  H   LIG d   1       4.499  -6.021  -8.056  0.00  0.00     0.066 H 
ATOM     39  H   LIG d   1       5.317  -4.519  -8.548  0.00  0.00     0.066 H 
ATOM     40  H   LIG d   1       6.254  -6.018  -8.353  0.00  0.00     0.066 H 
ENDBRANCH  36  37
ENDBRANCH  34  36
ENDBRANCH  10  34
BRANCH   7  41
ATOM     41  O   LIG d   1       6.188   0.605  -5.109  0.00  0.00    -0.494 OA
BRANCH  41  42
ATOM     42  C   LIG d   1       7.612   0.685  -5.022  0.00  0.00     0.079 C 
ATOM     43  H   LIG d   1       8.046   0.500  -6.005  0.00  0.00     0.066 H 
ATOM     44  H   LIG d   1       7.900   1.679  -4.679  0.00  0.00     0.066 H 
ATOM     45  H   LIG d   1       7.976  -0.062  -4.318  0.00  0.00     0.066 H 
ENDBRANCH  41  42
ENDBRANCH   7  41
TORSDOF 10
ENDMDL
MODEL 9
REMARK VINA RESULT:      -5.3      2.822      4.803
REMARK  10 active torsions:
REMARK  status: ('A' for Active; 'I' for Inactive)
REMARK    1  A    between atoms: C_1  and  C_2 
REMARK    2  A    between atoms: C_2  and  C_29 
REMARK    3  A    between atoms: C_3  and  C_10 
REMARK    4  A    between atoms: C_5  and  C_7 
REMARK       I    between atoms: C_10  and  N_12 
REMARK    5  A    between atoms: N_12  and  C_13 
REMARK    6  A    between atoms: C_19  and  O_20 
REMARK    7  A    between atoms: O_20  and  C_21 
REMARK    8  A    between atoms: C_24  and  C_25 
REMARK    9  A    between atoms: C_25  and  O_27 
REMARK   10  A    between atoms: O_27  and  C_28 
ROOT
ATOM      1  C   LIG d   1       4.336  -0.547  -6.322  0.00  0.00     0.077 A 
ATOM      2  C   LIG d   1       4.257  -1.060  -4.954  0.00  0.00     0.063 A 
ATOM      3  C   LIG d   1       3.059  -0.563  -4.406  0.00  0.00     0.052 A 
ATOM      4  C   LIG d   1       2.718  -0.896  -3.097  0.00  0.00    -0.037 A 
ATOM      5  C   LIG d   1       3.548  -1.702  -2.350  0.00  0.00    -0.056 A 
ATOM      6  C   LIG d   1       4.730  -2.194  -2.884  0.00  0.00    -0.019 A 
ATOM      7  C   LIG d   1       5.092  -1.881  -4.181  0.00  0.00     0.131 A 
ATOM      8  N   LIG d   1       2.440   0.204  -5.366  0.00  0.00    -0.347 N 
ATOM      9  H   LIG d   1       1.595   0.665  -5.250  0.00  0.00     0.166 HD
ATOM     10  C   LIG d   1       3.208   0.222  -6.522  0.00  0.00     0.147 A 
ATOM     11  H   LIG d   1       1.802  -0.520  -2.667  0.00  0.00     0.064 H 
ATOM     12  H   LIG d   1       3.276  -1.953  -1.335  0.00  0.00     0.062 H 
ATOM     13  H   LIG d   1       5.369  -2.824  -2.285  0.00  0.00     0.065 H 
ENDROOT
BRANCH   1  14
ATOM     14  N   LIG d   1       5.354  -0.783  -7.239  0.00  0.00    -0.283 N 
ATOM     15  C   LIG d   1       6.484  -0.050  -7.197  0.00  0.00     0.222 C 
ATOM     16  O   LIG d   1       6.644   0.767  -6.315  0.00  0.00    -0.275 OA
ATOM     17  H   LIG d   1       5.252  -1.477  -7.910  0.00  0.00     0.155 HD
BRANCH  15  18
ATOM     18  C   LIG d   1       7.549  -0.244  -8.247  0.00  0.00     0.050 A 
ATOM     19  C   LIG d   1       7.805   0.912  -9.216  0.00  0.00    -0.015 A 
ATOM     20  C   LIG d   1       7.095  -0.352  -9.704  0.00  0.00     0.016 A 
ATOM     21  H   LIG d   1       6.025  -0.283  -9.903  0.00  0.00     0.037 H 
ATOM     22  H   LIG d   1       8.406  -0.844  -7.941  0.00  0.00     0.041 H 
BRANCH  19  23
ATOM     23  C   LIG d   1       6.961   2.176  -9.046  0.00  0.00    -0.059 C 
ATOM     24  H   LIG d   1       6.211   2.011  -8.271  0.00  0.00     0.024 H 
ATOM     25  H   LIG d   1       7.604   3.008  -8.758  0.00  0.00     0.024 H 
ATOM     26  H   LIG d   1       6.464   2.411  -9.987  0.00  0.00     0.024 H 
ENDBRANCH  19  23
BRANCH  19  27
ATOM     27  C   LIG d   1       9.245   1.137  -9.682  0.00  0.00    -0.059 C 
ATOM     28  H   LIG d   1       9.416   0.594 -10.611  0.00  0.00     0.024 H 
ATOM     29  H   LIG d   1       9.410   2.201  -9.848  0.00  0.00     0.024 H 
ATOM     30  H   LIG d   1       9.935   0.777  -8.919  0.00  0.00     0.024 H 
ENDBRANCH  19  27
BRANCH  20  31
ATOM     31  C   LIG d   1       7.866  -1.280 -10.606  0.00  0.00     0.046 C 
ATOM     32  O   LIG d   1       8.438  -2.250 -10.138  0.00  0.00    -0.549 OA
ATOM     33  O   LIG d   1       7.918  -1.060 -11.804  0.00  0.00    -0.549 OA
ENDBRANCH  20  31
ENDBRANCH  15  18
ENDBRANCH   1  14
BRANCH  10  34
ATOM     34  C   LIG d   1       2.885   0.917  -7.714  0.00  0.00     0.357 C 
ATOM     35  O   LIG d   1       2.818   2.132  -7.710  0.00  0.00    -0.243 OA
BRANCH  34  36
ATOM     36  O   LIG d   1       2.653   0.232  -8.853  0.00  0.00    -0.463 OA
BRANCH  36  37
ATOM     37  C   LIG d   1       3.405   0.616 -10.006  0.00  0.00     0.082 C 
ATOM     38  H   LIG d   1       4.390   0.150  -9.969  0.00  0.00     0.066 H 
ATOM     39  H   LIG d   1       2.883   0.290 -10.905  0.00  0.00     0.066 H 
ATOM     40  H   LIG d   1       3.518   1.700 -10.024  0.00  0.00     0.066 H 
ENDBRANCH  36  37
ENDBRANCH  34  36
ENDBRANCH  10  34
BRANCH   7  41
ATOM     41  O   LIG d   1       6.248  -2.364  -4.703  0.00  0.00    -0.494 OA
BRANCH  41  42
ATOM     42  C   LIG d   1       7.447  -2.109  -3.969  0.00  0.00     0.079 C 
ATOM     43  H   LIG d   1       7.824  -3.044  -3.555  0.00  0.00     0.066 H 
ATOM     44  H   LIG d   1       8.196  -1.678  -4.635  0.00  0.00     0.066 H 
ATOM     45  H   LIG d   1       7.237  -1.411  -3.160  0.00  0.00     0.066 H 
ENDBRANCH  41  42
ENDBRANCH   7  41
TORSDOF 10
ENDMDL
MODEL 10
REMARK VINA RESULT:      -5.3      2.321      6.940
REMARK  10 active torsions:
REMARK  status: ('A' for Active; 'I' for Inactive)
REMARK    1  A    between atoms: C_1  and  C_2 
REMARK    2  A    between atoms: C_2  and  C_29 
REMARK    3  A    between atoms: C_3  and  C_10 
REMARK    4  A    between atoms: C_5  and  C_7 
REMARK       I    between atoms: C_10  and  N_12 
REMARK    5  A    between atoms: N_12  and  C_13 
REMARK    6  A    between atoms: C_19  and  O_20 
REMARK    7  A    between atoms: O_20  and  C_21 
REMARK    8  A    between atoms: C_24  and  C_25 
REMARK    9  A    between atoms: C_25  and  O_27 
REMARK   10  A    between atoms: O_27  and  C_28 
ROOT
ATOM      1  C   LIG d   1       4.535  -1.198  -8.508  0.00  0.00     0.077 A 
ATOM      2  C   LIG d   1       3.851  -2.413  -8.950  0.00  0.00     0.063 A 
ATOM      3  C   LIG d   1       3.243  -2.107 -10.183  0.00  0.00     0.052 A 
ATOM      4  C   LIG d   1       2.512  -3.091 -10.846  0.00  0.00    -0.037 A 
ATOM      5  C   LIG d   1       2.388  -4.348 -10.297  0.00  0.00    -0.056 A 
ATOM      6  C   LIG d   1       2.984  -4.655  -9.083  0.00  0.00    -0.019 A 
ATOM      7  C   LIG d   1       3.716  -3.698  -8.405  0.00  0.00     0.131 A 
ATOM      8  N   LIG d   1       3.530  -0.796 -10.483  0.00  0.00    -0.347 N 
ATOM      9  H   LIG d   1       3.232  -0.329 -11.279  0.00  0.00     0.166 HD
ATOM     10  C   LIG d   1       4.304  -0.240  -9.474  0.00  0.00     0.147 A 
ATOM     11  H   LIG d   1       2.041  -2.867 -11.792  0.00  0.00     0.064 H 
ATOM     12  H   LIG d   1       1.818  -5.104 -10.818  0.00  0.00     0.062 H 
ATOM     13  H   LIG d   1       2.877  -5.645  -8.667  0.00  0.00     0.065 H 
ENDROOT
BRANCH   1  14
ATOM     14  N   LIG d   1       5.270  -1.039  -7.339  0.00  0.00    -0.283 N 
ATOM     15  C   LIG d   1       4.674  -0.564  -6.227  0.00  0.00     0.222 C 
ATOM     16  O   LIG d   1       3.482  -0.345  -6.225  0.00  0.00    -0.275 OA
ATOM     17  H   LIG d   1       6.213  -1.270  -7.322  0.00  0.00     0.155 HD
BRANCH  15  18
ATOM     18  C   LIG d   1       5.490  -0.306  -4.986  0.00  0.00     0.050 A 
ATOM     19  C   LIG d   1       5.422  -1.346  -3.866  0.00  0.00    -0.015 A 
ATOM     20  C   LIG d   1       4.732   0.008  -3.694  0.00  0.00     0.016 A 
ATOM     21  H   LIG d   1       3.643   0.027  -3.743  0.00  0.00     0.037 H 
ATOM     22  H   LIG d   1       6.442   0.201  -5.146  0.00  0.00     0.041 H 
BRANCH  19  23
ATOM     23  C   LIG d   1       4.532  -2.570  -4.093  0.00  0.00    -0.059 C 
ATOM     24  H   LIG d   1       5.147  -3.471  -4.094  0.00  0.00     0.024 H 
ATOM     25  H   LIG d   1       3.793  -2.635  -3.294  0.00  0.00     0.024 H 
ATOM     26  H   LIG d   1       4.022  -2.476  -5.052  0.00  0.00     0.024 H 
ENDBRANCH  19  23
BRANCH  19  27
ATOM     27  C   LIG d   1       6.696  -1.598  -3.057  0.00  0.00    -0.059 C 
ATOM     28  H   LIG d   1       7.017  -2.630  -3.195  0.00  0.00     0.024 H 
ATOM     29  H   LIG d   1       7.482  -0.925  -3.399  0.00  0.00     0.024 H 
ATOM     30  H   LIG d   1       6.497  -1.417  -2.000  0.00  0.00     0.024 H 
ENDBRANCH  19  27
BRANCH  20  31
ATOM     31  C   LIG d   1       5.358   0.992  -2.741  0.00  0.00     0.046 C 
ATOM     32  O   LIG d   1       6.231   1.749  -3.132  0.00  0.00    -0.549 OA
ATOM     33  O   LIG d   1       4.992   1.033  -1.579  0.00  0.00    -0.549 OA
ENDBRANCH  20  31
ENDBRANCH  15  18
ENDBRANCH   1  14
BRANCH  10  34
ATOM     34  C   LIG d   1       4.781   1.094  -9.443  0.00  0.00     0.357 C 
ATOM     35  O   LIG d   1       5.973   1.311  -9.324  0.00  0.00    -0.243 OA
BRANCH  34  36
ATOM     36  O   LIG d   1       3.915   2.122  -9.547  0.00  0.00    -0.463 OA
BRANCH  36  37
ATOM     37  C   LIG d   1       2.874   2.197  -8.569  0.00  0.00     0.082 C 
ATOM     38  H   LIG d   1       2.585   3.238  -8.425  0.00  0.00     0.066 H 
ATOM     39  H   LIG d   1       2.013   1.625  -8.912  0.00  0.00     0.066 H 
ATOM     40  H   LIG d   1       3.231   1.786  -7.625  0.00  0.00     0.066 H 
ENDBRANCH  36  37
ENDBRANCH  34  36
ENDBRANCH  10  34
BRANCH   7  41
ATOM     41  O   LIG d   1       4.299  -4.001  -7.217  0.00  0.00    -0.494 OA
BRANCH  41  42
ATOM     42  C   LIG d   1       3.954  -5.254  -6.625  0.00  0.00     0.079 C 
ATOM     43  H   LIG d   1       3.722  -5.975  -7.410  0.00  0.00     0.066 H 
ATOM     44  H   LIG d   1       4.794  -5.620  -6.032  0.00  0.00     0.066 H 
ATOM     45  H   LIG d   1       3.085  -5.124  -5.981  0.00  0.00     0.066 H 
ENDBRANCH  41  42
ENDBRANCH   7  41
TORSDOF 10
ENDMDL
