MODEL 1
REMARK VINA RESULT:      -7.0      0.000      0.000
REMARK  8 active torsions:
REMARK  status: ('A' for Active; 'I' for Inactive)
REMARK    1  A    between atoms: C_1  and  C_2 
REMARK    2  A    between atoms: C_2  and  CA_3 
REMARK    3  A    between atoms: CA_3  and  C_5 
REMARK    4  A    between atoms: CA_3  and  N_7 
REMARK       I    between atoms: N_7  and  C_8 
REMARK    5  A    between atoms: C_8  and  C_10 
REMARK    6  A    between atoms: C_10  and  O_11 
REMARK    7  A    between atoms: O_11  and  C_12 
REMARK    8  A    between atoms: C_26  and  C_27 
ROOT
ATOM      1  C   LIG d   1       3.241  -1.235  -8.393  0.00  0.00     0.128 A 
ATOM      2  C   LIG d   1       2.530  -0.169  -7.852  0.00  0.00    -0.019 A 
ATOM      3  C   LIG d   1       2.758   0.221  -6.551  0.00  0.00    -0.047 A 
ATOM      4  C   LIG d   1       3.710  -0.446  -5.781  0.00  0.00     0.026 A 
ATOM      5  C   LIG d   1       3.970  -0.039  -4.387  0.00  0.00    -0.000 A 
ATOM      6  C   LIG d   1       3.290   1.015  -3.787  0.00  0.00    -0.053 A 
ATOM      7  C   LIG d   1       3.575   1.354  -2.480  0.00  0.00    -0.061 A 
ATOM      8  C   LIG d   1       4.533   0.654  -1.762  0.00  0.00    -0.061 A 
ATOM      9  C   LIG d   1       5.219  -0.394  -2.339  0.00  0.00    -0.047 A 
ATOM     10  C   LIG d   1       4.946  -0.752  -3.658  0.00  0.00     0.067 A 
ATOM     11  C   LIG d   1       5.647  -1.859  -4.323  0.00  0.00     0.345 A 
ATOM     12  O   LIG d   1       6.493  -2.490  -3.717  0.00  0.00    -0.244 OA
ATOM     13  O   LIG d   1       5.360  -2.177  -5.595  0.00  0.00    -0.421 OA
ATOM     14  C   LIG d   1       4.432  -1.518  -6.325  0.00  0.00     0.146 A 
ATOM     15  C   LIG d   1       4.188  -1.904  -7.636  0.00  0.00     0.034 A 
ATOM     16  H   LIG d   1       1.797   0.350  -8.450  0.00  0.00     0.065 H 
ATOM     17  H   LIG d   1       2.203   1.047  -6.129  0.00  0.00     0.063 H 
ATOM     18  H   LIG d   1       2.543   1.564  -4.341  0.00  0.00     0.062 H 
ATOM     19  H   LIG d   1       3.047   2.171  -2.013  0.00  0.00     0.062 H 
ATOM     20  H   LIG d   1       4.744   0.933  -0.740  0.00  0.00     0.062 H 
ATOM     21  H   LIG d   1       5.964  -0.935  -1.772  0.00  0.00     0.063 H 
ENDROOT
BRANCH   1  22
ATOM     22  O   LIG d   1       3.009  -1.619  -9.676  0.00  0.00    -0.482 OA
BRANCH  22  23
ATOM     23  C   LIG d   1       1.644  -1.766 -10.071  0.00  0.00     0.165 C 
ATOM     24  H   LIG d   1       1.483  -1.253 -11.019  0.00  0.00     0.080 H 
ATOM     25  H   LIG d   1       0.996  -1.334  -9.308  0.00  0.00     0.080 H 
BRANCH  23  26
ATOM     26  C   LIG d   1       1.323  -3.229 -10.231  0.00  0.00     0.251 C 
ATOM     27  N   LIG d   1       0.041  -3.630 -10.342  0.00  0.00    -0.305 N 
ATOM     28  H   LIG d   1      -0.676  -2.976 -10.319  0.00  0.00     0.149 HD
ATOM     29  O   LIG d   1       2.218  -4.048 -10.260  0.00  0.00    -0.272 OA
BRANCH  27  30
ATOM     30  CA  LIG d   1      -0.272  -5.052 -10.499  0.00  0.00     0.062 C 
ATOM     31  HA  LIG d   1       0.540  -5.650 -10.084  0.00  0.00     0.056 H 
BRANCH  30  32
ATOM     32  C   LIG d   1      -0.438  -5.379 -11.984  0.00  0.00    -0.032 C 
ATOM     33  H   LIG d   1       0.382  -4.936 -12.547  0.00  0.00     0.028 H 
ATOM     34  H   LIG d   1      -1.384  -4.973 -12.342  0.00  0.00     0.028 H 
BRANCH  32  35
ATOM     35  C   LIG d   1      -0.429  -6.896 -12.177  0.00  0.00    -0.063 C 
ATOM     36  H   LIG d   1      -0.130  -7.379 -11.246  0.00  0.00     0.023 H 
ATOM     37  H   LIG d   1       0.279  -7.159 -12.964  0.00  0.00     0.023 H 
ATOM     38  H   LIG d   1      -1.426  -7.234 -12.457  0.00  0.00     0.023 H 
ENDBRANCH  32  35
ENDBRANCH  30  32
BRANCH  30  39
ATOM     39  C   LIG d   1      -1.552  -5.369  -9.769  0.00  0.00     0.062 C 
ATOM     40  O   LIG d   1      -2.592  -4.873 -10.130  0.00  0.00    -0.548 OA
ATOM     41  OXT LIG d   1      -1.536  -6.202  -8.716  0.00  0.00    -0.548 OA
ENDBRANCH  30  39
ENDBRANCH  27  30
ENDBRANCH  23  26
ENDBRANCH  22  23
ENDBRANCH   1  22
BRANCH  15  42
ATOM     42  C   LIG d   1       4.956  -3.053  -8.237  0.00  0.00    -0.033 C 
ATOM     43  H   LIG d   1       5.413  -3.641  -7.441  0.00  0.00     0.028 H 
ATOM     44  H   LIG d   1       4.277  -3.683  -8.812  0.00  0.00     0.028 H 
ATOM     45  H   LIG d   1       5.735  -2.665  -8.893  0.00  0.00     0.028 H 
ENDBRANCH  15  42
TORSDOF 8
ENDMDL
MODEL 2
REMARK VINA RESULT:      -6.9      3.819      8.937
REMARK  8 active torsions:
REMARK  status: ('A' for Active; 'I' for Inactive)
REMARK    1  A    between atoms: C_1  and  C_2 
REMARK    2  A    between atoms: C_2  and  CA_3 
REMARK    3  A    between atoms: CA_3  and  C_5 
REMARK    4  A    between atoms: CA_3  and  N_7 
REMARK       I    between atoms: N_7  and  C_8 
REMARK    5  A    between atoms: C_8  and  C_10 
REMARK    6  A    between atoms: C_10  and  O_11 
REMARK    7  A    between atoms: O_11  and  C_12 
REMARK    8  A    between atoms: C_26  and  C_27 
ROOT
ATOM      1  C   LIG d   1       3.176   0.308  -8.919  0.00  0.00     0.128 A 
ATOM      2  C   LIG d   1       1.956  -0.340  -9.088  0.00  0.00    -0.019 A 
ATOM      3  C   LIG d   1       1.639  -0.906 -10.302  0.00  0.00    -0.047 A 
ATOM      4  C   LIG d   1       2.545  -0.837 -11.360  0.00  0.00     0.026 A 
ATOM      5  C   LIG d   1       2.224  -1.442 -12.667  0.00  0.00    -0.000 A 
ATOM      6  C   LIG d   1       1.021  -2.099 -12.900  0.00  0.00    -0.053 A 
ATOM      7  C   LIG d   1       0.774  -2.647 -14.141  0.00  0.00    -0.061 A 
ATOM      8  C   LIG d   1       1.713  -2.549 -15.157  0.00  0.00    -0.061 A 
ATOM      9  C   LIG d   1       2.912  -1.901 -14.946  0.00  0.00    -0.047 A 
ATOM     10  C   LIG d   1       3.181  -1.341 -13.698  0.00  0.00     0.067 A 
ATOM     11  C   LIG d   1       4.443  -0.640 -13.418  0.00  0.00     0.345 A 
ATOM     12  O   LIG d   1       5.285  -0.539 -14.290  0.00  0.00    -0.244 OA
ATOM     13  O   LIG d   1       4.670  -0.112 -12.205  0.00  0.00    -0.421 OA
ATOM     14  C   LIG d   1       3.777  -0.189 -11.193  0.00  0.00     0.146 A 
ATOM     15  C   LIG d   1       4.082   0.382  -9.963  0.00  0.00     0.034 A 
ATOM     16  H   LIG d   1       1.257  -0.396  -8.267  0.00  0.00     0.065 H 
ATOM     17  H   LIG d   1       0.690  -1.406 -10.434  0.00  0.00     0.063 H 
ATOM     18  H   LIG d   1       0.286  -2.180 -12.113  0.00  0.00     0.062 H 
ATOM     19  H   LIG d   1      -0.160  -3.157 -14.324  0.00  0.00     0.062 H 
ATOM     20  H   LIG d   1       1.504  -2.984 -16.123  0.00  0.00     0.062 H 
ATOM     21  H   LIG d   1       3.639  -1.828 -15.743  0.00  0.00     0.063 H 
ENDROOT
BRANCH   1  22
ATOM     22  O   LIG d   1       3.482   0.869  -7.720  0.00  0.00    -0.482 OA
BRANCH  22  23
ATOM     23  C   LIG d   1       2.722   0.436  -6.590  0.00  0.00     0.165 C 
ATOM     24  H   LIG d   1       2.021  -0.338  -6.899  0.00  0.00     0.080 H 
ATOM     25  H   LIG d   1       2.172   1.282  -6.176  0.00  0.00     0.080 H 
BRANCH  23  26
ATOM     26  C   LIG d   1       3.653  -0.117  -5.542  0.00  0.00     0.251 C 
ATOM     27  N   LIG d   1       3.704   0.449  -4.320  0.00  0.00    -0.305 N 
ATOM     28  H   LIG d   1       3.142   1.213  -4.114  0.00  0.00     0.149 HD
ATOM     29  O   LIG d   1       4.356  -1.072  -5.797  0.00  0.00    -0.272 OA
BRANCH  27  30
ATOM     30  CA  LIG d   1       4.608  -0.089  -3.300  0.00  0.00     0.062 C 
ATOM     31  HA  LIG d   1       5.325  -0.762  -3.770  0.00  0.00     0.056 H 
BRANCH  30  32
ATOM     32  C   LIG d   1       3.798  -0.858  -2.254  0.00  0.00    -0.032 C 
ATOM     33  H   LIG d   1       2.752  -0.560  -2.314  0.00  0.00     0.028 H 
ATOM     34  H   LIG d   1       4.182  -0.632  -1.259  0.00  0.00     0.028 H 
BRANCH  32  35
ATOM     35  C   LIG d   1       3.917  -2.360  -2.519  0.00  0.00    -0.063 C 
ATOM     36  H   LIG d   1       4.449  -2.833  -1.693  0.00  0.00     0.023 H 
ATOM     37  H   LIG d   1       4.468  -2.523  -3.446  0.00  0.00     0.023 H 
ATOM     38  H   LIG d   1       2.922  -2.794  -2.607  0.00  0.00     0.023 H 
ENDBRANCH  32  35
ENDBRANCH  30  32
BRANCH  30  39
ATOM     39  C   LIG d   1       5.344   1.044  -2.633  0.00  0.00     0.062 C 
ATOM     40  O   LIG d   1       5.017   1.410  -1.530  0.00  0.00    -0.548 OA
ATOM     41  OXT LIG d   1       6.363   1.647  -3.266  0.00  0.00    -0.548 OA
ENDBRANCH  30  39
ENDBRANCH  27  30
ENDBRANCH  23  26
ENDBRANCH  22  23
ENDBRANCH   1  22
BRANCH  15  42
ATOM     42  C   LIG d   1       5.402   1.081  -9.766  0.00  0.00    -0.033 C 
ATOM     43  H   LIG d   1       5.438   1.516  -8.767  0.00  0.00     0.028 H 
ATOM     44  H   LIG d   1       6.214   0.363  -9.880  0.00  0.00     0.028 H 
ATOM     45  H   LIG d   1       5.509   1.870 -10.510  0.00  0.00     0.028 H 
ENDBRANCH  15  42
TORSDOF 8
ENDMDL
MODEL 3
REMARK VINA RESULT:      -6.4      7.030      9.710
REMARK  8 active torsions:
REMARK  status: ('A' for Active; 'I' for Inactive)
REMARK    1  A    between atoms: C_1  and  C_2 
REMARK    2  A    between atoms: C_2  and  CA_3 
REMARK    3  A    between atoms: CA_3  and  C_5 
REMARK    4  A    between atoms: CA_3  and  N_7 
REMARK       I    between atoms: N_7  and  C_8 
REMARK    5  A    between atoms: C_8  and  C_10 
REMARK    6  A    between atoms: C_10  and  O_11 
REMARK    7  A    between atoms: O_11  and  C_12 
REMARK    8  A    between atoms: C_26  and  C_27 
ROOT
ATOM      1  C   LIG d   1       9.526   1.987  -5.454  0.00  0.00     0.128 A 
ATOM      2  C   LIG d   1       8.670   2.802  -4.720  0.00  0.00    -0.019 A 
ATOM      3  C   LIG d   1       7.623   2.248  -4.020  0.00  0.00    -0.047 A 
ATOM      4  C   LIG d   1       7.427   0.868  -4.038  0.00  0.00     0.026 A 
ATOM      5  C   LIG d   1       6.312   0.256  -3.290  0.00  0.00    -0.000 A 
ATOM      6  C   LIG d   1       5.421   1.016  -2.542  0.00  0.00    -0.053 A 
ATOM      7  C   LIG d   1       4.397   0.391  -1.859  0.00  0.00    -0.061 A 
ATOM      8  C   LIG d   1       4.251  -0.988  -1.914  0.00  0.00    -0.061 A 
ATOM      9  C   LIG d   1       5.124  -1.759  -2.651  0.00  0.00    -0.047 A 
ATOM     10  C   LIG d   1       6.165  -1.147  -3.346  0.00  0.00     0.067 A 
ATOM     11  C   LIG d   1       7.126  -1.921  -4.145  0.00  0.00     0.345 A 
ATOM     12  O   LIG d   1       7.022  -3.131  -4.211  0.00  0.00    -0.244 OA
ATOM     13  O   LIG d   1       8.117  -1.299  -4.803  0.00  0.00    -0.421 OA
ATOM     14  C   LIG d   1       8.290   0.042  -4.772  0.00  0.00     0.146 A 
ATOM     15  C   LIG d   1       9.339   0.615  -5.479  0.00  0.00     0.034 A 
ATOM     16  H   LIG d   1       8.826   3.871  -4.703  0.00  0.00     0.065 H 
ATOM     17  H   LIG d   1       6.956   2.881  -3.453  0.00  0.00     0.063 H 
ATOM     18  H   LIG d   1       5.529   2.089  -2.494  0.00  0.00     0.062 H 
ATOM     19  H   LIG d   1       3.704   0.979  -1.279  0.00  0.00     0.062 H 
ATOM     20  H   LIG d   1       3.444  -1.461  -1.374  0.00  0.00     0.062 H 
ATOM     21  H   LIG d   1       5.003  -2.833  -2.688  0.00  0.00     0.063 H 
ENDROOT
BRANCH   1  22
ATOM     22  O   LIG d   1      10.556   2.540  -6.148  0.00  0.00    -0.482 OA
BRANCH  22  23
ATOM     23  C   LIG d   1      10.807   3.930  -5.934  0.00  0.00     0.165 C 
ATOM     24  H   LIG d   1      11.789   4.056  -5.479  0.00  0.00     0.080 H 
ATOM     25  H   LIG d   1      10.044   4.341  -5.273  0.00  0.00     0.080 H 
BRANCH  23  26
ATOM     26  C   LIG d   1      10.770   4.655  -7.255  0.00  0.00     0.251 C 
ATOM     27  N   LIG d   1       9.704   5.414  -7.577  0.00  0.00    -0.305 N 
ATOM     28  H   LIG d   1       8.960   5.495  -6.958  0.00  0.00     0.149 HD
ATOM     29  O   LIG d   1      11.698   4.555  -8.029  0.00  0.00    -0.272 OA
BRANCH  27  30
ATOM     30  CA  LIG d   1       9.667   6.120  -8.860  0.00  0.00     0.062 C 
ATOM     31  HA  LIG d   1      10.665   6.128  -9.299  0.00  0.00     0.056 H 
BRANCH  30  32
ATOM     32  C   LIG d   1       9.195   7.558  -8.639  0.00  0.00    -0.032 C 
ATOM     33  H   LIG d   1       8.141   7.639  -8.902  0.00  0.00     0.028 H 
ATOM     34  H   LIG d   1       9.778   8.233  -9.266  0.00  0.00     0.028 H 
BRANCH  32  35
ATOM     35  C   LIG d   1       9.385   7.937  -7.169  0.00  0.00    -0.063 C 
ATOM     36  H   LIG d   1       9.166   8.996  -7.035  0.00  0.00     0.023 H 
ATOM     37  H   LIG d   1      10.415   7.739  -6.872  0.00  0.00     0.023 H 
ATOM     38  H   LIG d   1       8.709   7.345  -6.551  0.00  0.00     0.023 H 
ENDBRANCH  32  35
ENDBRANCH  30  32
BRANCH  30  39
ATOM     39  C   LIG d   1       8.714   5.417  -9.792  0.00  0.00     0.062 C 
ATOM     40  O   LIG d   1       8.147   4.413  -9.433  0.00  0.00    -0.548 OA
ATOM     41  OXT LIG d   1       8.496   5.906 -11.024  0.00  0.00    -0.548 OA
ENDBRANCH  30  39
ENDBRANCH  27  30
ENDBRANCH  23  26
ENDBRANCH  22  23
ENDBRANCH   1  22
BRANCH  15  42
ATOM     42  C   LIG d   1      10.277  -0.257  -6.272  0.00  0.00    -0.033 C 
ATOM     43  H   LIG d   1      11.240  -0.314  -5.764  0.00  0.00     0.028 H 
ATOM     44  H   LIG d   1       9.853  -1.258  -6.363  0.00  0.00     0.028 H 
ATOM     45  H   LIG d   1      10.416   0.169  -7.266  0.00  0.00     0.028 H 
ENDBRANCH  15  42
TORSDOF 8
ENDMDL
MODEL 4
REMARK VINA RESULT:      -6.4      7.657     10.710
REMARK  8 active torsions:
REMARK  status: ('A' for Active; 'I' for Inactive)
REMARK    1  A    between atoms: C_1  and  C_2 
REMARK    2  A    between atoms: C_2  and  CA_3 
REMARK    3  A    between atoms: CA_3  and  C_5 
REMARK    4  A    between atoms: CA_3  and  N_7 
REMARK       I    between atoms: N_7  and  C_8 
REMARK    5  A    between atoms: C_8  and  C_10 
REMARK    6  A    between atoms: C_10  and  O_11 
REMARK    7  A    between atoms: O_11  and  C_12 
REMARK    8  A    between atoms: C_26  and  C_27 
ROOT
ATOM      1  C   LIG d   1       9.903   4.459  -4.073  0.00  0.00     0.128 A 
ATOM      2  C   LIG d   1       9.377   5.678  -4.491  0.00  0.00    -0.019 A 
ATOM      3  C   LIG d   1       9.434   6.774  -3.660  0.00  0.00    -0.047 A 
ATOM      4  C   LIG d   1      10.028   6.664  -2.404  0.00  0.00     0.026 A 
ATOM      5  C   LIG d   1      10.102   7.830  -1.502  0.00  0.00    -0.000 A 
ATOM      6  C   LIG d   1       9.592   9.072  -1.859  0.00  0.00    -0.053 A 
ATOM      7  C   LIG d   1       9.690  10.128  -0.977  0.00  0.00    -0.061 A 
ATOM      8  C   LIG d   1      10.292   9.961   0.261  0.00  0.00    -0.061 A 
ATOM      9  C   LIG d   1      10.805   8.736   0.635  0.00  0.00    -0.047 A 
ATOM     10  C   LIG d   1      10.716   7.657  -0.243  0.00  0.00     0.067 A 
ATOM     11  C   LIG d   1      11.246   6.330   0.103  0.00  0.00     0.345 A 
ATOM     12  O   LIG d   1      11.781   6.154   1.181  0.00  0.00    -0.244 OA
ATOM     13  O   LIG d   1      11.144   5.313  -0.766  0.00  0.00    -0.421 OA
ATOM     14  C   LIG d   1      10.564   5.439  -1.981  0.00  0.00     0.146 A 
ATOM     15  C   LIG d   1      10.495   4.340  -2.827  0.00  0.00     0.034 A 
ATOM     16  H   LIG d   1       8.921   5.762  -5.466  0.00  0.00     0.065 H 
ATOM     17  H   LIG d   1       9.023   7.719  -3.983  0.00  0.00     0.063 H 
ATOM     18  H   LIG d   1       9.122   9.210  -2.821  0.00  0.00     0.062 H 
ATOM     19  H   LIG d   1       9.293  11.094  -1.252  0.00  0.00     0.062 H 
ATOM     20  H   LIG d   1      10.361  10.798   0.940  0.00  0.00     0.062 H 
ATOM     21  H   LIG d   1      11.272   8.614   1.601  0.00  0.00     0.063 H 
ENDROOT
BRANCH   1  22
ATOM     22  O   LIG d   1       9.840   3.379  -4.896  0.00  0.00    -0.482 OA
BRANCH  22  23
ATOM     23  C   LIG d   1       8.538   2.942  -5.293  0.00  0.00     0.165 C 
ATOM     24  H   LIG d   1       8.578   2.562  -6.313  0.00  0.00     0.080 H 
ATOM     25  H   LIG d   1       7.843   3.779  -5.243  0.00  0.00     0.080 H 
BRANCH  23  26
ATOM     26  C   LIG d   1       8.073   1.848  -4.367  0.00  0.00     0.251 C 
ATOM     27  N   LIG d   1       6.757   1.681  -4.128  0.00  0.00    -0.305 N 
ATOM     28  H   LIG d   1       6.109   2.266  -4.551  0.00  0.00     0.149 HD
ATOM     29  O   LIG d   1       8.883   1.115  -3.838  0.00  0.00    -0.272 OA
BRANCH  27  30
ATOM     30  CA  LIG d   1       6.305   0.617  -3.229  0.00  0.00     0.062 C 
ATOM     31  HA  LIG d   1       7.057   0.449  -2.458  0.00  0.00     0.056 H 
BRANCH  30  32
ATOM     32  C   LIG d   1       6.096  -0.672  -4.027  0.00  0.00    -0.032 C 
ATOM     33  H   LIG d   1       6.482  -0.539  -5.038  0.00  0.00     0.028 H 
ATOM     34  H   LIG d   1       5.032  -0.903  -4.073  0.00  0.00     0.028 H 
BRANCH  32  35
ATOM     35  C   LIG d   1       6.840  -1.821  -3.344  0.00  0.00    -0.063 C 
ATOM     36  H   LIG d   1       7.798  -1.461  -2.968  0.00  0.00     0.023 H 
ATOM     37  H   LIG d   1       7.010  -2.623  -4.062  0.00  0.00     0.023 H 
ATOM     38  H   LIG d   1       6.243  -2.197  -2.513  0.00  0.00     0.023 H 
ENDBRANCH  32  35
ENDBRANCH  30  32
BRANCH  30  39
ATOM     39  C   LIG d   1       5.005   1.024  -2.583  0.00  0.00     0.062 C 
ATOM     40  O   LIG d   1       4.367   1.942  -3.037  0.00  0.00    -0.548 OA
ATOM     41  OXT LIG d   1       4.557   0.364  -1.503  0.00  0.00    -0.548 OA
ENDBRANCH  30  39
ENDBRANCH  27  30
ENDBRANCH  23  26
ENDBRANCH  22  23
ENDBRANCH   1  22
BRANCH  15  42
ATOM     42  C   LIG d   1      11.066   3.017  -2.389  0.00  0.00    -0.033 C 
ATOM     43  H   LIG d   1      10.799   2.831  -1.348  0.00  0.00     0.028 H 
ATOM     44  H   LIG d   1      10.662   2.221  -3.016  0.00  0.00     0.028 H 
ATOM     45  H   LIG d   1      12.151   3.040  -2.486  0.00  0.00     0.028 H 
ENDBRANCH  15  42
TORSDOF 8
ENDMDL
MODEL 5
REMARK VINA RESULT:      -6.4      5.338      6.221
REMARK  8 active torsions:
REMARK  status: ('A' for Active; 'I' for Inactive)
REMARK    1  A    between atoms: C_1  and  C_2 
REMARK    2  A    between atoms: C_2  and  CA_3 
REMARK    3  A    between atoms: CA_3  and  C_5 
REMARK    4  A    between atoms: CA_3  and  N_7 
REMARK       I    between atoms: N_7  and  C_8 
REMARK    5  A    between atoms: C_8  and  C_10 
REMARK    6  A    between atoms: C_10  and  O_11 
REMARK    7  A    between atoms: O_11  and  C_12 
REMARK    8  A    between atoms: C_26  and  C_27 
ROOT
ATOM      1  C   LIG d   1       6.037  -4.756  -5.406  0.00  0.00     0.128 A 
ATOM      2  C   LIG d   1       4.738  -4.612  -4.927  0.00  0.00    -0.019 A 
ATOM      3  C   LIG d   1       4.358  -3.444  -4.305  0.00  0.00    -0.047 A 
ATOM      4  C   LIG d   1       5.274  -2.402  -4.165  0.00  0.00     0.026 A 
ATOM      5  C   LIG d   1       4.883  -1.141  -3.505  0.00  0.00    -0.000 A 
ATOM      6  C   LIG d   1       3.603  -0.938  -3.002  0.00  0.00    -0.053 A 
ATOM      7  C   LIG d   1       3.292   0.262  -2.396  0.00  0.00    -0.061 A 
ATOM      8  C   LIG d   1       4.244   1.265  -2.285  0.00  0.00    -0.061 A 
ATOM      9  C   LIG d   1       5.518   1.083  -2.777  0.00  0.00    -0.047 A 
ATOM     10  C   LIG d   1       5.852  -0.122  -3.394  0.00  0.00     0.067 A 
ATOM     11  C   LIG d   1       7.195  -0.369  -3.938  0.00  0.00     0.345 A 
ATOM     12  O   LIG d   1       8.050   0.493  -3.855  0.00  0.00    -0.244 OA
ATOM     13  O   LIG d   1       7.483  -1.540  -4.525  0.00  0.00    -0.421 OA
ATOM     14  C   LIG d   1       6.581  -2.540  -4.651  0.00  0.00     0.146 A 
ATOM     15  C   LIG d   1       6.952  -3.726  -5.271  0.00  0.00     0.034 A 
ATOM     16  H   LIG d   1       4.029  -5.419  -5.040  0.00  0.00     0.065 H 
ATOM     17  H   LIG d   1       3.351  -3.334  -3.930  0.00  0.00     0.063 H 
ATOM     18  H   LIG d   1       2.857  -1.714  -3.085  0.00  0.00     0.062 H 
ATOM     19  H   LIG d   1       2.299   0.422  -2.004  0.00  0.00     0.062 H 
ATOM     20  H   LIG d   1       3.983   2.199  -1.807  0.00  0.00     0.062 H 
ATOM     21  H   LIG d   1       6.254   1.870  -2.687  0.00  0.00     0.063 H 
ENDROOT
BRANCH   1  22
ATOM     22  O   LIG d   1       6.407  -5.913  -6.015  0.00  0.00    -0.482 OA
BRANCH  22  23
ATOM     23  C   LIG d   1       5.365  -6.832  -6.348  0.00  0.00     0.165 C 
ATOM     24  H   LIG d   1       5.417  -7.070  -7.410  0.00  0.00     0.080 H 
ATOM     25  H   LIG d   1       4.398  -6.383  -6.121  0.00  0.00     0.080 H 
BRANCH  23  26
ATOM     26  C   LIG d   1       5.534  -8.094  -5.542  0.00  0.00     0.251 C 
ATOM     27  N   LIG d   1       4.584  -9.049  -5.578  0.00  0.00    -0.305 N 
ATOM     28  H   LIG d   1       3.791  -8.924  -6.124  0.00  0.00     0.149 HD
ATOM     29  O   LIG d   1       6.525  -8.251  -4.860  0.00  0.00    -0.272 OA
BRANCH  27  30
ATOM     30  CA  LIG d   1       4.747 -10.277  -4.796  0.00  0.00     0.062 C 
ATOM     31  HA  LIG d   1       5.809 -10.502  -4.692  0.00  0.00     0.056 H 
BRANCH  30  32
ATOM     32  C   LIG d   1       4.047 -11.435  -5.510  0.00  0.00    -0.032 C 
ATOM     33  H   LIG d   1       3.426 -11.043  -6.314  0.00  0.00     0.028 H 
ATOM     34  H   LIG d   1       3.423 -11.976  -4.799  0.00  0.00     0.028 H 
BRANCH  32  35
ATOM     35  C   LIG d   1       5.097 -12.384  -6.091  0.00  0.00    -0.063 C 
ATOM     36  H   LIG d   1       5.797 -11.818  -6.707  0.00  0.00     0.023 H 
ATOM     37  H   LIG d   1       4.605 -13.140  -6.703  0.00  0.00     0.023 H 
ATOM     38  H   LIG d   1       5.639 -12.869  -5.280  0.00  0.00     0.023 H 
ENDBRANCH  32  35
ENDBRANCH  30  32
BRANCH  30  39
ATOM     39  C   LIG d   1       4.138 -10.087  -3.431  0.00  0.00     0.062 C 
ATOM     40  O   LIG d   1       2.983  -9.752  -3.326  0.00  0.00    -0.548 OA
ATOM     41  OXT LIG d   1       4.881 -10.290  -2.330  0.00  0.00    -0.548 OA
ENDBRANCH  30  39
ENDBRANCH  27  30
ENDBRANCH  23  26
ENDBRANCH  22  23
ENDBRANCH   1  22
BRANCH  15  42
ATOM     42  C   LIG d   1       8.353  -3.892  -5.800  0.00  0.00    -0.033 C 
ATOM     43  H   LIG d   1       8.860  -4.683  -5.247  0.00  0.00     0.028 H 
ATOM     44  H   LIG d   1       8.314  -4.154  -6.857  0.00  0.00     0.028 H 
ATOM     45  H   LIG d   1       8.900  -2.957  -5.679  0.00  0.00     0.028 H 
ENDBRANCH  15  42
TORSDOF 8
ENDMDL
MODEL 6
REMARK VINA RESULT:      -6.4      6.694     11.319
REMARK  8 active torsions:
REMARK  status: ('A' for Active; 'I' for Inactive)
REMARK    1  A    between atoms: C_1  and  C_2 
REMARK    2  A    between atoms: C_2  and  CA_3 
REMARK    3  A    between atoms: CA_3  and  C_5 
REMARK    4  A    between atoms: CA_3  and  N_7 
REMARK       I    between atoms: N_7  and  C_8 
REMARK    5  A    between atoms: C_8  and  C_10 
REMARK    6  A    between atoms: C_10  and  O_11 
REMARK    7  A    between atoms: O_11  and  C_12 
REMARK    8  A    between atoms: C_26  and  C_27 
ROOT
ATOM      1  C   LIG d   1       9.407   1.442  -4.565  0.00  0.00     0.128 A 
ATOM      2  C   LIG d   1       8.446   2.176  -3.877  0.00  0.00    -0.019 A 
ATOM      3  C   LIG d   1       7.267   1.577  -3.492  0.00  0.00    -0.047 A 
ATOM      4  C   LIG d   1       7.043   0.232  -3.783  0.00  0.00     0.026 A 
ATOM      5  C   LIG d   1       5.788  -0.427  -3.373  0.00  0.00    -0.000 A 
ATOM      6  C   LIG d   1       4.787   0.252  -2.688  0.00  0.00    -0.053 A 
ATOM      7  C   LIG d   1       3.634  -0.415  -2.328  0.00  0.00    -0.061 A 
ATOM      8  C   LIG d   1       3.466  -1.755  -2.644  0.00  0.00    -0.061 A 
ATOM      9  C   LIG d   1       4.446  -2.446  -3.323  0.00  0.00    -0.047 A 
ATOM     10  C   LIG d   1       5.619  -1.791  -3.695  0.00  0.00     0.067 A 
ATOM     11  C   LIG d   1       6.696  -2.479  -4.419  0.00  0.00     0.345 A 
ATOM     12  O   LIG d   1       6.576  -3.655  -4.708  0.00  0.00    -0.244 OA
ATOM     13  O   LIG d   1       7.813  -1.818  -4.762  0.00  0.00    -0.421 OA
ATOM     14  C   LIG d   1       8.011  -0.513  -4.471  0.00  0.00     0.146 A 
ATOM     15  C   LIG d   1       9.193   0.106  -4.858  0.00  0.00     0.034 A 
ATOM     16  H   LIG d   1       8.622   3.216  -3.649  0.00  0.00     0.065 H 
ATOM     17  H   LIG d   1       6.519   2.148  -2.961  0.00  0.00     0.063 H 
ATOM     18  H   LIG d   1       4.912   1.295  -2.439  0.00  0.00     0.062 H 
ATOM     19  H   LIG d   1       2.856   0.112  -1.797  0.00  0.00     0.062 H 
ATOM     20  H   LIG d   1       2.557  -2.262  -2.355  0.00  0.00     0.062 H 
ATOM     21  H   LIG d   1       4.307  -3.490  -3.565  0.00  0.00     0.063 H 
ENDROOT
BRANCH   1  22
ATOM     22  O   LIG d   1      10.566   2.039  -4.947  0.00  0.00    -0.482 OA
BRANCH  22  23
ATOM     23  C   LIG d   1      11.584   2.174  -3.953  0.00  0.00     0.165 C 
ATOM     24  H   LIG d   1      12.530   1.807  -4.350  0.00  0.00     0.080 H 
ATOM     25  H   LIG d   1      11.309   1.595  -3.071  0.00  0.00     0.080 H 
BRANCH  23  26
ATOM     26  C   LIG d   1      11.726   3.625  -3.576  0.00  0.00     0.251 C 
ATOM     27  N   LIG d   1      11.624   3.999  -2.285  0.00  0.00    -0.305 N 
ATOM     28  H   LIG d   1      11.458   3.334  -1.598  0.00  0.00     0.149 HD
ATOM     29  O   LIG d   1      11.934   4.458  -4.433  0.00  0.00    -0.272 OA
BRANCH  27  30
ATOM     30  CA  LIG d   1      11.763   5.410  -1.917  0.00  0.00     0.062 C 
ATOM     31  HA  LIG d   1      12.122   5.976  -2.777  0.00  0.00     0.056 H 
BRANCH  30  32
ATOM     32  C   LIG d   1      12.764   5.542  -0.767  0.00  0.00    -0.032 C 
ATOM     33  H   LIG d   1      12.507   4.834   0.021  0.00  0.00     0.028 H 
ATOM     34  H   LIG d   1      12.729   6.556  -0.369  0.00  0.00     0.028 H 
BRANCH  32  35
ATOM     35  C   LIG d   1      14.174   5.244  -1.281  0.00  0.00    -0.063 C 
ATOM     36  H   LIG d   1      14.131   5.015  -2.346  0.00  0.00     0.023 H 
ATOM     37  H   LIG d   1      14.584   4.389  -0.743  0.00  0.00     0.023 H 
ATOM     38  H   LIG d   1      14.811   6.113  -1.122  0.00  0.00     0.023 H 
ENDBRANCH  32  35
ENDBRANCH  30  32
BRANCH  30  39
ATOM     39  C   LIG d   1      10.425   5.951  -1.482  0.00  0.00     0.062 C 
ATOM     40  O   LIG d   1       9.565   6.163  -2.302  0.00  0.00    -0.548 OA
ATOM     41  OXT LIG d   1      10.190   6.197  -0.183  0.00  0.00    -0.548 OA
ENDBRANCH  30  39
ENDBRANCH  27  30
ENDBRANCH  23  26
ENDBRANCH  22  23
ENDBRANCH   1  22
BRANCH  15  42
ATOM     42  C   LIG d   1      10.245  -0.680  -5.598  0.00  0.00    -0.033 C 
ATOM     43  H   LIG d   1      10.116  -1.743  -5.394  0.00  0.00     0.028 H 
ATOM     44  H   LIG d   1      10.146  -0.500  -6.669  0.00  0.00     0.028 H 
ATOM     45  H   LIG d   1      11.234  -0.363  -5.267  0.00  0.00     0.028 H 
ENDBRANCH  15  42
TORSDOF 8
ENDMDL
MODEL 7
REMARK VINA RESULT:      -6.3      8.016     11.140
REMARK  8 active torsions:
REMARK  status: ('A' for Active; 'I' for Inactive)
REMARK    1  A    between atoms: C_1  and  C_2 
REMARK    2  A    between atoms: C_2  and  CA_3 
REMARK    3  A    between atoms: CA_3  and  C_5 
REMARK    4  A    between atoms: CA_3  and  N_7 
REMARK       I    between atoms: N_7  and  C_8 
REMARK    5  A    between atoms: C_8  and  C_10 
REMARK    6  A    between atoms: C_10  and  O_11 
REMARK    7  A    between atoms: O_11  and  C_12 
REMARK    8  A    between atoms: C_26  and  C_27 
ROOT
ATOM      1  C   LIG d   1      10.222   4.350  -3.359  0.00  0.00     0.128 A 
ATOM      2  C   LIG d   1      10.723   4.089  -2.088  0.00  0.00    -0.019 A 
ATOM      3  C   LIG d   1      10.939   5.124  -1.206  0.00  0.00    -0.047 A 
ATOM      4  C   LIG d   1      10.645   6.433  -1.585  0.00  0.00     0.026 A 
ATOM      5  C   LIG d   1      10.866   7.554  -0.652  0.00  0.00    -0.000 A 
ATOM      6  C   LIG d   1      11.368   7.359   0.630  0.00  0.00    -0.053 A 
ATOM      7  C   LIG d   1      11.553   8.445   1.462  0.00  0.00    -0.061 A 
ATOM      8  C   LIG d   1      11.242   9.726   1.031  0.00  0.00    -0.061 A 
ATOM      9  C   LIG d   1      10.743   9.940  -0.237  0.00  0.00    -0.047 A 
ATOM     10  C   LIG d   1      10.548   8.857  -1.092  0.00  0.00     0.067 A 
ATOM     11  C   LIG d   1      10.018   9.028  -2.452  0.00  0.00     0.345 A 
ATOM     12  O   LIG d   1       9.736  10.140  -2.856  0.00  0.00    -0.244 OA
ATOM     13  O   LIG d   1       9.843   7.963  -3.250  0.00  0.00    -0.421 OA
ATOM     14  C   LIG d   1      10.135   6.700  -2.863  0.00  0.00     0.146 A 
ATOM     15  C   LIG d   1       9.927   5.647  -3.744  0.00  0.00     0.034 A 
ATOM     16  H   LIG d   1      10.947   3.074  -1.794  0.00  0.00     0.065 H 
ATOM     17  H   LIG d   1      11.332   4.922  -0.220  0.00  0.00     0.063 H 
ATOM     18  H   LIG d   1      11.612   6.365   0.972  0.00  0.00     0.062 H 
ATOM     19  H   LIG d   1      11.944   8.295   2.456  0.00  0.00     0.062 H 
ATOM     20  H   LIG d   1      11.393  10.564   1.695  0.00  0.00     0.062 H 
ATOM     21  H   LIG d   1      10.503  10.942  -0.565  0.00  0.00     0.063 H 
ENDROOT
BRANCH   1  22
ATOM     22  O   LIG d   1      10.016   3.325  -4.227  0.00  0.00    -0.482 OA
BRANCH  22  23
ATOM     23  C   LIG d   1       9.627   2.069  -3.666  0.00  0.00     0.165 C 
ATOM     24  H   LIG d   1       9.789   2.087  -2.588  0.00  0.00     0.080 H 
ATOM     25  H   LIG d   1      10.223   1.272  -4.110  0.00  0.00     0.080 H 
BRANCH  23  26
ATOM     26  C   LIG d   1       8.168   1.823  -3.950  0.00  0.00     0.251 C 
ATOM     27  N   LIG d   1       7.506   0.856  -3.284  0.00  0.00    -0.305 N 
ATOM     28  H   LIG d   1       7.968   0.319  -2.622  0.00  0.00     0.149 HD
ATOM     29  O   LIG d   1       7.589   2.494  -4.778  0.00  0.00    -0.272 OA
BRANCH  27  30
ATOM     30  CA  LIG d   1       6.087   0.617  -3.559  0.00  0.00     0.062 C 
ATOM     31  HA  LIG d   1       5.774   1.227  -4.407  0.00  0.00     0.056 H 
BRANCH  30  32
ATOM     32  C   LIG d   1       5.258   0.989  -2.328  0.00  0.00    -0.032 C 
ATOM     33  H   LIG d   1       5.575   1.963  -1.958  0.00  0.00     0.028 H 
ATOM     34  H   LIG d   1       5.405   0.239  -1.551  0.00  0.00     0.028 H 
BRANCH  32  35
ATOM     35  C   LIG d   1       3.777   1.044  -2.710  0.00  0.00    -0.063 C 
ATOM     36  H   LIG d   1       3.676   1.462  -3.711  0.00  0.00     0.023 H 
ATOM     37  H   LIG d   1       3.242   1.673  -1.998  0.00  0.00     0.023 H 
ATOM     38  H   LIG d   1       3.359   0.038  -2.692  0.00  0.00     0.023 H 
ENDBRANCH  32  35
ENDBRANCH  30  32
BRANCH  30  39
ATOM     39  C   LIG d   1       5.877  -0.840  -3.885  0.00  0.00     0.062 C 
ATOM     40  O   LIG d   1       5.459  -1.162  -4.971  0.00  0.00    -0.548 OA
ATOM     41  OXT LIG d   1       6.155  -1.779  -2.967  0.00  0.00    -0.548 OA
ENDBRANCH  30  39
ENDBRANCH  27  30
ENDBRANCH  23  26
ENDBRANCH  22  23
ENDBRANCH   1  22
BRANCH  15  42
ATOM     42  C   LIG d   1       9.379   5.915  -5.121  0.00  0.00    -0.033 C 
ATOM     43  H   LIG d   1       9.102   6.967  -5.205  0.00  0.00     0.028 H 
ATOM     44  H   LIG d   1      10.137   5.678  -5.868  0.00  0.00     0.028 H 
ATOM     45  H   LIG d   1       8.498   5.295  -5.289  0.00  0.00     0.028 H 
ENDBRANCH  15  42
TORSDOF 8
ENDMDL
MODEL 8
REMARK VINA RESULT:      -6.2      2.768      8.889
REMARK  8 active torsions:
REMARK  status: ('A' for Active; 'I' for Inactive)
REMARK    1  A    between atoms: C_1  and  C_2 
REMARK    2  A    between atoms: C_2  and  CA_3 
REMARK    3  A    between atoms: CA_3  and  C_5 
REMARK    4  A    between atoms: CA_3  and  N_7 
REMARK       I    between atoms: N_7  and  C_8 
REMARK    5  A    between atoms: C_8  and  C_10 
REMARK    6  A    between atoms: C_10  and  O_11 
REMARK    7  A    between atoms: O_11  and  C_12 
REMARK    8  A    between atoms: C_26  and  C_27 
ROOT
ATOM      1  C   LIG d   1       2.610  -1.554  -9.288  0.00  0.00     0.128 A 
ATOM      2  C   LIG d   1       1.862  -0.602  -9.973  0.00  0.00    -0.019 A 
ATOM      3  C   LIG d   1       1.084  -0.978 -11.046  0.00  0.00    -0.047 A 
ATOM      4  C   LIG d   1       1.039  -2.315 -11.437  0.00  0.00     0.026 A 
ATOM      5  C   LIG d   1       0.207  -2.737 -12.581  0.00  0.00    -0.000 A 
ATOM      6  C   LIG d   1      -0.558  -1.834 -13.309  0.00  0.00    -0.053 A 
ATOM      7  C   LIG d   1      -1.319  -2.284 -14.369  0.00  0.00    -0.061 A 
ATOM      8  C   LIG d   1      -1.325  -3.628 -14.713  0.00  0.00    -0.061 A 
ATOM      9  C   LIG d   1      -0.572  -4.539 -14.003  0.00  0.00    -0.047 A 
ATOM     10  C   LIG d   1       0.202  -4.104 -12.929  0.00  0.00     0.067 A 
ATOM     11  C   LIG d   1       1.022  -5.033 -12.138  0.00  0.00     0.345 A 
ATOM     12  O   LIG d   1       1.035  -6.217 -12.417  0.00  0.00    -0.244 OA
ATOM     13  O   LIG d   1       1.756  -4.581 -11.109  0.00  0.00    -0.421 OA
ATOM     14  C   LIG d   1       1.787  -3.279 -10.746  0.00  0.00     0.146 A 
ATOM     15  C   LIG d   1       2.571  -2.885  -9.669  0.00  0.00     0.034 A 
ATOM     16  H   LIG d   1       1.894   0.433  -9.667  0.00  0.00     0.065 H 
ATOM     17  H   LIG d   1       0.506  -0.238 -11.581  0.00  0.00     0.063 H 
ATOM     18  H   LIG d   1      -0.558  -0.786 -13.046  0.00  0.00     0.062 H 
ATOM     19  H   LIG d   1      -1.913  -1.584 -14.935  0.00  0.00     0.062 H 
ATOM     20  H   LIG d   1      -1.926  -3.963 -15.545  0.00  0.00     0.062 H 
ATOM     21  H   LIG d   1      -0.583  -5.584 -14.278  0.00  0.00     0.063 H 
ENDROOT
BRANCH   1  22
ATOM     22  O   LIG d   1       3.379  -1.177  -8.233  0.00  0.00    -0.482 OA
BRANCH  22  23
ATOM     23  C   LIG d   1       2.904  -0.084  -7.443  0.00  0.00     0.165 C 
ATOM     24  H   LIG d   1       1.832  -0.192  -7.282  0.00  0.00     0.080 H 
ATOM     25  H   LIG d   1       3.102   0.853  -7.963  0.00  0.00     0.080 H 
BRANCH  23  26
ATOM     26  C   LIG d   1       3.615  -0.081  -6.115  0.00  0.00     0.251 C 
ATOM     27  N   LIG d   1       2.903  -0.106  -4.970  0.00  0.00    -0.305 N 
ATOM     28  H   LIG d   1       1.934  -0.126  -5.001  0.00  0.00     0.149 HD
ATOM     29  O   LIG d   1       4.827  -0.056  -6.074  0.00  0.00    -0.272 OA
BRANCH  27  30
ATOM     30  CA  LIG d   1       3.593  -0.104  -3.678  0.00  0.00     0.062 C 
ATOM     31  HA  LIG d   1       4.649  -0.330  -3.830  0.00  0.00     0.056 H 
BRANCH  30  32
ATOM     32  C   LIG d   1       2.971  -1.162  -2.765  0.00  0.00    -0.032 C 
ATOM     33  H   LIG d   1       2.092  -1.587  -3.248  0.00  0.00     0.028 H 
ATOM     34  H   LIG d   1       2.679  -0.701  -1.821  0.00  0.00     0.028 H 
BRANCH  32  35
ATOM     35  C   LIG d   1       3.993  -2.269  -2.498  0.00  0.00    -0.063 C 
ATOM     36  H   LIG d   1       4.814  -2.185  -3.210  0.00  0.00     0.023 H 
ATOM     37  H   LIG d   1       3.513  -3.241  -2.610  0.00  0.00     0.023 H 
ATOM     38  H   LIG d   1       4.380  -2.169  -1.484  0.00  0.00     0.023 H 
ENDBRANCH  32  35
ENDBRANCH  30  32
BRANCH  30  39
ATOM     39  C   LIG d   1       3.458   1.254  -3.038  0.00  0.00     0.062 C 
ATOM     40  O   LIG d   1       3.564   1.372  -1.841  0.00  0.00    -0.548 OA
ATOM     41  OXT LIG d   1       3.217   2.334  -3.800  0.00  0.00    -0.548 OA
ENDBRANCH  30  39
ENDBRANCH  27  30
ENDBRANCH  23  26
ENDBRANCH  22  23
ENDBRANCH   1  22
BRANCH  15  42
ATOM     42  C   LIG d   1       3.380  -3.907  -8.915  0.00  0.00    -0.033 C 
ATOM     43  H   LIG d   1       2.745  -4.752  -8.651  0.00  0.00     0.028 H 
ATOM     44  H   LIG d   1       4.204  -4.252  -9.540  0.00  0.00     0.028 H 
ATOM     45  H   LIG d   1       3.779  -3.455  -8.006  0.00  0.00     0.028 H 
ENDBRANCH  15  42
TORSDOF 8
ENDMDL
MODEL 9
REMARK VINA RESULT:      -6.2      3.540      8.791
REMARK  8 active torsions:
REMARK  status: ('A' for Active; 'I' for Inactive)
REMARK    1  A    between atoms: C_1  and  C_2 
REMARK    2  A    between atoms: C_2  and  CA_3 
REMARK    3  A    between atoms: CA_3  and  C_5 
REMARK    4  A    between atoms: CA_3  and  N_7 
REMARK       I    between atoms: N_7  and  C_8 
REMARK    5  A    between atoms: C_8  and  C_10 
REMARK    6  A    between atoms: C_10  and  O_11 
REMARK    7  A    between atoms: O_11  and  C_12 
REMARK    8  A    between atoms: C_26  and  C_27 
ROOT
ATOM      1  C   LIG d   1       5.110   0.353  -8.547  0.00  0.00     0.128 A 
ATOM      2  C   LIG d   1       6.076   0.413  -9.547  0.00  0.00    -0.019 A 
ATOM      3  C   LIG d   1       5.763   0.027 -10.831  0.00  0.00    -0.047 A 
ATOM      4  C   LIG d   1       4.475  -0.414 -11.130  0.00  0.00     0.026 A 
ATOM      5  C   LIG d   1       4.121  -0.827 -12.502  0.00  0.00    -0.000 A 
ATOM      6  C   LIG d   1       5.041  -0.794 -13.543  0.00  0.00    -0.053 A 
ATOM      7  C   LIG d   1       4.654  -1.190 -14.807  0.00  0.00    -0.061 A 
ATOM      8  C   LIG d   1       3.357  -1.620 -15.046  0.00  0.00    -0.061 A 
ATOM      9  C   LIG d   1       2.430  -1.660 -14.027  0.00  0.00    -0.047 A 
ATOM     10  C   LIG d   1       2.801  -1.263 -12.743  0.00  0.00     0.067 A 
ATOM     11  C   LIG d   1       1.852  -1.284 -11.621  0.00  0.00     0.345 A 
ATOM     12  O   LIG d   1       0.708  -1.656 -11.802  0.00  0.00    -0.244 OA
ATOM     13  O   LIG d   1       2.242  -0.895 -10.397  0.00  0.00    -0.421 OA
ATOM     14  C   LIG d   1       3.497  -0.471 -10.127  0.00  0.00     0.146 A 
ATOM     15  C   LIG d   1       3.828  -0.084  -8.834  0.00  0.00     0.034 A 
ATOM     16  H   LIG d   1       7.072   0.759  -9.314  0.00  0.00     0.065 H 
ATOM     17  H   LIG d   1       6.514   0.070 -11.607  0.00  0.00     0.063 H 
ATOM     18  H   LIG d   1       6.052  -0.460 -13.363  0.00  0.00     0.062 H 
ATOM     19  H   LIG d   1       5.368  -1.166 -15.616  0.00  0.00     0.062 H 
ATOM     20  H   LIG d   1       3.072  -1.927 -16.042  0.00  0.00     0.062 H 
ATOM     21  H   LIG d   1       1.421  -1.996 -14.222  0.00  0.00     0.063 H 
ENDROOT
BRANCH   1  22
ATOM     22  O   LIG d   1       5.426   0.730  -7.280  0.00  0.00    -0.482 OA
BRANCH  22  23
ATOM     23  C   LIG d   1       6.529   0.065  -6.661  0.00  0.00     0.165 C 
ATOM     24  H   LIG d   1       7.423   0.680  -6.755  0.00  0.00     0.080 H 
ATOM     25  H   LIG d   1       6.695  -0.895  -7.150  0.00  0.00     0.080 H 
BRANCH  23  26
ATOM     26  C   LIG d   1       6.225  -0.160  -5.203  0.00  0.00     0.251 C 
ATOM     27  N   LIG d   1       4.984   0.073  -4.730  0.00  0.00    -0.305 N 
ATOM     28  H   LIG d   1       4.287   0.386  -5.328  0.00  0.00     0.149 HD
ATOM     29  O   LIG d   1       7.095  -0.551  -4.454  0.00  0.00    -0.272 OA
BRANCH  27  30
ATOM     30  CA  LIG d   1       4.688  -0.146  -3.312  0.00  0.00     0.062 C 
ATOM     31  HA  LIG d   1       5.529  -0.653  -2.839  0.00  0.00     0.056 H 
BRANCH  30  32
ATOM     32  C   LIG d   1       3.432  -1.011  -3.181  0.00  0.00    -0.032 C 
ATOM     33  H   LIG d   1       3.079  -1.291  -4.172  0.00  0.00     0.028 H 
ATOM     34  H   LIG d   1       2.655  -0.447  -2.665  0.00  0.00     0.028 H 
BRANCH  32  35
ATOM     35  C   LIG d   1       3.764  -2.272  -2.382  0.00  0.00    -0.063 C 
ATOM     36  H   LIG d   1       2.963  -2.472  -1.669  0.00  0.00     0.023 H 
ATOM     37  H   LIG d   1       4.700  -2.126  -1.843  0.00  0.00     0.023 H 
ATOM     38  H   LIG d   1       3.864  -3.118  -3.062  0.00  0.00     0.023 H 
ENDBRANCH  32  35
ENDBRANCH  30  32
BRANCH  30  39
ATOM     39  C   LIG d   1       4.456   1.181  -2.636  0.00  0.00     0.062 C 
ATOM     40  O   LIG d   1       4.826   1.352  -1.500  0.00  0.00    -0.548 OA
ATOM     41  OXT LIG d   1       3.838   2.173  -3.298  0.00  0.00    -0.548 OA
ENDBRANCH  30  39
ENDBRANCH  27  30
ENDBRANCH  23  26
ENDBRANCH  22  23
ENDBRANCH   1  22
BRANCH  15  42
ATOM     42  C   LIG d   1       2.790  -0.138  -7.744  0.00  0.00    -0.033 C 
ATOM     43  H   LIG d   1       3.032   0.594  -6.973  0.00  0.00     0.028 H 
ATOM     44  H   LIG d   1       1.810   0.087  -8.164  0.00  0.00     0.028 H 
ATOM     45  H   LIG d   1       2.776  -1.136  -7.305  0.00  0.00     0.028 H 
ENDBRANCH  15  42
TORSDOF 8
ENDMDL
MODEL 10
REMARK VINA RESULT:      -6.2      6.582      9.253
REMARK  8 active torsions:
REMARK  status: ('A' for Active; 'I' for Inactive)
REMARK    1  A    between atoms: C_1  and  C_2 
REMARK    2  A    between atoms: C_2  and  CA_3 
REMARK    3  A    between atoms: CA_3  and  C_5 
REMARK    4  A    between atoms: CA_3  and  N_7 
REMARK       I    between atoms: N_7  and  C_8 
REMARK    5  A    between atoms: C_8  and  C_10 
REMARK    6  A    between atoms: C_10  and  O_11 
REMARK    7  A    between atoms: O_11  and  C_12 
REMARK    8  A    between atoms: C_26  and  C_27 
ROOT
ATOM      1  C   LIG d   1       9.118   2.069  -5.078  0.00  0.00     0.128 A 
ATOM      2  C   LIG d   1       9.244   2.255  -3.705  0.00  0.00    -0.019 A 
ATOM      3  C   LIG d   1       9.509   3.508  -3.200  0.00  0.00    -0.047 A 
ATOM      4  C   LIG d   1       9.639   4.593  -4.066  0.00  0.00     0.026 A 
ATOM      5  C   LIG d   1       9.917   5.944  -3.542  0.00  0.00    -0.000 A 
ATOM      6  C   LIG d   1      10.059   6.194  -2.182  0.00  0.00    -0.053 A 
ATOM      7  C   LIG d   1      10.318   7.478  -1.748  0.00  0.00    -0.061 A 
ATOM      8  C   LIG d   1      10.436   8.520  -2.656  0.00  0.00    -0.061 A 
ATOM      9  C   LIG d   1      10.299   8.293  -4.009  0.00  0.00    -0.047 A 
ATOM     10  C   LIG d   1      10.037   7.003  -4.468  0.00  0.00     0.067 A 
ATOM     11  C   LIG d   1       9.880   6.705  -5.898  0.00  0.00     0.345 A 
ATOM     12  O   LIG d   1       9.979   7.600  -6.717  0.00  0.00    -0.244 OA
ATOM     13  O   LIG d   1       9.628   5.452  -6.306  0.00  0.00    -0.421 OA
ATOM     14  C   LIG d   1       9.506   4.412  -5.450  0.00  0.00     0.146 A 
ATOM     15  C   LIG d   1       9.245   3.141  -5.946  0.00  0.00     0.034 A 
ATOM     16  H   LIG d   1       9.140   1.414  -3.035  0.00  0.00     0.065 H 
ATOM     17  H   LIG d   1       9.611   3.652  -2.134  0.00  0.00     0.063 H 
ATOM     18  H   LIG d   1       9.967   5.387  -1.470  0.00  0.00     0.062 H 
ATOM     19  H   LIG d   1      10.429   7.673  -0.693  0.00  0.00     0.062 H 
ATOM     20  H   LIG d   1      10.639   9.519  -2.299  0.00  0.00     0.062 H 
ATOM     21  H   LIG d   1      10.393   9.110  -4.710  0.00  0.00     0.063 H 
ENDROOT
BRANCH   1  22
ATOM     22  O   LIG d   1       8.862   0.829  -5.571  0.00  0.00    -0.482 OA
BRANCH  22  23
ATOM     23  C   LIG d   1       8.488  -0.178  -4.629  0.00  0.00     0.165 C 
ATOM     24  H   LIG d   1       8.943   0.041  -3.663  0.00  0.00     0.080 H 
ATOM     25  H   LIG d   1       8.831  -1.151  -4.981  0.00  0.00     0.080 H 
BRANCH  23  26
ATOM     26  C   LIG d   1       6.988  -0.197  -4.484  0.00  0.00     0.251 C 
ATOM     27  N   LIG d   1       6.426  -0.677  -3.357  0.00  0.00    -0.305 N 
ATOM     28  H   LIG d   1       6.986  -1.009  -2.638  0.00  0.00     0.149 HD
ATOM     29  O   LIG d   1       6.286   0.219  -5.382  0.00  0.00    -0.272 OA
BRANCH  27  30
ATOM     30  CA  LIG d   1       4.968  -0.695  -3.216  0.00  0.00     0.062 C 
ATOM     31  HA  LIG d   1       4.515  -0.163  -4.053  0.00  0.00     0.056 H 
BRANCH  30  32
ATOM     32  C   LIG d   1       4.573  -0.011  -1.905  0.00  0.00    -0.032 C 
ATOM     33  H   LIG d   1       5.471   0.235  -1.340  0.00  0.00     0.028 H 
ATOM     34  H   LIG d   1       3.948  -0.684  -1.318  0.00  0.00     0.028 H 
BRANCH  32  35
ATOM     35  C   LIG d   1       3.795   1.270  -2.212  0.00  0.00    -0.063 C 
ATOM     36  H   LIG d   1       2.972   1.041  -2.890  0.00  0.00     0.023 H 
ATOM     37  H   LIG d   1       4.460   1.995  -2.681  0.00  0.00     0.023 H 
ATOM     38  H   LIG d   1       3.399   1.686  -1.286  0.00  0.00     0.023 H 
ENDBRANCH  32  35
ENDBRANCH  30  32
BRANCH  30  39
ATOM     39  C   LIG d   1       4.482  -2.121  -3.205  0.00  0.00     0.062 C 
ATOM     40  O   LIG d   1       3.579  -2.446  -2.472  0.00  0.00    -0.548 OA
ATOM     41  OXT LIG d   1       5.054  -3.032  -4.009  0.00  0.00    -0.548 OA
ENDBRANCH  30  39
ENDBRANCH  27  30
ENDBRANCH  23  26
ENDBRANCH  22  23
ENDBRANCH   1  22
BRANCH  15  42
ATOM     42  C   LIG d   1       9.099   2.928  -7.430  0.00  0.00    -0.033 C 
ATOM     43  H   LIG d   1       8.092   2.574  -7.650  0.00  0.00     0.028 H 
ATOM     44  H   LIG d   1       9.276   3.869  -7.951  0.00  0.00     0.028 H 
ATOM     45  H   LIG d   1       9.825   2.187  -7.763  0.00  0.00     0.028 H 
ENDBRANCH  15  42
TORSDOF 8
ENDMDL
