MODEL 1
REMARK VINA RESULT:      -6.9      0.000      0.000
REMARK  9 active torsions:
REMARK  status: ('A' for Active; 'I' for Inactive)
REMARK    1  A    between atoms: C_1  and  O_2 
REMARK    2  A    between atoms: O_2  and  C_3 
REMARK    3  A    between atoms: C_7  and  C_11 
REMARK    4  A    between atoms: C_8  and  O_9 
REMARK    5  A    between atoms: O_9  and  C_10 
REMARK    6  A    between atoms: N_30  and  C_33 
REMARK    7  A    between atoms: C_33  and  C_34 
REMARK    8  A    between atoms: C_34  and  C_35 
REMARK    9  A    between atoms: C_35  and  N_36 
ROOT
ATOM      1  C   LIG d   1       7.013  -1.646  -5.024  0.00  0.00     0.096 C 
ATOM      2  H   LIG d   1       7.648  -0.772  -5.170  0.00  0.00     0.062 H 
ATOM      3  C   LIG d   1       7.843  -2.805  -4.519  0.00  0.00     0.046 A 
ATOM      4  C   LIG d   1       8.156  -3.882  -5.270  0.00  0.00    -0.015 A 
ATOM      5  C   LIG d   1       8.957  -4.759  -4.440  0.00  0.00     0.003 A 
ATOM      6  C   LIG d   1       9.557  -5.999  -4.676  0.00  0.00    -0.052 A 
ATOM      7  C   LIG d   1      10.261  -6.556  -3.637  0.00  0.00    -0.061 A 
ATOM      8  C   LIG d   1      10.379  -5.927  -2.409  0.00  0.00    -0.060 A 
ATOM      9  C   LIG d   1       9.795  -4.700  -2.147  0.00  0.00    -0.038 A 
ATOM     10  C   LIG d   1       9.073  -4.111  -3.183  0.00  0.00     0.047 A 
ATOM     11  N   LIG d   1       8.386  -2.934  -3.268  0.00  0.00    -0.356 N 
ATOM     12  H   LIG d   1       8.296  -2.288  -2.550  0.00  0.00     0.166 HD
ATOM     13  C   LIG d   1       7.724  -4.085  -6.700  0.00  0.00     0.002 C 
ATOM     14  C   LIG d   1       7.284  -2.734  -7.279  0.00  0.00     0.107 A 
ATOM     15  H   LIG d   1       8.175  -2.127  -7.440  0.00  0.00     0.060 H 
ATOM     16  N   LIG d   1       6.419  -2.056  -6.315  0.00  0.00    -0.276 N 
ATOM     17  C   LIG d   1       5.133  -1.789  -6.549  0.00  0.00     0.234 A 
ATOM     18  O   LIG d   1       4.488  -1.286  -5.654  0.00  0.00    -0.274 OA
ATOM     19  C   LIG d   1       4.435  -2.065  -7.841  0.00  0.00     0.091 A 
ATOM     20  N   LIG d   1       5.327  -2.649  -8.830  0.00  0.00    -0.291 N 
ATOM     21  C   LIG d   1       6.602  -2.947  -8.592  0.00  0.00     0.237 A 
ATOM     22  O   LIG d   1       7.251  -3.425  -9.498  0.00  0.00    -0.274 OA
ATOM     23  H   LIG d   1       9.471  -6.497  -5.630  0.00  0.00     0.062 H 
ATOM     24  H   LIG d   1      10.738  -7.514  -3.781  0.00  0.00     0.062 H 
ATOM     25  H   LIG d   1      10.947  -6.411  -1.627  0.00  0.00     0.062 H 
ATOM     26  H   LIG d   1       9.893  -4.220  -1.184  0.00  0.00     0.064 H 
ATOM     27  H   LIG d   1       6.890  -4.786  -6.733  0.00  0.00     0.034 H 
ATOM     28  H   LIG d   1       8.557  -4.479  -7.281  0.00  0.00     0.034 H 
ATOM     29  H   LIG d   1       4.032  -1.131  -8.235  0.00  0.00     0.056 H 
ATOM     30  H   LIG d   1       3.612  -2.755  -7.656  0.00  0.00     0.056 H 
ENDROOT
BRANCH   1  31
ATOM     31  C   LIG d   1       5.921  -1.328  -4.036  0.00  0.00     0.024 A 
ATOM     32  C   LIG d   1       5.206  -2.351  -3.443  0.00  0.00    -0.053 A 
ATOM     33  C   LIG d   1       4.207  -2.063  -2.532  0.00  0.00    -0.058 A 
ATOM     34  H   LIG d   1       5.431  -3.378  -3.689  0.00  0.00     0.062 H 
ATOM     35  C   LIG d   1       3.911  -0.750  -2.218  0.00  0.00    -0.016 A 
ATOM     36  H   LIG d   1       3.653  -2.866  -2.068  0.00  0.00     0.062 H 
ATOM     37  C   LIG d   1       4.621   0.281  -2.812  0.00  0.00     0.162 A 
ATOM     38  H   LIG d   1       3.128  -0.527  -1.508  0.00  0.00     0.066 H 
ATOM     39  C   LIG d   1       5.631  -0.009  -3.726  0.00  0.00     0.167 A 
BRANCH  37  40
ATOM     40  O   LIG d   1       4.333   1.574  -2.504  0.00  0.00    -0.491 OA
BRANCH  40  41
ATOM     41  C   LIG d   1       3.224   2.170  -3.180  0.00  0.00     0.079 C 
ATOM     42  H   LIG d   1       2.615   2.722  -2.464  0.00  0.00     0.066 H 
ATOM     43  H   LIG d   1       3.591   2.853  -3.947  0.00  0.00     0.066 H 
ATOM     44  H   LIG d   1       2.621   1.391  -3.646  0.00  0.00     0.066 H 
ENDBRANCH  40  41
ENDBRANCH  37  40
BRANCH  39  45
ATOM     45  O   LIG d   1       6.331   0.999  -4.311  0.00  0.00    -0.491 OA
BRANCH  45  46
ATOM     46  C   LIG d   1       7.535   1.415  -3.662  0.00  0.00     0.079 C 
ATOM     47  H   LIG d   1       7.385   1.412  -2.582  0.00  0.00     0.066 H 
ATOM     48  H   LIG d   1       8.342   0.728  -3.919  0.00  0.00     0.066 H 
ATOM     49  H   LIG d   1       7.796   2.421  -3.991  0.00  0.00     0.066 H 
ENDBRANCH  45  46
ENDBRANCH  39  45
ENDBRANCH   1  31
BRANCH  20  50
ATOM     50  C   LIG d   1       4.793  -2.916 -10.167  0.00  0.00     0.017 C 
ATOM     51  H   LIG d   1       4.099  -3.755 -10.121  0.00  0.00     0.046 H 
ATOM     52  H   LIG d   1       5.612  -3.158 -10.845  0.00  0.00     0.046 H 
BRANCH  50  53
ATOM     53  C   LIG d   1       4.057  -1.676 -10.679  0.00  0.00    -0.019 C 
ATOM     54  H   LIG d   1       3.457  -1.251  -9.874  0.00  0.00     0.030 H 
ATOM     55  H   LIG d   1       3.408  -1.954 -11.509  0.00  0.00     0.030 H 
BRANCH  53  56
ATOM     56  C   LIG d   1       5.076  -0.638 -11.155  0.00  0.00     0.026 C 
ATOM     57  H   LIG d   1       4.887  -0.398 -12.202  0.00  0.00     0.049 H 
ATOM     58  H   LIG d   1       6.083  -1.043 -11.051  0.00  0.00     0.049 H 
BRANCH  56  59
ATOM     59  N   LIG d   1       4.951   0.576 -10.345  0.00  0.00    -0.337 N 
ATOM     60  C   LIG d   1       5.819   1.004  -9.403  0.00  0.00     0.096 A 
ATOM     61  N   LIG d   1       5.370   2.121  -8.898  0.00  0.00    -0.244 NA
ATOM     62  H   LIG d   1       6.732   0.505  -9.116  0.00  0.00     0.103 H 
ATOM     63  C   LIG d   1       4.212   2.442  -9.493  0.00  0.00     0.045 A 
ATOM     64  C   LIG d   1       3.931   1.487 -10.401  0.00  0.00     0.024 A 
ATOM     65  H   LIG d   1       3.608   3.312  -9.280  0.00  0.00     0.085 H 
ATOM     66  H   LIG d   1       3.070   1.452 -11.052  0.00  0.00     0.083 H 
ENDBRANCH  56  59
ENDBRANCH  53  56
ENDBRANCH  50  53
ENDBRANCH  20  50
TORSDOF 9
ENDMDL
MODEL 2
REMARK VINA RESULT:      -6.7      3.022      7.482
REMARK  9 active torsions:
REMARK  status: ('A' for Active; 'I' for Inactive)
REMARK    1  A    between atoms: C_1  and  O_2 
REMARK    2  A    between atoms: O_2  and  C_3 
REMARK    3  A    between atoms: C_7  and  C_11 
REMARK    4  A    between atoms: C_8  and  O_9 
REMARK    5  A    between atoms: O_9  and  C_10 
REMARK    6  A    between atoms: N_30  and  C_33 
REMARK    7  A    between atoms: C_33  and  C_34 
REMARK    8  A    between atoms: C_34  and  C_35 
REMARK    9  A    between atoms: C_35  and  N_36 
ROOT
ATOM      1  C   LIG d   1       7.172   0.480  -8.606  0.00  0.00     0.096 C 
ATOM      2  H   LIG d   1       7.777  -0.190  -9.216  0.00  0.00     0.062 H 
ATOM      3  C   LIG d   1       7.977   1.707  -8.239  0.00  0.00     0.046 A 
ATOM      4  C   LIG d   1       8.449   1.946  -6.997  0.00  0.00    -0.015 A 
ATOM      5  C   LIG d   1       9.164   3.206  -7.051  0.00  0.00     0.003 A 
ATOM      6  C   LIG d   1       9.853   3.945  -6.085  0.00  0.00    -0.052 A 
ATOM      7  C   LIG d   1      10.426   5.123  -6.498  0.00  0.00    -0.061 A 
ATOM      8  C   LIG d   1      10.333   5.567  -7.806  0.00  0.00    -0.060 A 
ATOM      9  C   LIG d   1       9.656   4.856  -8.782  0.00  0.00    -0.038 A 
ATOM     10  C   LIG d   1       9.064   3.656  -8.393  0.00  0.00     0.047 A 
ATOM     11  N   LIG d   1       8.339   2.726  -9.080  0.00  0.00    -0.356 N 
ATOM     12  H   LIG d   1       8.113   2.780 -10.022  0.00  0.00     0.166 HD
ATOM     13  C   LIG d   1       8.240   1.040  -5.811  0.00  0.00     0.002 C 
ATOM     14  C   LIG d   1       7.821  -0.347  -6.318  0.00  0.00     0.107 A 
ATOM     15  H   LIG d   1       8.695  -0.824  -6.762  0.00  0.00     0.060 H 
ATOM     16  N   LIG d   1       6.793  -0.193  -7.345  0.00  0.00    -0.276 N 
ATOM     17  C   LIG d   1       5.543  -0.636  -7.199  0.00  0.00     0.234 A 
ATOM     18  O   LIG d   1       4.750  -0.394  -8.084  0.00  0.00    -0.274 OA
ATOM     19  C   LIG d   1       5.054  -1.412  -6.019  0.00  0.00     0.091 A 
ATOM     20  N   LIG d   1       6.108  -1.647  -5.046  0.00  0.00    -0.291 N 
ATOM     21  C   LIG d   1       7.349  -1.180  -5.170  0.00  0.00     0.237 A 
ATOM     22  O   LIG d   1       8.146  -1.447  -4.295  0.00  0.00    -0.274 OA
ATOM     23  H   LIG d   1       9.931   3.607  -5.063  0.00  0.00     0.062 H 
ATOM     24  H   LIG d   1      10.967   5.722  -5.780  0.00  0.00     0.062 H 
ATOM     25  H   LIG d   1      10.805   6.500  -8.076  0.00  0.00     0.062 H 
ATOM     26  H   LIG d   1       9.590   5.213  -9.799  0.00  0.00     0.064 H 
ATOM     27  H   LIG d   1       7.455   1.448  -5.174  0.00  0.00     0.034 H 
ATOM     28  H   LIG d   1       9.167   0.959  -5.245  0.00  0.00     0.034 H 
ATOM     29  H   LIG d   1       4.667  -2.372  -6.360  0.00  0.00     0.056 H 
ATOM     30  H   LIG d   1       4.249  -0.855  -5.542  0.00  0.00     0.056 H 
ENDROOT
BRANCH   1  31
ATOM     31  C   LIG d   1       5.934   0.887  -9.362  0.00  0.00     0.024 A 
ATOM     32  C   LIG d   1       5.201   1.983  -8.949  0.00  0.00    -0.053 A 
ATOM     33  C   LIG d   1       4.067   2.362  -9.644  0.00  0.00    -0.058 A 
ATOM     34  H   LIG d   1       5.516   2.548  -8.085  0.00  0.00     0.062 H 
ATOM     35  C   LIG d   1       3.656   1.639 -10.748  0.00  0.00    -0.016 A 
ATOM     36  H   LIG d   1       3.500   3.222  -9.321  0.00  0.00     0.062 H 
ATOM     37  C   LIG d   1       4.383   0.536 -11.164  0.00  0.00     0.162 A 
ATOM     38  H   LIG d   1       2.768   1.935 -11.287  0.00  0.00     0.066 H 
ATOM     39  C   LIG d   1       5.528   0.157 -10.468  0.00  0.00     0.167 A 
BRANCH  37  40
ATOM     40  O   LIG d   1       3.981  -0.176 -12.250  0.00  0.00    -0.491 OA
BRANCH  40  41
ATOM     41  C   LIG d   1       2.885  -1.075 -12.067  0.00  0.00     0.079 C 
ATOM     42  H   LIG d   1       3.230  -2.101 -12.199  0.00  0.00     0.066 H 
ATOM     43  H   LIG d   1       2.481  -0.955 -11.061  0.00  0.00     0.066 H 
ATOM     44  H   LIG d   1       2.108  -0.856 -12.799  0.00  0.00     0.066 H 
ENDBRANCH  40  41
ENDBRANCH  37  40
BRANCH  39  45
ATOM     45  O   LIG d   1       6.246  -0.924 -10.873  0.00  0.00    -0.491 OA
BRANCH  45  46
ATOM     46  C   LIG d   1       7.223  -0.709 -11.894  0.00  0.00     0.079 C 
ATOM     47  H   LIG d   1       7.485  -1.663 -12.353  0.00  0.00     0.066 H 
ATOM     48  H   LIG d   1       6.814  -0.042 -12.653  0.00  0.00     0.066 H 
ATOM     49  H   LIG d   1       8.113  -0.259 -11.456  0.00  0.00     0.066 H 
ENDBRANCH  45  46
ENDBRANCH  39  45
ENDBRANCH   1  31
BRANCH  20  50
ATOM     50  C   LIG d   1       5.787  -2.450  -3.863  0.00  0.00     0.017 C 
ATOM     51  H   LIG d   1       6.194  -1.968  -2.974  0.00  0.00     0.046 H 
ATOM     52  H   LIG d   1       6.223  -3.443  -3.969  0.00  0.00     0.046 H 
BRANCH  50  53
ATOM     53  C   LIG d   1       4.268  -2.570  -3.726  0.00  0.00    -0.019 C 
ATOM     54  H   LIG d   1       3.979  -3.619  -3.799  0.00  0.00     0.030 H 
ATOM     55  H   LIG d   1       3.785  -2.003  -4.521  0.00  0.00     0.030 H 
BRANCH  53  56
ATOM     56  C   LIG d   1       3.833  -2.017  -2.367  0.00  0.00     0.026 C 
ATOM     57  H   LIG d   1       4.482  -2.418  -1.588  0.00  0.00     0.049 H 
ATOM     58  H   LIG d   1       2.802  -2.309  -2.168  0.00  0.00     0.049 H 
BRANCH  56  59
ATOM     59  N   LIG d   1       3.933  -0.555  -2.380  0.00  0.00    -0.337 N 
ATOM     60  C   LIG d   1       4.733   0.201  -1.598  0.00  0.00     0.096 A 
ATOM     61  N   LIG d   1       4.545   1.457  -1.898  0.00  0.00    -0.244 NA
ATOM     62  H   LIG d   1       5.416  -0.172  -0.849  0.00  0.00     0.103 H 
ATOM     63  C   LIG d   1       3.627   1.547  -2.872  0.00  0.00     0.045 A 
ATOM     64  C   LIG d   1       3.230   0.299  -3.187  0.00  0.00     0.024 A 
ATOM     65  H   LIG d   1       3.267   2.460  -3.323  0.00  0.00     0.085 H 
ATOM     66  H   LIG d   1       2.503   0.025  -3.936  0.00  0.00     0.083 H 
ENDBRANCH  56  59
ENDBRANCH  53  56
ENDBRANCH  50  53
ENDBRANCH  20  50
TORSDOF 9
ENDMDL
MODEL 3
REMARK VINA RESULT:      -6.5      4.026      7.214
REMARK  9 active torsions:
REMARK  status: ('A' for Active; 'I' for Inactive)
REMARK    1  A    between atoms: C_1  and  O_2 
REMARK    2  A    between atoms: O_2  and  C_3 
REMARK    3  A    between atoms: C_7  and  C_11 
REMARK    4  A    between atoms: C_8  and  O_9 
REMARK    5  A    between atoms: O_9  and  C_10 
REMARK    6  A    between atoms: N_30  and  C_33 
REMARK    7  A    between atoms: C_33  and  C_34 
REMARK    8  A    between atoms: C_34  and  C_35 
REMARK    9  A    between atoms: C_35  and  N_36 
ROOT
ATOM      1  C   LIG d   1       8.302  -2.918  -4.941  0.00  0.00     0.096 C 
ATOM      2  H   LIG d   1       7.830  -3.342  -5.827  0.00  0.00     0.062 H 
ATOM      3  C   LIG d   1       7.312  -2.048  -4.199  0.00  0.00     0.046 A 
ATOM      4  C   LIG d   1       7.381  -0.700  -4.167  0.00  0.00    -0.015 A 
ATOM      5  C   LIG d   1       6.265  -0.238  -3.365  0.00  0.00     0.003 A 
ATOM      6  C   LIG d   1       5.833   1.037  -2.991  0.00  0.00    -0.052 A 
ATOM      7  C   LIG d   1       4.707   1.105  -2.207  0.00  0.00    -0.061 A 
ATOM      8  C   LIG d   1       4.023  -0.030  -1.802  0.00  0.00    -0.060 A 
ATOM      9  C   LIG d   1       4.430  -1.304  -2.157  0.00  0.00    -0.038 A 
ATOM     10  C   LIG d   1       5.571  -1.404  -2.952  0.00  0.00     0.047 A 
ATOM     11  N   LIG d   1       6.234  -2.478  -3.473  0.00  0.00    -0.356 N 
ATOM     12  H   LIG d   1       5.978  -3.405  -3.347  0.00  0.00     0.166 HD
ATOM     13  C   LIG d   1       8.443   0.121  -4.852  0.00  0.00     0.002 C 
ATOM     14  C   LIG d   1       9.130  -0.748  -5.915  0.00  0.00     0.107 A 
ATOM     15  H   LIG d   1       8.436  -0.881  -6.744  0.00  0.00     0.060 H 
ATOM     16  N   LIG d   1       9.436  -2.057  -5.340  0.00  0.00    -0.276 N 
ATOM     17  C   LIG d   1      10.681  -2.506  -5.169  0.00  0.00     0.234 A 
ATOM     18  O   LIG d   1      10.825  -3.577  -4.619  0.00  0.00    -0.274 OA
ATOM     19  C   LIG d   1      11.909  -1.780  -5.613  0.00  0.00     0.091 A 
ATOM     20  N   LIG d   1      11.592  -0.523  -6.272  0.00  0.00    -0.291 N 
ATOM     21  C   LIG d   1      10.355  -0.054  -6.417  0.00  0.00     0.237 A 
ATOM     22  O   LIG d   1      10.213   1.005  -6.992  0.00  0.00    -0.274 OA
ATOM     23  H   LIG d   1       6.358   1.927  -3.302  0.00  0.00     0.062 H 
ATOM     24  H   LIG d   1       4.342   2.073  -1.898  0.00  0.00     0.062 H 
ATOM     25  H   LIG d   1       3.142   0.083  -1.188  0.00  0.00     0.062 H 
ATOM     26  H   LIG d   1       3.889  -2.181  -1.834  0.00  0.00     0.064 H 
ATOM     27  H   LIG d   1       9.179   0.451  -4.118  0.00  0.00     0.034 H 
ATOM     28  H   LIG d   1       7.985   0.987  -5.327  0.00  0.00     0.034 H 
ATOM     29  H   LIG d   1      12.467  -2.412  -6.304  0.00  0.00     0.056 H 
ATOM     30  H   LIG d   1      12.530  -1.575  -4.741  0.00  0.00     0.056 H 
ENDROOT
BRANCH   1  31
ATOM     31  C   LIG d   1       8.790  -4.023  -4.040  0.00  0.00     0.024 A 
ATOM     32  C   LIG d   1       9.241  -3.728  -2.768  0.00  0.00    -0.053 A 
ATOM     33  C   LIG d   1       9.684  -4.740  -1.936  0.00  0.00    -0.058 A 
ATOM     34  H   LIG d   1       9.243  -2.707  -2.420  0.00  0.00     0.062 H 
ATOM     35  C   LIG d   1       9.689  -6.050  -2.379  0.00  0.00    -0.016 A 
ATOM     36  H   LIG d   1      10.032  -4.507  -0.941  0.00  0.00     0.062 H 
ATOM     37  C   LIG d   1       9.243  -6.352  -3.655  0.00  0.00     0.162 A 
ATOM     38  H   LIG d   1      10.040  -6.839  -1.729  0.00  0.00     0.066 H 
ATOM     39  C   LIG d   1       8.792  -5.334  -4.491  0.00  0.00     0.167 A 
BRANCH  37  40
ATOM     40  O   LIG d   1       9.246  -7.639  -4.093  0.00  0.00    -0.491 OA
BRANCH  40  41
ATOM     41  C   LIG d   1       8.325  -8.537  -3.471  0.00  0.00     0.079 C 
ATOM     42  H   LIG d   1       7.695  -7.987  -2.772  0.00  0.00     0.066 H 
ATOM     43  H   LIG d   1       7.699  -9.001  -4.235  0.00  0.00     0.066 H 
ATOM     44  H   LIG d   1       8.875  -9.310  -2.935  0.00  0.00     0.066 H 
ENDBRANCH  40  41
ENDBRANCH  37  40
BRANCH  39  45
ATOM     45  O   LIG d   1       8.352  -5.624  -5.744  0.00  0.00    -0.491 OA
BRANCH  45  46
ATOM     46  C   LIG d   1       6.971  -5.966  -5.885  0.00  0.00     0.079 C 
ATOM     47  H   LIG d   1       6.745  -6.828  -5.257  0.00  0.00     0.066 H 
ATOM     48  H   LIG d   1       6.355  -5.121  -5.577  0.00  0.00     0.066 H 
ATOM     49  H   LIG d   1       6.762  -6.209  -6.926  0.00  0.00     0.066 H 
ENDBRANCH  45  46
ENDBRANCH  39  45
ENDBRANCH   1  31
BRANCH  20  50
ATOM     50  C   LIG d   1      12.699   0.268  -6.815  0.00  0.00     0.017 C 
ATOM     51  H   LIG d   1      12.303   1.052  -7.461  0.00  0.00     0.046 H 
ATOM     52  H   LIG d   1      13.361  -0.378  -7.391  0.00  0.00     0.046 H 
BRANCH  50  53
ATOM     53  C   LIG d   1      13.482   0.906  -5.665  0.00  0.00    -0.019 C 
ATOM     54  H   LIG d   1      14.549   0.752  -5.823  0.00  0.00     0.030 H 
ATOM     55  H   LIG d   1      13.183   0.446  -4.723  0.00  0.00     0.030 H 
BRANCH  53  56
ATOM     56  C   LIG d   1      13.185   2.406  -5.616  0.00  0.00     0.026 C 
ATOM     57  H   LIG d   1      12.922   2.757  -6.614  0.00  0.00     0.049 H 
ATOM     58  H   LIG d   1      14.068   2.940  -5.264  0.00  0.00     0.049 H 
BRANCH  56  59
ATOM     59  N   LIG d   1      12.068   2.654  -4.701  0.00  0.00    -0.337 N 
ATOM     60  C   LIG d   1      11.772   1.948  -3.588  0.00  0.00     0.096 A 
ATOM     61  N   LIG d   1      10.709   2.466  -3.035  0.00  0.00    -0.244 NA
ATOM     62  H   LIG d   1      12.325   1.098  -3.216  0.00  0.00     0.103 H 
ATOM     63  C   LIG d   1      10.291   3.508  -3.769  0.00  0.00     0.045 A 
ATOM     64  C   LIG d   1      11.128   3.642  -4.817  0.00  0.00     0.024 A 
ATOM     65  H   LIG d   1       9.434   4.130  -3.559  0.00  0.00     0.085 H 
ATOM     66  H   LIG d   1      11.071   4.389  -5.594  0.00  0.00     0.083 H 
ENDBRANCH  56  59
ENDBRANCH  53  56
ENDBRANCH  50  53
ENDBRANCH  20  50
TORSDOF 9
ENDMDL
MODEL 4
REMARK VINA RESULT:      -6.4      3.834      7.553
REMARK  9 active torsions:
REMARK  status: ('A' for Active; 'I' for Inactive)
REMARK    1  A    between atoms: C_1  and  O_2 
REMARK    2  A    between atoms: O_2  and  C_3 
REMARK    3  A    between atoms: C_7  and  C_11 
REMARK    4  A    between atoms: C_8  and  O_9 
REMARK    5  A    between atoms: O_9  and  C_10 
REMARK    6  A    between atoms: N_30  and  C_33 
REMARK    7  A    between atoms: C_33  and  C_34 
REMARK    8  A    between atoms: C_34  and  C_35 
REMARK    9  A    between atoms: C_35  and  N_36 
ROOT
ATOM      1  C   LIG d   1       5.723  -1.754  -7.277  0.00  0.00     0.096 C 
ATOM      2  H   LIG d   1       6.711  -1.384  -7.549  0.00  0.00     0.062 H 
ATOM      3  C   LIG d   1       5.352  -1.262  -5.896  0.00  0.00     0.046 A 
ATOM      4  C   LIG d   1       5.310  -2.059  -4.807  0.00  0.00    -0.015 A 
ATOM      5  C   LIG d   1       4.921  -1.224  -3.687  0.00  0.00     0.003 A 
ATOM      6  C   LIG d   1       4.719  -1.495  -2.331  0.00  0.00    -0.052 A 
ATOM      7  C   LIG d   1       4.348  -0.438  -1.536  0.00  0.00    -0.061 A 
ATOM      8  C   LIG d   1       4.179   0.840  -2.043  0.00  0.00    -0.060 A 
ATOM      9  C   LIG d   1       4.371   1.135  -3.382  0.00  0.00    -0.038 A 
ATOM     10  C   LIG d   1       4.748   0.082  -4.213  0.00  0.00     0.047 A 
ATOM     11  N   LIG d   1       5.015   0.019  -5.550  0.00  0.00    -0.356 N 
ATOM     12  H   LIG d   1       4.972   0.770  -6.163  0.00  0.00     0.166 HD
ATOM     13  C   LIG d   1       5.617  -3.534  -4.811  0.00  0.00     0.002 C 
ATOM     14  C   LIG d   1       6.390  -3.874  -6.093  0.00  0.00     0.107 A 
ATOM     15  H   LIG d   1       7.400  -3.476  -5.996  0.00  0.00     0.060 H 
ATOM     16  N   LIG d   1       5.737  -3.232  -7.232  0.00  0.00    -0.276 N 
ATOM     17  C   LIG d   1       5.164  -3.915  -8.225  0.00  0.00     0.234 A 
ATOM     18  O   LIG d   1       4.588  -3.285  -9.086  0.00  0.00    -0.274 OA
ATOM     19  C   LIG d   1       5.188  -5.404  -8.349  0.00  0.00     0.091 A 
ATOM     20  N   LIG d   1       5.925  -6.031  -7.264  0.00  0.00    -0.291 N 
ATOM     21  C   LIG d   1       6.470  -5.358  -6.253  0.00  0.00     0.237 A 
ATOM     22  O   LIG d   1       7.068  -5.990  -5.408  0.00  0.00    -0.274 OA
ATOM     23  H   LIG d   1       4.849  -2.487  -1.925  0.00  0.00     0.062 H 
ATOM     24  H   LIG d   1       4.183  -0.607  -0.483  0.00  0.00     0.062 H 
ATOM     25  H   LIG d   1       3.887   1.634  -1.372  0.00  0.00     0.062 H 
ATOM     26  H   LIG d   1       4.235   2.135  -3.766  0.00  0.00     0.064 H 
ATOM     27  H   LIG d   1       4.687  -4.101  -4.784  0.00  0.00     0.034 H 
ATOM     28  H   LIG d   1       6.224  -3.784  -3.941  0.00  0.00     0.034 H 
ATOM     29  H   LIG d   1       5.654  -5.676  -9.297  0.00  0.00     0.056 H 
ATOM     30  H   LIG d   1       4.163  -5.774  -8.341  0.00  0.00     0.056 H 
ENDROOT
BRANCH   1  31
ATOM     31  C   LIG d   1       4.703  -1.282  -8.280  0.00  0.00     0.024 A 
ATOM     32  C   LIG d   1       3.354  -1.426  -8.015  0.00  0.00    -0.053 A 
ATOM     33  C   LIG d   1       2.415  -0.989  -8.932  0.00  0.00    -0.058 A 
ATOM     34  H   LIG d   1       3.032  -1.877  -7.089  0.00  0.00     0.062 H 
ATOM     35  C   LIG d   1       2.822  -0.416 -10.122  0.00  0.00    -0.016 A 
ATOM     36  H   LIG d   1       1.363  -1.100  -8.719  0.00  0.00     0.062 H 
ATOM     37  C   LIG d   1       4.172  -0.273 -10.396  0.00  0.00     0.162 A 
ATOM     38  H   LIG d   1       2.087  -0.078 -10.838  0.00  0.00     0.066 H 
ATOM     39  C   LIG d   1       5.118  -0.708  -9.472  0.00  0.00     0.167 A 
BRANCH  37  40
ATOM     40  O   LIG d   1       4.575   0.291 -11.566  0.00  0.00    -0.491 OA
BRANCH  40  41
ATOM     41  C   LIG d   1       4.189  -0.371 -12.772  0.00  0.00     0.079 C 
ATOM     42  H   LIG d   1       3.187  -0.052 -13.060  0.00  0.00     0.066 H 
ATOM     43  H   LIG d   1       4.893  -0.118 -13.566  0.00  0.00     0.066 H 
ATOM     44  H   LIG d   1       4.195  -1.449 -12.614  0.00  0.00     0.066 H 
ENDBRANCH  40  41
ENDBRANCH  37  40
BRANCH  39  45
ATOM     45  O   LIG d   1       6.444  -0.569  -9.736  0.00  0.00    -0.491 OA
BRANCH  45  46
ATOM     46  C   LIG d   1       7.032  -1.523 -10.625  0.00  0.00     0.079 C 
ATOM     47  H   LIG d   1       6.253  -1.976 -11.238  0.00  0.00     0.066 H 
ATOM     48  H   LIG d   1       7.756  -1.021 -11.268  0.00  0.00     0.066 H 
ATOM     49  H   LIG d   1       7.535  -2.296 -10.045  0.00  0.00     0.066 H 
ENDBRANCH  45  46
ENDBRANCH  39  45
ENDBRANCH   1  31
BRANCH  20  50
ATOM     50  C   LIG d   1       6.083  -7.487  -7.289  0.00  0.00     0.017 C 
ATOM     51  H   LIG d   1       7.059  -7.754  -6.887  0.00  0.00     0.046 H 
ATOM     52  H   LIG d   1       6.002  -7.845  -8.316  0.00  0.00     0.046 H 
BRANCH  50  53
ATOM     53  C   LIG d   1       4.988  -8.133  -6.437  0.00  0.00    -0.019 C 
ATOM     54  H   LIG d   1       4.297  -8.675  -7.083  0.00  0.00     0.030 H 
ATOM     55  H   LIG d   1       4.446  -7.359  -5.893  0.00  0.00     0.030 H 
BRANCH  53  56
ATOM     56  C   LIG d   1       5.623  -9.106  -5.442  0.00  0.00     0.026 C 
ATOM     57  H   LIG d   1       6.112  -8.544  -4.646  0.00  0.00     0.049 H 
ATOM     58  H   LIG d   1       6.360  -9.723  -5.957  0.00  0.00     0.049 H 
BRANCH  56  59
ATOM     59  N   LIG d   1       4.584  -9.963  -4.866  0.00  0.00    -0.337 N 
ATOM     60  C   LIG d   1       3.990 -11.017  -5.467  0.00  0.00     0.096 A 
ATOM     61  N   LIG d   1       3.117 -11.530  -4.643  0.00  0.00    -0.244 NA
ATOM     62  H   LIG d   1       4.202 -11.375  -6.463  0.00  0.00     0.103 H 
ATOM     63  C   LIG d   1       3.122 -10.830  -3.499  0.00  0.00     0.045 A 
ATOM     64  C   LIG d   1       4.033  -9.844  -3.618  0.00  0.00     0.024 A 
ATOM     65  H   LIG d   1       2.504 -11.021  -2.635  0.00  0.00     0.085 H 
ATOM     66  H   LIG d   1       4.283  -9.106  -2.872  0.00  0.00     0.083 H 
ENDBRANCH  56  59
ENDBRANCH  53  56
ENDBRANCH  50  53
ENDBRANCH  20  50
TORSDOF 9
ENDMDL
MODEL 5
REMARK VINA RESULT:      -6.3      2.513      5.586
REMARK  9 active torsions:
REMARK  status: ('A' for Active; 'I' for Inactive)
REMARK    1  A    between atoms: C_1  and  O_2 
REMARK    2  A    between atoms: O_2  and  C_3 
REMARK    3  A    between atoms: C_7  and  C_11 
REMARK    4  A    between atoms: C_8  and  O_9 
REMARK    5  A    between atoms: O_9  and  C_10 
REMARK    6  A    between atoms: N_30  and  C_33 
REMARK    7  A    between atoms: C_33  and  C_34 
REMARK    8  A    between atoms: C_34  and  C_35 
REMARK    9  A    between atoms: C_35  and  N_36 
ROOT
ATOM      1  C   LIG d   1       4.772  -4.031  -5.920  0.00  0.00     0.096 C 
ATOM      2  H   LIG d   1       3.946  -4.726  -5.774  0.00  0.00     0.062 H 
ATOM      3  C   LIG d   1       4.622  -2.851  -4.987  0.00  0.00     0.046 A 
ATOM      4  C   LIG d   1       4.273  -1.613  -5.399  0.00  0.00    -0.015 A 
ATOM      5  C   LIG d   1       4.232  -0.770  -4.221  0.00  0.00     0.003 A 
ATOM      6  C   LIG d   1       3.936   0.583  -4.035  0.00  0.00    -0.052 A 
ATOM      7  C   LIG d   1       3.995   1.060  -2.749  0.00  0.00    -0.061 A 
ATOM      8  C   LIG d   1       4.329   0.248  -1.678  0.00  0.00    -0.060 A 
ATOM      9  C   LIG d   1       4.629  -1.094  -1.834  0.00  0.00    -0.038 A 
ATOM     10  C   LIG d   1       4.578  -1.607  -3.129  0.00  0.00     0.047 A 
ATOM     11  N   LIG d   1       4.808  -2.855  -3.631  0.00  0.00    -0.356 N 
ATOM     12  H   LIG d   1       5.065  -3.629  -3.105  0.00  0.00     0.166 HD
ATOM     13  C   LIG d   1       3.993  -1.233  -6.831  0.00  0.00     0.002 C 
ATOM     14  C   LIG d   1       3.732  -2.512  -7.639  0.00  0.00     0.107 A 
ATOM     15  H   LIG d   1       2.753  -2.898  -7.355  0.00  0.00     0.060 H 
ATOM     16  N   LIG d   1       4.748  -3.508  -7.304  0.00  0.00    -0.276 N 
ATOM     17  C   LIG d   1       5.641  -3.965  -8.184  0.00  0.00     0.234 A 
ATOM     18  O   LIG d   1       6.485  -4.738  -7.783  0.00  0.00    -0.274 OA
ATOM     19  C   LIG d   1       5.668  -3.591  -9.630  0.00  0.00     0.091 A 
ATOM     20  N   LIG d   1       4.593  -2.676  -9.978  0.00  0.00    -0.291 N 
ATOM     21  C   LIG d   1       3.720  -2.191  -9.098  0.00  0.00     0.237 A 
ATOM     22  O   LIG d   1       2.860  -1.439  -9.508  0.00  0.00    -0.274 OA
ATOM     23  H   LIG d   1       3.672   1.224  -4.863  0.00  0.00     0.062 H 
ATOM     24  H   LIG d   1       3.772   2.100  -2.565  0.00  0.00     0.062 H 
ATOM     25  H   LIG d   1       4.359   0.676  -0.687  0.00  0.00     0.062 H 
ATOM     26  H   LIG d   1       4.890  -1.718  -0.991  0.00  0.00     0.064 H 
ATOM     27  H   LIG d   1       4.854  -0.709  -7.244  0.00  0.00     0.034 H 
ATOM     28  H   LIG d   1       3.116  -0.588  -6.873  0.00  0.00     0.034 H 
ATOM     29  H   LIG d   1       5.573  -4.494 -10.234  0.00  0.00     0.056 H 
ATOM     30  H   LIG d   1       6.623  -3.116  -9.852  0.00  0.00     0.056 H 
ENDROOT
BRANCH   1  31
ATOM     31  C   LIG d   1       6.082  -4.728  -5.659  0.00  0.00     0.024 A 
ATOM     32  C   LIG d   1       7.246  -3.991  -5.546  0.00  0.00    -0.053 A 
ATOM     33  C   LIG d   1       8.449  -4.627  -5.300  0.00  0.00    -0.058 A 
ATOM     34  H   LIG d   1       7.215  -2.916  -5.644  0.00  0.00     0.062 H 
ATOM     35  C   LIG d   1       8.495  -6.003  -5.179  0.00  0.00    -0.016 A 
ATOM     36  H   LIG d   1       9.356  -4.047  -5.208  0.00  0.00     0.062 H 
ATOM     37  C   LIG d   1       7.333  -6.748  -5.296  0.00  0.00     0.162 A 
ATOM     38  H   LIG d   1       9.437  -6.498  -4.991  0.00  0.00     0.066 H 
ATOM     39  C   LIG d   1       6.120  -6.108  -5.538  0.00  0.00     0.167 A 
BRANCH  37  40
ATOM     40  O   LIG d   1       7.375  -8.101  -5.177  0.00  0.00    -0.491 OA
BRANCH  40  41
ATOM     41  C   LIG d   1       7.726  -8.629  -3.895  0.00  0.00     0.079 C 
ATOM     42  H   LIG d   1       7.913  -7.808  -3.202  0.00  0.00     0.066 H 
ATOM     43  H   LIG d   1       6.907  -9.242  -3.518  0.00  0.00     0.066 H 
ATOM     44  H   LIG d   1       8.624  -9.239  -3.986  0.00  0.00     0.066 H 
ENDBRANCH  40  41
ENDBRANCH  37  40
BRANCH  39  45
ATOM     45  O   LIG d   1       4.977  -6.834  -5.654  0.00  0.00    -0.491 OA
BRANCH  45  46
ATOM     46  C   LIG d   1       4.732  -7.463  -6.914  0.00  0.00     0.079 C 
ATOM     47  H   LIG d   1       4.402  -6.714  -7.635  0.00  0.00     0.066 H 
ATOM     48  H   LIG d   1       5.650  -7.930  -7.271  0.00  0.00     0.066 H 
ATOM     49  H   LIG d   1       3.959  -8.222  -6.797  0.00  0.00     0.066 H 
ENDBRANCH  45  46
ENDBRANCH  39  45
ENDBRANCH   1  31
BRANCH  20  50
ATOM     50  C   LIG d   1       4.460  -2.271 -11.379  0.00  0.00     0.017 C 
ATOM     51  H   LIG d   1       3.436  -1.950 -11.570  0.00  0.00     0.046 H 
ATOM     52  H   LIG d   1       4.703  -3.113 -12.027  0.00  0.00     0.046 H 
BRANCH  50  53
ATOM     53  C   LIG d   1       5.417  -1.112 -11.668  0.00  0.00    -0.019 C 
ATOM     54  H   LIG d   1       6.005  -1.340 -12.558  0.00  0.00     0.030 H 
ATOM     55  H   LIG d   1       6.084  -0.971 -10.818  0.00  0.00     0.030 H 
BRANCH  53  56
ATOM     56  C   LIG d   1       4.613   0.168 -11.904  0.00  0.00     0.026 C 
ATOM     57  H   LIG d   1       3.580  -0.090 -12.136  0.00  0.00     0.049 H 
ATOM     58  H   LIG d   1       5.046   0.721 -12.738  0.00  0.00     0.049 H 
BRANCH  56  59
ATOM     59  N   LIG d   1       4.650   0.997 -10.696  0.00  0.00    -0.337 N 
ATOM     60  C   LIG d   1       5.612   0.990  -9.748  0.00  0.00     0.096 A 
ATOM     61  N   LIG d   1       5.299   1.862  -8.829  0.00  0.00    -0.244 NA
ATOM     62  H   LIG d   1       6.494   0.367  -9.752  0.00  0.00     0.103 H 
ATOM     63  C   LIG d   1       4.137   2.449  -9.152  0.00  0.00     0.045 A 
ATOM     64  C   LIG d   1       3.714   1.921 -10.318  0.00  0.00     0.024 A 
ATOM     65  H   LIG d   1       3.629   3.210  -8.579  0.00  0.00     0.085 H 
ATOM     66  H   LIG d   1       2.813   2.182 -10.852  0.00  0.00     0.083 H 
ENDBRANCH  56  59
ENDBRANCH  53  56
ENDBRANCH  50  53
ENDBRANCH  20  50
TORSDOF 9
ENDMDL
MODEL 6
REMARK VINA RESULT:      -6.2      2.373      3.441
REMARK  9 active torsions:
REMARK  status: ('A' for Active; 'I' for Inactive)
REMARK    1  A    between atoms: C_1  and  O_2 
REMARK    2  A    between atoms: O_2  and  C_3 
REMARK    3  A    between atoms: C_7  and  C_11 
REMARK    4  A    between atoms: C_8  and  O_9 
REMARK    5  A    between atoms: O_9  and  C_10 
REMARK    6  A    between atoms: N_30  and  C_33 
REMARK    7  A    between atoms: C_33  and  C_34 
REMARK    8  A    between atoms: C_34  and  C_35 
REMARK    9  A    between atoms: C_35  and  N_36 
ROOT
ATOM      1  C   LIG d   1       6.929  -2.011  -5.188  0.00  0.00     0.096 C 
ATOM      2  H   LIG d   1       7.578  -1.196  -5.509  0.00  0.00     0.062 H 
ATOM      3  C   LIG d   1       7.757  -3.114  -4.569  0.00  0.00     0.046 A 
ATOM      4  C   LIG d   1       7.981  -4.304  -5.166  0.00  0.00    -0.015 A 
ATOM      5  C   LIG d   1       8.813  -5.079  -4.268  0.00  0.00     0.003 A 
ATOM      6  C   LIG d   1       9.355  -6.365  -4.352  0.00  0.00    -0.052 A 
ATOM      7  C   LIG d   1      10.116  -6.788  -3.290  0.00  0.00    -0.061 A 
ATOM      8  C   LIG d   1      10.344  -5.987  -2.183  0.00  0.00    -0.060 A 
ATOM      9  C   LIG d   1       9.818  -4.712  -2.073  0.00  0.00    -0.038 A 
ATOM     10  C   LIG d   1       9.041  -4.255  -3.135  0.00  0.00     0.047 A 
ATOM     11  N   LIG d   1       8.386  -3.077  -3.353  0.00  0.00    -0.356 N 
ATOM     12  H   LIG d   1       8.369  -2.327  -2.738  0.00  0.00     0.166 HD
ATOM     13  C   LIG d   1       7.439  -4.702  -6.515  0.00  0.00     0.002 C 
ATOM     14  C   LIG d   1       7.000  -3.435  -7.263  0.00  0.00     0.107 A 
ATOM     15  H   LIG d   1       7.895  -2.898  -7.575  0.00  0.00     0.060 H 
ATOM     16  N   LIG d   1       6.229  -2.585  -6.357  0.00  0.00    -0.276 N 
ATOM     17  C   LIG d   1       4.938  -2.303  -6.542  0.00  0.00     0.234 A 
ATOM     18  O   LIG d   1       4.377  -1.645  -5.692  0.00  0.00    -0.274 OA
ATOM     19  C   LIG d   1       4.140  -2.740  -7.727  0.00  0.00     0.091 A 
ATOM     20  N   LIG d   1       4.938  -3.503  -8.672  0.00  0.00    -0.291 N 
ATOM     21  C   LIG d   1       6.218  -3.815  -8.479  0.00  0.00     0.237 A 
ATOM     22  O   LIG d   1       6.783  -4.451  -9.343  0.00  0.00    -0.274 OA
ATOM     23  H   LIG d   1       9.184  -6.996  -5.211  0.00  0.00     0.062 H 
ATOM     24  H   LIG d   1      10.552  -7.776  -3.318  0.00  0.00     0.062 H 
ATOM     25  H   LIG d   1      10.952  -6.371  -1.377  0.00  0.00     0.062 H 
ATOM     26  H   LIG d   1      10.002  -4.097  -1.204  0.00  0.00     0.064 H 
ATOM     27  H   LIG d   1       6.584  -5.364  -6.384  0.00  0.00     0.034 H 
ATOM     28  H   LIG d   1       8.215  -5.212  -7.084  0.00  0.00     0.034 H 
ATOM     29  H   LIG d   1       3.738  -1.861  -8.230  0.00  0.00     0.056 H 
ATOM     30  H   LIG d   1       3.312  -3.360  -7.382  0.00  0.00     0.056 H 
ENDROOT
BRANCH   1  31
ATOM     31  C   LIG d   1       5.923  -1.503  -4.188  0.00  0.00     0.024 A 
ATOM     32  C   LIG d   1       5.184  -2.397  -3.436  0.00  0.00    -0.053 A 
ATOM     33  C   LIG d   1       4.263  -1.934  -2.514  0.00  0.00    -0.058 A 
ATOM     34  H   LIG d   1       5.328  -3.458  -3.566  0.00  0.00     0.062 H 
ATOM     35  C   LIG d   1       4.070  -0.575  -2.348  0.00  0.00    -0.016 A 
ATOM     36  H   LIG d   1       3.691  -2.635  -1.926  0.00  0.00     0.062 H 
ATOM     37  C   LIG d   1       4.805   0.326  -3.101  0.00  0.00     0.162 A 
ATOM     38  H   LIG d   1       3.348  -0.216  -1.629  0.00  0.00     0.066 H 
ATOM     39  C   LIG d   1       5.735  -0.139  -4.026  0.00  0.00     0.167 A 
BRANCH  37  40
ATOM     40  O   LIG d   1       4.618   1.663  -2.939  0.00  0.00    -0.491 OA
BRANCH  40  41
ATOM     41  C   LIG d   1       3.310   2.173  -3.208  0.00  0.00     0.079 C 
ATOM     42  H   LIG d   1       3.159   3.101  -2.656  0.00  0.00     0.066 H 
ATOM     43  H   LIG d   1       3.208   2.366  -4.277  0.00  0.00     0.066 H 
ATOM     44  H   LIG d   1       2.563   1.441  -2.900  0.00  0.00     0.066 H 
ENDBRANCH  40  41
ENDBRANCH  37  40
BRANCH  39  45
ATOM     45  O   LIG d   1       6.459   0.741  -4.768  0.00  0.00    -0.491 OA
BRANCH  45  46
ATOM     46  C   LIG d   1       7.624   1.301  -4.157  0.00  0.00     0.079 C 
ATOM     47  H   LIG d   1       8.514   0.933  -4.667  0.00  0.00     0.066 H 
ATOM     48  H   LIG d   1       7.585   2.388  -4.231  0.00  0.00     0.066 H 
ATOM     49  H   LIG d   1       7.659   1.009  -3.108  0.00  0.00     0.066 H 
ENDBRANCH  45  46
ENDBRANCH  39  45
ENDBRANCH   1  31
BRANCH  20  50
ATOM     50  C   LIG d   1       4.299  -3.946  -9.914  0.00  0.00     0.017 C 
ATOM     51  H   LIG d   1       4.669  -4.935 -10.181  0.00  0.00     0.046 H 
ATOM     52  H   LIG d   1       4.532  -3.243 -10.714  0.00  0.00     0.046 H 
BRANCH  50  53
ATOM     53  C   LIG d   1       2.783  -4.007  -9.714  0.00  0.00    -0.019 C 
ATOM     54  H   LIG d   1       2.293  -3.375 -10.454  0.00  0.00     0.030 H 
ATOM     55  H   LIG d   1       2.534  -3.655  -8.713  0.00  0.00     0.030 H 
BRANCH  53  56
ATOM     56  C   LIG d   1       2.304  -5.451  -9.880  0.00  0.00     0.026 C 
ATOM     57  H   LIG d   1       2.419  -5.982  -8.935  0.00  0.00     0.049 H 
ATOM     58  H   LIG d   1       2.898  -5.944 -10.649  0.00  0.00     0.049 H 
BRANCH  56  59
ATOM     59  N   LIG d   1       0.893  -5.454 -10.274  0.00  0.00    -0.337 N 
ATOM     60  C   LIG d   1       0.074  -6.528 -10.310  0.00  0.00     0.096 A 
ATOM     61  N   LIG d   1      -1.106  -6.139 -10.710  0.00  0.00    -0.244 NA
ATOM     62  H   LIG d   1       0.350  -7.539 -10.051  0.00  0.00     0.103 H 
ATOM     63  C   LIG d   1      -1.082  -4.819 -10.942  0.00  0.00     0.045 A 
ATOM     64  C   LIG d   1       0.160  -4.371 -10.676  0.00  0.00     0.024 A 
ATOM     65  H   LIG d   1      -1.913  -4.219 -11.284  0.00  0.00     0.085 H 
ATOM     66  H   LIG d   1       0.508  -3.352 -10.759  0.00  0.00     0.083 H 
ENDBRANCH  56  59
ENDBRANCH  53  56
ENDBRANCH  50  53
ENDBRANCH  20  50
TORSDOF 9
ENDMDL
MODEL 7
REMARK VINA RESULT:      -6.2      2.996      5.814
REMARK  9 active torsions:
REMARK  status: ('A' for Active; 'I' for Inactive)
REMARK    1  A    between atoms: C_1  and  O_2 
REMARK    2  A    between atoms: O_2  and  C_3 
REMARK    3  A    between atoms: C_7  and  C_11 
REMARK    4  A    between atoms: C_8  and  O_9 
REMARK    5  A    between atoms: O_9  and  C_10 
REMARK    6  A    between atoms: N_30  and  C_33 
REMARK    7  A    between atoms: C_33  and  C_34 
REMARK    8  A    between atoms: C_34  and  C_35 
REMARK    9  A    between atoms: C_35  and  N_36 
ROOT
ATOM      1  C   LIG d   1       4.586  -3.261  -6.875  0.00  0.00     0.096 C 
ATOM      2  H   LIG d   1       3.568  -3.289  -7.264  0.00  0.00     0.062 H 
ATOM      3  C   LIG d   1       4.638  -2.397  -5.635  0.00  0.00     0.046 A 
ATOM      4  C   LIG d   1       5.212  -1.175  -5.600  0.00  0.00    -0.015 A 
ATOM      5  C   LIG d   1       5.055  -0.672  -4.250  0.00  0.00     0.003 A 
ATOM      6  C   LIG d   1       5.444   0.521  -3.633  0.00  0.00    -0.052 A 
ATOM      7  C   LIG d   1       5.121   0.667  -2.307  0.00  0.00    -0.061 A 
ATOM      8  C   LIG d   1       4.442  -0.313  -1.603  0.00  0.00    -0.060 A 
ATOM      9  C   LIG d   1       4.047  -1.504  -2.188  0.00  0.00    -0.038 A 
ATOM     10  C   LIG d   1       4.361  -1.681  -3.534  0.00  0.00     0.047 A 
ATOM     11  N   LIG d   1       4.128  -2.708  -4.403  0.00  0.00    -0.356 N 
ATOM     12  H   LIG d   1       3.670  -3.533  -4.180  0.00  0.00     0.166 HD
ATOM     13  C   LIG d   1       5.881  -0.509  -6.774  0.00  0.00     0.002 C 
ATOM     14  C   LIG d   1       5.424  -1.205  -8.064  0.00  0.00     0.107 A 
ATOM     15  H   LIG d   1       4.390  -0.920  -8.254  0.00  0.00     0.060 H 
ATOM     16  N   LIG d   1       5.489  -2.653  -7.876  0.00  0.00    -0.276 N 
ATOM     17  C   LIG d   1       6.314  -3.443  -8.566  0.00  0.00     0.234 A 
ATOM     18  O   LIG d   1       6.337  -4.622  -8.283  0.00  0.00    -0.274 OA
ATOM     19  C   LIG d   1       7.207  -2.973  -9.668  0.00  0.00     0.091 A 
ATOM     20  N   LIG d   1       7.066  -1.548  -9.915  0.00  0.00    -0.291 N 
ATOM     21  C   LIG d   1       6.269  -0.749  -9.209  0.00  0.00     0.237 A 
ATOM     22  O   LIG d   1       6.229   0.425  -9.513  0.00  0.00    -0.274 OA
ATOM     23  H   LIG d   1       5.973   1.291  -4.174  0.00  0.00     0.062 H 
ATOM     24  H   LIG d   1       5.404   1.575  -1.796  0.00  0.00     0.062 H 
ATOM     25  H   LIG d   1       4.212  -0.144  -0.561  0.00  0.00     0.062 H 
ATOM     26  H   LIG d   1       3.518  -2.262  -1.628  0.00  0.00     0.064 H 
ATOM     27  H   LIG d   1       6.963  -0.596  -6.676  0.00  0.00     0.034 H 
ATOM     28  H   LIG d   1       5.599   0.543  -6.807  0.00  0.00     0.034 H 
ATOM     29  H   LIG d   1       6.965  -3.517 -10.581  0.00  0.00     0.056 H 
ATOM     30  H   LIG d   1       8.241  -3.184  -9.395  0.00  0.00     0.056 H 
ENDROOT
BRANCH   1  31
ATOM     31  C   LIG d   1       5.048  -4.656  -6.547  0.00  0.00     0.024 A 
ATOM     32  C   LIG d   1       6.213  -4.847  -5.827  0.00  0.00    -0.053 A 
ATOM     33  C   LIG d   1       6.638  -6.126  -5.520  0.00  0.00    -0.058 A 
ATOM     34  H   LIG d   1       6.790  -3.995  -5.500  0.00  0.00     0.062 H 
ATOM     35  C   LIG d   1       5.906  -7.221  -5.941  0.00  0.00    -0.016 A 
ATOM     36  H   LIG d   1       7.546  -6.271  -4.954  0.00  0.00     0.062 H 
ATOM     37  C   LIG d   1       4.741  -7.037  -6.667  0.00  0.00     0.162 A 
ATOM     38  H   LIG d   1       6.242  -8.219  -5.703  0.00  0.00     0.066 H 
ATOM     39  C   LIG d   1       4.309  -5.749  -6.972  0.00  0.00     0.167 A 
BRANCH  37  40
ATOM     40  O   LIG d   1       4.019  -8.112  -7.082  0.00  0.00    -0.491 OA
BRANCH  40  41
ATOM     41  C   LIG d   1       4.619  -9.399  -6.919  0.00  0.00     0.079 C 
ATOM     42  H   LIG d   1       5.215  -9.409  -6.006  0.00  0.00     0.066 H 
ATOM     43  H   LIG d   1       3.838 -10.157  -6.850  0.00  0.00     0.066 H 
ATOM     44  H   LIG d   1       5.259  -9.613  -7.774  0.00  0.00     0.066 H 
ENDBRANCH  40  41
ENDBRANCH  37  40
BRANCH  39  45
ATOM     45  O   LIG d   1       3.166  -5.563  -7.684  0.00  0.00    -0.491 OA
BRANCH  45  46
ATOM     46  C   LIG d   1       3.267  -5.648  -9.108  0.00  0.00     0.079 C 
ATOM     47  H   LIG d   1       4.001  -6.409  -9.375  0.00  0.00     0.066 H 
ATOM     48  H   LIG d   1       2.296  -5.918  -9.525  0.00  0.00     0.066 H 
ATOM     49  H   LIG d   1       3.580  -4.684  -9.508  0.00  0.00     0.066 H 
ENDBRANCH  45  46
ENDBRANCH  39  45
ENDBRANCH   1  31
BRANCH  20  50
ATOM     50  C   LIG d   1       7.839  -0.958 -11.011  0.00  0.00     0.017 C 
ATOM     51  H   LIG d   1       8.902  -1.011 -10.776  0.00  0.00     0.046 H 
ATOM     52  H   LIG d   1       7.547   0.084 -11.144  0.00  0.00     0.046 H 
BRANCH  50  53
ATOM     53  C   LIG d   1       7.565  -1.733 -12.302  0.00  0.00    -0.019 C 
ATOM     54  H   LIG d   1       7.139  -2.706 -12.058  0.00  0.00     0.030 H 
ATOM     55  H   LIG d   1       8.498  -1.871 -12.849  0.00  0.00     0.030 H 
BRANCH  53  56
ATOM     56  C   LIG d   1       6.578  -0.948 -13.169  0.00  0.00     0.026 C 
ATOM     57  H   LIG d   1       6.655  -1.286 -14.202  0.00  0.00     0.049 H 
ATOM     58  H   LIG d   1       6.813   0.115 -13.115  0.00  0.00     0.049 H 
BRANCH  56  59
ATOM     59  N   LIG d   1       5.215  -1.173 -12.682  0.00  0.00    -0.337 N 
ATOM     60  C   LIG d   1       4.637  -2.370 -12.440  0.00  0.00     0.096 A 
ATOM     61  N   LIG d   1       3.419  -2.169 -12.018  0.00  0.00    -0.244 NA
ATOM     62  H   LIG d   1       5.106  -3.334 -12.574  0.00  0.00     0.103 H 
ATOM     63  C   LIG d   1       3.177  -0.850 -11.976  0.00  0.00     0.045 A 
ATOM     64  C   LIG d   1       4.288  -0.209 -12.388  0.00  0.00     0.024 A 
ATOM     65  H   LIG d   1       2.253  -0.383 -11.667  0.00  0.00     0.085 H 
ATOM     66  H   LIG d   1       4.423   0.859 -12.466  0.00  0.00     0.083 H 
ENDBRANCH  56  59
ENDBRANCH  53  56
ENDBRANCH  50  53
ENDBRANCH  20  50
TORSDOF 9
ENDMDL
MODEL 8
REMARK VINA RESULT:      -6.1      4.136      7.374
REMARK  9 active torsions:
REMARK  status: ('A' for Active; 'I' for Inactive)
REMARK    1  A    between atoms: C_1  and  O_2 
REMARK    2  A    between atoms: O_2  and  C_3 
REMARK    3  A    between atoms: C_7  and  C_11 
REMARK    4  A    between atoms: C_8  and  O_9 
REMARK    5  A    between atoms: O_9  and  C_10 
REMARK    6  A    between atoms: N_30  and  C_33 
REMARK    7  A    between atoms: C_33  and  C_34 
REMARK    8  A    between atoms: C_34  and  C_35 
REMARK    9  A    between atoms: C_35  and  N_36 
ROOT
ATOM      1  C   LIG d   1       5.352  -1.931  -7.243  0.00  0.00     0.096 C 
ATOM      2  H   LIG d   1       6.394  -1.796  -7.534  0.00  0.00     0.062 H 
ATOM      3  C   LIG d   1       5.138  -1.407  -5.841  0.00  0.00     0.046 A 
ATOM      4  C   LIG d   1       4.933  -2.204  -4.770  0.00  0.00    -0.015 A 
ATOM      5  C   LIG d   1       4.777  -1.336  -3.620  0.00  0.00     0.003 A 
ATOM      6  C   LIG d   1       4.546  -1.592  -2.265  0.00  0.00    -0.052 A 
ATOM      7  C   LIG d   1       4.453  -0.502  -1.435  0.00  0.00    -0.061 A 
ATOM      8  C   LIG d   1       4.581   0.794  -1.906  0.00  0.00    -0.060 A 
ATOM      9  C   LIG d   1       4.808   1.076  -3.242  0.00  0.00    -0.038 A 
ATOM     10  C   LIG d   1       4.907  -0.010  -4.109  0.00  0.00     0.047 A 
ATOM     11  N   LIG d   1       5.123  -0.094  -5.454  0.00  0.00    -0.356 N 
ATOM     12  H   LIG d   1       5.245   0.664  -6.047  0.00  0.00     0.166 HD
ATOM     13  C   LIG d   1       4.881  -3.709  -4.819  0.00  0.00     0.002 C 
ATOM     14  C   LIG d   1       5.524  -4.183  -6.130  0.00  0.00     0.107 A 
ATOM     15  H   LIG d   1       6.601  -4.038  -6.052  0.00  0.00     0.060 H 
ATOM     16  N   LIG d   1       5.016  -3.371  -7.234  0.00  0.00    -0.276 N 
ATOM     17  C   LIG d   1       4.277  -3.869  -8.227  0.00  0.00     0.234 A 
ATOM     18  O   LIG d   1       3.848  -3.095  -9.056  0.00  0.00    -0.274 OA
ATOM     19  C   LIG d   1       3.945  -5.317  -8.388  0.00  0.00     0.091 A 
ATOM     20  N   LIG d   1       4.535  -6.133  -7.340  0.00  0.00    -0.291 N 
ATOM     21  C   LIG d   1       5.246  -5.638  -6.329  0.00  0.00     0.237 A 
ATOM     22  O   LIG d   1       5.696  -6.419  -5.516  0.00  0.00    -0.274 OA
ATOM     23  H   LIG d   1       4.446  -2.599  -1.888  0.00  0.00     0.062 H 
ATOM     24  H   LIG d   1       4.276  -0.659  -0.382  0.00  0.00     0.062 H 
ATOM     25  H   LIG d   1       4.500   1.614  -1.208  0.00  0.00     0.062 H 
ATOM     26  H   LIG d   1       4.905   2.092  -3.598  0.00  0.00     0.064 H 
ATOM     27  H   LIG d   1       3.844  -4.040  -4.780  0.00  0.00     0.034 H 
ATOM     28  H   LIG d   1       5.430  -4.121  -3.972  0.00  0.00     0.034 H 
ATOM     29  H   LIG d   1       4.312  -5.662  -9.355  0.00  0.00     0.056 H 
ATOM     30  H   LIG d   1       2.861  -5.434  -8.359  0.00  0.00     0.056 H 
ENDROOT
BRANCH   1  31
ATOM     31  C   LIG d   1       4.452  -1.201  -8.205  0.00  0.00     0.024 A 
ATOM     32  C   LIG d   1       3.117  -1.017  -7.898  0.00  0.00    -0.053 A 
ATOM     33  C   LIG d   1       2.289  -0.342  -8.777  0.00  0.00    -0.058 A 
ATOM     34  H   LIG d   1       2.720  -1.396  -6.969  0.00  0.00     0.062 H 
ATOM     35  C   LIG d   1       2.790   0.141  -9.971  0.00  0.00    -0.016 A 
ATOM     36  H   LIG d   1       1.247  -0.197  -8.531  0.00  0.00     0.062 H 
ATOM     37  C   LIG d   1       4.126  -0.045 -10.287  0.00  0.00     0.162 A 
ATOM     38  H   LIG d   1       2.140   0.664 -10.658  0.00  0.00     0.066 H 
ATOM     39  C   LIG d   1       4.961  -0.719  -9.401  0.00  0.00     0.167 A 
BRANCH  37  40
ATOM     40  O   LIG d   1       4.622   0.430 -11.461  0.00  0.00    -0.491 OA
BRANCH  40  41
ATOM     41  C   LIG d   1       4.202  -0.231 -12.657  0.00  0.00     0.079 C 
ATOM     42  H   LIG d   1       4.322   0.442 -13.506  0.00  0.00     0.066 H 
ATOM     43  H   LIG d   1       4.812  -1.122 -12.812  0.00  0.00     0.066 H 
ATOM     44  H   LIG d   1       3.155  -0.518 -12.566  0.00  0.00     0.066 H 
ENDBRANCH  40  41
ENDBRANCH  37  40
BRANCH  39  45
ATOM     45  O   LIG d   1       6.273  -0.903  -9.706  0.00  0.00    -0.491 OA
BRANCH  45  46
ATOM     46  C   LIG d   1       6.599  -2.037 -10.514  0.00  0.00     0.079 C 
ATOM     47  H   LIG d   1       6.111  -2.924 -10.108  0.00  0.00     0.066 H 
ATOM     48  H   LIG d   1       6.253  -1.867 -11.534  0.00  0.00     0.066 H 
ATOM     49  H   LIG d   1       7.678  -2.184 -10.515  0.00  0.00     0.066 H 
ENDBRANCH  45  46
ENDBRANCH  39  45
ENDBRANCH   1  31
BRANCH  20  50
ATOM     50  C   LIG d   1       4.343  -7.583  -7.405  0.00  0.00     0.017 C 
ATOM     51  H   LIG d   1       3.659  -7.896  -6.616  0.00  0.00     0.046 H 
ATOM     52  H   LIG d   1       5.302  -8.084  -7.273  0.00  0.00     0.046 H 
BRANCH  50  53
ATOM     53  C   LIG d   1       3.753  -7.959  -8.766  0.00  0.00    -0.019 C 
ATOM     54  H   LIG d   1       3.723  -7.076  -9.405  0.00  0.00     0.030 H 
ATOM     55  H   LIG d   1       2.743  -8.345  -8.631  0.00  0.00     0.030 H 
BRANCH  53  56
ATOM     56  C   LIG d   1       4.627  -9.031  -9.422  0.00  0.00     0.026 C 
ATOM     57  H   LIG d   1       5.608  -9.040  -8.947  0.00  0.00     0.049 H 
ATOM     58  H   LIG d   1       4.738  -8.810 -10.483  0.00  0.00     0.049 H 
BRANCH  56  59
ATOM     59  N   LIG d   1       3.994 -10.342  -9.259  0.00  0.00    -0.337 N 
ATOM     60  C   LIG d   1       4.230 -11.228  -8.267  0.00  0.00     0.096 A 
ATOM     61  N   LIG d   1       3.480 -12.280  -8.459  0.00  0.00    -0.244 NA
ATOM     62  H   LIG d   1       4.922 -11.089  -7.450  0.00  0.00     0.103 H 
ATOM     63  C   LIG d   1       2.748 -12.105  -9.569  0.00  0.00     0.045 A 
ATOM     64  C   LIG d   1       3.056 -10.899 -10.086  0.00  0.00     0.024 A 
ATOM     65  H   LIG d   1       2.038 -12.808  -9.979  0.00  0.00     0.085 H 
ATOM     66  H   LIG d   1       2.638 -10.455 -10.977  0.00  0.00     0.083 H 
ENDBRANCH  56  59
ENDBRANCH  53  56
ENDBRANCH  50  53
ENDBRANCH  20  50
TORSDOF 9
ENDMDL
MODEL 9
REMARK VINA RESULT:      -6.1      3.326      5.379
REMARK  9 active torsions:
REMARK  status: ('A' for Active; 'I' for Inactive)
REMARK    1  A    between atoms: C_1  and  O_2 
REMARK    2  A    between atoms: O_2  and  C_3 
REMARK    3  A    between atoms: C_7  and  C_11 
REMARK    4  A    between atoms: C_8  and  O_9 
REMARK    5  A    between atoms: O_9  and  C_10 
REMARK    6  A    between atoms: N_30  and  C_33 
REMARK    7  A    between atoms: C_33  and  C_34 
REMARK    8  A    between atoms: C_34  and  C_35 
REMARK    9  A    between atoms: C_35  and  N_36 
ROOT
ATOM      1  C   LIG d   1       7.479  -0.958  -6.592  0.00  0.00     0.096 C 
ATOM      2  H   LIG d   1       8.020  -1.852  -6.285  0.00  0.00     0.062 H 
ATOM      3  C   LIG d   1       6.495  -0.558  -5.514  0.00  0.00     0.046 A 
ATOM      4  C   LIG d   1       5.158  -0.702  -5.633  0.00  0.00    -0.015 A 
ATOM      5  C   LIG d   1       4.568  -0.213  -4.403  0.00  0.00     0.003 A 
ATOM      6  C   LIG d   1       3.246  -0.115  -3.961  0.00  0.00    -0.052 A 
ATOM      7  C   LIG d   1       3.048   0.409  -2.708  0.00  0.00    -0.061 A 
ATOM      8  C   LIG d   1       4.101   0.824  -1.909  0.00  0.00    -0.060 A 
ATOM      9  C   LIG d   1       5.419   0.740  -2.323  0.00  0.00    -0.038 A 
ATOM     10  C   LIG d   1       5.651   0.212  -3.591  0.00  0.00     0.047 A 
ATOM     11  N   LIG d   1       6.799  -0.011  -4.296  0.00  0.00    -0.356 N 
ATOM     12  H   LIG d   1       7.694   0.190  -3.981  0.00  0.00     0.166 HD
ATOM     13  C   LIG d   1       4.461  -1.269  -6.844  0.00  0.00     0.002 C 
ATOM     14  C   LIG d   1       5.486  -2.040  -7.687  0.00  0.00     0.107 A 
ATOM     15  H   LIG d   1       5.728  -2.965  -7.164  0.00  0.00     0.060 H 
ATOM     16  N   LIG d   1       6.701  -1.239  -7.818  0.00  0.00    -0.276 N 
ATOM     17  C   LIG d   1       7.138  -0.760  -8.984  0.00  0.00     0.234 A 
ATOM     18  O   LIG d   1       8.120  -0.048  -8.971  0.00  0.00    -0.274 OA
ATOM     19  C   LIG d   1       6.502  -1.047 -10.306  0.00  0.00     0.091 A 
ATOM     20  N   LIG d   1       5.351  -1.925 -10.179  0.00  0.00    -0.291 N 
ATOM     21  C   LIG d   1       4.891  -2.379  -9.016  0.00  0.00     0.237 A 
ATOM     22  O   LIG d   1       3.925  -3.113  -9.035  0.00  0.00    -0.274 OA
ATOM     23  H   LIG d   1       2.418  -0.437  -4.576  0.00  0.00     0.062 H 
ATOM     24  H   LIG d   1       2.040   0.500  -2.331  0.00  0.00     0.062 H 
ATOM     25  H   LIG d   1       3.887   1.227  -0.931  0.00  0.00     0.062 H 
ATOM     26  H   LIG d   1       6.232   1.068  -1.691  0.00  0.00     0.064 H 
ATOM     27  H   LIG d   1       4.039  -0.456  -7.435  0.00  0.00     0.034 H 
ATOM     28  H   LIG d   1       3.667  -1.943  -6.526  0.00  0.00     0.034 H 
ATOM     29  H   LIG d   1       7.237  -1.516 -10.961  0.00  0.00     0.056 H 
ATOM     30  H   LIG d   1       6.182  -0.105 -10.752  0.00  0.00     0.056 H 
ENDROOT
BRANCH   1  31
ATOM     31  C   LIG d   1       8.447   0.168  -6.845  0.00  0.00     0.024 A 
ATOM     32  C   LIG d   1       7.977   1.454  -7.032  0.00  0.00    -0.053 A 
ATOM     33  C   LIG d   1       8.864   2.491  -7.260  0.00  0.00    -0.058 A 
ATOM     34  H   LIG d   1       6.917   1.651  -6.996  0.00  0.00     0.062 H 
ATOM     35  C   LIG d   1      10.223   2.243  -7.312  0.00  0.00    -0.016 A 
ATOM     36  H   LIG d   1       8.493   3.495  -7.401  0.00  0.00     0.062 H 
ATOM     37  C   LIG d   1      10.700   0.955  -7.131  0.00  0.00     0.162 A 
ATOM     38  H   LIG d   1      10.913   3.054  -7.494  0.00  0.00     0.066 H 
ATOM     39  C   LIG d   1       9.808  -0.088  -6.896  0.00  0.00     0.167 A 
BRANCH  37  40
ATOM     40  O   LIG d   1      12.036   0.709  -7.181  0.00  0.00    -0.491 OA
BRANCH  40  41
ATOM     41  C   LIG d   1      12.808   1.080  -6.037  0.00  0.00     0.079 C 
ATOM     42  H   LIG d   1      12.230   1.764  -5.414  0.00  0.00     0.066 H 
ATOM     43  H   LIG d   1      13.056   0.187  -5.461  0.00  0.00     0.066 H 
ATOM     44  H   LIG d   1      13.726   1.570  -6.360  0.00  0.00     0.066 H 
ENDBRANCH  40  41
ENDBRANCH  37  40
BRANCH  39  45
ATOM     45  O   LIG d   1      10.271  -1.354  -6.717  0.00  0.00    -0.491 OA
BRANCH  45  46
ATOM     46  C   LIG d   1      10.582  -2.104  -7.893  0.00  0.00     0.079 C 
ATOM     47  H   LIG d   1      11.665  -2.180  -7.999  0.00  0.00     0.066 H 
ATOM     48  H   LIG d   1      10.154  -3.103  -7.811  0.00  0.00     0.066 H 
ATOM     49  H   LIG d   1      10.166  -1.600  -8.765  0.00  0.00     0.066 H 
ENDBRANCH  45  46
ENDBRANCH  39  45
ENDBRANCH   1  31
BRANCH  20  50
ATOM     50  C   LIG d   1       4.663  -2.340 -11.404  0.00  0.00     0.017 C 
ATOM     51  H   LIG d   1       3.815  -2.975 -11.148  0.00  0.00     0.046 H 
ATOM     52  H   LIG d   1       5.354  -2.895 -12.039  0.00  0.00     0.046 H 
BRANCH  50  53
ATOM     53  C   LIG d   1       4.164  -1.103 -12.153  0.00  0.00    -0.019 C 
ATOM     54  H   LIG d   1       4.047  -1.341 -13.211  0.00  0.00     0.030 H 
ATOM     55  H   LIG d   1       4.884  -0.293 -12.039  0.00  0.00     0.030 H 
BRANCH  53  56
ATOM     56  C   LIG d   1       2.814  -0.669 -11.578  0.00  0.00     0.026 C 
ATOM     57  H   LIG d   1       2.333  -1.522 -11.098  0.00  0.00     0.049 H 
ATOM     58  H   LIG d   1       2.179  -0.298 -12.382  0.00  0.00     0.049 H 
BRANCH  56  59
ATOM     59  N   LIG d   1       3.022   0.393 -10.590  0.00  0.00    -0.337 N 
ATOM     60  C   LIG d   1       2.431   0.489  -9.379  0.00  0.00     0.096 A 
ATOM     61  N   LIG d   1       2.866   1.567  -8.786  0.00  0.00    -0.244 NA
ATOM     62  H   LIG d   1       1.717  -0.211  -8.970  0.00  0.00     0.103 H 
ATOM     63  C   LIG d   1       3.741   2.192  -9.588  0.00  0.00     0.045 A 
ATOM     64  C   LIG d   1       3.852   1.473 -10.723  0.00  0.00     0.024 A 
ATOM     65  H   LIG d   1       4.263   3.110  -9.365  0.00  0.00     0.085 H 
ATOM     66  H   LIG d   1       4.480   1.703 -11.571  0.00  0.00     0.083 H 
ENDBRANCH  56  59
ENDBRANCH  53  56
ENDBRANCH  50  53
ENDBRANCH  20  50
TORSDOF 9
ENDMDL
