MODEL 1
REMARK VINA RESULT:      -7.0      0.000      0.000
REMARK  9 active torsions:
REMARK  status: ('A' for Active; 'I' for Inactive)
REMARK    1  A    between atoms: C_1  and  C_2 
REMARK       I    between atoms: C_2  and  N_4 
REMARK    2  A    between atoms: N_4  and  C_5 
REMARK    3  A    between atoms: C_5  and  C_6 
REMARK    4  A    between atoms: C_6  and  N_7 
REMARK    5  A    between atoms: N_7  and  C_8 
REMARK    6  A    between atoms: C_11  and  C_34 
REMARK    7  A    between atoms: C_14  and  C_30 
REMARK    8  A    between atoms: C_30  and  O_32 
REMARK    9  A    between atoms: O_32  and  C_33 
ROOT
ATOM      1  C   LIG d   1       4.469  -4.245  -9.141  0.00  0.00     0.011 C 
ATOM      2  H   LIG d   1       4.681  -5.320  -9.240  0.00  0.00     0.046 H 
ATOM      3  C   LIG d   1       5.451  -3.424  -9.979  0.00  0.00    -0.018 C 
ATOM      4  C   LIG d   1       5.144  -1.933  -9.809  0.00  0.00     0.038 C 
ATOM      5  H   LIG d   1       5.867  -1.319 -10.367  0.00  0.00     0.051 H 
ATOM      6  N   LIG d   1       5.249  -1.566  -8.393  0.00  0.00    -0.274 N 
ATOM      7  C   LIG d   1       5.135  -0.118  -8.187  0.00  0.00     0.113 C 
ATOM      8  H   LIG d   1       4.075   0.149  -8.305  0.00  0.00     0.058 H 
ATOM      9  C   LIG d   1       5.641   0.244  -6.785  0.00  0.00     0.001 C 
ATOM     10  C   LIG d   1       5.010  -0.702  -5.795  0.00  0.00    -0.016 A 
ATOM     11  C   LIG d   1       4.925  -0.598  -4.356  0.00  0.00     0.003 A 
ATOM     12  C   LIG d   1       5.378   0.360  -3.443  0.00  0.00    -0.052 A 
ATOM     13  C   LIG d   1       5.113   0.128  -2.115  0.00  0.00    -0.061 A 
ATOM     14  C   LIG d   1       4.432  -1.000  -1.687  0.00  0.00    -0.060 A 
ATOM     15  C   LIG d   1       3.972  -1.963  -2.568  0.00  0.00    -0.038 A 
ATOM     16  C   LIG d   1       4.225  -1.754  -3.921  0.00  0.00     0.047 A 
ATOM     17  N   LIG d   1       3.918  -2.486  -5.033  0.00  0.00    -0.356 N 
ATOM     18  H   LIG d   1       3.368  -3.433  -4.933  0.00  0.00     0.166 HD
ATOM     19  C   LIG d   1       4.390  -1.852  -6.150  0.00  0.00     0.038 A 
ATOM     20  C   LIG d   1       4.273  -2.310  -7.582  0.00  0.00     0.054 C 
ATOM     21  H   LIG d   1       3.265  -2.093  -7.968  0.00  0.00     0.053 H 
ATOM     22  C   LIG d   1       4.563  -3.808  -7.676  0.00  0.00    -0.016 C 
ATOM     23  H   LIG d   1       6.478  -3.627  -9.646  0.00  0.00     0.030 H 
ATOM     24  H   LIG d   1       5.348  -3.700 -11.040  0.00  0.00     0.030 H 
ATOM     25  H   LIG d   1       6.737   0.147  -6.754  0.00  0.00     0.033 H 
ATOM     26  H   LIG d   1       5.359   1.281  -6.550  0.00  0.00     0.033 H 
ATOM     27  H   LIG d   1       5.909   1.242  -3.768  0.00  0.00     0.062 H 
ATOM     28  H   LIG d   1       5.448   0.847  -1.382  0.00  0.00     0.062 H 
ATOM     29  H   LIG d   1       4.254  -1.131  -0.630  0.00  0.00     0.062 H 
ATOM     30  H   LIG d   1       3.442  -2.838  -2.221  0.00  0.00     0.064 H 
ATOM     31  H   LIG d   1       3.827  -4.366  -7.078  0.00  0.00     0.030 H 
ATOM     32  H   LIG d   1       5.576  -4.014  -7.296  0.00  0.00     0.030 H 
ENDROOT
BRANCH   1  33
ATOM     33  N   LIG d   1       3.102  -4.024  -9.631  0.00  0.00    -0.312 N 
ATOM     34  H   LIG d   1       3.150  -3.439 -10.561  0.00  0.00     0.122 HD
BRANCH  33  35
ATOM     35  C   LIG d   1       2.422  -5.301  -9.890  0.00  0.00     0.012 C 
ATOM     36  H   LIG d   1       2.224  -5.810  -8.935  0.00  0.00     0.044 H 
ATOM     37  H   LIG d   1       3.063  -5.937 -10.518  0.00  0.00     0.044 H 
BRANCH  35  38
ATOM     38  C   LIG d   1       1.100  -5.037 -10.613  0.00  0.00     0.024 C 
ATOM     39  H   LIG d   1       1.133  -5.492 -11.614  0.00  0.00     0.047 H 
ATOM     40  H   LIG d   1       0.943  -3.953 -10.709  0.00  0.00     0.047 H 
BRANCH  38  41
ATOM     41  N   LIG d   1      -0.001  -5.624  -9.845  0.00  0.00    -0.314 N 
ATOM     42  C   LIG d   1      -1.278  -5.344 -10.177  0.00  0.00     0.210 C 
ATOM     43  O   LIG d   1      -1.514  -4.608 -11.111  0.00  0.00    -0.276 OA
ATOM     44  H   LIG d   1       0.213  -6.292  -8.999  0.00  0.00     0.149 HD
BRANCH  42  45
ATOM     45  C   LIG d   1      -2.411  -5.948  -9.389  0.00  0.00     0.012 C 
ATOM     46  H   LIG d   1      -3.233  -5.220  -9.313  0.00  0.00     0.032 H 
ATOM     47  H   LIG d   1      -2.058  -6.208  -8.380  0.00  0.00     0.032 H 
ATOM     48  H   LIG d   1      -2.770  -6.854  -9.897  0.00  0.00     0.032 H 
ENDBRANCH  42  45
ENDBRANCH  38  41
ENDBRANCH  35  38
ENDBRANCH  33  35
ENDBRANCH   1  33
BRANCH   4  49
ATOM     49  C   LIG d   1       3.745  -1.648 -10.292  0.00  0.00    -0.029 A 
ATOM     50  C   LIG d   1       3.391  -1.940 -11.594  0.00  0.00    -0.039 A 
ATOM     51  C   LIG d   1       2.104  -1.683 -12.036  0.00  0.00     0.041 A 
ATOM     52  H   LIG d   1       4.116  -2.372 -12.268  0.00  0.00     0.064 H 
ATOM     53  C   LIG d   1       1.178  -1.123 -11.174  0.00  0.00    -0.043 A 
ATOM     54 CL   LIG d   1       1.656  -2.057 -13.670  0.00  0.00    -0.084 Cl
ATOM     55  C   LIG d   1       1.536  -0.826  -9.873  0.00  0.00    -0.060 A 
ATOM     56  H   LIG d   1       0.175  -0.918 -11.520  0.00  0.00     0.063 H 
ATOM     57  C   LIG d   1       2.818  -1.088  -9.432  0.00  0.00    -0.057 A 
ATOM     58  H   LIG d   1       0.812  -0.388  -9.201  0.00  0.00     0.062 H 
ATOM     59  H   LIG d   1       3.097  -0.856  -8.414  0.00  0.00     0.062 H 
ENDBRANCH   4  49
BRANCH   7  60
ATOM     60  C   LIG d   1       5.959   0.603  -9.222  0.00  0.00     0.325 C 
ATOM     61  O   LIG d   1       7.148   0.400  -9.296  0.00  0.00    -0.249 OA
BRANCH  60  62
ATOM     62  O   LIG d   1       5.372   1.471 -10.062  0.00  0.00    -0.467 OA
BRANCH  62  63
ATOM     63  C   LIG d   1       4.307   2.294  -9.520  0.00  0.00     0.082 C 
ATOM     64  H   LIG d   1       3.763   2.780 -10.344  0.00  0.00     0.066 H 
ATOM     65  H   LIG d   1       4.736   3.062  -8.860  0.00  0.00     0.066 H 
ATOM     66  H   LIG d   1       3.612   1.664  -8.945  0.00  0.00     0.066 H 
ENDBRANCH  62  63
ENDBRANCH  60  62
ENDBRANCH   7  60
TORSDOF 9
ENDMDL
MODEL 2
REMARK VINA RESULT:      -7.0      2.666      5.333
REMARK  9 active torsions:
REMARK  status: ('A' for Active; 'I' for Inactive)
REMARK    1  A    between atoms: C_1  and  C_2 
REMARK       I    between atoms: C_2  and  N_4 
REMARK    2  A    between atoms: N_4  and  C_5 
REMARK    3  A    between atoms: C_5  and  C_6 
REMARK    4  A    between atoms: C_6  and  N_7 
REMARK    5  A    between atoms: N_7  and  C_8 
REMARK    6  A    between atoms: C_11  and  C_34 
REMARK    7  A    between atoms: C_14  and  C_30 
REMARK    8  A    between atoms: C_30  and  O_32 
REMARK    9  A    between atoms: O_32  and  C_33 
ROOT
ATOM      1  C   LIG d   1       2.856  -1.621  -9.630  0.00  0.00     0.011 C 
ATOM      2  H   LIG d   1       2.010  -1.169 -10.166  0.00  0.00     0.046 H 
ATOM      3  C   LIG d   1       2.723  -3.146  -9.602  0.00  0.00    -0.018 C 
ATOM      4  C   LIG d   1       3.904  -3.748  -8.835  0.00  0.00     0.038 C 
ATOM      5  H   LIG d   1       3.807  -4.841  -8.762  0.00  0.00     0.051 H 
ATOM      6  N   LIG d   1       3.929  -3.212  -7.469  0.00  0.00    -0.274 N 
ATOM      7  C   LIG d   1       4.934  -3.878  -6.633  0.00  0.00     0.113 C 
ATOM      8  H   LIG d   1       5.920  -3.495  -6.934  0.00  0.00     0.058 H 
ATOM      9  C   LIG d   1       4.654  -3.578  -5.155  0.00  0.00     0.001 C 
ATOM     10  C   LIG d   1       4.427  -2.094  -5.009  0.00  0.00    -0.016 A 
ATOM     11  C   LIG d   1       4.423  -1.282  -3.813  0.00  0.00     0.003 A 
ATOM     12  C   LIG d   1       4.616  -1.580  -2.460  0.00  0.00    -0.052 A 
ATOM     13  C   LIG d   1       4.541  -0.533  -1.575  0.00  0.00    -0.061 A 
ATOM     14  C   LIG d   1       4.287   0.764  -1.991  0.00  0.00    -0.060 A 
ATOM     15  C   LIG d   1       4.094   1.089  -3.322  0.00  0.00    -0.038 A 
ATOM     16  C   LIG d   1       4.165   0.046  -4.243  0.00  0.00     0.047 A 
ATOM     17  N   LIG d   1       4.027   0.014  -5.601  0.00  0.00    -0.356 N 
ATOM     18  H   LIG d   1       3.821   0.942  -6.155  0.00  0.00     0.166 HD
ATOM     19  C   LIG d   1       4.185  -1.268  -6.053  0.00  0.00     0.038 A 
ATOM     20  C   LIG d   1       4.111  -1.752  -7.479  0.00  0.00     0.054 C 
ATOM     21  H   LIG d   1       5.050  -1.523  -8.006  0.00  0.00     0.053 H 
ATOM     22  C   LIG d   1       2.931  -1.093  -8.193  0.00  0.00    -0.016 C 
ATOM     23  H   LIG d   1       1.783  -3.424  -9.105  0.00  0.00     0.030 H 
ATOM     24  H   LIG d   1       2.722  -3.532 -10.633  0.00  0.00     0.030 H 
ATOM     25  H   LIG d   1       3.759  -4.130  -4.831  0.00  0.00     0.033 H 
ATOM     26  H   LIG d   1       5.517  -3.889  -4.548  0.00  0.00     0.033 H 
ATOM     27  H   LIG d   1       4.815  -2.588  -2.127  0.00  0.00     0.062 H 
ATOM     28  H   LIG d   1       4.685  -0.726  -0.522  0.00  0.00     0.062 H 
ATOM     29  H   LIG d   1       4.238   1.549  -1.250  0.00  0.00     0.062 H 
ATOM     30  H   LIG d   1       3.897   2.104  -3.633  0.00  0.00     0.064 H 
ATOM     31  H   LIG d   1       3.070  -0.002  -8.211  0.00  0.00     0.030 H 
ATOM     32  H   LIG d   1       1.996  -1.334  -7.665  0.00  0.00     0.030 H 
ENDROOT
BRANCH   1  33
ATOM     33  N   LIG d   1       4.080  -1.249 -10.353  0.00  0.00    -0.312 N 
ATOM     34  H   LIG d   1       4.473  -2.140 -10.863  0.00  0.00     0.122 HD
BRANCH  33  35
ATOM     35  C   LIG d   1       3.807  -0.197 -11.341  0.00  0.00     0.012 C 
ATOM     36  H   LIG d   1       2.725  -0.140 -11.526  0.00  0.00     0.044 H 
ATOM     37  H   LIG d   1       4.327  -0.434 -12.281  0.00  0.00     0.044 H 
BRANCH  35  38
ATOM     38  C   LIG d   1       4.306   1.147 -10.806  0.00  0.00     0.024 C 
ATOM     39  H   LIG d   1       3.548   1.577 -10.134  0.00  0.00     0.047 H 
ATOM     40  H   LIG d   1       4.481   1.834 -11.647  0.00  0.00     0.047 H 
BRANCH  38  41
ATOM     41  N   LIG d   1       5.556   0.945 -10.070  0.00  0.00    -0.314 N 
ATOM     42  C   LIG d   1       5.645   1.321  -8.778  0.00  0.00     0.210 C 
ATOM     43  O   LIG d   1       4.690   1.826  -8.227  0.00  0.00    -0.276 OA
ATOM     44  H   LIG d   1       6.421   0.488 -10.570  0.00  0.00     0.149 HD
BRANCH  42  45
ATOM     45  C   LIG d   1       6.930   1.114  -8.020  0.00  0.00     0.012 C 
ATOM     46  H   LIG d   1       7.585   0.435  -8.588  0.00  0.00     0.032 H 
ATOM     47  H   LIG d   1       6.709   0.673  -7.037  0.00  0.00     0.032 H 
ATOM     48  H   LIG d   1       7.435   2.081  -7.883  0.00  0.00     0.032 H 
ENDBRANCH  42  45
ENDBRANCH  38  41
ENDBRANCH  35  38
ENDBRANCH  33  35
ENDBRANCH   1  33
BRANCH   4  49
ATOM     49  C   LIG d   1       5.192  -3.390  -9.531  0.00  0.00    -0.029 A 
ATOM     50  C   LIG d   1       5.417  -3.810 -10.827  0.00  0.00    -0.039 A 
ATOM     51  C   LIG d   1       6.598  -3.477 -11.468  0.00  0.00     0.041 A 
ATOM     52  H   LIG d   1       4.670  -4.395 -11.342  0.00  0.00     0.064 H 
ATOM     53  C   LIG d   1       7.557  -2.733 -10.805  0.00  0.00    -0.043 A 
ATOM     54 CL   LIG d   1       6.877  -3.999 -13.099  0.00  0.00    -0.084 Cl
ATOM     55  C   LIG d   1       7.333  -2.318  -9.506  0.00  0.00    -0.060 A 
ATOM     56  H   LIG d   1       8.481  -2.477 -11.303  0.00  0.00     0.063 H 
ATOM     57  C   LIG d   1       6.152  -2.646  -8.869  0.00  0.00    -0.057 A 
ATOM     58  H   LIG d   1       8.083  -1.737  -8.988  0.00  0.00     0.062 H 
ATOM     59  H   LIG d   1       5.977  -2.321  -7.853  0.00  0.00     0.062 H 
ENDBRANCH   4  49
BRANCH   7  60
ATOM     60  C   LIG d   1       4.874  -5.365  -6.865  0.00  0.00     0.325 C 
ATOM     61  O   LIG d   1       3.884  -5.985  -6.557  0.00  0.00    -0.249 OA
BRANCH  60  62
ATOM     62  O   LIG d   1       5.921  -6.002  -7.414  0.00  0.00    -0.467 OA
BRANCH  62  63
ATOM     63  C   LIG d   1       7.243  -5.609  -6.960  0.00  0.00     0.082 C 
ATOM     64  H   LIG d   1       8.004  -6.188  -7.503  0.00  0.00     0.066 H 
ATOM     65  H   LIG d   1       7.333  -5.805  -5.881  0.00  0.00     0.066 H 
ATOM     66  H   LIG d   1       7.392  -4.536  -7.152  0.00  0.00     0.066 H 
ENDBRANCH  62  63
ENDBRANCH  60  62
ENDBRANCH   7  60
TORSDOF 9
ENDMDL
MODEL 3
REMARK VINA RESULT:      -6.8      3.994      7.543
REMARK  9 active torsions:
REMARK  status: ('A' for Active; 'I' for Inactive)
REMARK    1  A    between atoms: C_1  and  C_2 
REMARK       I    between atoms: C_2  and  N_4 
REMARK    2  A    between atoms: N_4  and  C_5 
REMARK    3  A    between atoms: C_5  and  C_6 
REMARK    4  A    between atoms: C_6  and  N_7 
REMARK    5  A    between atoms: N_7  and  C_8 
REMARK    6  A    between atoms: C_11  and  C_34 
REMARK    7  A    between atoms: C_14  and  C_30 
REMARK    8  A    between atoms: C_30  and  O_32 
REMARK    9  A    between atoms: O_32  and  C_33 
ROOT
ATOM      1  C   LIG d   1       4.667  -1.424  -6.917  0.00  0.00     0.011 C 
ATOM      2  H   LIG d   1       4.300  -0.801  -7.745  0.00  0.00     0.046 H 
ATOM      3  C   LIG d   1       6.083  -1.006  -6.515  0.00  0.00    -0.018 C 
ATOM      4  C   LIG d   1       6.575  -1.902  -5.374  0.00  0.00     0.038 C 
ATOM      5  H   LIG d   1       7.610  -1.650  -5.098  0.00  0.00     0.051 H 
ATOM      6  N   LIG d   1       6.559  -3.304  -5.806  0.00  0.00    -0.274 N 
ATOM      7  C   LIG d   1       7.180  -4.193  -4.818  0.00  0.00     0.113 C 
ATOM      8  H   LIG d   1       6.468  -4.312  -3.988  0.00  0.00     0.058 H 
ATOM      9  C   LIG d   1       7.496  -5.545  -5.469  0.00  0.00     0.001 C 
ATOM     10  C   LIG d   1       6.273  -6.005  -6.222  0.00  0.00    -0.016 A 
ATOM     11  C   LIG d   1       5.957  -7.316  -6.743  0.00  0.00     0.003 A 
ATOM     12  C   LIG d   1       6.642  -8.536  -6.729  0.00  0.00    -0.052 A 
ATOM     13  C   LIG d   1       6.026  -9.602  -7.335  0.00  0.00    -0.061 A 
ATOM     14  C   LIG d   1       4.784  -9.489  -7.937  0.00  0.00    -0.060 A 
ATOM     15  C   LIG d   1       4.082  -8.297  -7.965  0.00  0.00    -0.038 A 
ATOM     16  C   LIG d   1       4.682  -7.197  -7.356  0.00  0.00     0.047 A 
ATOM     17  N   LIG d   1       4.278  -5.901  -7.204  0.00  0.00    -0.356 N 
ATOM     18  H   LIG d   1       3.307  -5.578  -7.607  0.00  0.00     0.166 HD
ATOM     19  C   LIG d   1       5.232  -5.194  -6.526  0.00  0.00     0.038 A 
ATOM     20  C   LIG d   1       5.194  -3.735  -6.144  0.00  0.00     0.054 C 
ATOM     21  H   LIG d   1       4.556  -3.592  -5.259  0.00  0.00     0.053 H 
ATOM     22  C   LIG d   1       4.669  -2.904  -7.315  0.00  0.00    -0.016 C 
ATOM     23  H   LIG d   1       6.756  -1.109  -7.378  0.00  0.00     0.030 H 
ATOM     24  H   LIG d   1       6.074   0.042  -6.179  0.00  0.00     0.030 H 
ATOM     25  H   LIG d   1       8.343  -5.430  -6.162  0.00  0.00     0.033 H 
ATOM     26  H   LIG d   1       7.756  -6.276  -4.690  0.00  0.00     0.033 H 
ATOM     27  H   LIG d   1       7.611  -8.633  -6.261  0.00  0.00     0.062 H 
ATOM     28  H   LIG d   1       6.526 -10.560  -7.343  0.00  0.00     0.062 H 
ATOM     29  H   LIG d   1       4.347 -10.362  -8.400  0.00  0.00     0.062 H 
ATOM     30  H   LIG d   1       3.114  -8.221  -8.437  0.00  0.00     0.064 H 
ATOM     31  H   LIG d   1       3.644  -3.218  -7.563  0.00  0.00     0.030 H 
ATOM     32  H   LIG d   1       5.318  -3.047  -8.192  0.00  0.00     0.030 H 
ENDROOT
BRANCH   1  33
ATOM     33  N   LIG d   1       3.755  -1.223  -5.783  0.00  0.00    -0.312 N 
ATOM     34  H   LIG d   1       4.348  -1.178  -4.858  0.00  0.00     0.122 HD
BRANCH  33  35
ATOM     35  C   LIG d   1       2.990   0.021  -5.937  0.00  0.00     0.012 C 
ATOM     36  H   LIG d   1       3.597   0.869  -5.589  0.00  0.00     0.044 H 
ATOM     37  H   LIG d   1       2.069  -0.039  -5.339  0.00  0.00     0.044 H 
BRANCH  35  38
ATOM     38  C   LIG d   1       2.630   0.220  -7.410  0.00  0.00     0.024 C 
ATOM     39  H   LIG d   1       1.542   0.118  -7.538  0.00  0.00     0.047 H 
ATOM     40  H   LIG d   1       3.142  -0.540  -8.019  0.00  0.00     0.047 H 
BRANCH  38  41
ATOM     41  N   LIG d   1       3.051   1.556  -7.839  0.00  0.00    -0.314 N 
ATOM     42  C   LIG d   1       3.847   1.696  -8.918  0.00  0.00     0.210 C 
ATOM     43  O   LIG d   1       4.215   0.717  -9.532  0.00  0.00    -0.276 OA
ATOM     44  H   LIG d   1       2.717   2.442  -7.283  0.00  0.00     0.149 HD
BRANCH  42  45
ATOM     45  C   LIG d   1       4.281   3.069  -9.361  0.00  0.00     0.012 C 
ATOM     46  H   LIG d   1       3.496   3.800  -9.110  0.00  0.00     0.032 H 
ATOM     47  H   LIG d   1       4.447   3.069 -10.447  0.00  0.00     0.032 H 
ATOM     48  H   LIG d   1       5.213   3.343  -8.846  0.00  0.00     0.032 H 
ENDBRANCH  42  45
ENDBRANCH  38  41
ENDBRANCH  35  38
ENDBRANCH  33  35
ENDBRANCH   1  33
BRANCH   4  49
ATOM     49  C   LIG d   1       5.669  -1.741  -4.180  0.00  0.00    -0.029 A 
ATOM     50  C   LIG d   1       5.619  -0.535  -3.509  0.00  0.00    -0.039 A 
ATOM     51  C   LIG d   1       4.783  -0.386  -2.415  0.00  0.00     0.041 A 
ATOM     52  H   LIG d   1       6.229   0.293  -3.838  0.00  0.00     0.064 H 
ATOM     53  C   LIG d   1       4.007  -1.449  -1.990  0.00  0.00    -0.043 A 
ATOM     54 CL   LIG d   1       4.714   1.131  -1.576  0.00  0.00    -0.084 Cl
ATOM     55  C   LIG d   1       4.063  -2.657  -2.660  0.00  0.00    -0.060 A 
ATOM     56  H   LIG d   1       3.358  -1.335  -1.134  0.00  0.00     0.063 H 
ATOM     57  C   LIG d   1       4.893  -2.803  -3.754  0.00  0.00    -0.057 A 
ATOM     58  H   LIG d   1       3.457  -3.487  -2.326  0.00  0.00     0.062 H 
ATOM     59  H   LIG d   1       4.936  -3.747  -4.277  0.00  0.00     0.062 H 
ENDBRANCH   4  49
BRANCH   7  60
ATOM     60  C   LIG d   1       8.454  -3.568  -4.311  0.00  0.00     0.325 C 
ATOM     61  O   LIG d   1       9.313  -3.230  -5.090  0.00  0.00    -0.249 OA
BRANCH  60  62
ATOM     62  O   LIG d   1       8.634  -3.388  -2.992  0.00  0.00    -0.467 OA
BRANCH  62  63
ATOM     63  C   LIG d   1       9.642  -4.209  -2.347  0.00  0.00     0.082 C 
ATOM     64  H   LIG d   1      10.471  -4.392  -3.048  0.00  0.00     0.066 H 
ATOM     65  H   LIG d   1       9.197  -5.170  -2.048  0.00  0.00     0.066 H 
ATOM     66  H   LIG d   1      10.025  -3.689  -1.456  0.00  0.00     0.066 H 
ENDBRANCH  62  63
ENDBRANCH  60  62
ENDBRANCH   7  60
TORSDOF 9
ENDMDL
MODEL 4
REMARK VINA RESULT:      -6.7      3.391      5.276
REMARK  9 active torsions:
REMARK  status: ('A' for Active; 'I' for Inactive)
REMARK    1  A    between atoms: C_1  and  C_2 
REMARK       I    between atoms: C_2  and  N_4 
REMARK    2  A    between atoms: N_4  and  C_5 
REMARK    3  A    between atoms: C_5  and  C_6 
REMARK    4  A    between atoms: C_6  and  N_7 
REMARK    5  A    between atoms: N_7  and  C_8 
REMARK    6  A    between atoms: C_11  and  C_34 
REMARK    7  A    between atoms: C_14  and  C_30 
REMARK    8  A    between atoms: C_30  and  O_32 
REMARK    9  A    between atoms: O_32  and  C_33 
ROOT
ATOM      1  C   LIG d   1       4.742  -6.067  -6.198  0.00  0.00     0.011 C 
ATOM      2  H   LIG d   1       3.994  -6.870  -6.139  0.00  0.00     0.046 H 
ATOM      3  C   LIG d   1       6.099  -6.556  -5.687  0.00  0.00    -0.018 C 
ATOM      4  C   LIG d   1       7.115  -5.413  -5.764  0.00  0.00     0.038 C 
ATOM      5  H   LIG d   1       8.089  -5.727  -5.358  0.00  0.00     0.051 H 
ATOM      6  N   LIG d   1       6.645  -4.280  -4.960  0.00  0.00    -0.274 N 
ATOM      7  C   LIG d   1       7.654  -3.220  -4.854  0.00  0.00     0.113 C 
ATOM      8  H   LIG d   1       7.675  -2.688  -5.816  0.00  0.00     0.058 H 
ATOM      9  C   LIG d   1       7.285  -2.270  -3.708  0.00  0.00     0.001 C 
ATOM     10  C   LIG d   1       5.829  -1.902  -3.849  0.00  0.00    -0.016 A 
ATOM     11  C   LIG d   1       5.091  -0.831  -3.218  0.00  0.00     0.003 A 
ATOM     12  C   LIG d   1       5.454   0.170  -2.312  0.00  0.00    -0.052 A 
ATOM     13  C   LIG d   1       4.468   1.040  -1.917  0.00  0.00    -0.061 A 
ATOM     14  C   LIG d   1       3.168   0.940  -2.386  0.00  0.00    -0.060 A 
ATOM     15  C   LIG d   1       2.780  -0.039  -3.284  0.00  0.00    -0.038 A 
ATOM     16  C   LIG d   1       3.761  -0.936  -3.703  0.00  0.00     0.047 A 
ATOM     17  N   LIG d   1       3.723  -1.997  -4.562  0.00  0.00    -0.356 N 
ATOM     18  H   LIG d   1       2.781  -2.266  -5.062  0.00  0.00     0.166 HD
ATOM     19  C   LIG d   1       4.962  -2.571  -4.644  0.00  0.00     0.038 A 
ATOM     20  C   LIG d   1       5.366  -3.764  -5.473  0.00  0.00     0.054 C 
ATOM     21  H   LIG d   1       5.510  -3.466  -6.523  0.00  0.00     0.053 H 
ATOM     22  C   LIG d   1       4.297  -4.853  -5.374  0.00  0.00    -0.016 C 
ATOM     23  H   LIG d   1       6.000  -6.890  -4.644  0.00  0.00     0.030 H 
ATOM     24  H   LIG d   1       6.444  -7.395  -6.310  0.00  0.00     0.030 H 
ATOM     25  H   LIG d   1       7.455  -2.774  -2.745  0.00  0.00     0.033 H 
ATOM     26  H   LIG d   1       7.910  -1.366  -3.765  0.00  0.00     0.033 H 
ATOM     27  H   LIG d   1       6.465   0.256  -1.942  0.00  0.00     0.062 H 
ATOM     28  H   LIG d   1       4.713   1.826  -1.218  0.00  0.00     0.062 H 
ATOM     29  H   LIG d   1       2.433   1.651  -2.040  0.00  0.00     0.062 H 
ATOM     30  H   LIG d   1       1.763  -0.107  -3.642  0.00  0.00     0.064 H 
ATOM     31  H   LIG d   1       3.343  -4.473  -5.768  0.00  0.00     0.030 H 
ATOM     32  H   LIG d   1       4.168  -5.151  -4.323  0.00  0.00     0.030 H 
ENDROOT
BRANCH   1  33
ATOM     33  N   LIG d   1       4.859  -5.683  -7.611  0.00  0.00    -0.312 N 
ATOM     34  H   LIG d   1       5.309  -6.518  -8.167  0.00  0.00     0.122 HD
BRANCH  33  35
ATOM     35  C   LIG d   1       3.543  -5.367  -8.182  0.00  0.00     0.012 C 
ATOM     36  H   LIG d   1       2.824  -5.190  -7.369  0.00  0.00     0.044 H 
ATOM     37  H   LIG d   1       3.198  -6.211  -8.798  0.00  0.00     0.044 H 
BRANCH  35  38
ATOM     38  C   LIG d   1       3.652  -4.112  -9.050  0.00  0.00     0.024 C 
ATOM     39  H   LIG d   1       2.881  -4.143  -9.836  0.00  0.00     0.047 H 
ATOM     40  H   LIG d   1       4.648  -4.073  -9.516  0.00  0.00     0.047 H 
BRANCH  38  41
ATOM     41  N   LIG d   1       3.454  -2.924  -8.217  0.00  0.00    -0.314 N 
ATOM     42  C   LIG d   1       3.183  -1.735  -8.793  0.00  0.00     0.210 C 
ATOM     43  O   LIG d   1       3.104  -1.650 -10.000  0.00  0.00    -0.276 OA
ATOM     44  H   LIG d   1       3.526  -3.001  -7.123  0.00  0.00     0.149 HD
BRANCH  42  45
ATOM     45  C   LIG d   1       2.980  -0.512  -7.937  0.00  0.00     0.012 C 
ATOM     46  H   LIG d   1       3.597   0.313  -8.324  0.00  0.00     0.032 H 
ATOM     47  H   LIG d   1       3.275  -0.736  -6.902  0.00  0.00     0.032 H 
ATOM     48  H   LIG d   1       1.920  -0.220  -7.962  0.00  0.00     0.032 H 
ENDBRANCH  42  45
ENDBRANCH  38  41
ENDBRANCH  35  38
ENDBRANCH  33  35
ENDBRANCH   1  33
BRANCH   4  49
ATOM     49  C   LIG d   1       7.271  -4.972  -7.196  0.00  0.00    -0.029 A 
ATOM     50  C   LIG d   1       7.004  -3.664  -7.549  0.00  0.00    -0.039 A 
ATOM     51  C   LIG d   1       7.152  -3.258  -8.864  0.00  0.00     0.041 A 
ATOM     52  H   LIG d   1       6.683  -2.956  -6.799  0.00  0.00     0.064 H 
ATOM     53  C   LIG d   1       7.557  -4.166  -9.826  0.00  0.00    -0.043 A 
ATOM     54 CL   LIG d   1       6.823  -1.612  -9.306  0.00  0.00    -0.084 Cl
ATOM     55  C   LIG d   1       7.818  -5.476  -9.472  0.00  0.00    -0.060 A 
ATOM     56  H   LIG d   1       7.668  -3.850 -10.853  0.00  0.00     0.063 H 
ATOM     57  C   LIG d   1       7.675  -5.879  -8.159  0.00  0.00    -0.057 A 
ATOM     58  H   LIG d   1       8.133  -6.185 -10.224  0.00  0.00     0.062 H 
ATOM     59  H   LIG d   1       7.880  -6.903  -7.883  0.00  0.00     0.062 H 
ENDBRANCH   4  49
BRANCH   7  60
ATOM     60  C   LIG d   1       9.002  -3.836  -4.584  0.00  0.00     0.325 C 
ATOM     61  O   LIG d   1       9.909  -3.672  -5.366  0.00  0.00    -0.249 OA
BRANCH  60  62
ATOM     62  O   LIG d   1       9.196  -4.567  -3.475  0.00  0.00    -0.467 OA
BRANCH  62  63
ATOM     63  C   LIG d   1      10.378  -4.268  -2.687  0.00  0.00     0.082 C 
ATOM     64  H   LIG d   1      10.118  -4.273  -1.618  0.00  0.00     0.066 H 
ATOM     65  H   LIG d   1      10.764  -3.277  -2.967  0.00  0.00     0.066 H 
ATOM     66  H   LIG d   1      11.149  -5.029  -2.879  0.00  0.00     0.066 H 
ENDBRANCH  62  63
ENDBRANCH  60  62
ENDBRANCH   7  60
TORSDOF 9
ENDMDL
MODEL 5
REMARK VINA RESULT:      -6.6      3.843      8.805
REMARK  9 active torsions:
REMARK  status: ('A' for Active; 'I' for Inactive)
REMARK    1  A    between atoms: C_1  and  C_2 
REMARK       I    between atoms: C_2  and  N_4 
REMARK    2  A    between atoms: N_4  and  C_5 
REMARK    3  A    between atoms: C_5  and  C_6 
REMARK    4  A    between atoms: C_6  and  N_7 
REMARK    5  A    between atoms: N_7  and  C_8 
REMARK    6  A    between atoms: C_11  and  C_34 
REMARK    7  A    between atoms: C_14  and  C_30 
REMARK    8  A    between atoms: C_30  and  O_32 
REMARK    9  A    between atoms: O_32  and  C_33 
ROOT
ATOM      1  C   LIG d   1       7.540  -0.232  -5.442  0.00  0.00     0.011 C 
ATOM      2  H   LIG d   1       8.497   0.306  -5.378  0.00  0.00     0.046 H 
ATOM      3  C   LIG d   1       7.696  -1.669  -4.939  0.00  0.00    -0.018 C 
ATOM      4  C   LIG d   1       6.354  -2.398  -5.055  0.00  0.00     0.038 C 
ATOM      5  H   LIG d   1       6.452  -3.449  -4.743  0.00  0.00     0.051 H 
ATOM      6  N   LIG d   1       5.909  -2.391  -6.453  0.00  0.00    -0.274 N 
ATOM      7  C   LIG d   1       4.716  -3.221  -6.657  0.00  0.00     0.113 C 
ATOM      8  H   LIG d   1       3.857  -2.669  -6.251  0.00  0.00     0.058 H 
ATOM      9  C   LIG d   1       4.533  -3.500  -8.154  0.00  0.00     0.001 C 
ATOM     10  C   LIG d   1       4.670  -2.195  -8.898  0.00  0.00    -0.016 A 
ATOM     11  C   LIG d   1       4.296  -1.873 -10.257  0.00  0.00     0.003 A 
ATOM     12  C   LIG d   1       3.714  -2.620 -11.287  0.00  0.00    -0.052 A 
ATOM     13  C   LIG d   1       3.495  -1.973 -12.478  0.00  0.00    -0.061 A 
ATOM     14  C   LIG d   1       3.831  -0.642 -12.664  0.00  0.00    -0.060 A 
ATOM     15  C   LIG d   1       4.405   0.122 -11.664  0.00  0.00    -0.038 A 
ATOM     16  C   LIG d   1       4.639  -0.508 -10.443  0.00  0.00     0.047 A 
ATOM     17  N   LIG d   1       5.178  -0.060  -9.271  0.00  0.00    -0.356 N 
ATOM     18  H   LIG d   1       5.518   0.982  -9.185  0.00  0.00     0.166 HD
ATOM     19  C   LIG d   1       5.194  -1.073  -8.351  0.00  0.00     0.038 A 
ATOM     20  C   LIG d   1       5.703  -1.016  -6.933  0.00  0.00     0.054 C 
ATOM     21  H   LIG d   1       4.959  -0.529  -6.283  0.00  0.00     0.053 H 
ATOM     22  C   LIG d   1       7.026  -0.252  -6.885  0.00  0.00    -0.016 C 
ATOM     23  H   LIG d   1       8.451  -2.190  -5.545  0.00  0.00     0.030 H 
ATOM     24  H   LIG d   1       8.015  -1.657  -3.886  0.00  0.00     0.030 H 
ATOM     25  H   LIG d   1       5.303  -4.209  -8.492  0.00  0.00     0.033 H 
ATOM     26  H   LIG d   1       3.536  -3.931  -8.328  0.00  0.00     0.033 H 
ATOM     27  H   LIG d   1       3.449  -3.658 -11.150  0.00  0.00     0.062 H 
ATOM     28  H   LIG d   1       3.048  -2.519 -13.295  0.00  0.00     0.062 H 
ATOM     29  H   LIG d   1       3.636  -0.185 -13.623  0.00  0.00     0.062 H 
ATOM     30  H   LIG d   1       4.662   1.159 -11.822  0.00  0.00     0.064 H 
ATOM     31  H   LIG d   1       6.872   0.780  -7.234  0.00  0.00     0.030 H 
ATOM     32  H   LIG d   1       7.766  -0.750  -7.530  0.00  0.00     0.030 H 
ENDROOT
BRANCH   1  33
ATOM     33  N   LIG d   1       6.581   0.484  -4.590  0.00  0.00    -0.312 N 
ATOM     34  H   LIG d   1       6.006  -0.252  -4.011  0.00  0.00     0.122 HD
BRANCH  33  35
ATOM     35  C   LIG d   1       7.273   1.399  -3.672  0.00  0.00     0.012 C 
ATOM     36  H   LIG d   1       7.435   0.895  -2.708  0.00  0.00     0.044 H 
ATOM     37  H   LIG d   1       6.657   2.297  -3.517  0.00  0.00     0.044 H 
BRANCH  35  38
ATOM     38  C   LIG d   1       8.621   1.801  -4.272  0.00  0.00     0.024 C 
ATOM     39  H   LIG d   1       8.566   1.741  -5.369  0.00  0.00     0.047 H 
ATOM     40  H   LIG d   1       9.404   1.119  -3.906  0.00  0.00     0.047 H 
BRANCH  38  41
ATOM     41  N   LIG d   1       8.943   3.173  -3.872  0.00  0.00    -0.314 N 
ATOM     42  C   LIG d   1       9.949   3.403  -3.004  0.00  0.00     0.210 C 
ATOM     43  O   LIG d   1      10.586   2.475  -2.555  0.00  0.00    -0.276 OA
ATOM     44  H   LIG d   1       8.365   4.014  -4.280  0.00  0.00     0.149 HD
BRANCH  42  45
ATOM     45  C   LIG d   1      10.281   4.814  -2.593  0.00  0.00     0.012 C 
ATOM     46  H   LIG d   1      10.611   5.385  -3.475  0.00  0.00     0.032 H 
ATOM     47  H   LIG d   1      11.086   4.798  -1.845  0.00  0.00     0.032 H 
ATOM     48  H   LIG d   1       9.388   5.290  -2.162  0.00  0.00     0.032 H 
ENDBRANCH  42  45
ENDBRANCH  38  41
ENDBRANCH  35  38
ENDBRANCH  33  35
ENDBRANCH   1  33
BRANCH   4  49
ATOM     49  C   LIG d   1       5.325  -1.700  -4.204  0.00  0.00    -0.029 A 
ATOM     50  C   LIG d   1       4.243  -1.081  -4.799  0.00  0.00    -0.039 A 
ATOM     51  C   LIG d   1       3.295  -0.444  -4.016  0.00  0.00     0.041 A 
ATOM     52  H   LIG d   1       4.133  -1.098  -5.873  0.00  0.00     0.064 H 
ATOM     53  C   LIG d   1       3.439  -0.418  -2.641  0.00  0.00    -0.043 A 
ATOM     54 CL   LIG d   1       1.930   0.327  -4.762  0.00  0.00    -0.084 Cl
ATOM     55  C   LIG d   1       4.526  -1.032  -2.049  0.00  0.00    -0.060 A 
ATOM     56  H   LIG d   1       2.702   0.083  -2.030  0.00  0.00     0.063 H 
ATOM     57  C   LIG d   1       5.469  -1.673  -2.829  0.00  0.00    -0.057 A 
ATOM     58  H   LIG d   1       4.639  -1.011  -0.974  0.00  0.00     0.062 H 
ATOM     59  H   LIG d   1       6.318  -2.153  -2.366  0.00  0.00     0.062 H 
ENDBRANCH   4  49
BRANCH   7  60
ATOM     60  C   LIG d   1       4.879  -4.524  -5.918  0.00  0.00     0.325 C 
ATOM     61  O   LIG d   1       4.149  -4.789  -4.993  0.00  0.00    -0.249 OA
BRANCH  60  62
ATOM     62  O   LIG d   1       5.836  -5.390  -6.288  0.00  0.00    -0.467 OA
BRANCH  62  63
ATOM     63  C   LIG d   1       5.569  -6.800  -6.069  0.00  0.00     0.082 C 
ATOM     64  H   LIG d   1       5.071  -7.221  -6.955  0.00  0.00     0.066 H 
ATOM     65  H   LIG d   1       4.917  -6.918  -5.190  0.00  0.00     0.066 H 
ATOM     66  H   LIG d   1       6.517  -7.331  -5.895  0.00  0.00     0.066 H 
ENDBRANCH  62  63
ENDBRANCH  60  62
ENDBRANCH   7  60
TORSDOF 9
ENDMDL
MODEL 6
REMARK VINA RESULT:      -6.6      4.464      7.940
REMARK  9 active torsions:
REMARK  status: ('A' for Active; 'I' for Inactive)
REMARK    1  A    between atoms: C_1  and  C_2 
REMARK       I    between atoms: C_2  and  N_4 
REMARK    2  A    between atoms: N_4  and  C_5 
REMARK    3  A    between atoms: C_5  and  C_6 
REMARK    4  A    between atoms: C_6  and  N_7 
REMARK    5  A    between atoms: N_7  and  C_8 
REMARK    6  A    between atoms: C_11  and  C_34 
REMARK    7  A    between atoms: C_14  and  C_30 
REMARK    8  A    between atoms: C_30  and  O_32 
REMARK    9  A    between atoms: O_32  and  C_33 
ROOT
ATOM      1  C   LIG d   1       5.167  -0.672  -3.268  0.00  0.00     0.011 C 
ATOM      2  H   LIG d   1       4.953  -0.115  -2.344  0.00  0.00     0.046 H 
ATOM      3  C   LIG d   1       3.940  -1.472  -3.711  0.00  0.00    -0.018 C 
ATOM      4  C   LIG d   1       4.272  -2.251  -4.987  0.00  0.00     0.038 C 
ATOM      5  H   LIG d   1       3.419  -2.871  -5.300  0.00  0.00     0.051 H 
ATOM      6  N   LIG d   1       5.405  -3.148  -4.736  0.00  0.00    -0.274 N 
ATOM      7  C   LIG d   1       5.661  -4.044  -5.870  0.00  0.00     0.113 C 
ATOM      8  H   LIG d   1       6.147  -3.450  -6.657  0.00  0.00     0.058 H 
ATOM      9  C   LIG d   1       6.562  -5.200  -5.418  0.00  0.00     0.001 C 
ATOM     10  C   LIG d   1       7.722  -4.622  -4.648  0.00  0.00    -0.016 A 
ATOM     11  C   LIG d   1       8.975  -5.242  -4.277  0.00  0.00     0.003 A 
ATOM     12  C   LIG d   1       9.505  -6.518  -4.493  0.00  0.00    -0.052 A 
ATOM     13  C   LIG d   1      10.757  -6.765  -3.985  0.00  0.00    -0.061 A 
ATOM     14  C   LIG d   1      11.472  -5.804  -3.290  0.00  0.00    -0.060 A 
ATOM     15  C   LIG d   1      10.973  -4.533  -3.063  0.00  0.00    -0.038 A 
ATOM     16  C   LIG d   1       9.705  -4.253  -3.566  0.00  0.00     0.047 A 
ATOM     17  N   LIG d   1       8.931  -3.128  -3.525  0.00  0.00    -0.356 N 
ATOM     18  H   LIG d   1       9.302  -2.225  -3.019  0.00  0.00     0.166 HD
ATOM     19  C   LIG d   1       7.748  -3.355  -4.172  0.00  0.00     0.038 A 
ATOM     20  C   LIG d   1       6.607  -2.387  -4.362  0.00  0.00     0.054 C 
ATOM     21  H   LIG d   1       6.839  -1.683  -5.176  0.00  0.00     0.053 H 
ATOM     22  C   LIG d   1       6.348  -1.626  -3.062  0.00  0.00    -0.016 C 
ATOM     23  H   LIG d   1       3.654  -2.176  -2.915  0.00  0.00     0.030 H 
ATOM     24  H   LIG d   1       3.105  -0.783  -3.909  0.00  0.00     0.030 H 
ATOM     25  H   LIG d   1       5.987  -5.885  -4.777  0.00  0.00     0.033 H 
ATOM     26  H   LIG d   1       6.929  -5.746  -6.300  0.00  0.00     0.033 H 
ATOM     27  H   LIG d   1       8.956  -7.274  -5.034  0.00  0.00     0.062 H 
ATOM     28  H   LIG d   1      11.198  -7.740  -4.133  0.00  0.00     0.062 H 
ATOM     29  H   LIG d   1      12.453  -6.055  -2.912  0.00  0.00     0.062 H 
ATOM     30  H   LIG d   1      11.540  -3.792  -2.519  0.00  0.00     0.064 H 
ATOM     31  H   LIG d   1       7.242  -1.048  -2.786  0.00  0.00     0.030 H 
ATOM     32  H   LIG d   1       6.108  -2.337  -2.257  0.00  0.00     0.030 H 
ENDROOT
BRANCH   1  33
ATOM     33  N   LIG d   1       5.508   0.314  -4.302  0.00  0.00    -0.312 N 
ATOM     34  H   LIG d   1       4.587   0.819  -4.626  0.00  0.00     0.122 HD
BRANCH  33  35
ATOM     35  C   LIG d   1       6.458   1.310  -3.787  0.00  0.00     0.012 C 
ATOM     36  H   LIG d   1       6.705   1.074  -2.742  0.00  0.00     0.044 H 
ATOM     37  H   LIG d   1       6.004   2.310  -3.840  0.00  0.00     0.044 H 
BRANCH  35  38
ATOM     38  C   LIG d   1       7.733   1.283  -4.633  0.00  0.00     0.024 C 
ATOM     39  H   LIG d   1       7.691   2.084  -5.385  0.00  0.00     0.047 H 
ATOM     40  H   LIG d   1       7.818   0.310  -5.139  0.00  0.00     0.047 H 
BRANCH  38  41
ATOM     41  N   LIG d   1       8.897   1.486  -3.766  0.00  0.00    -0.314 N 
ATOM     42  C   LIG d   1       9.472   2.702  -3.685  0.00  0.00     0.210 C 
ATOM     43  O   LIG d   1       9.026   3.628  -4.330  0.00  0.00    -0.276 OA
ATOM     44  H   LIG d   1       9.301   0.647  -3.182  0.00  0.00     0.149 HD
BRANCH  42  45
ATOM     45  C   LIG d   1      10.668   2.913  -2.794  0.00  0.00     0.012 C 
ATOM     46  H   LIG d   1      10.701   3.963  -2.465  0.00  0.00     0.032 H 
ATOM     47  H   LIG d   1      11.586   2.675  -3.350  0.00  0.00     0.032 H 
ATOM     48  H   LIG d   1      10.590   2.256  -1.915  0.00  0.00     0.032 H 
ENDBRANCH  42  45
ENDBRANCH  38  41
ENDBRANCH  35  38
ENDBRANCH  33  35
ENDBRANCH   1  33
BRANCH   4  49
ATOM     49  C   LIG d   1       4.638  -1.286  -6.085  0.00  0.00    -0.029 A 
ATOM     50  C   LIG d   1       3.699  -0.390  -6.559  0.00  0.00    -0.039 A 
ATOM     51  C   LIG d   1       4.038   0.500  -7.564  0.00  0.00     0.041 A 
ATOM     52  H   LIG d   1       2.703  -0.381  -6.143  0.00  0.00     0.064 H 
ATOM     53  C   LIG d   1       5.312   0.483  -8.101  0.00  0.00    -0.043 A 
ATOM     54 CL   LIG d   1       2.861   1.630  -8.154  0.00  0.00    -0.084 Cl
ATOM     55  C   LIG d   1       6.248  -0.418  -7.630  0.00  0.00    -0.060 A 
ATOM     56  H   LIG d   1       5.575   1.174  -8.889  0.00  0.00     0.063 H 
ATOM     57  C   LIG d   1       5.912  -1.302  -6.623  0.00  0.00    -0.057 A 
ATOM     58  H   LIG d   1       7.244  -0.431  -8.050  0.00  0.00     0.062 H 
ATOM     59  H   LIG d   1       6.644  -2.006  -6.254  0.00  0.00     0.062 H 
ENDBRANCH   4  49
BRANCH   7  60
ATOM     60  C   LIG d   1       4.354  -4.594  -6.380  0.00  0.00     0.325 C 
ATOM     61  O   LIG d   1       3.699  -5.336  -5.687  0.00  0.00    -0.249 OA
BRANCH  60  62
ATOM     62  O   LIG d   1       3.918  -4.259  -7.605  0.00  0.00    -0.467 OA
BRANCH  62  63
ATOM     63  C   LIG d   1       4.900  -4.250  -8.674  0.00  0.00     0.082 C 
ATOM     64  H   LIG d   1       5.372  -3.258  -8.731  0.00  0.00     0.066 H 
ATOM     65  H   LIG d   1       4.404  -4.476  -9.630  0.00  0.00     0.066 H 
ATOM     66  H   LIG d   1       5.670  -5.010  -8.472  0.00  0.00     0.066 H 
ENDBRANCH  62  63
ENDBRANCH  60  62
ENDBRANCH   7  60
TORSDOF 9
ENDMDL
MODEL 7
REMARK VINA RESULT:      -6.5      2.620      4.210
REMARK  9 active torsions:
REMARK  status: ('A' for Active; 'I' for Inactive)
REMARK    1  A    between atoms: C_1  and  C_2 
REMARK       I    between atoms: C_2  and  N_4 
REMARK    2  A    between atoms: N_4  and  C_5 
REMARK    3  A    between atoms: C_5  and  C_6 
REMARK    4  A    between atoms: C_6  and  N_7 
REMARK    5  A    between atoms: N_7  and  C_8 
REMARK    6  A    between atoms: C_11  and  C_34 
REMARK    7  A    between atoms: C_14  and  C_30 
REMARK    8  A    between atoms: C_30  and  O_32 
REMARK    9  A    between atoms: O_32  and  C_33 
ROOT
ATOM      1  C   LIG d   1       6.961  -2.408  -9.146  0.00  0.00     0.011 C 
ATOM      2  H   LIG d   1       8.036  -2.399  -9.374  0.00  0.00     0.046 H 
ATOM      3  C   LIG d   1       6.183  -1.595 -10.184  0.00  0.00    -0.018 C 
ATOM      4  C   LIG d   1       4.693  -1.611  -9.833  0.00  0.00     0.038 C 
ATOM      5  H   LIG d   1       4.118  -0.994 -10.539  0.00  0.00     0.051 H 
ATOM      6  N   LIG d   1       4.497  -1.049  -8.492  0.00  0.00    -0.274 N 
ATOM      7  C   LIG d   1       3.076  -0.880  -8.167  0.00  0.00     0.113 C 
ATOM      8  H   LIG d   1       2.667  -1.876  -7.944  0.00  0.00     0.058 H 
ATOM      9  C   LIG d   1       2.933   0.057  -6.960  0.00  0.00     0.001 C 
ATOM     10  C   LIG d   1       3.893  -0.400  -5.891  0.00  0.00    -0.016 A 
ATOM     11  C   LIG d   1       3.935  -0.051  -4.488  0.00  0.00     0.003 A 
ATOM     12  C   LIG d   1       3.145   0.784  -3.691  0.00  0.00    -0.052 A 
ATOM     13  C   LIG d   1       3.484   0.880  -2.364  0.00  0.00    -0.061 A 
ATOM     14  C   LIG d   1       4.556   0.187  -1.827  0.00  0.00    -0.060 A 
ATOM     15  C   LIG d   1       5.354  -0.647  -2.590  0.00  0.00    -0.038 A 
ATOM     16  C   LIG d   1       5.034  -0.764  -3.941  0.00  0.00     0.047 A 
ATOM     17  N   LIG d   1       5.598  -1.484  -4.956  0.00  0.00    -0.356 N 
ATOM     18  H   LIG d   1       6.474  -2.119  -4.758  0.00  0.00     0.166 HD
ATOM     19  C   LIG d   1       4.912  -1.262  -6.119  0.00  0.00     0.038 A 
ATOM     20  C   LIG d   1       5.195  -1.853  -7.477  0.00  0.00     0.054 C 
ATOM     21  H   LIG d   1       4.813  -2.884  -7.528  0.00  0.00     0.053 H 
ATOM     22  C   LIG d   1       6.699  -1.832  -7.751  0.00  0.00    -0.016 C 
ATOM     23  H   LIG d   1       6.549  -0.558 -10.188  0.00  0.00     0.030 H 
ATOM     24  H   LIG d   1       6.329  -2.039 -11.181  0.00  0.00     0.030 H 
ATOM     25  H   LIG d   1       3.170   1.087  -7.264  0.00  0.00     0.033 H 
ATOM     26  H   LIG d   1       1.900   0.014  -6.583  0.00  0.00     0.033 H 
ATOM     27  H   LIG d   1       2.307   1.327  -4.102  0.00  0.00     0.062 H 
ATOM     28  H   LIG d   1       2.895   1.515  -1.719  0.00  0.00     0.062 H 
ATOM     29  H   LIG d   1       4.777   0.302  -0.776  0.00  0.00     0.062 H 
ATOM     30  H   LIG d   1       6.188  -1.181  -2.159  0.00  0.00     0.064 H 
ATOM     31  H   LIG d   1       7.221  -2.441  -6.999  0.00  0.00     0.030 H 
ATOM     32  H   LIG d   1       7.070  -0.797  -7.706  0.00  0.00     0.030 H 
ENDROOT
BRANCH   1  33
ATOM     33  N   LIG d   1       6.519  -3.808  -9.189  0.00  0.00    -0.312 N 
ATOM     34  H   LIG d   1       5.992  -3.983 -10.138  0.00  0.00     0.122 HD
BRANCH  33  35
ATOM     35  C   LIG d   1       7.662  -4.725  -9.087  0.00  0.00     0.012 C 
ATOM     36  H   LIG d   1       8.586  -4.189  -9.350  0.00  0.00     0.044 H 
ATOM     37  H   LIG d   1       7.519  -5.568  -9.778  0.00  0.00     0.044 H 
BRANCH  35  38
ATOM     38  C   LIG d   1       7.768  -5.251  -7.654  0.00  0.00     0.024 C 
ATOM     39  H   LIG d   1       8.248  -4.491  -7.019  0.00  0.00     0.047 H 
ATOM     40  H   LIG d   1       8.371  -6.171  -7.644  0.00  0.00     0.047 H 
BRANCH  38  41
ATOM     41  N   LIG d   1       6.427  -5.541  -7.141  0.00  0.00    -0.314 N 
ATOM     42  C   LIG d   1       6.048  -5.063  -5.938  0.00  0.00     0.210 C 
ATOM     43  O   LIG d   1       6.818  -4.394  -5.282  0.00  0.00    -0.276 OA
ATOM     44  H   LIG d   1       5.729  -6.147  -7.736  0.00  0.00     0.149 HD
BRANCH  42  45
ATOM     45  C   LIG d   1       4.669  -5.360  -5.410  0.00  0.00     0.012 C 
ATOM     46  H   LIG d   1       4.309  -6.308  -5.838  0.00  0.00     0.032 H 
ATOM     47  H   LIG d   1       3.985  -4.547  -5.693  0.00  0.00     0.032 H 
ATOM     48  H   LIG d   1       4.706  -5.444  -4.314  0.00  0.00     0.032 H 
ENDBRANCH  42  45
ENDBRANCH  38  41
ENDBRANCH  35  38
ENDBRANCH  33  35
ENDBRANCH   1  33
BRANCH   4  49
ATOM     49  C   LIG d   1       4.185  -3.030  -9.854  0.00  0.00    -0.029 A 
ATOM     50  C   LIG d   1       4.254  -3.770 -11.018  0.00  0.00    -0.039 A 
ATOM     51  C   LIG d   1       3.792  -5.075 -11.036  0.00  0.00     0.041 A 
ATOM     52  H   LIG d   1       4.672  -3.333 -11.913  0.00  0.00     0.064 H 
ATOM     53  C   LIG d   1       3.251  -5.632  -9.892  0.00  0.00    -0.043 A 
ATOM     54 CL   LIG d   1       3.886  -6.009 -12.496  0.00  0.00    -0.084 Cl
ATOM     55  C   LIG d   1       3.177  -4.887  -8.730  0.00  0.00    -0.060 A 
ATOM     56  H   LIG d   1       2.886  -6.649  -9.907  0.00  0.00     0.063 H 
ATOM     57  C   LIG d   1       3.643  -3.587  -8.711  0.00  0.00    -0.057 A 
ATOM     58  H   LIG d   1       2.753  -5.323  -7.836  0.00  0.00     0.062 H 
ATOM     59  H   LIG d   1       3.586  -3.006  -7.802  0.00  0.00     0.062 H 
ENDBRANCH   4  49
BRANCH   7  60
ATOM     60  C   LIG d   1       2.357  -0.288  -9.351  0.00  0.00     0.325 C 
ATOM     61  O   LIG d   1       2.699   0.783  -9.792  0.00  0.00    -0.249 OA
BRANCH  60  62
ATOM     62  O   LIG d   1       1.335  -0.951  -9.916  0.00  0.00    -0.467 OA
BRANCH  62  63
ATOM     63  C   LIG d   1       1.351  -1.076 -11.363  0.00  0.00     0.082 C 
ATOM     64  H   LIG d   1       0.329  -1.261 -11.726  0.00  0.00     0.066 H 
ATOM     65  H   LIG d   1       2.001  -1.915 -11.652  0.00  0.00     0.066 H 
ATOM     66  H   LIG d   1       1.734  -0.145 -11.807  0.00  0.00     0.066 H 
ENDBRANCH  62  63
ENDBRANCH  60  62
ENDBRANCH   7  60
TORSDOF 9
ENDMDL
MODEL 8
REMARK VINA RESULT:      -6.4      7.198      9.985
REMARK  9 active torsions:
REMARK  status: ('A' for Active; 'I' for Inactive)
REMARK    1  A    between atoms: C_1  and  C_2 
REMARK       I    between atoms: C_2  and  N_4 
REMARK    2  A    between atoms: N_4  and  C_5 
REMARK    3  A    between atoms: C_5  and  C_6 
REMARK    4  A    between atoms: C_6  and  N_7 
REMARK    5  A    between atoms: N_7  and  C_8 
REMARK    6  A    between atoms: C_11  and  C_34 
REMARK    7  A    between atoms: C_14  and  C_30 
REMARK    8  A    between atoms: C_30  and  O_32 
REMARK    9  A    between atoms: O_32  and  C_33 
ROOT
ATOM      1  C   LIG d   1       9.683   2.603  -7.093  0.00  0.00     0.011 C 
ATOM      2  H   LIG d   1       9.417   3.401  -7.801  0.00  0.00     0.046 H 
ATOM      3  C   LIG d   1      10.183   1.365  -7.840  0.00  0.00    -0.018 C 
ATOM      4  C   LIG d   1      10.529   0.266  -6.831  0.00  0.00     0.038 C 
ATOM      5  H   LIG d   1      10.848  -0.652  -7.347  0.00  0.00     0.051 H 
ATOM      6  N   LIG d   1       9.342  -0.063  -6.034  0.00  0.00    -0.274 N 
ATOM      7  C   LIG d   1       9.563  -1.227  -5.168  0.00  0.00     0.113 C 
ATOM      8  H   LIG d   1      10.189  -0.897  -4.326  0.00  0.00     0.058 H 
ATOM      9  C   LIG d   1       8.214  -1.763  -4.673  0.00  0.00     0.001 C 
ATOM     10  C   LIG d   1       7.399  -0.600  -4.166  0.00  0.00    -0.016 A 
ATOM     11  C   LIG d   1       6.211  -0.604  -3.343  0.00  0.00     0.003 A 
ATOM     12  C   LIG d   1       5.453  -1.632  -2.771  0.00  0.00    -0.052 A 
ATOM     13  C   LIG d   1       4.359  -1.259  -2.029  0.00  0.00    -0.061 A 
ATOM     14  C   LIG d   1       4.010   0.069  -1.849  0.00  0.00    -0.060 A 
ATOM     15  C   LIG d   1       4.742   1.106  -2.402  0.00  0.00    -0.038 A 
ATOM     16  C   LIG d   1       5.858   0.759  -3.159  0.00  0.00     0.047 A 
ATOM     17  N   LIG d   1       6.780   1.511  -3.829  0.00  0.00    -0.356 N 
ATOM     18  H   LIG d   1       6.702   2.608  -3.823  0.00  0.00     0.166 HD
ATOM     19  C   LIG d   1       7.698   0.694  -4.430  0.00  0.00     0.038 A 
ATOM     20  C   LIG d   1       8.881   1.105  -5.268  0.00  0.00     0.054 C 
ATOM     21  H   LIG d   1       9.706   1.442  -4.621  0.00  0.00     0.053 H 
ATOM     22  C   LIG d   1       8.475   2.222  -6.231  0.00  0.00    -0.016 C 
ATOM     23  H   LIG d   1       9.399   1.005  -8.521  0.00  0.00     0.030 H 
ATOM     24  H   LIG d   1      11.082   1.625  -8.419  0.00  0.00     0.030 H 
ATOM     25  H   LIG d   1       7.688  -2.257  -5.504  0.00  0.00     0.033 H 
ATOM     26  H   LIG d   1       8.381  -2.488  -3.863  0.00  0.00     0.033 H 
ATOM     27  H   LIG d   1       5.718  -2.670  -2.905  0.00  0.00     0.062 H 
ATOM     28  H   LIG d   1       3.752  -2.026  -1.572  0.00  0.00     0.062 H 
ATOM     29  H   LIG d   1       3.138   0.304  -1.257  0.00  0.00     0.062 H 
ATOM     30  H   LIG d   1       4.459   2.138  -2.254  0.00  0.00     0.064 H 
ATOM     31  H   LIG d   1       8.140   3.100  -5.659  0.00  0.00     0.030 H 
ATOM     32  H   LIG d   1       7.657   1.873  -6.879  0.00  0.00     0.030 H 
ENDROOT
BRANCH   1  33
ATOM     33  N   LIG d   1      10.754   3.124  -6.233  0.00  0.00    -0.312 N 
ATOM     34  H   LIG d   1      11.695   2.619  -6.497  0.00  0.00     0.122 HD
BRANCH  33  35
ATOM     35  C   LIG d   1      10.910   4.574  -6.405  0.00  0.00     0.012 C 
ATOM     36  H   LIG d   1      10.572   4.861  -7.412  0.00  0.00     0.044 H 
ATOM     37  H   LIG d   1      11.969   4.846  -6.283  0.00  0.00     0.044 H 
BRANCH  35  38
ATOM     38  C   LIG d   1      10.070   5.306  -5.356  0.00  0.00     0.024 C 
ATOM     39  H   LIG d   1       9.131   4.758  -5.192  0.00  0.00     0.047 H 
ATOM     40  H   LIG d   1       9.844   6.322  -5.711  0.00  0.00     0.047 H 
BRANCH  38  41
ATOM     41  N   LIG d   1      10.819   5.382  -4.099  0.00  0.00    -0.314 N 
ATOM     42  C   LIG d   1      10.490   4.575  -3.070  0.00  0.00     0.210 C 
ATOM     43  O   LIG d   1       9.575   3.787  -3.186  0.00  0.00    -0.276 OA
ATOM     44  H   LIG d   1      11.648   6.096  -3.995  0.00  0.00     0.149 HD
BRANCH  42  45
ATOM     45  C   LIG d   1      11.259   4.652  -1.777  0.00  0.00     0.012 C 
ATOM     46  H   LIG d   1      12.318   4.863  -1.993  0.00  0.00     0.032 H 
ATOM     47  H   LIG d   1      11.177   3.694  -1.244  0.00  0.00     0.032 H 
ATOM     48  H   LIG d   1      10.846   5.457  -1.152  0.00  0.00     0.032 H 
ENDBRANCH  42  45
ENDBRANCH  38  41
ENDBRANCH  35  38
ENDBRANCH  33  35
ENDBRANCH   1  33
BRANCH   4  49
ATOM     49  C   LIG d   1      11.623   0.749  -5.913  0.00  0.00    -0.029 A 
ATOM     50  C   LIG d   1      12.862   1.073  -6.429  0.00  0.00    -0.039 A 
ATOM     51  C   LIG d   1      13.866   1.522  -5.586  0.00  0.00     0.041 A 
ATOM     52  H   LIG d   1      13.049   0.981  -7.488  0.00  0.00     0.064 H 
ATOM     53  C   LIG d   1      13.628   1.634  -4.229  0.00  0.00    -0.043 A 
ATOM     54 CL   LIG d   1      15.421   1.937  -6.234  0.00  0.00    -0.084 Cl
ATOM     55  C   LIG d   1      12.389   1.303  -3.714  0.00  0.00    -0.060 A 
ATOM     56  H   LIG d   1      14.412   1.979  -3.571  0.00  0.00     0.063 H 
ATOM     57  C   LIG d   1      11.387   0.860  -4.556  0.00  0.00    -0.057 A 
ATOM     58  H   LIG d   1      12.204   1.390  -2.653  0.00  0.00     0.062 H 
ATOM     59  H   LIG d   1      10.418   0.603  -4.153  0.00  0.00     0.062 H 
ENDBRANCH   4  49
BRANCH   7  60
ATOM     60  C   LIG d   1      10.278  -2.301  -5.944  0.00  0.00     0.325 C 
ATOM     61  O   LIG d   1       9.740  -2.823  -6.892  0.00  0.00    -0.249 OA
BRANCH  60  62
ATOM     62  O   LIG d   1      11.515  -2.681  -5.582  0.00  0.00    -0.467 OA
BRANCH  62  63
ATOM     63  C   LIG d   1      11.770  -2.823  -4.160  0.00  0.00     0.082 C 
ATOM     64  H   LIG d   1      12.719  -3.360  -4.010  0.00  0.00     0.066 H 
ATOM     65  H   LIG d   1      10.950  -3.390  -3.695  0.00  0.00     0.066 H 
ATOM     66  H   LIG d   1      11.836  -1.827  -3.697  0.00  0.00     0.066 H 
ENDBRANCH  62  63
ENDBRANCH  60  62
ENDBRANCH   7  60
TORSDOF 9
ENDMDL
MODEL 9
REMARK VINA RESULT:      -6.3     11.062     15.011
REMARK  9 active torsions:
REMARK  status: ('A' for Active; 'I' for Inactive)
REMARK    1  A    between atoms: C_1  and  C_2 
REMARK       I    between atoms: C_2  and  N_4 
REMARK    2  A    between atoms: N_4  and  C_5 
REMARK    3  A    between atoms: C_5  and  C_6 
REMARK    4  A    between atoms: C_6  and  N_7 
REMARK    5  A    between atoms: N_7  and  C_8 
REMARK    6  A    between atoms: C_11  and  C_34 
REMARK    7  A    between atoms: C_14  and  C_30 
REMARK    8  A    between atoms: C_30  and  O_32 
REMARK    9  A    between atoms: O_32  and  C_33 
ROOT
ATOM      1  C   LIG d   1       9.531   7.625  -0.815  0.00  0.00     0.011 C 
ATOM      2  H   LIG d   1       9.020   6.969  -0.097  0.00  0.00     0.046 H 
ATOM      3  C   LIG d   1       8.969   9.047  -0.740  0.00  0.00    -0.018 C 
ATOM      4  C   LIG d   1       9.686   9.934  -1.762  0.00  0.00     0.038 C 
ATOM      5  H   LIG d   1       9.267  10.951  -1.759  0.00  0.00     0.051 H 
ATOM      6  N   LIG d   1       9.503   9.382  -3.109  0.00  0.00    -0.274 N 
ATOM      7  C   LIG d   1      10.021  10.279  -4.148  0.00  0.00     0.113 C 
ATOM      8  H   LIG d   1      11.118  10.203  -4.132  0.00  0.00     0.058 H 
ATOM      9  C   LIG d   1       9.460   9.861  -5.513  0.00  0.00     0.001 C 
ATOM     10  C   LIG d   1       9.633   8.370  -5.660  0.00  0.00    -0.016 A 
ATOM     11  C   LIG d   1       9.546   7.551  -6.848  0.00  0.00     0.003 A 
ATOM     12  C   LIG d   1       9.284   7.846  -8.190  0.00  0.00    -0.052 A 
ATOM     13  C   LIG d   1       9.280   6.791  -9.070  0.00  0.00    -0.061 A 
ATOM     14  C   LIG d   1       9.523   5.491  -8.659  0.00  0.00    -0.060 A 
ATOM     15  C   LIG d   1       9.786   5.170  -7.339  0.00  0.00    -0.038 A 
ATOM     16  C   LIG d   1       9.797   6.220  -6.424  0.00  0.00     0.047 A 
ATOM     17  N   LIG d   1      10.018   6.257  -5.077  0.00  0.00    -0.356 N 
ATOM     18  H   LIG d   1      10.236   5.328  -4.530  0.00  0.00     0.166 HD
ATOM     19  C   LIG d   1       9.918   7.545  -4.626  0.00  0.00     0.038 A 
ATOM     20  C   LIG d   1      10.087   8.036  -3.210  0.00  0.00     0.054 C 
ATOM     21  H   LIG d   1      11.157   8.102  -2.957  0.00  0.00     0.053 H 
ATOM     22  C   LIG d   1       9.373   7.092  -2.243  0.00  0.00    -0.016 C 
ATOM     23  H   LIG d   1       7.892   9.028  -0.962  0.00  0.00     0.030 H 
ATOM     24  H   LIG d   1       9.128   9.451   0.271  0.00  0.00     0.030 H 
ATOM     25  H   LIG d   1       8.393  10.124  -5.568  0.00  0.00     0.033 H 
ATOM     26  H   LIG d   1      10.008  10.385  -6.311  0.00  0.00     0.033 H 
ATOM     27  H   LIG d   1       9.094   8.857  -8.519  0.00  0.00     0.062 H 
ATOM     28  H   LIG d   1       9.082   6.983 -10.114  0.00  0.00     0.062 H 
ATOM     29  H   LIG d   1       9.506   4.700  -9.395  0.00  0.00     0.062 H 
ATOM     30  H   LIG d   1       9.974   4.151  -7.032  0.00  0.00     0.064 H 
ATOM     31  H   LIG d   1       9.816   6.087  -2.310  0.00  0.00     0.030 H 
ATOM     32  H   LIG d   1       8.303   7.039  -2.498  0.00  0.00     0.030 H 
ENDROOT
BRANCH   1  33
ATOM     33  N   LIG d   1      10.955   7.642  -0.453  0.00  0.00    -0.312 N 
ATOM     34  H   LIG d   1      11.162   8.554   0.125  0.00  0.00     0.122 HD
BRANCH  33  35
ATOM     35  C   LIG d   1      11.308   6.463   0.348  0.00  0.00     0.012 C 
ATOM     36  H   LIG d   1      10.391   5.928   0.636  0.00  0.00     0.044 H 
ATOM     37  H   LIG d   1      11.845   6.782   1.254  0.00  0.00     0.044 H 
BRANCH  35  38
ATOM     38  C   LIG d   1      12.204   5.535  -0.476  0.00  0.00     0.024 C 
ATOM     39  H   LIG d   1      13.019   5.155   0.158  0.00  0.00     0.047 H 
ATOM     40  H   LIG d   1      12.628   6.093  -1.323  0.00  0.00     0.047 H 
BRANCH  38  41
ATOM     41  N   LIG d   1      11.410   4.411  -0.978  0.00  0.00    -0.314 N 
ATOM     42  C   LIG d   1      11.346   4.172  -2.304  0.00  0.00     0.210 C 
ATOM     43  O   LIG d   1      11.945   4.887  -3.078  0.00  0.00    -0.276 OA
ATOM     44  H   LIG d   1      10.868   3.763  -0.276  0.00  0.00     0.149 HD
BRANCH  42  45
ATOM     45  C   LIG d   1      10.531   3.016  -2.822  0.00  0.00     0.012 C 
ATOM     46  H   LIG d   1      10.743   2.118  -2.220  0.00  0.00     0.032 H 
ATOM     47  H   LIG d   1      10.794   2.823  -3.872  0.00  0.00     0.032 H 
ATOM     48  H   LIG d   1       9.461   3.260  -2.750  0.00  0.00     0.032 H 
ENDBRANCH  42  45
ENDBRANCH  38  41
ENDBRANCH  35  38
ENDBRANCH  33  35
ENDBRANCH   1  33
BRANCH   4  49
ATOM     49  C   LIG d   1      11.158   9.982  -1.443  0.00  0.00    -0.029 A 
ATOM     50  C   LIG d   1      11.584  10.470  -0.223  0.00  0.00    -0.039 A 
ATOM     51  C   LIG d   1      12.937  10.509   0.072  0.00  0.00     0.041 A 
ATOM     52  H   LIG d   1      10.864  10.817   0.502  0.00  0.00     0.064 H 
ATOM     53  C   LIG d   1      13.859  10.070  -0.860  0.00  0.00    -0.043 A 
ATOM     54 CL   LIG d   1      13.473  11.115   1.608  0.00  0.00    -0.084 Cl
ATOM     55  C   LIG d   1      13.431   9.588  -2.082  0.00  0.00    -0.060 A 
ATOM     56  H   LIG d   1      14.915  10.105  -0.632  0.00  0.00     0.063 H 
ATOM     57  C   LIG d   1      12.082   9.544  -2.374  0.00  0.00    -0.057 A 
ATOM     58  H   LIG d   1      14.153   9.246  -2.810  0.00  0.00     0.062 H 
ATOM     59  H   LIG d   1      11.747   9.167  -3.329  0.00  0.00     0.062 H 
ENDBRANCH   4  49
BRANCH   7  60
ATOM     60  C   LIG d   1       9.604  11.694  -3.844  0.00  0.00     0.325 C 
ATOM     61  O   LIG d   1       8.432  11.987  -3.823  0.00  0.00    -0.249 OA
BRANCH  60  62
ATOM     62  O   LIG d   1      10.535  12.629  -3.596  0.00  0.00    -0.467 OA
BRANCH  62  63
ATOM     63  C   LIG d   1      10.278  13.538  -2.493  0.00  0.00     0.082 C 
ATOM     64  H   LIG d   1      11.157  13.569  -1.831  0.00  0.00     0.066 H 
ATOM     65  H   LIG d   1       9.403  13.188  -1.926  0.00  0.00     0.066 H 
ATOM     66  H   LIG d   1      10.081  14.546  -2.886  0.00  0.00     0.066 H 
ENDBRANCH  62  63
ENDBRANCH  60  62
ENDBRANCH   7  60
TORSDOF 9
ENDMDL
MODEL 10
REMARK VINA RESULT:      -6.3      1.780      2.248
REMARK  9 active torsions:
REMARK  status: ('A' for Active; 'I' for Inactive)
REMARK    1  A    between atoms: C_1  and  C_2 
REMARK       I    between atoms: C_2  and  N_4 
REMARK    2  A    between atoms: N_4  and  C_5 
REMARK    3  A    between atoms: C_5  and  C_6 
REMARK    4  A    between atoms: C_6  and  N_7 
REMARK    5  A    between atoms: N_7  and  C_8 
REMARK    6  A    between atoms: C_11  and  C_34 
REMARK    7  A    between atoms: C_14  and  C_30 
REMARK    8  A    between atoms: C_30  and  O_32 
REMARK    9  A    between atoms: O_32  and  C_33 
ROOT
ATOM      1  C   LIG d   1       4.128  -3.623  -9.097  0.00  0.00     0.011 C 
ATOM      2  H   LIG d   1       3.661  -4.617  -9.151  0.00  0.00     0.046 H 
ATOM      3  C   LIG d   1       5.604  -3.700  -9.492  0.00  0.00    -0.018 C 
ATOM      4  C   LIG d   1       6.233  -2.307  -9.390  0.00  0.00     0.038 C 
ATOM      5  H   LIG d   1       7.307  -2.345  -9.626  0.00  0.00     0.051 H 
ATOM      6  N   LIG d   1       6.097  -1.804  -8.019  0.00  0.00    -0.274 N 
ATOM      7  C   LIG d   1       6.830  -0.550  -7.816  0.00  0.00     0.113 C 
ATOM      8  H   LIG d   1       6.252   0.252  -8.299  0.00  0.00     0.058 H 
ATOM      9  C   LIG d   1       6.989  -0.284  -6.313  0.00  0.00     0.001 C 
ATOM     10  C   LIG d   1       5.647  -0.479  -5.654  0.00  0.00    -0.016 A 
ATOM     11  C   LIG d   1       5.205  -0.071  -4.340  0.00  0.00     0.003 A 
ATOM     12  C   LIG d   1       5.837   0.604  -3.290  0.00  0.00    -0.052 A 
ATOM     13  C   LIG d   1       5.094   0.828  -2.158  0.00  0.00    -0.061 A 
ATOM     14  C   LIG d   1       3.778   0.410  -2.046  0.00  0.00    -0.060 A 
ATOM     15  C   LIG d   1       3.127  -0.258  -3.068  0.00  0.00    -0.038 A 
ATOM     16  C   LIG d   1       3.856  -0.499  -4.230  0.00  0.00     0.047 A 
ATOM     17  N   LIG d   1       3.529  -1.117  -5.404  0.00  0.00    -0.356 N 
ATOM     18  H   LIG d   1       2.521  -1.532  -5.544  0.00  0.00     0.166 HD
ATOM     19  C   LIG d   1       4.604  -1.103  -6.251  0.00  0.00     0.038 A 
ATOM     20  C   LIG d   1       4.681  -1.674  -7.644  0.00  0.00     0.054 C 
ATOM     21  H   LIG d   1       4.194  -0.994  -8.360  0.00  0.00     0.053 H 
ATOM     22  C   LIG d   1       4.012  -3.048  -7.681  0.00  0.00    -0.016 C 
ATOM     23  H   LIG d   1       6.130  -4.391  -8.818  0.00  0.00     0.030 H 
ATOM     24  H   LIG d   1       5.688  -4.064 -10.528  0.00  0.00     0.030 H 
ATOM     25  H   LIG d   1       7.722  -0.988  -5.892  0.00  0.00     0.033 H 
ATOM     26  H   LIG d   1       7.340   0.747  -6.158  0.00  0.00     0.033 H 
ATOM     27  H   LIG d   1       6.862   0.934  -3.368  0.00  0.00     0.062 H 
ATOM     28  H   LIG d   1       5.550   1.347  -1.327  0.00  0.00     0.062 H 
ATOM     29  H   LIG d   1       3.242   0.613  -1.131  0.00  0.00     0.062 H 
ATOM     30  H   LIG d   1       2.100  -0.579  -2.969  0.00  0.00     0.064 H 
ATOM     31  H   LIG d   1       2.950  -2.951  -7.411  0.00  0.00     0.030 H 
ATOM     32  H   LIG d   1       4.511  -3.723  -6.969  0.00  0.00     0.030 H 
ENDROOT
BRANCH   1  33
ATOM     33  N   LIG d   1       3.412  -2.753 -10.039  0.00  0.00    -0.312 N 
ATOM     34  H   LIG d   1       3.773  -2.962 -11.056  0.00  0.00     0.122 HD
BRANCH  33  35
ATOM     35  C   LIG d   1       1.963  -2.985  -9.975  0.00  0.00     0.012 C 
ATOM     36  H   LIG d   1       1.438  -2.170 -10.494  0.00  0.00     0.044 H 
ATOM     37  H   LIG d   1       1.643  -3.015  -8.923  0.00  0.00     0.044 H 
BRANCH  35  38
ATOM     38  C   LIG d   1       1.630  -4.318 -10.648  0.00  0.00     0.024 C 
ATOM     39  H   LIG d   1       2.506  -4.983 -10.597  0.00  0.00     0.047 H 
ATOM     40  H   LIG d   1       1.365  -4.142 -11.700  0.00  0.00     0.047 H 
BRANCH  38  41
ATOM     41  N   LIG d   1       0.500  -4.944  -9.957  0.00  0.00    -0.314 N 
ATOM     42  C   LIG d   1      -0.737  -4.873 -10.489  0.00  0.00     0.210 C 
ATOM     43  O   LIG d   1      -0.913  -4.292 -11.538  0.00  0.00    -0.276 OA
ATOM     44  H   LIG d   1       0.660  -5.471  -9.006  0.00  0.00     0.149 HD
BRANCH  42  45
ATOM     45  C   LIG d   1      -1.900  -5.517  -9.779  0.00  0.00     0.012 C 
ATOM     46  H   LIG d   1      -2.836  -5.032 -10.096  0.00  0.00     0.032 H 
ATOM     47  H   LIG d   1      -1.776  -5.401  -8.693  0.00  0.00     0.032 H 
ATOM     48  H   LIG d   1      -1.937  -6.586 -10.033  0.00  0.00     0.032 H 
ENDBRANCH  42  45
ENDBRANCH  38  41
ENDBRANCH  35  38
ENDBRANCH  33  35
ENDBRANCH   1  33
BRANCH   4  49
ATOM     49  C   LIG d   1       5.531  -1.366 -10.335  0.00  0.00    -0.029 A 
ATOM     50  C   LIG d   1       4.953  -0.208  -9.852  0.00  0.00    -0.039 A 
ATOM     51  C   LIG d   1       4.312   0.659 -10.721  0.00  0.00     0.041 A 
ATOM     52  H   LIG d   1       5.005   0.024  -8.799  0.00  0.00     0.064 H 
ATOM     53  C   LIG d   1       4.241   0.358 -12.069  0.00  0.00    -0.043 A 
ATOM     54 CL   LIG d   1       3.593   2.118 -10.116  0.00  0.00    -0.084 Cl
ATOM     55  C   LIG d   1       4.814  -0.804 -12.549  0.00  0.00    -0.060 A 
ATOM     56  H   LIG d   1       3.737   1.032 -12.746  0.00  0.00     0.063 H 
ATOM     57  C   LIG d   1       5.458  -1.666 -11.683  0.00  0.00    -0.057 A 
ATOM     58  H   LIG d   1       4.757  -1.039 -13.602  0.00  0.00     0.062 H 
ATOM     59  H   LIG d   1       5.907  -2.574 -12.058  0.00  0.00     0.062 H 
ENDBRANCH   4  49
BRANCH   7  60
ATOM     60  C   LIG d   1       8.190  -0.653  -8.456  0.00  0.00     0.325 C 
ATOM     61  O   LIG d   1       9.001  -1.440  -8.027  0.00  0.00    -0.249 OA
BRANCH  60  62
ATOM     62  O   LIG d   1       8.501   0.129  -9.502  0.00  0.00    -0.467 OA
BRANCH  62  63
ATOM     63  C   LIG d   1       8.161   1.536  -9.397  0.00  0.00     0.082 C 
ATOM     64  H   LIG d   1       7.071   1.658  -9.488  0.00  0.00     0.066 H 
ATOM     65  H   LIG d   1       8.661   2.096 -10.201  0.00  0.00     0.066 H 
ATOM     66  H   LIG d   1       8.492   1.922  -8.421  0.00  0.00     0.066 H 
ENDBRANCH  62  63
ENDBRANCH  60  62
ENDBRANCH   7  60
TORSDOF 9
ENDMDL
