MODEL 1
REMARK VINA RESULT:      -7.7      0.000      0.000
REMARK  4 active torsions:
REMARK  status: ('A' for Active; 'I' for Inactive)
REMARK    1  A    between atoms: C_5  and  C_7 
REMARK    2  A    between atoms: C_7  and  O_8 
REMARK    3  A    between atoms: O_8  and  C_9 
REMARK    4  A    between atoms: C_17  and  C_20 
ROOT
ATOM      1  C   LIG d   1       2.960   0.892  -7.123  0.00  0.00     0.124 A 
ATOM      2  C   LIG d   1       3.244   1.845  -8.100  0.00  0.00    -0.019 A 
ATOM      3  C   LIG d   1       3.339   1.479  -9.413  0.00  0.00    -0.044 A 
ATOM      4  C   LIG d   1       3.149   0.145  -9.774  0.00  0.00     0.065 A 
ATOM      5  C   LIG d   1       2.862  -0.824  -8.797  0.00  0.00     0.142 A 
ATOM      6  C   LIG d   1       2.775  -0.435  -7.466  0.00  0.00     0.023 A 
ATOM      7  O   LIG d   1       2.679  -2.112  -9.148  0.00  0.00    -0.462 OA
ATOM      8  C   LIG d   1       2.755  -2.546 -10.409  0.00  0.00     0.104 A 
ATOM      9  C   LIG d   1       3.024  -1.718 -11.452  0.00  0.00     0.064 A 
ATOM     10  C   LIG d   1       3.243  -0.287 -11.181  0.00  0.00     0.200 A 
ATOM     11  O   LIG d   1       3.488   0.502 -12.076  0.00  0.00    -0.286 OA
ATOM     12  H   LIG d   1       3.390   2.877  -7.818  0.00  0.00     0.065 H 
ATOM     13  H   LIG d   1       3.559   2.219 -10.167  0.00  0.00     0.063 H 
ATOM     14  H   LIG d   1       2.560  -1.168  -6.702  0.00  0.00     0.069 H 
ATOM     15  H   LIG d   1       2.595  -3.596 -10.607  0.00  0.00     0.104 H 
ENDROOT
BRANCH   1  16
ATOM     16  O   LIG d   1       2.869   1.270  -5.823  0.00  0.00    -0.487 OA
BRANCH  16  17
ATOM     17  C   LIG d   1       2.119   0.421  -4.951  0.00  0.00     0.117 C 
ATOM     18  H   LIG d   1       1.232   0.950  -4.602  0.00  0.00     0.075 H 
ATOM     19  H   LIG d   1       1.818  -0.477  -5.490  0.00  0.00     0.075 H 
BRANCH  17  20
ATOM     20  C   LIG d   1       2.972   0.036  -3.769  0.00  0.00     0.025 A 
ATOM     21  C   LIG d   1       3.542   1.018  -2.978  0.00  0.00     0.130 A 
ATOM     22  C   LIG d   1       4.325   0.662  -1.891  0.00  0.00    -0.026 A 
ATOM     23  F   LIG d   1       3.335   2.322  -3.263  0.00  0.00    -0.205 F 
ATOM     24  C   LIG d   1       4.536  -0.672  -1.601  0.00  0.00    -0.059 A 
ATOM     25  H   LIG d   1       4.770   1.427  -1.273  0.00  0.00     0.065 H 
ATOM     26  C   LIG d   1       3.965  -1.652  -2.393  0.00  0.00    -0.061 A 
ATOM     27  H   LIG d   1       5.147  -0.950  -0.755  0.00  0.00     0.062 H 
ATOM     28  C   LIG d   1       3.179  -1.299  -3.473  0.00  0.00    -0.053 A 
ATOM     29  H   LIG d   1       4.131  -2.694  -2.164  0.00  0.00     0.062 H 
ATOM     30  H   LIG d   1       2.732  -2.064  -4.088  0.00  0.00     0.062 H 
ENDBRANCH  17  20
ENDBRANCH  16  17
ENDBRANCH   1  16
BRANCH   9  31
ATOM     31  C   LIG d   1       3.099  -2.246 -12.836  0.00  0.00    -0.011 A 
ATOM     32  C   LIG d   1       1.977  -2.208 -13.661  0.00  0.00    -0.052 A 
ATOM     33  C   LIG d   1       2.054  -2.700 -14.948  0.00  0.00    -0.043 A 
ATOM     34  H   LIG d   1       1.049  -1.795 -13.294  0.00  0.00     0.062 H 
ATOM     35  C   LIG d   1       3.241  -3.231 -15.420  0.00  0.00     0.041 A 
ATOM     36  H   LIG d   1       1.184  -2.671 -15.589  0.00  0.00     0.063 H 
ATOM     37  C   LIG d   1       4.360  -3.271 -14.603  0.00  0.00    -0.043 A 
ATOM     38 CL   LIG d   1       3.330  -3.848 -17.040  0.00  0.00    -0.084 Cl
ATOM     39  C   LIG d   1       4.295  -2.777 -13.317  0.00  0.00    -0.052 A 
ATOM     40  H   LIG d   1       5.284  -3.687 -14.976  0.00  0.00     0.063 H 
ATOM     41  H   LIG d   1       5.169  -2.805 -12.683  0.00  0.00     0.062 H 
ENDBRANCH   9  31
TORSDOF 4
ENDMDL
MODEL 2
REMARK VINA RESULT:      -7.6      1.453      2.020
REMARK  4 active torsions:
REMARK  status: ('A' for Active; 'I' for Inactive)
REMARK    1  A    between atoms: C_5  and  C_7 
REMARK    2  A    between atoms: C_7  and  O_8 
REMARK    3  A    between atoms: O_8  and  C_9 
REMARK    4  A    between atoms: C_17  and  C_20 
ROOT
ATOM      1  C   LIG d   1       3.250  -0.121  -7.097  0.00  0.00     0.124 A 
ATOM      2  C   LIG d   1       4.075  -1.242  -7.164  0.00  0.00    -0.019 A 
ATOM      3  C   LIG d   1       4.004  -2.088  -8.234  0.00  0.00    -0.044 A 
ATOM      4  C   LIG d   1       3.099  -1.827  -9.263  0.00  0.00     0.065 A 
ATOM      5  C   LIG d   1       2.262  -0.699  -9.206  0.00  0.00     0.142 A 
ATOM      6  C   LIG d   1       2.344   0.148  -8.108  0.00  0.00     0.023 A 
ATOM      7  O   LIG d   1       1.389  -0.448 -10.202  0.00  0.00    -0.462 OA
ATOM      8  C   LIG d   1       1.263  -1.228 -11.279  0.00  0.00     0.104 A 
ATOM      9  C   LIG d   1       2.008  -2.348 -11.463  0.00  0.00     0.064 A 
ATOM     10  C   LIG d   1       2.995  -2.718 -10.434  0.00  0.00     0.200 A 
ATOM     11  O   LIG d   1       3.692  -3.711 -10.544  0.00  0.00    -0.286 OA
ATOM     12  H   LIG d   1       4.775  -1.442  -6.366  0.00  0.00     0.065 H 
ATOM     13  H   LIG d   1       4.644  -2.956  -8.281  0.00  0.00     0.063 H 
ATOM     14  H   LIG d   1       1.705   1.017  -8.047  0.00  0.00     0.069 H 
ATOM     15  H   LIG d   1       0.538  -0.957 -12.033  0.00  0.00     0.104 H 
ENDROOT
BRANCH   1  16
ATOM     16  O   LIG d   1       3.332   0.712  -6.029  0.00  0.00    -0.487 OA
BRANCH  16  17
ATOM     17  C   LIG d   1       2.417   0.482  -4.956  0.00  0.00     0.117 C 
ATOM     18  H   LIG d   1       1.905   1.413  -4.709  0.00  0.00     0.075 H 
ATOM     19  H   LIG d   1       1.684  -0.266  -5.257  0.00  0.00     0.075 H 
BRANCH  17  20
ATOM     20  C   LIG d   1       3.171  -0.011  -3.748  0.00  0.00     0.025 A 
ATOM     21  C   LIG d   1       3.759   0.895  -2.881  0.00  0.00     0.130 A 
ATOM     22  C   LIG d   1       4.452   0.440  -1.771  0.00  0.00    -0.026 A 
ATOM     23  F   LIG d   1       3.655   2.221  -3.117  0.00  0.00    -0.205 F 
ATOM     24  C   LIG d   1       4.557  -0.917  -1.532  0.00  0.00    -0.059 A 
ATOM     25  H   LIG d   1       4.910   1.145  -1.094  0.00  0.00     0.065 H 
ATOM     26  C   LIG d   1       3.970  -1.821  -2.399  0.00  0.00    -0.061 A 
ATOM     27  H   LIG d   1       5.098  -1.272  -0.667  0.00  0.00     0.062 H 
ATOM     28  C   LIG d   1       3.273  -1.368  -3.503  0.00  0.00    -0.053 A 
ATOM     29  H   LIG d   1       4.052  -2.881  -2.211  0.00  0.00     0.062 H 
ATOM     30  H   LIG d   1       2.812  -2.074  -4.177  0.00  0.00     0.062 H 
ENDBRANCH  17  20
ENDBRANCH  16  17
ENDBRANCH   1  16
BRANCH   9  31
ATOM     31  C   LIG d   1       1.831  -3.184 -12.675  0.00  0.00    -0.011 A 
ATOM     32  C   LIG d   1       0.939  -4.254 -12.664  0.00  0.00    -0.052 A 
ATOM     33  C   LIG d   1       0.778  -5.027 -13.796  0.00  0.00    -0.043 A 
ATOM     34  H   LIG d   1       0.374  -4.478 -11.770  0.00  0.00     0.062 H 
ATOM     35  C   LIG d   1       1.500  -4.741 -14.941  0.00  0.00     0.041 A 
ATOM     36  H   LIG d   1       0.086  -5.857 -13.787  0.00  0.00     0.063 H 
ATOM     37  C   LIG d   1       2.389  -3.678 -14.957  0.00  0.00    -0.043 A 
ATOM     38 CL   LIG d   1       1.293  -5.718 -16.361  0.00  0.00    -0.084 Cl
ATOM     39  C   LIG d   1       2.553  -2.896 -13.833  0.00  0.00    -0.052 A 
ATOM     40  H   LIG d   1       2.950  -3.460 -15.853  0.00  0.00     0.063 H 
ATOM     41  H   LIG d   1       3.242  -2.065 -13.849  0.00  0.00     0.062 H 
ENDBRANCH   9  31
TORSDOF 4
ENDMDL
MODEL 3
REMARK VINA RESULT:      -7.1      1.822      2.343
REMARK  4 active torsions:
REMARK  status: ('A' for Active; 'I' for Inactive)
REMARK    1  A    between atoms: C_5  and  C_7 
REMARK    2  A    between atoms: C_7  and  O_8 
REMARK    3  A    between atoms: O_8  and  C_9 
REMARK    4  A    between atoms: C_17  and  C_20 
ROOT
ATOM      1  C   LIG d   1       3.647   0.213  -7.755  0.00  0.00     0.124 A 
ATOM      2  C   LIG d   1       2.349  -0.041  -8.194  0.00  0.00    -0.019 A 
ATOM      3  C   LIG d   1       2.114  -0.369  -9.499  0.00  0.00    -0.044 A 
ATOM      4  C   LIG d   1       3.180  -0.451 -10.395  0.00  0.00     0.065 A 
ATOM      5  C   LIG d   1       4.494  -0.197  -9.963  0.00  0.00     0.142 A 
ATOM      6  C   LIG d   1       4.714   0.141  -8.634  0.00  0.00     0.023 A 
ATOM      7  O   LIG d   1       5.523  -0.277 -10.829  0.00  0.00    -0.462 OA
ATOM      8  C   LIG d   1       5.372  -0.593 -12.119  0.00  0.00     0.104 A 
ATOM      9  C   LIG d   1       4.160  -0.863 -12.669  0.00  0.00     0.064 A 
ATOM     10  C   LIG d   1       2.965  -0.804 -11.810  0.00  0.00     0.200 A 
ATOM     11  O   LIG d   1       1.852  -1.036 -12.248  0.00  0.00    -0.286 OA
ATOM     12  H   LIG d   1       1.525   0.022  -7.499  0.00  0.00     0.065 H 
ATOM     13  H   LIG d   1       1.107  -0.565  -9.836  0.00  0.00     0.063 H 
ATOM     14  H   LIG d   1       5.717   0.343  -8.286  0.00  0.00     0.069 H 
ATOM     15  H   LIG d   1       6.249  -0.636 -12.748  0.00  0.00     0.104 H 
ENDROOT
BRANCH   1  16
ATOM     16  O   LIG d   1       3.866   0.538  -6.456  0.00  0.00    -0.487 OA
BRANCH  16  17
ATOM     17  C   LIG d   1       2.834   0.214  -5.523  0.00  0.00     0.117 C 
ATOM     18  H   LIG d   1       2.086   1.007  -5.519  0.00  0.00     0.075 H 
ATOM     19  H   LIG d   1       2.365  -0.727  -5.812  0.00  0.00     0.075 H 
BRANCH  17  20
ATOM     20  C   LIG d   1       3.427   0.076  -4.144  0.00  0.00     0.025 A 
ATOM     21  C   LIG d   1       3.908  -1.149  -3.716  0.00  0.00     0.130 A 
ATOM     22  C   LIG d   1       4.453  -1.274  -2.449  0.00  0.00    -0.026 A 
ATOM     23  F   LIG d   1       3.846  -2.223  -4.534  0.00  0.00    -0.205 F 
ATOM     24  C   LIG d   1       4.515  -0.175  -1.614  0.00  0.00    -0.059 A 
ATOM     25  H   LIG d   1       4.829  -2.229  -2.114  0.00  0.00     0.065 H 
ATOM     26  C   LIG d   1       4.034   1.049  -2.042  0.00  0.00    -0.061 A 
ATOM     27  H   LIG d   1       4.939  -0.272  -0.625  0.00  0.00     0.062 H 
ATOM     28  C   LIG d   1       3.495   1.176  -3.309  0.00  0.00    -0.053 A 
ATOM     29  H   LIG d   1       4.083   1.907  -1.389  0.00  0.00     0.062 H 
ATOM     30  H   LIG d   1       3.124   2.132  -3.644  0.00  0.00     0.062 H 
ENDBRANCH  17  20
ENDBRANCH  16  17
ENDBRANCH   1  16
BRANCH   9  31
ATOM     31  C   LIG d   1       4.043  -1.209 -14.106  0.00  0.00    -0.011 A 
ATOM     32  C   LIG d   1       3.819  -2.528 -14.493  0.00  0.00    -0.052 A 
ATOM     33  C   LIG d   1       3.710  -2.843 -15.832  0.00  0.00    -0.043 A 
ATOM     34  H   LIG d   1       3.732  -3.304 -13.746  0.00  0.00     0.062 H 
ATOM     35  C   LIG d   1       3.822  -1.851 -16.790  0.00  0.00     0.041 A 
ATOM     36  H   LIG d   1       3.537  -3.866 -16.132  0.00  0.00     0.063 H 
ATOM     37  C   LIG d   1       4.044  -0.537 -16.411  0.00  0.00    -0.043 A 
ATOM     38 CL   LIG d   1       3.683  -2.254 -18.473  0.00  0.00    -0.084 Cl
ATOM     39  C   LIG d   1       4.150  -0.211 -15.074  0.00  0.00    -0.052 A 
ATOM     40  H   LIG d   1       4.131   0.233 -17.163  0.00  0.00     0.063 H 
ATOM     41  H   LIG d   1       4.318   0.814 -14.780  0.00  0.00     0.062 H 
ENDBRANCH   9  31
TORSDOF 4
ENDMDL
MODEL 4
REMARK VINA RESULT:      -7.0      7.764     10.210
REMARK  4 active torsions:
REMARK  status: ('A' for Active; 'I' for Inactive)
REMARK    1  A    between atoms: C_5  and  C_7 
REMARK    2  A    between atoms: C_7  and  O_8 
REMARK    3  A    between atoms: O_8  and  C_9 
REMARK    4  A    between atoms: C_17  and  C_20 
ROOT
ATOM      1  C   LIG d   1       8.790   1.507  -4.590  0.00  0.00     0.124 A 
ATOM      2  C   LIG d   1       9.090   2.376  -3.542  0.00  0.00    -0.019 A 
ATOM      3  C   LIG d   1       9.454   3.667  -3.801  0.00  0.00    -0.044 A 
ATOM      4  C   LIG d   1       9.525   4.115  -5.120  0.00  0.00     0.065 A 
ATOM      5  C   LIG d   1       9.225   3.246  -6.184  0.00  0.00     0.142 A 
ATOM      6  C   LIG d   1       8.862   1.935  -5.903  0.00  0.00     0.023 A 
ATOM      7  O   LIG d   1       9.294   3.680  -7.458  0.00  0.00    -0.462 OA
ATOM      8  C   LIG d   1       9.640   4.927  -7.789  0.00  0.00     0.104 A 
ATOM      9  C   LIG d   1       9.955   5.869  -6.863  0.00  0.00     0.064 A 
ATOM     10  C   LIG d   1       9.913   5.502  -5.438  0.00  0.00     0.200 A 
ATOM     11  O   LIG d   1      10.185   6.304  -4.563  0.00  0.00    -0.286 OA
ATOM     12  H   LIG d   1       9.034   2.028  -2.521  0.00  0.00     0.065 H 
ATOM     13  H   LIG d   1       9.686   4.338  -2.988  0.00  0.00     0.063 H 
ATOM     14  H   LIG d   1       8.632   1.253  -6.709  0.00  0.00     0.069 H 
ATOM     15  H   LIG d   1       9.671   5.196  -8.835  0.00  0.00     0.104 H 
ENDROOT
BRANCH   1  16
ATOM     16  O   LIG d   1       8.430   0.227  -4.318  0.00  0.00    -0.487 OA
BRANCH  16  17
ATOM     17  C   LIG d   1       7.174  -0.218  -4.834  0.00  0.00     0.117 C 
ATOM     18  H   LIG d   1       6.827   0.480  -5.596  0.00  0.00     0.075 H 
ATOM     19  H   LIG d   1       7.291  -1.208  -5.275  0.00  0.00     0.075 H 
BRANCH  17  20
ATOM     20  C   LIG d   1       6.165  -0.283  -3.716  0.00  0.00     0.025 A 
ATOM     21  C   LIG d   1       5.650  -1.504  -3.318  0.00  0.00     0.130 A 
ATOM     22  C   LIG d   1       4.724  -1.562  -2.289  0.00  0.00    -0.026 A 
ATOM     23  F   LIG d   1       6.052  -2.639  -3.930  0.00  0.00    -0.205 F 
ATOM     24  C   LIG d   1       4.315  -0.400  -1.664  0.00  0.00    -0.059 A 
ATOM     25  H   LIG d   1       4.323  -2.515  -1.977  0.00  0.00     0.065 H 
ATOM     26  C   LIG d   1       4.829   0.820  -2.063  0.00  0.00    -0.061 A 
ATOM     27  H   LIG d   1       3.591  -0.445  -0.863  0.00  0.00     0.062 H 
ATOM     28  C   LIG d   1       5.758   0.878  -3.084  0.00  0.00    -0.053 A 
ATOM     29  H   LIG d   1       4.508   1.727  -1.573  0.00  0.00     0.062 H 
ATOM     30  H   LIG d   1       6.162   1.830  -3.392  0.00  0.00     0.062 H 
ENDBRANCH  17  20
ENDBRANCH  16  17
ENDBRANCH   1  16
BRANCH   9  31
ATOM     31  C   LIG d   1      10.335   7.241  -7.280  0.00  0.00    -0.011 A 
ATOM     32  C   LIG d   1      11.658   7.532  -7.605  0.00  0.00    -0.052 A 
ATOM     33  C   LIG d   1      12.005   8.811  -7.992  0.00  0.00    -0.043 A 
ATOM     34  H   LIG d   1      12.411   6.760  -7.552  0.00  0.00     0.062 H 
ATOM     35  C   LIG d   1      11.042   9.802  -8.059  0.00  0.00     0.041 A 
ATOM     36  H   LIG d   1      13.031   9.037  -8.244  0.00  0.00     0.063 H 
ATOM     37  C   LIG d   1       9.725   9.517  -7.737  0.00  0.00    -0.043 A 
ATOM     38 CL   LIG d   1      11.486  11.408  -8.547  0.00  0.00    -0.084 Cl
ATOM     39  C   LIG d   1       9.367   8.241  -7.353  0.00  0.00    -0.052 A 
ATOM     40  H   LIG d   1       8.978  10.294  -7.791  0.00  0.00     0.063 H 
ATOM     41  H   LIG d   1       8.339   8.020  -7.108  0.00  0.00     0.062 H 
ENDBRANCH   9  31
TORSDOF 4
ENDMDL
MODEL 5
REMARK VINA RESULT:      -7.0      7.798     10.697
REMARK  4 active torsions:
REMARK  status: ('A' for Active; 'I' for Inactive)
REMARK    1  A    between atoms: C_5  and  C_7 
REMARK    2  A    between atoms: C_7  and  O_8 
REMARK    3  A    between atoms: O_8  and  C_9 
REMARK    4  A    between atoms: C_17  and  C_20 
ROOT
ATOM      1  C   LIG d   1       7.930   0.895  -4.874  0.00  0.00     0.124 A 
ATOM      2  C   LIG d   1       8.114   1.325  -6.187  0.00  0.00    -0.019 A 
ATOM      3  C   LIG d   1       8.700   2.533  -6.442  0.00  0.00    -0.044 A 
ATOM      4  C   LIG d   1       9.115   3.337  -5.381  0.00  0.00     0.065 A 
ATOM      5  C   LIG d   1       8.934   2.914  -4.053  0.00  0.00     0.142 A 
ATOM      6  C   LIG d   1       8.332   1.685  -3.812  0.00  0.00     0.023 A 
ATOM      7  O   LIG d   1       9.336   3.692  -3.029  0.00  0.00    -0.462 OA
ATOM      8  C   LIG d   1       9.917   4.883  -3.198  0.00  0.00     0.104 A 
ATOM      9  C   LIG d   1      10.153   5.414  -4.426  0.00  0.00     0.064 A 
ATOM     10  C   LIG d   1       9.752   4.646  -5.617  0.00  0.00     0.200 A 
ATOM     11  O   LIG d   1       9.938   5.071  -6.744  0.00  0.00    -0.286 OA
ATOM     12  H   LIG d   1       7.792   0.700  -7.008  0.00  0.00     0.065 H 
ATOM     13  H   LIG d   1       8.840   2.863  -7.460  0.00  0.00     0.063 H 
ATOM     14  H   LIG d   1       8.181   1.346  -2.797  0.00  0.00     0.069 H 
ATOM     15  H   LIG d   1      10.210   5.446  -2.324  0.00  0.00     0.104 H 
ENDROOT
BRANCH   1  16
ATOM     16  O   LIG d   1       7.347  -0.307  -4.636  0.00  0.00    -0.487 OA
BRANCH  16  17
ATOM     17  C   LIG d   1       7.067  -0.634  -3.273  0.00  0.00     0.117 C 
ATOM     18  H   LIG d   1       7.506  -1.602  -3.035  0.00  0.00     0.075 H 
ATOM     19  H   LIG d   1       7.494   0.129  -2.622  0.00  0.00     0.075 H 
BRANCH  17  20
ATOM     20  C   LIG d   1       5.575  -0.694  -3.067  0.00  0.00     0.025 A 
ATOM     21  C   LIG d   1       4.867   0.463  -2.790  0.00  0.00     0.130 A 
ATOM     22  C   LIG d   1       3.496   0.406  -2.601  0.00  0.00    -0.026 A 
ATOM     23  F   LIG d   1       5.513   1.647  -2.707  0.00  0.00    -0.205 F 
ATOM     24  C   LIG d   1       2.838  -0.805  -2.687  0.00  0.00    -0.059 A 
ATOM     25  H   LIG d   1       2.943   1.308  -2.386  0.00  0.00     0.065 H 
ATOM     26  C   LIG d   1       3.546  -1.961  -2.963  0.00  0.00    -0.061 A 
ATOM     27  H   LIG d   1       1.769  -0.850  -2.539  0.00  0.00     0.062 H 
ATOM     28  C   LIG d   1       4.913  -1.904  -3.158  0.00  0.00    -0.053 A 
ATOM     29  H   LIG d   1       3.031  -2.907  -3.030  0.00  0.00     0.062 H 
ATOM     30  H   LIG d   1       5.465  -2.805  -3.377  0.00  0.00     0.062 H 
ENDBRANCH  17  20
ENDBRANCH  16  17
ENDBRANCH   1  16
BRANCH   9  31
ATOM     31  C   LIG d   1      10.800   6.741  -4.564  0.00  0.00    -0.011 A 
ATOM     32  C   LIG d   1      12.189   6.842  -4.609  0.00  0.00    -0.052 A 
ATOM     33  C   LIG d   1      12.785   8.080  -4.738  0.00  0.00    -0.043 A 
ATOM     34  H   LIG d   1      12.798   5.952  -4.542  0.00  0.00     0.062 H 
ATOM     35  C   LIG d   1      12.006   9.220  -4.823  0.00  0.00     0.041 A 
ATOM     36  H   LIG d   1      13.862   8.158  -4.773  0.00  0.00     0.063 H 
ATOM     37  C   LIG d   1      10.625   9.126  -4.779  0.00  0.00    -0.043 A 
ATOM     38 CL   LIG d   1      12.762  10.775  -4.986  0.00  0.00    -0.084 Cl
ATOM     39  C   LIG d   1      10.019   7.892  -4.655  0.00  0.00    -0.052 A 
ATOM     40  H   LIG d   1      10.021  10.019  -4.846  0.00  0.00     0.063 H 
ATOM     41  H   LIG d   1       8.942   7.820  -4.626  0.00  0.00     0.062 H 
ENDBRANCH   9  31
TORSDOF 4
ENDMDL
MODEL 6
REMARK VINA RESULT:      -6.9      2.596      3.231
REMARK  4 active torsions:
REMARK  status: ('A' for Active; 'I' for Inactive)
REMARK    1  A    between atoms: C_5  and  C_7 
REMARK    2  A    between atoms: C_7  and  O_8 
REMARK    3  A    between atoms: O_8  and  C_9 
REMARK    4  A    between atoms: C_17  and  C_20 
ROOT
ATOM      1  C   LIG d   1       5.706  -0.281  -6.862  0.00  0.00     0.124 A 
ATOM      2  C   LIG d   1       6.262  -1.381  -7.512  0.00  0.00    -0.019 A 
ATOM      3  C   LIG d   1       5.545  -2.058  -8.457  0.00  0.00    -0.044 A 
ATOM      4  C   LIG d   1       4.251  -1.644  -8.772  0.00  0.00     0.065 A 
ATOM      5  C   LIG d   1       3.680  -0.535  -8.123  0.00  0.00     0.142 A 
ATOM      6  C   LIG d   1       4.421   0.138  -7.159  0.00  0.00     0.023 A 
ATOM      7  O   LIG d   1       2.430  -0.136  -8.428  0.00  0.00    -0.462 OA
ATOM      8  C   LIG d   1       1.669  -0.746  -9.341  0.00  0.00     0.104 A 
ATOM      9  C   LIG d   1       2.094  -1.827 -10.043  0.00  0.00     0.064 A 
ATOM     10  C   LIG d   1       3.447  -2.349  -9.788  0.00  0.00     0.200 A 
ATOM     11  O   LIG d   1       3.883  -3.316 -10.387  0.00  0.00    -0.286 OA
ATOM     12  H   LIG d   1       7.264  -1.700  -7.267  0.00  0.00     0.065 H 
ATOM     13  H   LIG d   1       5.978  -2.911  -8.958  0.00  0.00     0.063 H 
ATOM     14  H   LIG d   1       3.997   0.989  -6.647  0.00  0.00     0.069 H 
ATOM     15  H   LIG d   1       0.676  -0.363  -9.527  0.00  0.00     0.104 H 
ENDROOT
BRANCH   1  16
ATOM     16  O   LIG d   1       6.429   0.382  -5.924  0.00  0.00    -0.487 OA
BRANCH  16  17
ATOM     17  C   LIG d   1       7.003  -0.399  -4.875  0.00  0.00     0.117 C 
ATOM     18  H   LIG d   1       7.379  -1.337  -5.284  0.00  0.00     0.075 H 
ATOM     19  H   LIG d   1       7.825   0.153  -4.418  0.00  0.00     0.075 H 
BRANCH  17  20
ATOM     20  C   LIG d   1       5.954  -0.690  -3.833  0.00  0.00     0.025 A 
ATOM     21  C   LIG d   1       5.605   0.281  -2.911  0.00  0.00     0.130 A 
ATOM     22  C   LIG d   1       4.640   0.012  -1.954  0.00  0.00    -0.026 A 
ATOM     23  F   LIG d   1       6.205   1.492  -2.945  0.00  0.00    -0.205 F 
ATOM     24  C   LIG d   1       4.029  -1.226  -1.921  0.00  0.00    -0.059 A 
ATOM     25  H   LIG d   1       4.367   0.770  -1.235  0.00  0.00     0.065 H 
ATOM     26  C   LIG d   1       4.378  -2.196  -2.842  0.00  0.00    -0.061 A 
ATOM     27  H   LIG d   1       3.277  -1.437  -1.175  0.00  0.00     0.062 H 
ATOM     28  C   LIG d   1       5.336  -1.927  -3.801  0.00  0.00    -0.053 A 
ATOM     29  H   LIG d   1       3.899  -3.164  -2.815  0.00  0.00     0.062 H 
ATOM     30  H   LIG d   1       5.606  -2.683  -4.522  0.00  0.00     0.062 H 
ENDBRANCH  17  20
ENDBRANCH  16  17
ENDBRANCH   1  16
BRANCH   9  31
ATOM     31  C   LIG d   1       1.212  -2.472 -11.047  0.00  0.00    -0.011 A 
ATOM     32  C   LIG d   1       0.995  -1.863 -12.281  0.00  0.00    -0.052 A 
ATOM     33  C   LIG d   1       0.174  -2.469 -13.211  0.00  0.00    -0.043 A 
ATOM     34  H   LIG d   1       1.468  -0.920 -12.510  0.00  0.00     0.062 H 
ATOM     35  C   LIG d   1      -0.434  -3.677 -12.919  0.00  0.00     0.041 A 
ATOM     36  H   LIG d   1       0.005  -1.997 -14.168  0.00  0.00     0.063 H 
ATOM     37  C   LIG d   1      -0.221  -4.286 -11.693  0.00  0.00    -0.043 A 
ATOM     38 CL   LIG d   1      -1.465  -4.433 -14.093  0.00  0.00    -0.084 Cl
ATOM     39  C   LIG d   1       0.602  -3.692 -10.759  0.00  0.00    -0.052 A 
ATOM     40  H   LIG d   1      -0.698  -5.229 -11.470  0.00  0.00     0.063 H 
ATOM     41  H   LIG d   1       0.771  -4.170  -9.805  0.00  0.00     0.062 H 
ENDBRANCH   9  31
TORSDOF 4
ENDMDL
MODEL 7
REMARK VINA RESULT:      -6.9      6.954      8.343
REMARK  4 active torsions:
REMARK  status: ('A' for Active; 'I' for Inactive)
REMARK    1  A    between atoms: C_5  and  C_7 
REMARK    2  A    between atoms: C_7  and  O_8 
REMARK    3  A    between atoms: O_8  and  C_9 
REMARK    4  A    between atoms: C_17  and  C_20 
ROOT
ATOM      1  C   LIG d   1       6.310  -3.514  -5.146  0.00  0.00     0.124 A 
ATOM      2  C   LIG d   1       5.030  -3.722  -5.657  0.00  0.00    -0.019 A 
ATOM      3  C   LIG d   1       4.602  -4.985  -5.954  0.00  0.00    -0.044 A 
ATOM      4  C   LIG d   1       5.453  -6.070  -5.742  0.00  0.00     0.065 A 
ATOM      5  C   LIG d   1       6.745  -5.872  -5.227  0.00  0.00     0.142 A 
ATOM      6  C   LIG d   1       7.166  -4.580  -4.937  0.00  0.00     0.023 A 
ATOM      7  O   LIG d   1       7.566  -6.922  -5.023  0.00  0.00    -0.462 OA
ATOM      8  C   LIG d   1       7.219  -8.185  -5.287  0.00  0.00     0.104 A 
ATOM      9  C   LIG d   1       6.001  -8.519  -5.787  0.00  0.00     0.064 A 
ATOM     10  C   LIG d   1       5.025  -7.448  -6.049  0.00  0.00     0.200 A 
ATOM     11  O   LIG d   1       3.918  -7.687  -6.497  0.00  0.00    -0.286 OA
ATOM     12  H   LIG d   1       4.373  -2.880  -5.820  0.00  0.00     0.065 H 
ATOM     13  H   LIG d   1       3.611  -5.142  -6.350  0.00  0.00     0.063 H 
ATOM     14  H   LIG d   1       8.158  -4.409  -4.545  0.00  0.00     0.069 H 
ATOM     15  H   LIG d   1       7.935  -8.970  -5.096  0.00  0.00     0.104 H 
ENDROOT
BRANCH   1  16
ATOM     16  O   LIG d   1       6.722  -2.254  -4.857  0.00  0.00    -0.487 OA
BRANCH  16  17
ATOM     17  C   LIG d   1       6.884  -1.925  -3.475  0.00  0.00     0.117 C 
ATOM     18  H   LIG d   1       6.789  -2.829  -2.873  0.00  0.00     0.075 H 
ATOM     19  H   LIG d   1       7.870  -1.486  -3.319  0.00  0.00     0.075 H 
BRANCH  17  20
ATOM     20  C   LIG d   1       5.823  -0.936  -3.066  0.00  0.00     0.025 A 
ATOM     21  C   LIG d   1       4.568  -1.382  -2.689  0.00  0.00     0.130 A 
ATOM     22  C   LIG d   1       3.595  -0.471  -2.312  0.00  0.00    -0.026 A 
ATOM     23  F   LIG d   1       4.294  -2.705  -2.687  0.00  0.00    -0.205 F 
ATOM     24  C   LIG d   1       3.878   0.881  -2.315  0.00  0.00    -0.059 A 
ATOM     25  H   LIG d   1       2.616  -0.818  -2.017  0.00  0.00     0.065 H 
ATOM     26  C   LIG d   1       5.132   1.326  -2.692  0.00  0.00    -0.061 A 
ATOM     27  H   LIG d   1       3.119   1.592  -2.022  0.00  0.00     0.062 H 
ATOM     28  C   LIG d   1       6.106   0.418  -3.062  0.00  0.00    -0.053 A 
ATOM     29  H   LIG d   1       5.351   2.383  -2.694  0.00  0.00     0.062 H 
ATOM     30  H   LIG d   1       7.085   0.766  -3.353  0.00  0.00     0.062 H 
ENDBRANCH  17  20
ENDBRANCH  16  17
ENDBRANCH   1  16
BRANCH   9  31
ATOM     31  C   LIG d   1       5.662  -9.936  -6.065  0.00  0.00    -0.011 A 
ATOM     32  C   LIG d   1       4.991 -10.696  -5.109  0.00  0.00    -0.052 A 
ATOM     33  C   LIG d   1       4.678 -12.013  -5.375  0.00  0.00    -0.043 A 
ATOM     34  H   LIG d   1       4.718 -10.255  -4.162  0.00  0.00     0.062 H 
ATOM     35  C   LIG d   1       5.028 -12.580  -6.588  0.00  0.00     0.041 A 
ATOM     36  H   LIG d   1       4.158 -12.603  -4.633  0.00  0.00     0.063 H 
ATOM     37  C   LIG d   1       5.695 -11.829  -7.542  0.00  0.00    -0.043 A 
ATOM     38 CL   LIG d   1       4.630 -14.238  -6.915  0.00  0.00    -0.084 Cl
ATOM     39  C   LIG d   1       6.008 -10.509  -7.288  0.00  0.00    -0.052 A 
ATOM     40  H   LIG d   1       5.965 -12.275  -8.486  0.00  0.00     0.063 H 
ATOM     41  H   LIG d   1       6.523  -9.923  -8.035  0.00  0.00     0.062 H 
ENDBRANCH   9  31
TORSDOF 4
ENDMDL
MODEL 8
REMARK VINA RESULT:      -6.8      6.767      8.618
REMARK  4 active torsions:
REMARK  status: ('A' for Active; 'I' for Inactive)
REMARK    1  A    between atoms: C_5  and  C_7 
REMARK    2  A    between atoms: C_7  and  O_8 
REMARK    3  A    between atoms: O_8  and  C_9 
REMARK    4  A    between atoms: C_17  and  C_20 
ROOT
ATOM      1  C   LIG d   1       7.574   0.353  -6.448  0.00  0.00     0.124 A 
ATOM      2  C   LIG d   1       7.157   0.480  -7.772  0.00  0.00    -0.019 A 
ATOM      3  C   LIG d   1       7.539   1.561  -8.514  0.00  0.00    -0.044 A 
ATOM      4  C   LIG d   1       8.352   2.540  -7.943  0.00  0.00     0.065 A 
ATOM      5  C   LIG d   1       8.778   2.422  -6.609  0.00  0.00     0.142 A 
ATOM      6  C   LIG d   1       8.375   1.319  -5.866  0.00  0.00     0.023 A 
ATOM      7  O   LIG d   1       9.563   3.369  -6.058  0.00  0.00    -0.462 OA
ATOM      8  C   LIG d   1       9.979   4.452  -6.720  0.00  0.00     0.104 A 
ATOM      9  C   LIG d   1       9.643   4.692  -8.014  0.00  0.00     0.064 A 
ATOM     10  C   LIG d   1       8.786   3.720  -8.714  0.00  0.00     0.200 A 
ATOM     11  O   LIG d   1       8.452   3.882  -9.874  0.00  0.00    -0.286 OA
ATOM     12  H   LIG d   1       6.528  -0.280  -8.213  0.00  0.00     0.065 H 
ATOM     13  H   LIG d   1       7.214   1.657  -9.539  0.00  0.00     0.063 H 
ATOM     14  H   LIG d   1       8.690   1.215  -4.838  0.00  0.00     0.069 H 
ATOM     15  H   LIG d   1      10.607   5.165  -6.206  0.00  0.00     0.104 H 
ENDROOT
BRANCH   1  16
ATOM     16  O   LIG d   1       7.186  -0.726  -5.722  0.00  0.00    -0.487 OA
BRANCH  16  17
ATOM     17  C   LIG d   1       7.578  -0.759  -4.348  0.00  0.00     0.117 C 
ATOM     18  H   LIG d   1       8.105  -1.691  -4.143  0.00  0.00     0.075 H 
ATOM     19  H   LIG d   1       8.236   0.084  -4.138  0.00  0.00     0.075 H 
BRANCH  17  20
ATOM     20  C   LIG d   1       6.354  -0.671  -3.474  0.00  0.00     0.025 A 
ATOM     21  C   LIG d   1       5.959   0.550  -2.955  0.00  0.00     0.130 A 
ATOM     22  C   LIG d   1       4.833   0.629  -2.152  0.00  0.00    -0.026 A 
ATOM     23  F   LIG d   1       6.671   1.664  -3.233  0.00  0.00    -0.205 F 
ATOM     24  C   LIG d   1       4.107  -0.512  -1.869  0.00  0.00    -0.059 A 
ATOM     25  H   LIG d   1       4.524   1.581  -1.748  0.00  0.00     0.065 H 
ATOM     26  C   LIG d   1       4.502  -1.731  -2.388  0.00  0.00    -0.061 A 
ATOM     27  H   LIG d   1       3.229  -0.451  -1.242  0.00  0.00     0.062 H 
ATOM     28  C   LIG d   1       5.621  -1.811  -3.194  0.00  0.00    -0.053 A 
ATOM     29  H   LIG d   1       3.933  -2.622  -2.166  0.00  0.00     0.062 H 
ATOM     30  H   LIG d   1       5.927  -2.762  -3.601  0.00  0.00     0.062 H 
ENDBRANCH  17  20
ENDBRANCH  16  17
ENDBRANCH   1  16
BRANCH   9  31
ATOM     31  C   LIG d   1      10.128   5.910  -8.707  0.00  0.00    -0.011 A 
ATOM     32  C   LIG d   1       9.370   7.079  -8.682  0.00  0.00    -0.052 A 
ATOM     33  C   LIG d   1       9.827   8.209  -9.328  0.00  0.00    -0.043 A 
ATOM     34  H   LIG d   1       8.426   7.100  -8.157  0.00  0.00     0.062 H 
ATOM     35  C   LIG d   1      11.036   8.183 -10.001  0.00  0.00     0.041 A 
ATOM     36  H   LIG d   1       9.240   9.115  -9.309  0.00  0.00     0.063 H 
ATOM     37  C   LIG d   1      11.793   7.023 -10.030  0.00  0.00    -0.043 A 
ATOM     38 CL   LIG d   1      11.606   9.609 -10.812  0.00  0.00    -0.084 Cl
ATOM     39  C   LIG d   1      11.348   5.890  -9.382  0.00  0.00    -0.052 A 
ATOM     40  H   LIG d   1      12.736   7.008 -10.556  0.00  0.00     0.063 H 
ATOM     41  H   LIG d   1      11.941   4.988  -9.401  0.00  0.00     0.062 H 
ENDBRANCH   9  31
TORSDOF 4
ENDMDL
MODEL 9
REMARK VINA RESULT:      -6.7      2.938      3.743
REMARK  4 active torsions:
REMARK  status: ('A' for Active; 'I' for Inactive)
REMARK    1  A    between atoms: C_5  and  C_7 
REMARK    2  A    between atoms: C_7  and  O_8 
REMARK    3  A    between atoms: O_8  and  C_9 
REMARK    4  A    between atoms: C_17  and  C_20 
ROOT
ATOM      1  C   LIG d   1       5.554  -2.183  -6.464  0.00  0.00     0.124 A 
ATOM      2  C   LIG d   1       4.900  -1.030  -6.896  0.00  0.00    -0.019 A 
ATOM      3  C   LIG d   1       3.934  -1.105  -7.859  0.00  0.00    -0.044 A 
ATOM      4  C   LIG d   1       3.600  -2.342  -8.409  0.00  0.00     0.065 A 
ATOM      5  C   LIG d   1       4.253  -3.511  -7.980  0.00  0.00     0.142 A 
ATOM      6  C   LIG d   1       5.237  -3.416  -7.005  0.00  0.00     0.023 A 
ATOM      7  O   LIG d   1       3.929  -4.706  -8.513  0.00  0.00    -0.462 OA
ATOM      8  C   LIG d   1       2.995  -4.859  -9.456  0.00  0.00     0.104 A 
ATOM      9  C   LIG d   1       2.287  -3.816  -9.960  0.00  0.00     0.064 A 
ATOM     10  C   LIG d   1       2.561  -2.462  -9.449  0.00  0.00     0.200 A 
ATOM     11  O   LIG d   1       1.959  -1.488  -9.864  0.00  0.00    -0.286 OA
ATOM     12  H   LIG d   1       5.160  -0.073  -6.468  0.00  0.00     0.065 H 
ATOM     13  H   LIG d   1       3.431  -0.210  -8.192  0.00  0.00     0.063 H 
ATOM     14  H   LIG d   1       5.751  -4.304  -6.667  0.00  0.00     0.069 H 
ATOM     15  H   LIG d   1       2.795  -5.852  -9.831  0.00  0.00     0.104 H 
ENDROOT
BRANCH   1  16
ATOM     16  O   LIG d   1       6.512  -2.094  -5.507  0.00  0.00    -0.487 OA
BRANCH  16  17
ATOM     17  C   LIG d   1       6.150  -2.500  -4.186  0.00  0.00     0.117 C 
ATOM     18  H   LIG d   1       5.370  -3.260  -4.240  0.00  0.00     0.075 H 
ATOM     19  H   LIG d   1       7.023  -2.913  -3.681  0.00  0.00     0.075 H 
BRANCH  17  20
ATOM     20  C   LIG d   1       5.640  -1.310  -3.415  0.00  0.00     0.025 A 
ATOM     21  C   LIG d   1       4.548  -1.445  -2.575  0.00  0.00     0.130 A 
ATOM     22  C   LIG d   1       4.081  -0.350  -1.867  0.00  0.00    -0.026 A 
ATOM     23  F   LIG d   1       3.940  -2.644  -2.445  0.00  0.00    -0.205 F 
ATOM     24  C   LIG d   1       4.704   0.875  -2.002  0.00  0.00    -0.059 A 
ATOM     25  H   LIG d   1       3.230  -0.454  -1.211  0.00  0.00     0.065 H 
ATOM     26  C   LIG d   1       5.795   1.009  -2.842  0.00  0.00    -0.061 A 
ATOM     27  H   LIG d   1       4.340   1.730  -1.451  0.00  0.00     0.062 H 
ATOM     28  C   LIG d   1       6.266  -0.084  -3.544  0.00  0.00    -0.053 A 
ATOM     29  H   LIG d   1       6.281   1.968  -2.946  0.00  0.00     0.062 H 
ATOM     30  H   LIG d   1       7.119   0.021  -4.196  0.00  0.00     0.062 H 
ENDBRANCH  17  20
ENDBRANCH  16  17
ENDBRANCH   1  16
BRANCH   9  31
ATOM     31  C   LIG d   1       1.260  -4.035 -11.008  0.00  0.00    -0.011 A 
ATOM     32  C   LIG d   1       1.599  -3.922 -12.354  0.00  0.00    -0.052 A 
ATOM     33  C   LIG d   1       0.638  -4.127 -13.324  0.00  0.00    -0.043 A 
ATOM     34  H   LIG d   1       2.611  -3.673 -12.639  0.00  0.00     0.062 H 
ATOM     35  C   LIG d   1      -0.658  -4.446 -12.961  0.00  0.00     0.041 A 
ATOM     36  H   LIG d   1       0.900  -4.039 -14.369  0.00  0.00     0.063 H 
ATOM     37  C   LIG d   1      -1.000  -4.559 -11.624  0.00  0.00    -0.043 A 
ATOM     38 CL   LIG d   1      -1.861  -4.704 -14.186  0.00  0.00    -0.084 Cl
ATOM     39  C   LIG d   1      -0.046  -4.361 -10.646  0.00  0.00    -0.052 A 
ATOM     40  H   LIG d   1      -2.013  -4.808 -11.346  0.00  0.00     0.063 H 
ATOM     41  H   LIG d   1      -0.312  -4.455  -9.604  0.00  0.00     0.062 H 
ENDBRANCH   9  31
TORSDOF 4
ENDMDL
