MODEL 1
REMARK VINA RESULT:      -5.3      0.000      0.000
REMARK  8 active torsions:
REMARK  status: ('A' for Active; 'I' for Inactive)
REMARK    1  A    between atoms: C_1  and  O_2 
REMARK    2  A    between atoms: O_2  and  C_3 
REMARK    3  A    between atoms: C_11  and  O_24 
REMARK    4  A    between atoms: C_12  and  C_14 
REMARK    5  A    between atoms: C_18  and  O_22 
REMARK    6  A    between atoms: C_19  and  O_20 
REMARK    7  A    between atoms: O_20  and  C_21 
REMARK    8  A    between atoms: O_22  and  C_23 
ROOT
ATOM      1  C   LIG d   1       1.905  -1.967 -12.520  0.00  0.00     0.121 A 
ATOM      2  C   LIG d   1       1.499  -2.927 -11.597  0.00  0.00    -0.016 A 
ATOM      3  C   LIG d   1       1.732  -2.749 -10.251  0.00  0.00    -0.015 A 
ATOM      4  C   LIG d   1       2.378  -1.602  -9.803  0.00  0.00     0.140 A 
ATOM      5  C   LIG d   1       2.787  -0.634 -10.732  0.00  0.00     0.071 A 
ATOM      6  C   LIG d   1       2.547  -0.821 -12.094  0.00  0.00    -0.005 A 
ATOM      7  C   LIG d   1       3.471   0.576 -10.237  0.00  0.00     0.234 A 
ATOM      8  O   LIG d   1       3.848   1.449 -11.003  0.00  0.00    -0.283 OA
ATOM      9  C   LIG d   1       3.669   0.689  -8.839  0.00  0.00     0.208 A 
ATOM     10  C   LIG d   1       3.232  -0.321  -8.015  0.00  0.00     0.184 A 
ATOM     11  O   LIG d   1       2.613  -1.415  -8.487  0.00  0.00    -0.451 OA
ATOM     12  H   LIG d   1       0.998  -3.820 -11.940  0.00  0.00     0.066 H 
ATOM     13  H   LIG d   1       1.413  -3.500  -9.544  0.00  0.00     0.066 H 
ATOM     14  H   LIG d   1       2.862  -0.076 -12.808  0.00  0.00     0.066 H 
ENDROOT
BRANCH  10  15
ATOM     15  C   LIG d   1       3.448  -0.196  -6.562  0.00  0.00     0.066 A 
ATOM     16  C   LIG d   1       4.589  -0.752  -5.970  0.00  0.00     0.172 A 
ATOM     17  C   LIG d   1       4.778  -0.634  -4.597  0.00  0.00     0.162 A 
ATOM     18  C   LIG d   1       3.847   0.042  -3.825  0.00  0.00    -0.016 A 
ATOM     19  C   LIG d   1       2.719   0.591  -4.411  0.00  0.00    -0.057 A 
ATOM     20  H   LIG d   1       3.999   0.135  -2.760  0.00  0.00     0.066 H 
ATOM     21  C   LIG d   1       2.514   0.477  -5.769  0.00  0.00    -0.047 A 
ATOM     22  H   LIG d   1       1.995   1.111  -3.800  0.00  0.00     0.062 H 
ATOM     23  H   LIG d   1       1.633   0.908  -6.220  0.00  0.00     0.063 H 
BRANCH  16  24
ATOM     24  O   LIG d   1       5.502  -1.408  -6.730  0.00  0.00    -0.491 OA
BRANCH  24  25
ATOM     25  C   LIG d   1       6.651  -0.668  -7.148  0.00  0.00     0.079 C 
ATOM     26  H   LIG d   1       6.868   0.110  -6.415  0.00  0.00     0.066 H 
ATOM     27  H   LIG d   1       6.456  -0.210  -8.117  0.00  0.00     0.066 H 
ATOM     28  H   LIG d   1       7.506  -1.340  -7.228  0.00  0.00     0.066 H 
ENDBRANCH  24  25
ENDBRANCH  16  24
BRANCH  17  29
ATOM     29  O   LIG d   1       5.880  -1.176  -4.013  0.00  0.00    -0.491 OA
BRANCH  29  30
ATOM     30  C   LIG d   1       6.816  -0.269  -3.426  0.00  0.00     0.079 C 
ATOM     31  H   LIG d   1       6.590   0.747  -3.750  0.00  0.00     0.066 H 
ATOM     32  H   LIG d   1       6.746  -0.328  -2.340  0.00  0.00     0.066 H 
ATOM     33  H   LIG d   1       7.826  -0.534  -3.740  0.00  0.00     0.066 H 
ENDBRANCH  29  30
ENDBRANCH  17  29
ENDBRANCH  10  15
BRANCH   9  34
ATOM     34  O   LIG d   1       4.288   1.782  -8.318  0.00  0.00    -0.501 OA
ATOM     35  H   LIG d   1       4.786   1.604  -7.509  0.00  0.00     0.292 HD
ENDBRANCH   9  34
BRANCH   1  36
ATOM     36  O   LIG d   1       1.667  -2.158 -13.845  0.00  0.00    -0.495 OA
BRANCH  36  37
ATOM     37  C   LIG d   1       0.381  -2.664 -14.208  0.00  0.00     0.079 C 
ATOM     38  H   LIG d   1      -0.394  -2.040 -13.763  0.00  0.00     0.066 H 
ATOM     39  H   LIG d   1       0.279  -2.651 -15.293  0.00  0.00     0.066 H 
ATOM     40  H   LIG d   1       0.278  -3.686 -13.845  0.00  0.00     0.066 H 
ENDBRANCH  36  37
ENDBRANCH   1  36
TORSDOF 8
ENDMDL
MODEL 2
REMARK VINA RESULT:      -5.0      4.085      8.185
REMARK  8 active torsions:
REMARK  status: ('A' for Active; 'I' for Inactive)
REMARK    1  A    between atoms: C_1  and  O_2 
REMARK    2  A    between atoms: O_2  and  C_3 
REMARK    3  A    between atoms: C_11  and  O_24 
REMARK    4  A    between atoms: C_12  and  C_14 
REMARK    5  A    between atoms: C_18  and  O_22 
REMARK    6  A    between atoms: C_19  and  O_20 
REMARK    7  A    between atoms: O_20  and  C_21 
REMARK    8  A    between atoms: O_22  and  C_23 
ROOT
ATOM      1  C   LIG d   1      10.576  -5.361  -4.001  0.00  0.00     0.121 A 
ATOM      2  C   LIG d   1      10.601  -4.289  -3.113  0.00  0.00    -0.016 A 
ATOM      3  C   LIG d   1       9.508  -3.461  -2.983  0.00  0.00    -0.015 A 
ATOM      4  C   LIG d   1       8.366  -3.690  -3.741  0.00  0.00     0.140 A 
ATOM      5  C   LIG d   1       8.339  -4.771  -4.636  0.00  0.00     0.071 A 
ATOM      6  C   LIG d   1       9.449  -5.606  -4.763  0.00  0.00    -0.005 A 
ATOM      7  C   LIG d   1       7.118  -4.998  -5.432  0.00  0.00     0.234 A 
ATOM      8  O   LIG d   1       7.042  -5.923  -6.225  0.00  0.00    -0.283 OA
ATOM      9  C   LIG d   1       6.035  -4.106  -5.237  0.00  0.00     0.208 A 
ATOM     10  C   LIG d   1       6.167  -3.076  -4.337  0.00  0.00     0.184 A 
ATOM     11  O   LIG d   1       7.289  -2.886  -3.622  0.00  0.00    -0.451 OA
ATOM     12  H   LIG d   1      11.486  -4.105  -2.523  0.00  0.00     0.066 H 
ATOM     13  H   LIG d   1       9.539  -2.632  -2.291  0.00  0.00     0.066 H 
ATOM     14  H   LIG d   1       9.428  -6.437  -5.452  0.00  0.00     0.066 H 
ENDROOT
BRANCH  10  15
ATOM     15  C   LIG d   1       5.035  -2.150  -4.145  0.00  0.00     0.066 A 
ATOM     16  C   LIG d   1       4.767  -1.160  -5.099  0.00  0.00     0.172 A 
ATOM     17  C   LIG d   1       3.701  -0.288  -4.904  0.00  0.00     0.162 A 
ATOM     18  C   LIG d   1       2.905  -0.410  -3.776  0.00  0.00    -0.016 A 
ATOM     19  C   LIG d   1       3.171  -1.389  -2.834  0.00  0.00    -0.057 A 
ATOM     20  H   LIG d   1       2.075   0.267  -3.630  0.00  0.00     0.066 H 
ATOM     21  C   LIG d   1       4.226  -2.256  -3.010  0.00  0.00    -0.047 A 
ATOM     22  H   LIG d   1       2.547  -1.472  -1.955  0.00  0.00     0.062 H 
ATOM     23  H   LIG d   1       4.429  -3.018  -2.271  0.00  0.00     0.063 H 
BRANCH  16  24
ATOM     24  O   LIG d   1       5.546  -1.048  -6.204  0.00  0.00    -0.491 OA
BRANCH  24  25
ATOM     25  C   LIG d   1       6.626  -0.113  -6.145  0.00  0.00     0.079 C 
ATOM     26  H   LIG d   1       6.991   0.084  -7.153  0.00  0.00     0.066 H 
ATOM     27  H   LIG d   1       7.433  -0.527  -5.541  0.00  0.00     0.066 H 
ATOM     28  H   LIG d   1       6.276   0.816  -5.697  0.00  0.00     0.066 H 
ENDBRANCH  24  25
ENDBRANCH  16  24
BRANCH  17  29
ATOM     29  O   LIG d   1       3.437   0.679  -5.822  0.00  0.00    -0.491 OA
BRANCH  29  30
ATOM     30  C   LIG d   1       2.777   0.271  -7.022  0.00  0.00     0.079 C 
ATOM     31  H   LIG d   1       3.072   0.929  -7.840  0.00  0.00     0.066 H 
ATOM     32  H   LIG d   1       3.057  -0.755  -7.260  0.00  0.00     0.066 H 
ATOM     33  H   LIG d   1       1.697   0.330  -6.881  0.00  0.00     0.066 H 
ENDBRANCH  29  30
ENDBRANCH  17  29
ENDBRANCH  10  15
BRANCH   9  34
ATOM     34  O   LIG d   1       4.879  -4.265  -5.936  0.00  0.00    -0.501 OA
ATOM     35  H   LIG d   1       5.006  -4.587  -6.838  0.00  0.00     0.292 HD
ENDBRANCH   9  34
BRANCH   1  36
ATOM     36  O   LIG d   1      11.662  -6.169  -4.119  0.00  0.00    -0.495 OA
BRANCH  36  37
ATOM     37  C   LIG d   1      12.038  -6.924  -2.965  0.00  0.00     0.079 C 
ATOM     38  H   LIG d   1      12.033  -6.275  -2.089  0.00  0.00     0.066 H 
ATOM     39  H   LIG d   1      11.328  -7.738  -2.817  0.00  0.00     0.066 H 
ATOM     40  H   LIG d   1      13.037  -7.334  -3.109  0.00  0.00     0.066 H 
ENDBRANCH  36  37
ENDBRANCH   1  36
TORSDOF 8
ENDMDL
MODEL 3
REMARK VINA RESULT:      -5.0     13.408     15.646
REMARK  8 active torsions:
REMARK  status: ('A' for Active; 'I' for Inactive)
REMARK    1  A    between atoms: C_1  and  O_2 
REMARK    2  A    between atoms: O_2  and  C_3 
REMARK    3  A    between atoms: C_11  and  O_24 
REMARK    4  A    between atoms: C_12  and  C_14 
REMARK    5  A    between atoms: C_18  and  O_22 
REMARK    6  A    between atoms: C_19  and  O_20 
REMARK    7  A    between atoms: O_20  and  C_21 
REMARK    8  A    between atoms: O_22  and  C_23 
ROOT
ATOM      1  C   LIG d   1      11.924   7.284  -0.083  0.00  0.00     0.121 A 
ATOM      2  C   LIG d   1      12.984   7.886  -0.755  0.00  0.00    -0.016 A 
ATOM      3  C   LIG d   1      12.769   8.973  -1.574  0.00  0.00    -0.015 A 
ATOM      4  C   LIG d   1      11.485   9.480  -1.736  0.00  0.00     0.140 A 
ATOM      5  C   LIG d   1      10.415   8.874  -1.059  0.00  0.00     0.071 A 
ATOM      6  C   LIG d   1      10.640   7.774  -0.231  0.00  0.00    -0.005 A 
ATOM      7  C   LIG d   1       9.059   9.426  -1.244  0.00  0.00     0.234 A 
ATOM      8  O   LIG d   1       8.094   8.937  -0.679  0.00  0.00    -0.283 OA
ATOM      9  C   LIG d   1       8.921  10.548  -2.098  0.00  0.00     0.208 A 
ATOM     10  C   LIG d   1      10.035  11.062  -2.717  0.00  0.00     0.184 A 
ATOM     11  O   LIG d   1      11.261  10.544  -2.536  0.00  0.00    -0.451 OA
ATOM     12  H   LIG d   1      13.984   7.496  -0.634  0.00  0.00     0.066 H 
ATOM     13  H   LIG d   1      13.599   9.432  -2.090  0.00  0.00     0.066 H 
ATOM     14  H   LIG d   1       9.817   7.309   0.289  0.00  0.00     0.066 H 
ENDROOT
BRANCH  10  15
ATOM     15  C   LIG d   1       9.880  12.227  -3.608  0.00  0.00     0.066 A 
ATOM     16  C   LIG d   1       9.595  12.040  -4.966  0.00  0.00     0.172 A 
ATOM     17  C   LIG d   1       9.457  13.146  -5.798  0.00  0.00     0.162 A 
ATOM     18  C   LIG d   1       9.590  14.424  -5.278  0.00  0.00    -0.016 A 
ATOM     19  C   LIG d   1       9.872  14.608  -3.935  0.00  0.00    -0.057 A 
ATOM     20  H   LIG d   1       9.478  15.281  -5.927  0.00  0.00     0.066 H 
ATOM     21  C   LIG d   1      10.017  13.522  -3.100  0.00  0.00    -0.047 A 
ATOM     22  H   LIG d   1       9.979  15.608  -3.540  0.00  0.00     0.062 H 
ATOM     23  H   LIG d   1      10.237  13.672  -2.053  0.00  0.00     0.063 H 
BRANCH  16  24
ATOM     24  O   LIG d   1       9.460  10.787  -5.469  0.00  0.00    -0.491 OA
BRANCH  24  25
ATOM     25  C   LIG d   1      10.617  10.201  -6.069  0.00  0.00     0.079 C 
ATOM     26  H   LIG d   1      11.324  10.986  -6.340  0.00  0.00     0.066 H 
ATOM     27  H   LIG d   1      10.325   9.651  -6.963  0.00  0.00     0.066 H 
ATOM     28  H   LIG d   1      11.087   9.519  -5.360  0.00  0.00     0.066 H 
ENDBRANCH  24  25
ENDBRANCH  16  24
BRANCH  17  29
ATOM     29  O   LIG d   1       9.185  12.974  -7.119  0.00  0.00    -0.491 OA
BRANCH  29  30
ATOM     30  C   LIG d   1       9.901  13.799  -8.041  0.00  0.00     0.079 C 
ATOM     31  H   LIG d   1      10.064  14.782  -7.598  0.00  0.00     0.066 H 
ATOM     32  H   LIG d   1      10.861  13.338  -8.270  0.00  0.00     0.066 H 
ATOM     33  H   LIG d   1       9.321  13.906  -8.958  0.00  0.00     0.066 H 
ENDBRANCH  29  30
ENDBRANCH  17  29
ENDBRANCH  10  15
BRANCH   9  34
ATOM     34  O   LIG d   1       7.699  11.107  -2.306  0.00  0.00    -0.501 OA
ATOM     35  H   LIG d   1       7.567  11.441  -3.203  0.00  0.00     0.292 HD
ENDBRANCH   9  34
BRANCH   1  36
ATOM     36  O   LIG d   1      12.152   6.212   0.721  0.00  0.00    -0.495 OA
BRANCH  36  37
ATOM     37  C   LIG d   1      11.071   5.783   1.553  0.00  0.00     0.079 C 
ATOM     38  H   LIG d   1      10.156   5.737   0.963  0.00  0.00     0.066 H 
ATOM     39  H   LIG d   1      11.294   4.795   1.955  0.00  0.00     0.066 H 
ATOM     40  H   LIG d   1      10.941   6.490   2.371  0.00  0.00     0.066 H 
ENDBRANCH  36  37
ENDBRANCH   1  36
TORSDOF 8
ENDMDL
MODEL 4
REMARK VINA RESULT:      -5.0      1.849      3.396
REMARK  8 active torsions:
REMARK  status: ('A' for Active; 'I' for Inactive)
REMARK    1  A    between atoms: C_1  and  O_2 
REMARK    2  A    between atoms: O_2  and  C_3 
REMARK    3  A    between atoms: C_11  and  O_24 
REMARK    4  A    between atoms: C_12  and  C_14 
REMARK    5  A    between atoms: C_18  and  O_22 
REMARK    6  A    between atoms: C_19  and  O_20 
REMARK    7  A    between atoms: O_20  and  C_21 
REMARK    8  A    between atoms: O_22  and  C_23 
ROOT
ATOM      1  C   LIG d   1       1.550  -2.059 -10.646  0.00  0.00     0.121 A 
ATOM      2  C   LIG d   1       1.437  -0.722 -10.276  0.00  0.00    -0.016 A 
ATOM      3  C   LIG d   1       2.174  -0.220  -9.227  0.00  0.00    -0.015 A 
ATOM      4  C   LIG d   1       3.042  -1.050  -8.525  0.00  0.00     0.140 A 
ATOM      5  C   LIG d   1       3.157  -2.398  -8.897  0.00  0.00     0.071 A 
ATOM      6  C   LIG d   1       2.407  -2.899  -9.962  0.00  0.00    -0.005 A 
ATOM      7  C   LIG d   1       4.082  -3.263  -8.141  0.00  0.00     0.234 A 
ATOM      8  O   LIG d   1       4.220  -4.443  -8.422  0.00  0.00    -0.283 OA
ATOM      9  C   LIG d   1       4.809  -2.671  -7.079  0.00  0.00     0.208 A 
ATOM     10  C   LIG d   1       4.619  -1.340  -6.794  0.00  0.00     0.184 A 
ATOM     11  O   LIG d   1       3.769  -0.570  -7.495  0.00  0.00    -0.451 OA
ATOM     12  H   LIG d   1       0.764  -0.074 -10.817  0.00  0.00     0.066 H 
ATOM     13  H   LIG d   1       2.079   0.819  -8.949  0.00  0.00     0.066 H 
ATOM     14  H   LIG d   1       2.496  -3.937 -10.247  0.00  0.00     0.066 H 
ENDROOT
BRANCH  10  15
ATOM     15  C   LIG d   1       5.376  -0.735  -5.683  0.00  0.00     0.066 A 
ATOM     16  C   LIG d   1       4.828  -0.700  -4.395  0.00  0.00     0.172 A 
ATOM     17  C   LIG d   1       5.549  -0.121  -3.356  0.00  0.00     0.162 A 
ATOM     18  C   LIG d   1       6.808   0.407  -3.597  0.00  0.00    -0.016 A 
ATOM     19  C   LIG d   1       7.349   0.373  -4.871  0.00  0.00    -0.057 A 
ATOM     20  H   LIG d   1       7.367   0.853  -2.787  0.00  0.00     0.066 H 
ATOM     21  C   LIG d   1       6.644  -0.192  -5.912  0.00  0.00    -0.047 A 
ATOM     22  H   LIG d   1       8.328   0.792  -5.051  0.00  0.00     0.062 H 
ATOM     23  H   LIG d   1       7.071  -0.216  -6.903  0.00  0.00     0.063 H 
BRANCH  16  24
ATOM     24  O   LIG d   1       3.598  -1.224  -4.162  0.00  0.00    -0.491 OA
BRANCH  24  25
ATOM     25  C   LIG d   1       2.493  -0.317  -4.177  0.00  0.00     0.079 C 
ATOM     26  H   LIG d   1       1.802  -0.598  -4.971  0.00  0.00     0.066 H 
ATOM     27  H   LIG d   1       2.856   0.696  -4.353  0.00  0.00     0.066 H 
ATOM     28  H   LIG d   1       1.978  -0.357  -3.217  0.00  0.00     0.066 H 
ENDBRANCH  24  25
ENDBRANCH  16  24
BRANCH  17  29
ATOM     29  O   LIG d   1       5.023  -0.079  -2.104  0.00  0.00    -0.491 OA
BRANCH  29  30
ATOM     30  C   LIG d   1       4.532   1.184  -1.648  0.00  0.00     0.079 C 
ATOM     31  H   LIG d   1       5.088   1.491  -0.762  0.00  0.00     0.066 H 
ATOM     32  H   LIG d   1       4.660   1.928  -2.434  0.00  0.00     0.066 H 
ATOM     33  H   LIG d   1       3.474   1.096  -1.401  0.00  0.00     0.066 H 
ENDBRANCH  29  30
ENDBRANCH  17  29
ENDBRANCH  10  15
BRANCH   9  34
ATOM     34  O   LIG d   1       5.683  -3.413  -6.346  0.00  0.00    -0.501 OA
ATOM     35  H   LIG d   1       6.584  -3.064  -6.338  0.00  0.00     0.292 HD
ENDBRANCH   9  34
BRANCH   1  36
ATOM     36  O   LIG d   1       0.815  -2.540 -11.684  0.00  0.00    -0.495 OA
BRANCH  36  37
ATOM     37  C   LIG d   1       0.496  -3.933 -11.663  0.00  0.00     0.079 C 
ATOM     38  H   LIG d   1       0.074  -4.223 -12.626  0.00  0.00     0.066 H 
ATOM     39  H   LIG d   1       1.402  -4.510 -11.476  0.00  0.00     0.066 H 
ATOM     40  H   LIG d   1      -0.229  -4.127 -10.874  0.00  0.00     0.066 H 
ENDBRANCH  36  37
ENDBRANCH   1  36
TORSDOF 8
ENDMDL
MODEL 5
REMARK VINA RESULT:      -5.0      1.711      2.518
REMARK  8 active torsions:
REMARK  status: ('A' for Active; 'I' for Inactive)
REMARK    1  A    between atoms: C_1  and  O_2 
REMARK    2  A    between atoms: O_2  and  C_3 
REMARK    3  A    between atoms: C_11  and  O_24 
REMARK    4  A    between atoms: C_12  and  C_14 
REMARK    5  A    between atoms: C_18  and  O_22 
REMARK    6  A    between atoms: C_19  and  O_20 
REMARK    7  A    between atoms: O_20  and  C_21 
REMARK    8  A    between atoms: O_22  and  C_23 
ROOT
ATOM      1  C   LIG d   1       2.913  -1.291 -11.695  0.00  0.00     0.121 A 
ATOM      2  C   LIG d   1       2.287  -2.310 -10.981  0.00  0.00    -0.016 A 
ATOM      3  C   LIG d   1       2.551  -2.492  -9.642  0.00  0.00    -0.015 A 
ATOM      4  C   LIG d   1       3.450  -1.655  -8.989  0.00  0.00     0.140 A 
ATOM      5  C   LIG d   1       4.081  -0.628  -9.707  0.00  0.00     0.071 A 
ATOM      6  C   LIG d   1       3.808  -0.449 -11.063  0.00  0.00    -0.005 A 
ATOM      7  C   LIG d   1       5.031   0.249  -8.998  0.00  0.00     0.234 A 
ATOM      8  O   LIG d   1       5.608   1.157  -9.575  0.00  0.00    -0.283 OA
ATOM      9  C   LIG d   1       5.245   0.001  -7.619  0.00  0.00     0.208 A 
ATOM     10  C   LIG d   1       4.578  -1.035  -7.012  0.00  0.00     0.184 A 
ATOM     11  O   LIG d   1       3.717  -1.824  -7.677  0.00  0.00    -0.451 OA
ATOM     12  H   LIG d   1       1.589  -2.963 -11.484  0.00  0.00     0.066 H 
ATOM     13  H   LIG d   1       2.060  -3.285  -9.098  0.00  0.00     0.066 H 
ATOM     14  H   LIG d   1       4.294   0.341 -11.616  0.00  0.00     0.066 H 
ENDROOT
BRANCH  10  15
ATOM     15  C   LIG d   1       4.811  -1.288  -5.578  0.00  0.00     0.066 A 
ATOM     16  C   LIG d   1       4.206  -0.475  -4.612  0.00  0.00     0.172 A 
ATOM     17  C   LIG d   1       4.439  -0.719  -3.263  0.00  0.00     0.162 A 
ATOM     18  C   LIG d   1       5.257  -1.770  -2.881  0.00  0.00    -0.016 A 
ATOM     19  C   LIG d   1       5.855  -2.574  -3.836  0.00  0.00    -0.057 A 
ATOM     20  H   LIG d   1       5.433  -1.959  -1.832  0.00  0.00     0.066 H 
ATOM     21  C   LIG d   1       5.639  -2.341  -5.177  0.00  0.00    -0.047 A 
ATOM     22  H   LIG d   1       6.496  -3.388  -3.529  0.00  0.00     0.062 H 
ATOM     23  H   LIG d   1       6.108  -2.972  -5.917  0.00  0.00     0.063 H 
BRANCH  16  24
ATOM     24  O   LIG d   1       3.401   0.550  -4.991  0.00  0.00    -0.491 OA
BRANCH  24  25
ATOM     25  C   LIG d   1       1.995   0.294  -5.022  0.00  0.00     0.079 C 
ATOM     26  H   LIG d   1       1.740  -0.433  -4.251  0.00  0.00     0.066 H 
ATOM     27  H   LIG d   1       1.719  -0.102  -5.999  0.00  0.00     0.066 H 
ATOM     28  H   LIG d   1       1.453   1.222  -4.840  0.00  0.00     0.066 H 
ENDBRANCH  24  25
ENDBRANCH  16  24
BRANCH  17  29
ATOM     29  O   LIG d   1       3.859   0.069  -2.319  0.00  0.00    -0.491 OA
BRANCH  29  30
ATOM     30  C   LIG d   1       4.681   1.072  -1.717  0.00  0.00     0.079 C 
ATOM     31  H   LIG d   1       5.093   0.690  -0.783  0.00  0.00     0.066 H 
ATOM     32  H   LIG d   1       5.493   1.330  -2.395  0.00  0.00     0.066 H 
ATOM     33  H   LIG d   1       4.081   1.959  -1.513  0.00  0.00     0.066 H 
ENDBRANCH  29  30
ENDBRANCH  17  29
ENDBRANCH  10  15
BRANCH   9  34
ATOM     34  O   LIG d   1       6.104   0.778  -6.906  0.00  0.00    -0.501 OA
ATOM     35  H   LIG d   1       6.948   0.350  -6.707  0.00  0.00     0.292 HD
ENDBRANCH   9  34
BRANCH   1  36
ATOM     36  O   LIG d   1       2.642  -1.124 -13.017  0.00  0.00    -0.495 OA
BRANCH  36  37
ATOM     37  C   LIG d   1       2.129  -2.256 -13.722  0.00  0.00     0.079 C 
ATOM     38  H   LIG d   1       1.593  -2.904 -13.029  0.00  0.00     0.066 H 
ATOM     39  H   LIG d   1       1.448  -1.919 -14.504  0.00  0.00     0.066 H 
ATOM     40  H   LIG d   1       2.955  -2.808 -14.172  0.00  0.00     0.066 H 
ENDBRANCH  36  37
ENDBRANCH   1  36
TORSDOF 8
ENDMDL
MODEL 6
REMARK VINA RESULT:      -5.0      1.683      2.753
REMARK  8 active torsions:
REMARK  status: ('A' for Active; 'I' for Inactive)
REMARK    1  A    between atoms: C_1  and  O_2 
REMARK    2  A    between atoms: O_2  and  C_3 
REMARK    3  A    between atoms: C_11  and  O_24 
REMARK    4  A    between atoms: C_12  and  C_14 
REMARK    5  A    between atoms: C_18  and  O_22 
REMARK    6  A    between atoms: C_19  and  O_20 
REMARK    7  A    between atoms: O_20  and  C_21 
REMARK    8  A    between atoms: O_22  and  C_23 
ROOT
ATOM      1  C   LIG d   1       2.009  -3.784 -10.438  0.00  0.00     0.121 A 
ATOM      2  C   LIG d   1       2.834  -4.636  -9.708  0.00  0.00    -0.016 A 
ATOM      3  C   LIG d   1       3.615  -4.149  -8.684  0.00  0.00    -0.015 A 
ATOM      4  C   LIG d   1       3.585  -2.795  -8.368  0.00  0.00     0.140 A 
ATOM      5  C   LIG d   1       2.753  -1.936  -9.102  0.00  0.00     0.071 A 
ATOM      6  C   LIG d   1       1.965  -2.436 -10.138  0.00  0.00    -0.005 A 
ATOM      7  C   LIG d   1       2.735  -0.502  -8.753  0.00  0.00     0.234 A 
ATOM      8  O   LIG d   1       2.031   0.289  -9.360  0.00  0.00    -0.283 OA
ATOM      9  C   LIG d   1       3.562  -0.080  -7.683  0.00  0.00     0.208 A 
ATOM     10  C   LIG d   1       4.342  -1.004  -7.032  0.00  0.00     0.184 A 
ATOM     11  O   LIG d   1       4.345  -2.306  -7.367  0.00  0.00    -0.451 OA
ATOM     12  H   LIG d   1       2.862  -5.688  -9.950  0.00  0.00     0.066 H 
ATOM     13  H   LIG d   1       4.251  -4.819  -8.125  0.00  0.00     0.066 H 
ATOM     14  H   LIG d   1       1.325  -1.774 -10.703  0.00  0.00     0.066 H 
ENDROOT
BRANCH  10  15
ATOM     15  C   LIG d   1       5.204  -0.554  -5.923  0.00  0.00     0.066 A 
ATOM     16  C   LIG d   1       4.742  -0.618  -4.602  0.00  0.00     0.172 A 
ATOM     17  C   LIG d   1       5.561  -0.184  -3.566  0.00  0.00     0.162 A 
ATOM     18  C   LIG d   1       6.830   0.298  -3.842  0.00  0.00    -0.016 A 
ATOM     19  C   LIG d   1       7.286   0.362  -5.147  0.00  0.00    -0.057 A 
ATOM     20  H   LIG d   1       7.465   0.631  -3.033  0.00  0.00     0.066 H 
ATOM     21  C   LIG d   1       6.484  -0.059  -6.186  0.00  0.00    -0.047 A 
ATOM     22  H   LIG d   1       8.276   0.744  -5.353  0.00  0.00     0.062 H 
ATOM     23  H   LIG d   1       6.845  -0.007  -7.202  0.00  0.00     0.063 H 
BRANCH  16  24
ATOM     24  O   LIG d   1       3.500  -1.096  -4.336  0.00  0.00    -0.491 OA
BRANCH  24  25
ATOM     25  C   LIG d   1       2.448  -0.137  -4.210  0.00  0.00     0.079 C 
ATOM     26  H   LIG d   1       2.043   0.090  -5.196  0.00  0.00     0.066 H 
ATOM     27  H   LIG d   1       2.840   0.775  -3.760  0.00  0.00     0.066 H 
ATOM     28  H   LIG d   1       1.660  -0.544  -3.577  0.00  0.00     0.066 H 
ENDBRANCH  24  25
ENDBRANCH  16  24
BRANCH  17  29
ATOM     29  O   LIG d   1       5.118  -0.238  -2.281  0.00  0.00    -0.491 OA
BRANCH  29  30
ATOM     30  C   LIG d   1       4.677   0.988  -1.694  0.00  0.00     0.079 C 
ATOM     31  H   LIG d   1       5.484   1.417  -1.100  0.00  0.00     0.066 H 
ATOM     32  H   LIG d   1       4.394   1.686  -2.482  0.00  0.00     0.066 H 
ATOM     33  H   LIG d   1       3.816   0.795  -1.053  0.00  0.00     0.066 H 
ENDBRANCH  29  30
ENDBRANCH  17  29
ENDBRANCH  10  15
BRANCH   9  34
ATOM     34  O   LIG d   1       3.587   1.228  -7.308  0.00  0.00    -0.501 OA
ATOM     35  H   LIG d   1       4.450   1.650  -7.410  0.00  0.00     0.292 HD
ENDBRANCH   9  34
BRANCH   1  36
ATOM     36  O   LIG d   1       1.244  -4.280 -11.446  0.00  0.00    -0.495 OA
BRANCH  36  37
ATOM     37  C   LIG d   1       0.399  -3.356 -12.135  0.00  0.00     0.079 C 
ATOM     38  H   LIG d   1       0.988  -2.499 -12.462  0.00  0.00     0.066 H 
ATOM     39  H   LIG d   1      -0.042  -3.845 -13.003  0.00  0.00     0.066 H 
ATOM     40  H   LIG d   1      -0.392  -3.020 -11.465  0.00  0.00     0.066 H 
ENDBRANCH  36  37
ENDBRANCH   1  36
TORSDOF 8
ENDMDL
MODEL 7
REMARK VINA RESULT:      -4.9      5.151      6.976
REMARK  8 active torsions:
REMARK  status: ('A' for Active; 'I' for Inactive)
REMARK    1  A    between atoms: C_1  and  O_2 
REMARK    2  A    between atoms: O_2  and  C_3 
REMARK    3  A    between atoms: C_11  and  O_24 
REMARK    4  A    between atoms: C_12  and  C_14 
REMARK    5  A    between atoms: C_18  and  O_22 
REMARK    6  A    between atoms: C_19  and  O_20 
REMARK    7  A    between atoms: O_20  and  C_21 
REMARK    8  A    between atoms: O_22  and  C_23 
ROOT
ATOM      1  C   LIG d   1       8.086  -7.331  -5.980  0.00  0.00     0.121 A 
ATOM      2  C   LIG d   1       9.068  -6.662  -5.255  0.00  0.00    -0.016 A 
ATOM      3  C   LIG d   1       8.809  -5.433  -4.690  0.00  0.00    -0.015 A 
ATOM      4  C   LIG d   1       7.556  -4.847  -4.841  0.00  0.00     0.140 A 
ATOM      5  C   LIG d   1       6.565  -5.521  -5.571  0.00  0.00     0.071 A 
ATOM      6  C   LIG d   1       6.835  -6.766  -6.140  0.00  0.00    -0.005 A 
ATOM      7  C   LIG d   1       5.243  -4.884  -5.721  0.00  0.00     0.234 A 
ATOM      8  O   LIG d   1       4.345  -5.426  -6.346  0.00  0.00    -0.283 OA
ATOM      9  C   LIG d   1       5.052  -3.621  -5.106  0.00  0.00     0.208 A 
ATOM     10  C   LIG d   1       6.092  -3.046  -4.416  0.00  0.00     0.184 A 
ATOM     11  O   LIG d   1       7.290  -3.643  -4.293  0.00  0.00    -0.451 OA
ATOM     12  H   LIG d   1      10.042  -7.112  -5.135  0.00  0.00     0.066 H 
ATOM     13  H   LIG d   1       9.578  -4.923  -4.130  0.00  0.00     0.066 H 
ATOM     14  H   LIG d   1       6.072  -7.283  -6.702  0.00  0.00     0.066 H 
ENDROOT
BRANCH  10  15
ATOM     15  C   LIG d   1       5.885  -1.730  -3.785  0.00  0.00     0.066 A 
ATOM     16  C   LIG d   1       6.511  -0.592  -4.309  0.00  0.00     0.172 A 
ATOM     17  C   LIG d   1       6.314   0.643  -3.701  0.00  0.00     0.162 A 
ATOM     18  C   LIG d   1       5.492   0.744  -2.590  0.00  0.00    -0.016 A 
ATOM     19  C   LIG d   1       4.873  -0.381  -2.072  0.00  0.00    -0.057 A 
ATOM     20  H   LIG d   1       5.337   1.706  -2.123  0.00  0.00     0.066 H 
ATOM     21  C   LIG d   1       5.064  -1.612  -2.660  0.00  0.00    -0.047 A 
ATOM     22  H   LIG d   1       4.238  -0.293  -1.202  0.00  0.00     0.062 H 
ATOM     23  H   LIG d   1       4.579  -2.487  -2.251  0.00  0.00     0.063 H 
BRANCH  16  24
ATOM     24  O   LIG d   1       7.311  -0.695  -5.401  0.00  0.00    -0.491 OA
BRANCH  24  25
ATOM     25  C   LIG d   1       6.710  -0.437  -6.672  0.00  0.00     0.079 C 
ATOM     26  H   LIG d   1       7.294   0.315  -7.204  0.00  0.00     0.066 H 
ATOM     27  H   LIG d   1       5.694  -0.073  -6.527  0.00  0.00     0.066 H 
ATOM     28  H   LIG d   1       6.687  -1.358  -7.255  0.00  0.00     0.066 H 
ENDBRANCH  24  25
ENDBRANCH  16  24
BRANCH  17  29
ATOM     29  O   LIG d   1       6.921   1.752  -4.201  0.00  0.00    -0.491 OA
BRANCH  29  30
ATOM     30  C   LIG d   1       8.257   2.013  -3.763  0.00  0.00     0.079 C 
ATOM     31  H   LIG d   1       8.888   1.153  -3.990  0.00  0.00     0.066 H 
ATOM     32  H   LIG d   1       8.642   2.893  -4.278  0.00  0.00     0.066 H 
ATOM     33  H   LIG d   1       8.259   2.191  -2.687  0.00  0.00     0.066 H 
ENDBRANCH  29  30
ENDBRANCH  17  29
ENDBRANCH  10  15
BRANCH   9  34
ATOM     34  O   LIG d   1       3.855  -2.984  -5.202  0.00  0.00    -0.501 OA
ATOM     35  H   LIG d   1       3.166  -3.504  -5.637  0.00  0.00     0.292 HD
ENDBRANCH   9  34
BRANCH   1  36
ATOM     36  O   LIG d   1       8.357  -8.543  -6.531  0.00  0.00    -0.495 OA
BRANCH  36  37
ATOM     37  C   LIG d   1       7.312  -9.518  -6.504  0.00  0.00     0.079 C 
ATOM     38  H   LIG d   1       6.489  -9.185  -7.137  0.00  0.00     0.066 H 
ATOM     39  H   LIG d   1       7.693 -10.469  -6.874  0.00  0.00     0.066 H 
ATOM     40  H   LIG d   1       6.957  -9.640  -5.481  0.00  0.00     0.066 H 
ENDBRANCH  36  37
ENDBRANCH   1  36
TORSDOF 8
ENDMDL
MODEL 8
REMARK VINA RESULT:      -4.9      1.767      2.951
REMARK  8 active torsions:
REMARK  status: ('A' for Active; 'I' for Inactive)
REMARK    1  A    between atoms: C_1  and  O_2 
REMARK    2  A    between atoms: O_2  and  C_3 
REMARK    3  A    between atoms: C_11  and  O_24 
REMARK    4  A    between atoms: C_12  and  C_14 
REMARK    5  A    between atoms: C_18  and  O_22 
REMARK    6  A    between atoms: C_19  and  O_20 
REMARK    7  A    between atoms: O_20  and  C_21 
REMARK    8  A    between atoms: O_22  and  C_23 
ROOT
ATOM      1  C   LIG d   1       1.827  -1.796 -10.663  0.00  0.00     0.121 A 
ATOM      2  C   LIG d   1       1.583  -0.480 -10.280  0.00  0.00    -0.016 A 
ATOM      3  C   LIG d   1       2.123   0.025  -9.118  0.00  0.00    -0.015 A 
ATOM      4  C   LIG d   1       2.920  -0.781  -8.314  0.00  0.00     0.140 A 
ATOM      5  C   LIG d   1       3.168  -2.107  -8.698  0.00  0.00     0.071 A 
ATOM      6  C   LIG d   1       2.618  -2.611  -9.877  0.00  0.00    -0.005 A 
ATOM      7  C   LIG d   1       4.016  -2.947  -7.831  0.00  0.00     0.234 A 
ATOM      8  O   LIG d   1       4.263  -4.108  -8.118  0.00  0.00    -0.283 OA
ATOM      9  C   LIG d   1       4.538  -2.354  -6.655  0.00  0.00     0.208 A 
ATOM     10  C   LIG d   1       4.231  -1.045  -6.369  0.00  0.00     0.184 A 
ATOM     11  O   LIG d   1       3.455  -0.298  -7.172  0.00  0.00    -0.451 OA
ATOM     12  H   LIG d   1       0.963   0.150 -10.901  0.00  0.00     0.066 H 
ATOM     13  H   LIG d   1       1.926   1.048  -8.832  0.00  0.00     0.066 H 
ATOM     14  H   LIG d   1       2.809  -3.632 -10.172  0.00  0.00     0.066 H 
ENDROOT
BRANCH  10  15
ATOM     15  C   LIG d   1       4.775  -0.439  -5.141  0.00  0.00     0.066 A 
ATOM     16  C   LIG d   1       6.136  -0.116  -5.059  0.00  0.00     0.172 A 
ATOM     17  C   LIG d   1       6.639   0.450  -3.892  0.00  0.00     0.162 A 
ATOM     18  C   LIG d   1       5.793   0.702  -2.824  0.00  0.00    -0.016 A 
ATOM     19  C   LIG d   1       4.448   0.383  -2.906  0.00  0.00    -0.057 A 
ATOM     20  H   LIG d   1       6.187   1.145  -1.921  0.00  0.00     0.066 H 
ATOM     21  C   LIG d   1       3.936  -0.184  -4.053  0.00  0.00    -0.047 A 
ATOM     22  H   LIG d   1       3.798   0.579  -2.066  0.00  0.00     0.062 H 
ATOM     23  H   LIG d   1       2.886  -0.430  -4.111  0.00  0.00     0.063 H 
BRANCH  16  24
ATOM     24  O   LIG d   1       6.960  -0.360  -6.109  0.00  0.00    -0.491 OA
BRANCH  24  25
ATOM     25  C   LIG d   1       7.127   0.693  -7.061  0.00  0.00     0.079 C 
ATOM     26  H   LIG d   1       6.150   1.087  -7.342  0.00  0.00     0.066 H 
ATOM     27  H   LIG d   1       7.631   0.307  -7.946  0.00  0.00     0.066 H 
ATOM     28  H   LIG d   1       7.726   1.489  -6.620  0.00  0.00     0.066 H 
ENDBRANCH  24  25
ENDBRANCH  16  24
BRANCH  17  29
ATOM     29  O   LIG d   1       7.960   0.761  -3.802  0.00  0.00    -0.491 OA
BRANCH  29  30
ATOM     30  C   LIG d   1       8.302   2.148  -3.818  0.00  0.00     0.079 C 
ATOM     31  H   LIG d   1       7.631   2.680  -4.493  0.00  0.00     0.066 H 
ATOM     32  H   LIG d   1       8.206   2.557  -2.812  0.00  0.00     0.066 H 
ATOM     33  H   LIG d   1       9.330   2.265  -4.161  0.00  0.00     0.066 H 
ENDBRANCH  29  30
ENDBRANCH  17  29
ENDBRANCH  10  15
BRANCH   9  34
ATOM     34  O   LIG d   1       5.333  -3.072  -5.817  0.00  0.00    -0.501 OA
ATOM     35  H   LIG d   1       4.914  -3.870  -5.466  0.00  0.00     0.292 HD
ENDBRANCH   9  34
BRANCH   1  36
ATOM     36  O   LIG d   1       1.287  -2.279 -11.813  0.00  0.00    -0.495 OA
BRANCH  36  37
ATOM     37  C   LIG d   1       2.062  -2.133 -13.005  0.00  0.00     0.079 C 
ATOM     38  H   LIG d   1       1.684  -2.814 -13.769  0.00  0.00     0.066 H 
ATOM     39  H   LIG d   1       1.985  -1.107 -13.364  0.00  0.00     0.066 H 
ATOM     40  H   LIG d   1       3.104  -2.368 -12.791  0.00  0.00     0.066 H 
ENDBRANCH  36  37
ENDBRANCH   1  36
TORSDOF 8
ENDMDL
MODEL 9
REMARK VINA RESULT:      -4.8      5.060      7.426
REMARK  8 active torsions:
REMARK  status: ('A' for Active; 'I' for Inactive)
REMARK    1  A    between atoms: C_1  and  O_2 
REMARK    2  A    between atoms: O_2  and  C_3 
REMARK    3  A    between atoms: C_11  and  O_24 
REMARK    4  A    between atoms: C_12  and  C_14 
REMARK    5  A    between atoms: C_18  and  O_22 
REMARK    6  A    between atoms: C_19  and  O_20 
REMARK    7  A    between atoms: O_20  and  C_21 
REMARK    8  A    between atoms: O_22  and  C_23 
ROOT
ATOM      1  C   LIG d   1       8.353  -8.241  -5.911  0.00  0.00     0.121 A 
ATOM      2  C   LIG d   1       9.090  -7.233  -5.297  0.00  0.00    -0.016 A 
ATOM      3  C   LIG d   1       8.508  -6.022  -4.995  0.00  0.00    -0.015 A 
ATOM      4  C   LIG d   1       7.171  -5.797  -5.304  0.00  0.00     0.140 A 
ATOM      5  C   LIG d   1       6.426  -6.812  -5.923  0.00  0.00     0.071 A 
ATOM      6  C   LIG d   1       7.023  -8.036  -6.225  0.00  0.00    -0.005 A 
ATOM      7  C   LIG d   1       5.009  -6.554  -6.243  0.00  0.00     0.234 A 
ATOM      8  O   LIG d   1       4.317  -7.403  -6.782  0.00  0.00    -0.283 OA
ATOM      9  C   LIG d   1       4.482  -5.286  -5.896  0.00  0.00     0.208 A 
ATOM     10  C   LIG d   1       5.299  -4.360  -5.295  0.00  0.00     0.184 A 
ATOM     11  O   LIG d   1       6.588  -4.615  -5.013  0.00  0.00    -0.451 OA
ATOM     12  H   LIG d   1      10.129  -7.402  -5.056  0.00  0.00     0.066 H 
ATOM     13  H   LIG d   1       9.089  -5.247  -4.518  0.00  0.00     0.066 H 
ATOM     14  H   LIG d   1       6.450  -8.817  -6.702  0.00  0.00     0.066 H 
ENDROOT
BRANCH  10  15
ATOM     15  C   LIG d   1       4.741  -3.041  -4.943  0.00  0.00     0.066 A 
ATOM     16  C   LIG d   1       4.720  -2.010  -5.891  0.00  0.00     0.172 A 
ATOM     17  C   LIG d   1       4.197  -0.769  -5.546  0.00  0.00     0.162 A 
ATOM     18  C   LIG d   1       3.691  -0.561  -4.273  0.00  0.00    -0.016 A 
ATOM     19  C   LIG d   1       3.712  -1.580  -3.336  0.00  0.00    -0.057 A 
ATOM     20  H   LIG d   1       3.282   0.404  -4.009  0.00  0.00     0.066 H 
ATOM     21  C   LIG d   1       4.232  -2.813  -3.662  0.00  0.00    -0.047 A 
ATOM     22  H   LIG d   1       3.320  -1.407  -2.344  0.00  0.00     0.062 H 
ATOM     23  H   LIG d   1       4.246  -3.605  -2.926  0.00  0.00     0.063 H 
BRANCH  16  24
ATOM     24  O   LIG d   1       5.212  -2.220  -7.139  0.00  0.00    -0.491 OA
BRANCH  24  25
ATOM     25  C   LIG d   1       6.574  -1.855  -7.369  0.00  0.00     0.079 C 
ATOM     26  H   LIG d   1       6.789  -0.914  -6.862  0.00  0.00     0.066 H 
ATOM     27  H   LIG d   1       6.744  -1.738  -8.439  0.00  0.00     0.066 H 
ATOM     28  H   LIG d   1       7.230  -2.634  -6.979  0.00  0.00     0.066 H 
ENDBRANCH  24  25
ENDBRANCH  16  24
BRANCH  17  29
ATOM     29  O   LIG d   1       4.177   0.239  -6.458  0.00  0.00    -0.491 OA
BRANCH  29  30
ATOM     30  C   LIG d   1       2.982   0.396  -7.226  0.00  0.00     0.079 C 
ATOM     31  H   LIG d   1       3.238   0.504  -8.280  0.00  0.00     0.066 H 
ATOM     32  H   LIG d   1       2.347  -0.480  -7.092  0.00  0.00     0.066 H 
ATOM     33  H   LIG d   1       2.448   1.286  -6.889  0.00  0.00     0.066 H 
ENDBRANCH  29  30
ENDBRANCH  17  29
ENDBRANCH  10  15
BRANCH   9  34
ATOM     34  O   LIG d   1       3.181  -4.987  -6.159  0.00  0.00    -0.501 OA
ATOM     35  H   LIG d   1       2.765  -4.423  -5.494  0.00  0.00     0.292 HD
ENDBRANCH   9  34
BRANCH   1  36
ATOM     36  O   LIG d   1       8.943  -9.431  -6.203  0.00  0.00    -0.495 OA
BRANCH  36  37
ATOM     37  C   LIG d   1       8.078 -10.530  -6.496  0.00  0.00     0.079 C 
ATOM     38  H   LIG d   1       7.211 -10.496  -5.835  0.00  0.00     0.066 H 
ATOM     39  H   LIG d   1       7.747 -10.464  -7.532  0.00  0.00     0.066 H 
ATOM     40  H   LIG d   1       8.615 -11.465  -6.343  0.00  0.00     0.066 H 
ENDBRANCH  36  37
ENDBRANCH   1  36
TORSDOF 8
ENDMDL
MODEL 10
REMARK VINA RESULT:      -4.8     12.350     14.528
REMARK  8 active torsions:
REMARK  status: ('A' for Active; 'I' for Inactive)
REMARK    1  A    between atoms: C_1  and  O_2 
REMARK    2  A    between atoms: O_2  and  C_3 
REMARK    3  A    between atoms: C_11  and  O_24 
REMARK    4  A    between atoms: C_12  and  C_14 
REMARK    5  A    between atoms: C_18  and  O_22 
REMARK    6  A    between atoms: C_19  and  O_20 
REMARK    7  A    between atoms: O_20  and  C_21 
REMARK    8  A    between atoms: O_22  and  C_23 
ROOT
ATOM      1  C   LIG d   1       9.611  12.332  -6.914  0.00  0.00     0.121 A 
ATOM      2  C   LIG d   1      10.411  11.208  -7.095  0.00  0.00    -0.016 A 
ATOM      3  C   LIG d   1      10.857  10.481  -6.013  0.00  0.00    -0.015 A 
ATOM      4  C   LIG d   1      10.508  10.868  -4.724  0.00  0.00     0.140 A 
ATOM      5  C   LIG d   1       9.701  12.001  -4.540  0.00  0.00     0.071 A 
ATOM      6  C   LIG d   1       9.253  12.731  -5.641  0.00  0.00    -0.005 A 
ATOM      7  C   LIG d   1       9.342  12.396  -3.164  0.00  0.00     0.234 A 
ATOM      8  O   LIG d   1       8.643  13.373  -2.948  0.00  0.00    -0.283 OA
ATOM      9  C   LIG d   1       9.834  11.595  -2.105  0.00  0.00     0.208 A 
ATOM     10  C   LIG d   1      10.622  10.507  -2.395  0.00  0.00     0.184 A 
ATOM     11  O   LIG d   1      10.938  10.165  -3.656  0.00  0.00    -0.451 OA
ATOM     12  H   LIG d   1      10.686  10.903  -8.095  0.00  0.00     0.066 H 
ATOM     13  H   LIG d   1      11.477   9.611  -6.166  0.00  0.00     0.066 H 
ATOM     14  H   LIG d   1       8.632  13.603  -5.498  0.00  0.00     0.066 H 
ENDROOT
BRANCH  10  15
ATOM     15  C   LIG d   1      11.134   9.683  -1.285  0.00  0.00     0.066 A 
ATOM     16  C   LIG d   1      10.490   8.487  -0.941  0.00  0.00     0.172 A 
ATOM     17  C   LIG d   1      10.978   7.722   0.112  0.00  0.00     0.162 A 
ATOM     18  C   LIG d   1      12.103   8.137   0.807  0.00  0.00    -0.016 A 
ATOM     19  C   LIG d   1      12.738   9.319   0.467  0.00  0.00    -0.057 A 
ATOM     20  H   LIG d   1      12.481   7.538   1.623  0.00  0.00     0.066 H 
ATOM     21  C   LIG d   1      12.263  10.092  -0.570  0.00  0.00    -0.047 A 
ATOM     22  H   LIG d   1      13.611   9.638   1.018  0.00  0.00     0.062 H 
ATOM     23  H   LIG d   1      12.763  11.013  -0.831  0.00  0.00     0.063 H 
BRANCH  16  24
ATOM     24  O   LIG d   1       9.392   8.081  -1.628  0.00  0.00    -0.491 OA
BRANCH  24  25
ATOM     25  C   LIG d   1       9.579   7.048  -2.598  0.00  0.00     0.079 C 
ATOM     26  H   LIG d   1       9.604   7.486  -3.596  0.00  0.00     0.066 H 
ATOM     27  H   LIG d   1       8.756   6.336  -2.534  0.00  0.00     0.066 H 
ATOM     28  H   LIG d   1      10.520   6.534  -2.403  0.00  0.00     0.066 H 
ENDBRANCH  24  25
ENDBRANCH  16  24
BRANCH  17  29
ATOM     29  O   LIG d   1      10.356   6.563   0.456  0.00  0.00    -0.491 OA
BRANCH  29  30
ATOM     30  C   LIG d   1      11.075   5.669   1.309  0.00  0.00     0.079 C 
ATOM     31  H   LIG d   1      10.551   5.575   2.260  0.00  0.00     0.066 H 
ATOM     32  H   LIG d   1      11.144   4.691   0.833  0.00  0.00     0.066 H 
ATOM     33  H   LIG d   1      12.077   6.060   1.484  0.00  0.00     0.066 H 
ENDBRANCH  29  30
ENDBRANCH  17  29
ENDBRANCH  10  15
BRANCH   9  34
ATOM     34  O   LIG d   1       9.535  11.902  -0.814  0.00  0.00    -0.501 OA
ATOM     35  H   LIG d   1       8.775  12.491  -0.716  0.00  0.00     0.292 HD
ENDBRANCH   9  34
BRANCH   1  36
ATOM     36  O   LIG d   1       9.179  13.038  -7.993  0.00  0.00    -0.495 OA
BRANCH  36  37
ATOM     37  C   LIG d   1       9.919  14.211  -8.339  0.00  0.00     0.079 C 
ATOM     38  H   LIG d   1      10.637  13.969  -9.122  0.00  0.00     0.066 H 
ATOM     39  H   LIG d   1       9.234  14.978  -8.699  0.00  0.00     0.066 H 
ATOM     40  H   LIG d   1      10.448  14.578  -7.460  0.00  0.00     0.066 H 
ENDBRANCH  36  37
ENDBRANCH   1  36
TORSDOF 8
ENDMDL
