MODEL 1
REMARK VINA RESULT:      -7.5      0.000      0.000
REMARK  8 active torsions:
REMARK  status: ('A' for Active; 'I' for Inactive)
REMARK    1  A    between atoms: C_1  and  O_2 
REMARK    2  A    between atoms: O_2  and  C_3 
REMARK    3  A    between atoms: C_7  and  C_9 
REMARK    4  A    between atoms: C_16  and  O_20 
REMARK    5  A    between atoms: O_20  and  C_21 
REMARK    6  A    between atoms: C_21  and  C_22 
REMARK       I    between atoms: C_22  and  N_24 
REMARK       I    between atoms: N_24  and  CA_25 
REMARK    7  A    between atoms: CA_25  and  CB_27 
REMARK       I    between atoms: CA_25  and  C_31 
REMARK    8  A    between atoms: CB_27  and  CG_28 
REMARK       I    between atoms: CG_28  and  ND2_30 
ROOT
ATOM      1  C   UNK d   0      -0.042  -4.259 -12.129  0.00  0.00    -0.008 C 
ATOM      2  C   UNK d   0       0.757  -3.238 -11.730  0.00  0.00     0.176 A 
ATOM      3  C   UNK d   0       1.511  -2.329 -12.607  0.00  0.00     0.232 A 
ATOM      4  O   UNK d   0       1.551  -2.330 -13.824  0.00  0.00    -0.283 OA
ATOM      5  C   UNK d   0       2.207  -1.416 -11.682  0.00  0.00     0.068 A 
ATOM      6  C   UNK d   0       3.073  -0.339 -11.875  0.00  0.00    -0.044 A 
ATOM      7  C   UNK d   0       3.574   0.335 -10.798  0.00  0.00    -0.019 A 
ATOM      8  C   UNK d   0       3.222  -0.052  -9.507  0.00  0.00     0.125 A 
ATOM      9  C   UNK d   0       2.368  -1.123  -9.299  0.00  0.00     0.023 A 
ATOM     10  C   UNK d   0       1.845  -1.815 -10.385  0.00  0.00     0.143 A 
ATOM     11  O   UNK d   0       1.006  -2.871 -10.450  0.00  0.00    -0.451 OA
ATOM     12  H   UNK d   0      -0.238  -4.412 -13.180  0.00  0.00     0.066 H 
ATOM     13  H   UNK d   0       3.346  -0.038 -12.876  0.00  0.00     0.063 H 
ATOM     14  H   UNK d   0       4.244   1.169 -10.946  0.00  0.00     0.065 H 
ATOM     15  H   UNK d   0       2.105  -1.417  -8.294  0.00  0.00     0.069 H 
ENDROOT
BRANCH   8  16
ATOM     16  O   UNK d   0       3.724   0.624  -8.443  0.00  0.00    -0.483 OA
BRANCH  16  17
ATOM     17  C   UNK d   0       4.318  -0.154  -7.401  0.00  0.00     0.165 C 
ATOM     18  H   UNK d   0       5.367   0.122  -7.295  0.00  0.00     0.080 H 
ATOM     19  H   UNK d   0       4.243  -1.212  -7.651  0.00  0.00     0.080 H 
BRANCH  17  20
ATOM     20  C   UNK d   0       3.596   0.108  -6.104  0.00  0.00     0.251 C 
ATOM     21  O   UNK d   0       2.690   0.913  -6.066  0.00  0.00    -0.272 OA
ATOM     22  N   ASN d   1       3.957  -0.553  -4.987  0.00  0.00    -0.304 N 
ATOM     23  CA  ASN d   1       3.255  -0.298  -3.726  0.00  0.00     0.071 C 
ATOM     24  H   ASN d   1       4.682  -1.197  -5.017  0.00  0.00     0.149 HD
ATOM     25  HA  ASN d   1       2.203  -0.101  -3.930  0.00  0.00     0.057 H 
ATOM     26  C   ASN d   1       3.867   0.898  -3.043  0.00  0.00     0.062 C 
ATOM     27  O   ASN d   1       4.794   1.479  -3.557  0.00  0.00    -0.548 OA
ATOM     28  OXT ASN d   1       3.382   1.319  -1.865  0.00  0.00    -0.548 OA
BRANCH  23  29
ATOM     29  CB  ASN d   1       3.379  -1.523  -2.817  0.00  0.00     0.047 C 
ATOM     30  HB1 ASN d   1       3.555  -1.198  -1.792  0.00  0.00     0.038 H 
ATOM     31  HB2 ASN d   1       2.458  -2.103  -2.861  0.00  0.00     0.038 H 
BRANCH  29  32
ATOM     32  CG  ASN d   1       4.532  -2.376  -3.278  0.00  0.00     0.213 C 
ATOM     33  OD1 ASN d   1       5.673  -2.013  -3.082  0.00  0.00    -0.276 OA
ATOM     34  ND2 ASN d   1       4.296  -3.543  -3.909  0.00  0.00    -0.329 N 
ATOM     35 1HD2 ASN d   1       3.385  -3.834  -4.067  0.00  0.00     0.145 HD
ATOM     36 2HD2 ASN d   1       5.039  -4.092  -4.207  0.00  0.00     0.145 HD
ENDBRANCH  29  32
ENDBRANCH  23  29
ENDBRANCH  17  20
ENDBRANCH  16  17
ENDBRANCH   8  16
BRANCH   1  37
ATOM     37  C   UNK d   0      -0.642  -5.156 -11.132  0.00  0.00    -0.018 A 
ATOM     38  C   UNK d   0       0.024  -6.324 -10.746  0.00  0.00    -0.054 A 
ATOM     39  C   UNK d   0      -0.540  -7.161  -9.806  0.00  0.00    -0.058 A 
ATOM     40  H   UNK d   0       0.982  -6.569 -11.181  0.00  0.00     0.062 H 
ATOM     41  C   UNK d   0      -1.770  -6.853  -9.249  0.00  0.00    -0.020 A 
ATOM     42  H   UNK d   0      -0.023  -8.059  -9.504  0.00  0.00     0.062 H 
ATOM     43  C   UNK d   0      -2.443  -5.699  -9.629  0.00  0.00     0.121 A 
ATOM     44  H   UNK d   0      -2.208  -7.515  -8.516  0.00  0.00     0.065 H 
ATOM     45  C   UNK d   0      -1.885  -4.849 -10.567  0.00  0.00    -0.013 A 
ATOM     46  H   UNK d   0      -2.407  -3.951 -10.863  0.00  0.00     0.066 H 
BRANCH  43  47
ATOM     47  O   UNK d   0      -3.649  -5.405  -9.078  0.00  0.00    -0.495 OA
BRANCH  47  48
ATOM     48  C   UNK d   0      -4.403  -4.356  -9.688  0.00  0.00     0.079 C 
ATOM     49  H   UNK d   0      -5.286  -4.144  -9.084  0.00  0.00     0.066 H 
ATOM     50  H   UNK d   0      -3.787  -3.459  -9.757  0.00  0.00     0.066 H 
ATOM     51  H   UNK d   0      -4.711  -4.662 -10.687  0.00  0.00     0.066 H 
ENDBRANCH  47  48
ENDBRANCH  43  47
ENDBRANCH   1  37
TORSDOF 10
ENDMDL
MODEL 2
REMARK VINA RESULT:      -7.1      5.227     11.813
REMARK  8 active torsions:
REMARK  status: ('A' for Active; 'I' for Inactive)
REMARK    1  A    between atoms: C_1  and  O_2 
REMARK    2  A    between atoms: O_2  and  C_3 
REMARK    3  A    between atoms: C_7  and  C_9 
REMARK    4  A    between atoms: C_16  and  O_20 
REMARK    5  A    between atoms: O_20  and  C_21 
REMARK    6  A    between atoms: C_21  and  C_22 
REMARK       I    between atoms: C_22  and  N_24 
REMARK       I    between atoms: N_24  and  CA_25 
REMARK    7  A    between atoms: CA_25  and  CB_27 
REMARK       I    between atoms: CA_25  and  C_31 
REMARK    8  A    between atoms: CB_27  and  CG_28 
REMARK       I    between atoms: CG_28  and  ND2_30 
ROOT
ATOM      1  C   UNK d   0      10.599   3.387  -3.886  0.00  0.00    -0.008 C 
ATOM      2  C   UNK d   0       9.618   2.456  -3.985  0.00  0.00     0.176 A 
ATOM      3  C   UNK d   0       9.719   1.153  -4.662  0.00  0.00     0.232 A 
ATOM      4  O   UNK d   0      10.684   0.688  -5.243  0.00  0.00    -0.283 OA
ATOM      5  C   UNK d   0       8.392   0.538  -4.481  0.00  0.00     0.068 A 
ATOM      6  C   UNK d   0       7.842  -0.681  -4.880  0.00  0.00    -0.044 A 
ATOM      7  C   UNK d   0       6.550  -0.984  -4.558  0.00  0.00    -0.019 A 
ATOM      8  C   UNK d   0       5.780  -0.078  -3.831  0.00  0.00     0.125 A 
ATOM      9  C   UNK d   0       6.311   1.138  -3.433  0.00  0.00     0.023 A 
ATOM     10  C   UNK d   0       7.626   1.459  -3.748  0.00  0.00     0.143 A 
ATOM     11  O   UNK d   0       8.366   2.556  -3.479  0.00  0.00    -0.451 OA
ATOM     12  H   UNK d   0      11.590   3.168  -4.255  0.00  0.00     0.066 H 
ATOM     13  H   UNK d   0       8.438  -1.384  -5.443  0.00  0.00     0.063 H 
ATOM     14  H   UNK d   0       6.124  -1.927  -4.866  0.00  0.00     0.065 H 
ATOM     15  H   UNK d   0       5.705   1.835  -2.874  0.00  0.00     0.069 H 
ENDROOT
BRANCH   8  16
ATOM     16  O   UNK d   0       4.498  -0.388  -3.515  0.00  0.00    -0.483 OA
BRANCH  16  17
ATOM     17  C   UNK d   0       3.512   0.622  -3.738  0.00  0.00     0.165 C 
ATOM     18  H   UNK d   0       3.995   1.598  -3.776  0.00  0.00     0.080 H 
ATOM     19  H   UNK d   0       2.786   0.606  -2.927  0.00  0.00     0.080 H 
BRANCH  17  20
ATOM     20  C   UNK d   0       2.810   0.358  -5.046  0.00  0.00     0.251 C 
ATOM     21  O   UNK d   0       1.759  -0.245  -5.060  0.00  0.00    -0.272 OA
ATOM     22  N   ASN d   1       3.352   0.794  -6.200  0.00  0.00    -0.304 N 
ATOM     23  CA  ASN d   1       2.671   0.538  -7.472  0.00  0.00     0.071 C 
ATOM     24  H   ASN d   1       4.193   1.277  -6.190  0.00  0.00     0.149 HD
ATOM     25  HA  ASN d   1       1.592   0.584  -7.321  0.00  0.00     0.057 H 
ATOM     26  C   ASN d   1       3.049  -0.830  -7.979  0.00  0.00     0.062 C 
ATOM     27  O   ASN d   1       3.810  -1.520  -7.343  0.00  0.00    -0.548 OA
ATOM     28  OXT ASN d   1       2.541  -1.281  -9.136  0.00  0.00    -0.548 OA
BRANCH  23  29
ATOM     29  CB  ASN d   1       3.089   1.595  -8.497  0.00  0.00     0.047 C 
ATOM     30  HB1 ASN d   1       2.444   1.526  -9.373  0.00  0.00     0.038 H 
ATOM     31  HB2 ASN d   1       2.997   2.587  -8.055  0.00  0.00     0.038 H 
BRANCH  29  32
ATOM     32  CG  ASN d   1       4.520   1.359  -8.906  0.00  0.00     0.213 C 
ATOM     33  OD1 ASN d   1       5.418   1.555  -8.115  0.00  0.00    -0.276 OA
ATOM     34  ND2 ASN d   1       4.802   0.928 -10.151  0.00  0.00    -0.329 N 
ATOM     35 1HD2 ASN d   1       4.084   0.770 -10.784  0.00  0.00     0.145 HD
ATOM     36 2HD2 ASN d   1       5.724   0.775 -10.415  0.00  0.00     0.145 HD
ENDBRANCH  29  32
ENDBRANCH  23  29
ENDBRANCH  17  20
ENDBRANCH  16  17
ENDBRANCH   8  16
BRANCH   1  37
ATOM     37  C   UNK d   0      10.314   4.693  -3.276  0.00  0.00    -0.018 A 
ATOM     38  C   UNK d   0       9.923   5.773  -4.076  0.00  0.00    -0.054 A 
ATOM     39  C   UNK d   0       9.651   6.995  -3.498  0.00  0.00    -0.058 A 
ATOM     40  H   UNK d   0       9.830   5.648  -5.144  0.00  0.00     0.062 H 
ATOM     41  C   UNK d   0       9.773   7.161  -2.129  0.00  0.00    -0.020 A 
ATOM     42  H   UNK d   0       9.344   7.826  -4.115  0.00  0.00     0.062 H 
ATOM     43  C   UNK d   0      10.166   6.098  -1.326  0.00  0.00     0.121 A 
ATOM     44  H   UNK d   0       9.562   8.122  -1.684  0.00  0.00     0.065 H 
ATOM     45  C   UNK d   0      10.436   4.865  -1.893  0.00  0.00    -0.013 A 
ATOM     46  H   UNK d   0      10.742   4.037  -1.269  0.00  0.00     0.066 H 
BRANCH  43  47
ATOM     47  O   UNK d   0      10.284   6.269   0.016  0.00  0.00    -0.495 OA
BRANCH  47  48
ATOM     48  C   UNK d   0      11.469   5.763   0.634  0.00  0.00     0.079 C 
ATOM     49  H   UNK d   0      11.757   6.416   1.458  0.00  0.00     0.066 H 
ATOM     50  H   UNK d   0      11.280   4.760   1.014  0.00  0.00     0.066 H 
ATOM     51  H   UNK d   0      12.275   5.727  -0.099  0.00  0.00     0.066 H 
ENDBRANCH  47  48
ENDBRANCH  43  47
ENDBRANCH   1  37
TORSDOF 10
ENDMDL
MODEL 3
REMARK VINA RESULT:      -7.1      1.235      2.106
REMARK  8 active torsions:
REMARK  status: ('A' for Active; 'I' for Inactive)
REMARK    1  A    between atoms: C_1  and  O_2 
REMARK    2  A    between atoms: O_2  and  C_3 
REMARK    3  A    between atoms: C_7  and  C_9 
REMARK    4  A    between atoms: C_16  and  O_20 
REMARK    5  A    between atoms: O_20  and  C_21 
REMARK    6  A    between atoms: C_21  and  C_22 
REMARK       I    between atoms: C_22  and  N_24 
REMARK       I    between atoms: N_24  and  CA_25 
REMARK    7  A    between atoms: CA_25  and  CB_27 
REMARK       I    between atoms: CA_25  and  C_31 
REMARK    8  A    between atoms: CB_27  and  CG_28 
REMARK       I    between atoms: CG_28  and  ND2_30 
ROOT
ATOM      1  C   UNK d   0      -0.097  -4.572 -12.159  0.00  0.00    -0.008 C 
ATOM      2  C   UNK d   0       0.660  -3.522 -11.757  0.00  0.00     0.176 A 
ATOM      3  C   UNK d   0       1.451  -2.635 -12.626  0.00  0.00     0.232 A 
ATOM      4  O   UNK d   0       1.564  -2.687 -13.838  0.00  0.00    -0.283 OA
ATOM      5  C   UNK d   0       2.076  -1.673 -11.700  0.00  0.00     0.068 A 
ATOM      6  C   UNK d   0       2.935  -0.589 -11.888  0.00  0.00    -0.044 A 
ATOM      7  C   UNK d   0       3.359   0.138 -10.812  0.00  0.00    -0.019 A 
ATOM      8  C   UNK d   0       2.937  -0.201  -9.529  0.00  0.00     0.125 A 
ATOM      9  C   UNK d   0       2.089  -1.278  -9.327  0.00  0.00     0.023 A 
ATOM     10  C   UNK d   0       1.643  -2.025 -10.412  0.00  0.00     0.143 A 
ATOM     11  O   UNK d   0       0.826  -3.098 -10.482  0.00  0.00    -0.451 OA
ATOM     12  H   UNK d   0      -0.227  -4.772 -13.213  0.00  0.00     0.066 H 
ATOM     13  H   UNK d   0       3.263  -0.324 -12.882  0.00  0.00     0.063 H 
ATOM     14  H   UNK d   0       4.024   0.977 -10.956  0.00  0.00     0.065 H 
ATOM     15  H   UNK d   0       1.770  -1.535  -8.328  0.00  0.00     0.069 H 
ENDROOT
BRANCH   8  16
ATOM     16  O   UNK d   0       3.363   0.527  -8.466  0.00  0.00    -0.483 OA
BRANCH  16  17
ATOM     17  C   UNK d   0       2.891   0.130  -7.177  0.00  0.00     0.165 C 
ATOM     18  H   UNK d   0       2.188  -0.696  -7.286  0.00  0.00     0.080 H 
ATOM     19  H   UNK d   0       2.392   0.972  -6.698  0.00  0.00     0.080 H 
BRANCH  17  20
ATOM     20  C   UNK d   0       4.057  -0.311  -6.329  0.00  0.00     0.251 C 
ATOM     21  O   UNK d   0       5.185   0.008  -6.637  0.00  0.00    -0.272 OA
ATOM     22  N   ASN d   1       3.844  -1.060  -5.230  0.00  0.00    -0.304 N 
ATOM     23  CA  ASN d   1       4.977  -1.489  -4.405  0.00  0.00     0.071 C 
ATOM     24  H   ASN d   1       2.942  -1.315  -4.983  0.00  0.00     0.149 HD
ATOM     25  HA  ASN d   1       5.737  -0.708  -4.398  0.00  0.00     0.057 H 
ATOM     26  C   ASN d   1       5.564  -2.754  -4.977  0.00  0.00     0.062 C 
ATOM     27  O   ASN d   1       5.085  -3.247  -5.971  0.00  0.00    -0.548 OA
ATOM     28  OXT ASN d   1       6.618  -3.334  -4.383  0.00  0.00    -0.548 OA
BRANCH  23  29
ATOM     29  CB  ASN d   1       4.499  -1.750  -2.975  0.00  0.00     0.047 C 
ATOM     30  HB1 ASN d   1       3.787  -2.575  -2.976  0.00  0.00     0.038 H 
ATOM     31  HB2 ASN d   1       5.352  -2.006  -2.347  0.00  0.00     0.038 H 
BRANCH  29  32
ATOM     32  CG  ASN d   1       3.832  -0.511  -2.436  0.00  0.00     0.213 C 
ATOM     33  OD1 ASN d   1       2.679  -0.268  -2.722  0.00  0.00    -0.276 OA
ATOM     34  ND2 ASN d   1       4.518   0.327  -1.634  0.00  0.00    -0.329 N 
ATOM     35 1HD2 ASN d   1       5.440   0.134  -1.404  0.00  0.00     0.145 HD
ATOM     36 2HD2 ASN d   1       4.089   1.126  -1.286  0.00  0.00     0.145 HD
ENDBRANCH  29  32
ENDBRANCH  23  29
ENDBRANCH  17  20
ENDBRANCH  16  17
ENDBRANCH   8  16
BRANCH   1  37
ATOM     37  C   UNK d   0      -0.742  -5.438 -11.163  0.00  0.00    -0.018 A 
ATOM     38  C   UNK d   0      -0.170  -6.670 -10.826  0.00  0.00    -0.054 A 
ATOM     39  C   UNK d   0      -0.776  -7.477  -9.886  0.00  0.00    -0.058 A 
ATOM     40  H   UNK d   0       0.748  -6.987 -11.299  0.00  0.00     0.062 H 
ATOM     41  C   UNK d   0      -1.954  -7.077  -9.281  0.00  0.00    -0.020 A 
ATOM     42  H   UNK d   0      -0.331  -8.425  -9.623  0.00  0.00     0.062 H 
ATOM     43  C   UNK d   0      -2.535  -5.859  -9.612  0.00  0.00     0.121 A 
ATOM     44  H   UNK d   0      -2.425  -7.716  -8.548  0.00  0.00     0.065 H 
ATOM     45  C   UNK d   0      -1.934  -5.038 -10.549  0.00  0.00    -0.013 A 
ATOM     46  H   UNK d   0      -2.384  -4.090 -10.807  0.00  0.00     0.066 H 
BRANCH  43  47
ATOM     47  O   UNK d   0      -3.692  -5.474  -9.014  0.00  0.00    -0.495 OA
BRANCH  47  48
ATOM     48  C   UNK d   0      -4.418  -4.409  -9.629  0.00  0.00     0.079 C 
ATOM     49  H   UNK d   0      -4.955  -4.789 -10.498  0.00  0.00     0.066 H 
ATOM     50  H   UNK d   0      -5.129  -3.994  -8.915  0.00  0.00     0.066 H 
ATOM     51  H   UNK d   0      -3.724  -3.630  -9.944  0.00  0.00     0.066 H 
ENDBRANCH  47  48
ENDBRANCH  43  47
ENDBRANCH   1  37
TORSDOF 10
ENDMDL
MODEL 4
REMARK VINA RESULT:      -7.1      7.469     12.878
REMARK  8 active torsions:
REMARK  status: ('A' for Active; 'I' for Inactive)
REMARK    1  A    between atoms: C_1  and  O_2 
REMARK    2  A    between atoms: O_2  and  C_3 
REMARK    3  A    between atoms: C_7  and  C_9 
REMARK    4  A    between atoms: C_16  and  O_20 
REMARK    5  A    between atoms: O_20  and  C_21 
REMARK    6  A    between atoms: C_21  and  C_22 
REMARK       I    between atoms: C_22  and  N_24 
REMARK       I    between atoms: N_24  and  CA_25 
REMARK    7  A    between atoms: CA_25  and  CB_27 
REMARK       I    between atoms: CA_25  and  C_31 
REMARK    8  A    between atoms: CB_27  and  CG_28 
REMARK       I    between atoms: CG_28  and  ND2_30 
ROOT
ATOM      1  C   UNK d   0      11.390  -9.082  -0.398  0.00  0.00    -0.008 C 
ATOM      2  C   UNK d   0      10.860  -8.150  -1.228  0.00  0.00     0.176 A 
ATOM      3  C   UNK d   0      10.521  -8.340  -2.648  0.00  0.00     0.232 A 
ATOM      4  O   UNK d   0      10.655  -9.350  -3.317  0.00  0.00    -0.283 OA
ATOM      5  C   UNK d   0       9.986  -7.036  -3.078  0.00  0.00     0.068 A 
ATOM      6  C   UNK d   0       9.494  -6.560  -4.294  0.00  0.00    -0.044 A 
ATOM      7  C   UNK d   0       9.056  -5.270  -4.394  0.00  0.00    -0.019 A 
ATOM      8  C   UNK d   0       9.100  -4.429  -3.285  0.00  0.00     0.125 A 
ATOM      9  C   UNK d   0       9.591  -4.886  -2.073  0.00  0.00     0.023 A 
ATOM     10  C   UNK d   0      10.035  -6.197  -1.952  0.00  0.00     0.143 A 
ATOM     11  O   UNK d   0      10.546  -6.874  -0.901  0.00  0.00    -0.451 OA
ATOM     12  H   UNK d   0      11.523 -10.097  -0.742  0.00  0.00     0.066 H 
ATOM     13  H   UNK d   0       9.458  -7.212  -5.155  0.00  0.00     0.063 H 
ATOM     14  H   UNK d   0       8.674  -4.901  -5.335  0.00  0.00     0.065 H 
ATOM     15  H   UNK d   0       9.624  -4.225  -1.220  0.00  0.00     0.069 H 
ENDROOT
BRANCH   8  16
ATOM     16  O   UNK d   0       8.661  -3.150  -3.394  0.00  0.00    -0.483 OA
BRANCH  16  17
ATOM     17  C   UNK d   0       7.881  -2.827  -4.547  0.00  0.00     0.165 C 
ATOM     18  H   UNK d   0       8.008  -3.605  -5.299  0.00  0.00     0.080 H 
ATOM     19  H   UNK d   0       8.211  -1.871  -4.951  0.00  0.00     0.080 H 
BRANCH  17  20
ATOM     20  C   UNK d   0       6.427  -2.735  -4.159  0.00  0.00     0.251 C 
ATOM     21  O   UNK d   0       5.651  -3.600  -4.505  0.00  0.00    -0.272 OA
ATOM     22  N   ASN d   1       5.990  -1.690  -3.429  0.00  0.00    -0.304 N 
ATOM     23  CA  ASN d   1       4.577  -1.600  -3.051  0.00  0.00     0.071 C 
ATOM     24  H   ASN d   1       6.611  -0.998  -3.152  0.00  0.00     0.149 HD
ATOM     25  HA  ASN d   1       4.187  -2.601  -2.865  0.00  0.00     0.057 H 
ATOM     26  C   ASN d   1       3.798  -0.957  -4.170  0.00  0.00     0.062 C 
ATOM     27  O   ASN d   1       4.366  -0.610  -5.179  0.00  0.00    -0.548 OA
ATOM     28  OXT ASN d   1       2.476  -0.771  -4.046  0.00  0.00    -0.548 OA
BRANCH  23  29
ATOM     29  CB  ASN d   1       4.440  -0.755  -1.783  0.00  0.00     0.047 C 
ATOM     30  HB1 ASN d   1       3.443  -0.888  -1.364  0.00  0.00     0.038 H 
ATOM     31  HB2 ASN d   1       5.187  -1.069  -1.054  0.00  0.00     0.038 H 
BRANCH  29  32
ATOM     32  CG  ASN d   1       4.652   0.698  -2.124  0.00  0.00     0.213 C 
ATOM     33  OD1 ASN d   1       5.772   1.118  -2.324  0.00  0.00    -0.276 OA
ATOM     34  ND2 ASN d   1       3.596   1.531  -2.208  0.00  0.00    -0.329 N 
ATOM     35 1HD2 ASN d   1       2.700   1.196  -2.048  0.00  0.00     0.145 HD
ATOM     36 2HD2 ASN d   1       3.733   2.467  -2.427  0.00  0.00     0.145 HD
ENDBRANCH  29  32
ENDBRANCH  23  29
ENDBRANCH  17  20
ENDBRANCH  16  17
ENDBRANCH   8  16
BRANCH   1  37
ATOM     37  C   UNK d   0      11.782  -8.712   0.969  0.00  0.00    -0.018 A 
ATOM     38  C   UNK d   0      10.855  -8.798   2.013  0.00  0.00    -0.054 A 
ATOM     39  C   UNK d   0      11.228  -8.454   3.296  0.00  0.00    -0.058 A 
ATOM     40  H   UNK d   0       9.849  -9.137   1.816  0.00  0.00     0.062 H 
ATOM     41  C   UNK d   0      12.515  -8.015   3.552  0.00  0.00    -0.020 A 
ATOM     42  H   UNK d   0      10.514  -8.526   4.102  0.00  0.00     0.062 H 
ATOM     43  C   UNK d   0      13.442  -7.920   2.522  0.00  0.00     0.121 A 
ATOM     44  H   UNK d   0      12.800  -7.744   4.558  0.00  0.00     0.065 H 
ATOM     45  C   UNK d   0      13.082  -8.267   1.232  0.00  0.00    -0.013 A 
ATOM     46  H   UNK d   0      13.802  -8.194   0.430  0.00  0.00     0.066 H 
BRANCH  43  47
ATOM     47  O   UNK d   0      14.703  -7.487   2.781  0.00  0.00    -0.495 OA
BRANCH  47  48
ATOM     48  C   UNK d   0      15.762  -8.433   2.613  0.00  0.00     0.079 C 
ATOM     49  H   UNK d   0      15.343  -9.403   2.343  0.00  0.00     0.066 H 
ATOM     50  H   UNK d   0      16.430  -8.093   1.823  0.00  0.00     0.066 H 
ATOM     51  H   UNK d   0      16.319  -8.524   3.545  0.00  0.00     0.066 H 
ENDBRANCH  47  48
ENDBRANCH  43  47
ENDBRANCH   1  37
TORSDOF 10
ENDMDL
MODEL 5
REMARK VINA RESULT:      -7.0      7.338     10.924
REMARK  8 active torsions:
REMARK  status: ('A' for Active; 'I' for Inactive)
REMARK    1  A    between atoms: C_1  and  O_2 
REMARK    2  A    between atoms: O_2  and  C_3 
REMARK    3  A    between atoms: C_7  and  C_9 
REMARK    4  A    between atoms: C_16  and  O_20 
REMARK    5  A    between atoms: O_20  and  C_21 
REMARK    6  A    between atoms: C_21  and  C_22 
REMARK       I    between atoms: C_22  and  N_24 
REMARK       I    between atoms: N_24  and  CA_25 
REMARK    7  A    between atoms: CA_25  and  CB_27 
REMARK       I    between atoms: CA_25  and  C_31 
REMARK    8  A    between atoms: CB_27  and  CG_28 
REMARK       I    between atoms: CG_28  and  ND2_30 
ROOT
ATOM      1  C   UNK d   0       6.957  -1.204  -4.796  0.00  0.00    -0.008 C 
ATOM      2  C   UNK d   0       7.894  -0.234  -4.655  0.00  0.00     0.176 A 
ATOM      3  C   UNK d   0       9.247  -0.239  -5.235  0.00  0.00     0.232 A 
ATOM      4  O   UNK d   0       9.756  -1.100  -5.931  0.00  0.00    -0.283 OA
ATOM      5  C   UNK d   0       9.846   1.030  -4.784  0.00  0.00     0.068 A 
ATOM      6  C   UNK d   0      11.095   1.620  -4.986  0.00  0.00    -0.044 A 
ATOM      7  C   UNK d   0      11.373   2.835  -4.427  0.00  0.00    -0.019 A 
ATOM      8  C   UNK d   0      10.412   3.486  -3.656  0.00  0.00     0.125 A 
ATOM      9  C   UNK d   0       9.171   2.909  -3.442  0.00  0.00     0.023 A 
ATOM     10  C   UNK d   0       8.870   1.676  -4.008  0.00  0.00     0.143 A 
ATOM     11  O   UNK d   0       7.754   0.917  -3.955  0.00  0.00    -0.451 OA
ATOM     12  H   UNK d   0       7.144  -2.044  -5.448  0.00  0.00     0.066 H 
ATOM     13  H   UNK d   0      11.840   1.117  -5.585  0.00  0.00     0.063 H 
ATOM     14  H   UNK d   0      12.338   3.293  -4.583  0.00  0.00     0.065 H 
ATOM     15  H   UNK d   0       8.435   3.419  -2.840  0.00  0.00     0.069 H 
ENDROOT
BRANCH   8  16
ATOM     16  O   UNK d   0      10.697   4.693  -3.106  0.00  0.00    -0.483 OA
BRANCH  16  17
ATOM     17  C   UNK d   0      10.853   4.738  -1.686  0.00  0.00     0.165 C 
ATOM     18  H   UNK d   0      11.606   4.011  -1.381  0.00  0.00     0.080 H 
ATOM     19  H   UNK d   0       9.903   4.501  -1.209  0.00  0.00     0.080 H 
BRANCH  17  20
ATOM     20  C   UNK d   0      11.293   6.120  -1.273  0.00  0.00     0.251 C 
ATOM     21  O   UNK d   0      12.445   6.462  -1.432  0.00  0.00    -0.272 OA
ATOM     22  N   ASN d   1      10.405   6.973  -0.727  0.00  0.00    -0.304 N 
ATOM     23  CA  ASN d   1      10.831   8.317  -0.326  0.00  0.00     0.071 C 
ATOM     24  H   ASN d   1       9.483   6.699  -0.600  0.00  0.00     0.149 HD
ATOM     25  HA  ASN d   1      11.585   8.681  -1.024  0.00  0.00     0.057 H 
ATOM     26  C   ASN d   1      11.416   8.265   1.062  0.00  0.00     0.062 C 
ATOM     27  O   ASN d   1      11.471   7.213   1.656  0.00  0.00    -0.548 OA
ATOM     28  OXT ASN d   1      11.876   9.385   1.639  0.00  0.00    -0.548 OA
BRANCH  23  29
ATOM     29  CB  ASN d   1       9.626   9.259  -0.337  0.00  0.00     0.047 C 
ATOM     30  HB1 ASN d   1       8.740   8.719  -0.004  0.00  0.00     0.038 H 
ATOM     31  HB2 ASN d   1       9.815  10.097   0.334  0.00  0.00     0.038 H 
BRANCH  29  32
ATOM     32  CG  ASN d   1       9.406   9.776  -1.735  0.00  0.00     0.213 C 
ATOM     33  OD1 ASN d   1      10.095   9.372  -2.647  0.00  0.00    -0.276 OA
ATOM     34  ND2 ASN d   1       8.441  10.686  -1.972  0.00  0.00    -0.329 N 
ATOM     35 1HD2 ASN d   1       7.889  11.010  -1.244  0.00  0.00     0.145 HD
ATOM     36 2HD2 ASN d   1       8.299  11.019  -2.873  0.00  0.00     0.145 HD
ENDBRANCH  29  32
ENDBRANCH  23  29
ENDBRANCH  17  20
ENDBRANCH  16  17
ENDBRANCH   8  16
BRANCH   1  37
ATOM     37  C   UNK d   0       5.687  -1.112  -4.062  0.00  0.00    -0.018 A 
ATOM     38  C   UNK d   0       5.593  -1.606  -2.757  0.00  0.00    -0.054 A 
ATOM     39  C   UNK d   0       4.400  -1.513  -2.070  0.00  0.00    -0.058 A 
ATOM     40  H   UNK d   0       6.453  -2.057  -2.286  0.00  0.00     0.062 H 
ATOM     41  C   UNK d   0       3.293  -0.940  -2.671  0.00  0.00    -0.020 A 
ATOM     42  H   UNK d   0       4.329  -1.889  -1.060  0.00  0.00     0.062 H 
ATOM     43  C   UNK d   0       3.374  -0.452  -3.969  0.00  0.00     0.121 A 
ATOM     44  H   UNK d   0       2.361  -0.874  -2.128  0.00  0.00     0.065 H 
ATOM     45  C   UNK d   0       4.566  -0.534  -4.667  0.00  0.00    -0.013 A 
ATOM     46  H   UNK d   0       4.630  -0.155  -5.676  0.00  0.00     0.066 H 
BRANCH  43  47
ATOM     47  O   UNK d   0       2.283   0.108  -4.552  0.00  0.00    -0.495 OA
BRANCH  47  48
ATOM     48  C   UNK d   0       2.429   0.567  -5.898  0.00  0.00     0.079 C 
ATOM     49  H   UNK d   0       1.773  -0.009  -6.551  0.00  0.00     0.066 H 
ATOM     50  H   UNK d   0       2.162   1.621  -5.953  0.00  0.00     0.066 H 
ATOM     51  H   UNK d   0       3.463   0.437  -6.216  0.00  0.00     0.066 H 
ENDBRANCH  47  48
ENDBRANCH  43  47
ENDBRANCH   1  37
TORSDOF 10
ENDMDL
MODEL 6
REMARK VINA RESULT:      -7.0      3.180      8.890
REMARK  8 active torsions:
REMARK  status: ('A' for Active; 'I' for Inactive)
REMARK    1  A    between atoms: C_1  and  O_2 
REMARK    2  A    between atoms: O_2  and  C_3 
REMARK    3  A    between atoms: C_7  and  C_9 
REMARK    4  A    between atoms: C_16  and  O_20 
REMARK    5  A    between atoms: O_20  and  C_21 
REMARK    6  A    between atoms: C_21  and  C_22 
REMARK       I    between atoms: C_22  and  N_24 
REMARK       I    between atoms: N_24  and  CA_25 
REMARK    7  A    between atoms: CA_25  and  CB_27 
REMARK       I    between atoms: CA_25  and  C_31 
REMARK    8  A    between atoms: CB_27  and  CG_28 
REMARK       I    between atoms: CG_28  and  ND2_30 
ROOT
ATOM      1  C   UNK d   0       3.164   0.603  -6.456  0.00  0.00    -0.008 C 
ATOM      2  C   UNK d   0       2.951  -0.031  -7.636  0.00  0.00     0.176 A 
ATOM      3  C   UNK d   0       2.611   0.607  -8.919  0.00  0.00     0.232 A 
ATOM      4  O   UNK d   0       2.465   1.795  -9.144  0.00  0.00    -0.283 OA
ATOM      5  C   UNK d   0       2.488  -0.515  -9.867  0.00  0.00     0.068 A 
ATOM      6  C   UNK d   0       2.187  -0.584 -11.229  0.00  0.00    -0.044 A 
ATOM      7  C   UNK d   0       2.143  -1.797 -11.855  0.00  0.00    -0.019 A 
ATOM      8  C   UNK d   0       2.398  -2.964 -11.138  0.00  0.00     0.125 A 
ATOM      9  C   UNK d   0       2.693  -2.910  -9.786  0.00  0.00     0.023 A 
ATOM     10  C   UNK d   0       2.747  -1.684  -9.134  0.00  0.00     0.143 A 
ATOM     11  O   UNK d   0       3.010  -1.367  -7.848  0.00  0.00    -0.451 OA
ATOM     12  H   UNK d   0       3.174   1.682  -6.418  0.00  0.00     0.066 H 
ATOM     13  H   UNK d   0       1.990   0.320 -11.785  0.00  0.00     0.063 H 
ATOM     14  H   UNK d   0       1.910  -1.852 -12.908  0.00  0.00     0.065 H 
ATOM     15  H   UNK d   0       2.885  -3.821  -9.238  0.00  0.00     0.069 H 
ENDROOT
BRANCH   8  16
ATOM     16  O   UNK d   0       2.353  -4.164 -11.770  0.00  0.00    -0.483 OA
BRANCH  16  17
ATOM     17  C   UNK d   0       1.059  -4.685 -12.083  0.00  0.00     0.165 C 
ATOM     18  H   UNK d   0       1.007  -4.909 -13.148  0.00  0.00     0.080 H 
ATOM     19  H   UNK d   0       0.300  -3.946 -11.828  0.00  0.00     0.080 H 
BRANCH  17  20
ATOM     20  C   UNK d   0       0.820  -5.945 -11.291  0.00  0.00     0.251 C 
ATOM     21  O   UNK d   0       1.734  -6.465 -10.688  0.00  0.00    -0.272 OA
ATOM     22  N   ASN d   1      -0.411  -6.492 -11.253  0.00  0.00    -0.304 N 
ATOM     23  CA  ASN d   1      -0.644  -7.717 -10.483  0.00  0.00     0.071 C 
ATOM     24  H   ASN d   1      -1.142  -6.076 -11.735  0.00  0.00     0.149 HD
ATOM     25  HA  ASN d   1      -0.020  -7.708  -9.589  0.00  0.00     0.057 H 
ATOM     26  C   ASN d   1      -0.294  -8.916 -11.327  0.00  0.00     0.062 C 
ATOM     27  O   ASN d   1       0.109  -8.763 -12.456  0.00  0.00    -0.548 OA
ATOM     28  OXT ASN d   1      -0.429 -10.153 -10.826  0.00  0.00    -0.548 OA
BRANCH  23  29
ATOM     29  CB  ASN d   1      -2.117  -7.792 -10.077  0.00  0.00     0.047 C 
ATOM     30  HB1 ASN d   1      -2.742  -7.748 -10.969  0.00  0.00     0.038 H 
ATOM     31  HB2 ASN d   1      -2.302  -8.728  -9.550  0.00  0.00     0.038 H 
BRANCH  29  32
ATOM     32  CG  ASN d   1      -2.448  -6.633  -9.173  0.00  0.00     0.213 C 
ATOM     33  OD1 ASN d   1      -1.604  -6.184  -8.427  0.00  0.00    -0.276 OA
ATOM     34  ND2 ASN d   1      -3.683  -6.094  -9.193  0.00  0.00    -0.329 N 
ATOM     35 1HD2 ASN d   1      -4.359  -6.452  -9.789  0.00  0.00     0.145 HD
ATOM     36 2HD2 ASN d   1      -3.896  -5.347  -8.611  0.00  0.00     0.145 HD
ENDBRANCH  29  32
ENDBRANCH  23  29
ENDBRANCH  17  20
ENDBRANCH  16  17
ENDBRANCH   8  16
BRANCH   1  37
ATOM     37  C   UNK d   0       3.384  -0.178  -5.231  0.00  0.00    -0.018 A 
ATOM     38  C   UNK d   0       2.473  -0.094  -4.172  0.00  0.00    -0.054 A 
ATOM     39  C   UNK d   0       2.680  -0.833  -3.026  0.00  0.00    -0.058 A 
ATOM     40  H   UNK d   0       1.606   0.545  -4.254  0.00  0.00     0.062 H 
ATOM     41  C   UNK d   0       3.791  -1.650  -2.915  0.00  0.00    -0.020 A 
ATOM     42  H   UNK d   0       1.974  -0.772  -2.211  0.00  0.00     0.062 H 
ATOM     43  C   UNK d   0       4.705  -1.736  -3.958  0.00  0.00     0.121 A 
ATOM     44  H   UNK d   0       3.949  -2.223  -2.013  0.00  0.00     0.065 H 
ATOM     45  C   UNK d   0       4.506  -1.005  -5.115  0.00  0.00    -0.013 A 
ATOM     46  H   UNK d   0       5.216  -1.071  -5.927  0.00  0.00     0.066 H 
BRANCH  43  47
ATOM     47  O   UNK d   0       5.793  -2.540  -3.841  0.00  0.00    -0.495 OA
BRANCH  47  48
ATOM     48  C   UNK d   0       7.043  -1.905  -3.566  0.00  0.00     0.079 C 
ATOM     49  H   UNK d   0       6.864  -0.947  -3.076  0.00  0.00     0.066 H 
ATOM     50  H   UNK d   0       7.637  -2.542  -2.911  0.00  0.00     0.066 H 
ATOM     51  H   UNK d   0       7.582  -1.741  -4.499  0.00  0.00     0.066 H 
ENDBRANCH  47  48
ENDBRANCH  43  47
ENDBRANCH   1  37
TORSDOF 10
ENDMDL
MODEL 7
REMARK VINA RESULT:      -6.9      5.376      8.175
REMARK  8 active torsions:
REMARK  status: ('A' for Active; 'I' for Inactive)
REMARK    1  A    between atoms: C_1  and  O_2 
REMARK    2  A    between atoms: O_2  and  C_3 
REMARK    3  A    between atoms: C_7  and  C_9 
REMARK    4  A    between atoms: C_16  and  O_20 
REMARK    5  A    between atoms: O_20  and  C_21 
REMARK    6  A    between atoms: C_21  and  C_22 
REMARK       I    between atoms: C_22  and  N_24 
REMARK       I    between atoms: N_24  and  CA_25 
REMARK    7  A    between atoms: CA_25  and  CB_27 
REMARK       I    between atoms: CA_25  and  C_31 
REMARK    8  A    between atoms: CB_27  and  CG_28 
REMARK       I    between atoms: CG_28  and  ND2_30 
ROOT
ATOM      1  C   UNK d   0       5.585 -10.062  -5.283  0.00  0.00    -0.008 C 
ATOM      2  C   UNK d   0       5.172  -8.962  -5.961  0.00  0.00     0.176 A 
ATOM      3  C   UNK d   0       4.687  -8.926  -7.350  0.00  0.00     0.232 A 
ATOM      4  O   UNK d   0       4.573  -9.860  -8.123  0.00  0.00    -0.283 OA
ATOM      5  C   UNK d   0       4.372  -7.507  -7.595  0.00  0.00     0.068 A 
ATOM      6  C   UNK d   0       3.879  -6.817  -8.703  0.00  0.00    -0.044 A 
ATOM      7  C   UNK d   0       3.683  -5.467  -8.633  0.00  0.00    -0.019 A 
ATOM      8  C   UNK d   0       3.975  -4.778  -7.458  0.00  0.00     0.125 A 
ATOM      9  C   UNK d   0       4.471  -5.450  -6.352  0.00  0.00     0.023 A 
ATOM     10  C   UNK d   0       4.671  -6.824  -6.405  0.00  0.00     0.143 A 
ATOM     11  O   UNK d   0       5.131  -7.696  -5.482  0.00  0.00    -0.451 OA
ATOM     12  H   UNK d   0       5.497 -11.038  -5.735  0.00  0.00     0.066 H 
ATOM     13  H   UNK d   0       3.651  -7.350  -9.614  0.00  0.00     0.063 H 
ATOM     14  H   UNK d   0       3.301  -4.931  -9.489  0.00  0.00     0.065 H 
ATOM     15  H   UNK d   0       4.698  -4.906  -5.447  0.00  0.00     0.069 H 
ENDROOT
BRANCH   8  16
ATOM     16  O   UNK d   0       3.777  -3.437  -7.397  0.00  0.00    -0.483 OA
BRANCH  16  17
ATOM     17  C   UNK d   0       4.942  -2.610  -7.375  0.00  0.00     0.165 C 
ATOM     18  H   UNK d   0       4.829  -1.806  -8.102  0.00  0.00     0.080 H 
ATOM     19  H   UNK d   0       5.817  -3.208  -7.627  0.00  0.00     0.080 H 
BRANCH  17  20
ATOM     20  C   UNK d   0       5.115  -2.022  -5.998  0.00  0.00     0.251 C 
ATOM     21  O   UNK d   0       6.216  -1.970  -5.494  0.00  0.00    -0.272 OA
ATOM     22  N   ASN d   1       4.044  -1.553  -5.328  0.00  0.00    -0.304 N 
ATOM     23  CA  ASN d   1       4.210  -0.981  -3.989  0.00  0.00     0.071 C 
ATOM     24  H   ASN d   1       3.162  -1.593  -5.731  0.00  0.00     0.149 HD
ATOM     25  HA  ASN d   1       5.164  -0.455  -3.935  0.00  0.00     0.057 H 
ATOM     26  C   ASN d   1       4.187  -2.085  -2.964  0.00  0.00     0.062 C 
ATOM     27  O   ASN d   1       4.046  -3.233  -3.316  0.00  0.00    -0.548 OA
ATOM     28  OXT ASN d   1       4.324  -1.796  -1.661  0.00  0.00    -0.548 OA
BRANCH  23  29
ATOM     29  CB  ASN d   1       3.070   0.000  -3.707  0.00  0.00     0.047 C 
ATOM     30  HB1 ASN d   1       2.595   0.284  -4.646  0.00  0.00     0.038 H 
ATOM     31  HB2 ASN d   1       2.336  -0.474  -3.056  0.00  0.00     0.038 H 
BRANCH  29  32
ATOM     32  CG  ASN d   1       3.621   1.229  -3.031  0.00  0.00     0.213 C 
ATOM     33  OD1 ASN d   1       3.475   2.320  -3.540  0.00  0.00    -0.276 OA
ATOM     34  ND2 ASN d   1       4.276   1.116  -1.859  0.00  0.00    -0.329 N 
ATOM     35 1HD2 ASN d   1       4.394   0.244  -1.451  0.00  0.00     0.145 HD
ATOM     36 2HD2 ASN d   1       4.632   1.907  -1.423  0.00  0.00     0.145 HD
ENDBRANCH  29  32
ENDBRANCH  23  29
ENDBRANCH  17  20
ENDBRANCH  16  17
ENDBRANCH   8  16
BRANCH   1  37
ATOM     37  C   UNK d   0       6.151  -9.924  -3.934  0.00  0.00    -0.018 A 
ATOM     38  C   UNK d   0       5.517 -10.526  -2.841  0.00  0.00    -0.054 A 
ATOM     39  C   UNK d   0       6.055 -10.399  -1.578  0.00  0.00    -0.058 A 
ATOM     40  H   UNK d   0       4.610 -11.093  -2.987  0.00  0.00     0.062 H 
ATOM     41  C   UNK d   0       7.215  -9.670  -1.384  0.00  0.00    -0.020 A 
ATOM     42  H   UNK d   0       5.569 -10.868  -0.736  0.00  0.00     0.062 H 
ATOM     43  C   UNK d   0       7.850  -9.063  -2.461  0.00  0.00     0.121 A 
ATOM     44  H   UNK d   0       7.629  -9.571  -0.391  0.00  0.00     0.065 H 
ATOM     45  C   UNK d   0       7.324  -9.187  -3.735  0.00  0.00    -0.013 A 
ATOM     46  H   UNK d   0       7.816  -8.716  -4.573  0.00  0.00     0.066 H 
BRANCH  43  47
ATOM     47  O   UNK d   0       8.988  -8.348  -2.263  0.00  0.00    -0.495 OA
BRANCH  47  48
ATOM     48  C   UNK d   0       9.300  -7.344  -3.230  0.00  0.00     0.079 C 
ATOM     49  H   UNK d   0       9.432  -6.385  -2.729  0.00  0.00     0.066 H 
ATOM     50  H   UNK d   0      10.220  -7.612  -3.748  0.00  0.00     0.066 H 
ATOM     51  H   UNK d   0       8.487  -7.267  -3.952  0.00  0.00     0.066 H 
ENDBRANCH  47  48
ENDBRANCH  43  47
ENDBRANCH   1  37
TORSDOF 10
ENDMDL
MODEL 8
REMARK VINA RESULT:      -6.9      4.351      5.840
REMARK  8 active torsions:
REMARK  status: ('A' for Active; 'I' for Inactive)
REMARK    1  A    between atoms: C_1  and  O_2 
REMARK    2  A    between atoms: O_2  and  C_3 
REMARK    3  A    between atoms: C_7  and  C_9 
REMARK    4  A    between atoms: C_16  and  O_20 
REMARK    5  A    between atoms: O_20  and  C_21 
REMARK    6  A    between atoms: C_21  and  C_22 
REMARK       I    between atoms: C_22  and  N_24 
REMARK       I    between atoms: N_24  and  CA_25 
REMARK    7  A    between atoms: CA_25  and  CB_27 
REMARK       I    between atoms: CA_25  and  C_31 
REMARK    8  A    between atoms: CB_27  and  CG_28 
REMARK       I    between atoms: CG_28  and  ND2_30 
ROOT
ATOM      1  C   UNK d   0       4.393  -7.706  -7.574  0.00  0.00    -0.008 C 
ATOM      2  C   UNK d   0       4.168  -6.391  -7.820  0.00  0.00     0.176 A 
ATOM      3  C   UNK d   0       3.405  -5.835  -8.949  0.00  0.00     0.232 A 
ATOM      4  O   UNK d   0       2.849  -6.445  -9.846  0.00  0.00    -0.283 OA
ATOM      5  C   UNK d   0       3.463  -4.375  -8.751  0.00  0.00     0.068 A 
ATOM      6  C   UNK d   0       2.945  -3.294  -9.466  0.00  0.00    -0.044 A 
ATOM      7  C   UNK d   0       3.169  -2.019  -9.029  0.00  0.00    -0.019 A 
ATOM      8  C   UNK d   0       3.913  -1.797  -7.873  0.00  0.00     0.125 A 
ATOM      9  C   UNK d   0       4.437  -2.860  -7.156  0.00  0.00     0.023 A 
ATOM     10  C   UNK d   0       4.215  -4.164  -7.584  0.00  0.00     0.143 A 
ATOM     11  O   UNK d   0       4.606  -5.351  -7.072  0.00  0.00    -0.451 OA
ATOM     12  H   UNK d   0       3.925  -8.458  -8.191  0.00  0.00     0.066 H 
ATOM     13  H   UNK d   0       2.368  -3.465 -10.362  0.00  0.00     0.063 H 
ATOM     14  H   UNK d   0       2.769  -1.182  -9.581  0.00  0.00     0.065 H 
ATOM     15  H   UNK d   0       5.016  -2.677  -6.263  0.00  0.00     0.069 H 
ENDROOT
BRANCH   8  16
ATOM     16  O   UNK d   0       4.129  -0.527  -7.446  0.00  0.00    -0.483 OA
BRANCH  16  17
ATOM     17  C   UNK d   0       3.090   0.085  -6.678  0.00  0.00     0.165 C 
ATOM     18  H   UNK d   0       2.138  -0.389  -6.913  0.00  0.00     0.080 H 
ATOM     19  H   UNK d   0       3.038   1.146  -6.918  0.00  0.00     0.080 H 
BRANCH  17  20
ATOM     20  C   UNK d   0       3.386  -0.084  -5.209  0.00  0.00     0.251 C 
ATOM     21  O   UNK d   0       2.497  -0.383  -4.442  0.00  0.00    -0.272 OA
ATOM     22  N   ASN d   1       4.639   0.098  -4.750  0.00  0.00    -0.304 N 
ATOM     23  CA  ASN d   1       4.928  -0.066  -3.323  0.00  0.00     0.071 C 
ATOM     24  H   ASN d   1       5.351   0.338  -5.364  0.00  0.00     0.149 HD
ATOM     25  HA  ASN d   1       4.306  -0.863  -2.916  0.00  0.00     0.057 H 
ATOM     26  C   ASN d   1       4.630   1.222  -2.598  0.00  0.00     0.062 C 
ATOM     27  O   ASN d   1       4.219   2.179  -3.212  0.00  0.00    -0.548 OA
ATOM     28  OXT ASN d   1       4.821   1.307  -1.273  0.00  0.00    -0.548 OA
BRANCH  23  29
ATOM     29  CB  ASN d   1       6.404  -0.425  -3.138  0.00  0.00     0.047 C 
ATOM     30  HB1 ASN d   1       7.013   0.188  -3.803  0.00  0.00     0.038 H 
ATOM     31  HB2 ASN d   1       6.697  -0.240  -2.105  0.00  0.00     0.038 H 
BRANCH  29  32
ATOM     32  CG  ASN d   1       6.611  -1.881  -3.466  0.00  0.00     0.213 C 
ATOM     33  OD1 ASN d   1       5.669  -2.567  -3.803  0.00  0.00    -0.276 OA
ATOM     34  ND2 ASN d   1       7.842  -2.421  -3.385  0.00  0.00    -0.329 N 
ATOM     35 1HD2 ASN d   1       8.596  -1.874  -3.115  0.00  0.00     0.145 HD
ATOM     36 2HD2 ASN d   1       7.976  -3.360  -3.596  0.00  0.00     0.145 HD
ENDBRANCH  29  32
ENDBRANCH  23  29
ENDBRANCH  17  20
ENDBRANCH  16  17
ENDBRANCH   8  16
BRANCH   1  37
ATOM     37  C   UNK d   0       5.273  -8.106  -6.467  0.00  0.00    -0.018 A 
ATOM     38  C   UNK d   0       6.637  -7.794  -6.506  0.00  0.00    -0.054 A 
ATOM     39  C   UNK d   0       7.458  -8.167  -5.462  0.00  0.00    -0.058 A 
ATOM     40  H   UNK d   0       7.045  -7.258  -7.349  0.00  0.00     0.062 H 
ATOM     41  C   UNK d   0       6.940  -8.858  -4.381  0.00  0.00    -0.020 A 
ATOM     42  H   UNK d   0       8.509  -7.921  -5.490  0.00  0.00     0.062 H 
ATOM     43  C   UNK d   0       5.589  -9.178  -4.335  0.00  0.00     0.121 A 
ATOM     44  H   UNK d   0       7.589  -9.150  -3.569  0.00  0.00     0.065 H 
ATOM     45  C   UNK d   0       4.753  -8.805  -5.373  0.00  0.00    -0.013 A 
ATOM     46  H   UNK d   0       3.702  -9.053  -5.338  0.00  0.00     0.066 H 
BRANCH  43  47
ATOM     47  O   UNK d   0       5.088  -9.857  -3.270  0.00  0.00    -0.495 OA
BRANCH  47  48
ATOM     48  C   UNK d   0       3.773 -10.400  -3.406  0.00  0.00     0.079 C 
ATOM     49  H   UNK d   0       3.405 -10.213  -4.416  0.00  0.00     0.066 H 
ATOM     50  H   UNK d   0       3.803 -11.473  -3.224  0.00  0.00     0.066 H 
ATOM     51  H   UNK d   0       3.108  -9.927  -2.684  0.00  0.00     0.066 H 
ENDBRANCH  47  48
ENDBRANCH  43  47
ENDBRANCH   1  37
TORSDOF 10
ENDMDL
MODEL 9
REMARK VINA RESULT:      -6.8      3.447      9.504
REMARK  8 active torsions:
REMARK  status: ('A' for Active; 'I' for Inactive)
REMARK    1  A    between atoms: C_1  and  O_2 
REMARK    2  A    between atoms: O_2  and  C_3 
REMARK    3  A    between atoms: C_7  and  C_9 
REMARK    4  A    between atoms: C_16  and  O_20 
REMARK    5  A    between atoms: O_20  and  C_21 
REMARK    6  A    between atoms: C_21  and  C_22 
REMARK       I    between atoms: C_22  and  N_24 
REMARK       I    between atoms: N_24  and  CA_25 
REMARK    7  A    between atoms: CA_25  and  CB_27 
REMARK       I    between atoms: CA_25  and  C_31 
REMARK    8  A    between atoms: CB_27  and  CG_28 
REMARK       I    between atoms: CG_28  and  ND2_30 
ROOT
ATOM      1  C   UNK d   0       6.036  -2.950  -4.149  0.00  0.00    -0.008 C 
ATOM      2  C   UNK d   0       5.622  -3.175  -5.421  0.00  0.00     0.176 A 
ATOM      3  C   UNK d   0       6.046  -4.284  -6.291  0.00  0.00     0.232 A 
ATOM      4  O   UNK d   0       6.828  -5.180  -6.028  0.00  0.00    -0.283 OA
ATOM      5  C   UNK d   0       5.312  -4.065  -7.551  0.00  0.00     0.068 A 
ATOM      6  C   UNK d   0       5.272  -4.756  -8.763  0.00  0.00    -0.044 A 
ATOM      7  C   UNK d   0       4.477  -4.304  -9.778  0.00  0.00    -0.019 A 
ATOM      8  C   UNK d   0       3.707  -3.156  -9.605  0.00  0.00     0.125 A 
ATOM      9  C   UNK d   0       3.741  -2.458  -8.409  0.00  0.00     0.023 A 
ATOM     10  C   UNK d   0       4.541  -2.907  -7.364  0.00  0.00     0.143 A 
ATOM     11  O   UNK d   0       4.745  -2.418  -6.122  0.00  0.00    -0.451 OA
ATOM     12  H   UNK d   0       6.676  -3.666  -3.655  0.00  0.00     0.066 H 
ATOM     13  H   UNK d   0       5.867  -5.646  -8.898  0.00  0.00     0.063 H 
ATOM     14  H   UNK d   0       4.444  -4.837 -10.716  0.00  0.00     0.065 H 
ATOM     15  H   UNK d   0       3.144  -1.567  -8.286  0.00  0.00     0.069 H 
ENDROOT
BRANCH   8  16
ATOM     16  O   UNK d   0       2.920  -2.715 -10.618  0.00  0.00    -0.483 OA
BRANCH  16  17
ATOM     17  C   UNK d   0       1.536  -2.510 -10.322  0.00  0.00     0.165 C 
ATOM     18  H   UNK d   0       1.185  -1.615 -10.835  0.00  0.00     0.080 H 
ATOM     19  H   UNK d   0       1.409  -2.388  -9.247  0.00  0.00     0.080 H 
BRANCH  17  20
ATOM     20  C   UNK d   0       0.741  -3.702 -10.791  0.00  0.00     0.251 C 
ATOM     21  O   UNK d   0       1.218  -4.470 -11.598  0.00  0.00    -0.272 OA
ATOM     22  N   ASN d   1      -0.501  -3.912 -10.313  0.00  0.00    -0.304 N 
ATOM     23  CA  ASN d   1      -1.275  -5.070 -10.768  0.00  0.00     0.071 C 
ATOM     24  H   ASN d   1      -0.883  -3.297  -9.667  0.00  0.00     0.149 HD
ATOM     25  HA  ASN d   1      -0.603  -5.912 -10.937  0.00  0.00     0.057 H 
ATOM     26  C   ASN d   1      -1.984  -4.728 -12.053  0.00  0.00     0.062 C 
ATOM     27  O   ASN d   1      -1.857  -3.628 -12.539  0.00  0.00    -0.548 OA
ATOM     28  OXT ASN d   1      -2.757  -5.642 -12.658  0.00  0.00    -0.548 OA
BRANCH  23  29
ATOM     29  CB  ASN d   1      -2.306  -5.446  -9.701  0.00  0.00     0.047 C 
ATOM     30  HB1 ASN d   1      -2.078  -4.920  -8.775  0.00  0.00     0.038 H 
ATOM     31  HB2 ASN d   1      -3.302  -5.166 -10.043  0.00  0.00     0.038 H 
BRANCH  29  32
ATOM     32  CG  ASN d   1      -2.258  -6.933  -9.460  0.00  0.00     0.213 C 
ATOM     33  OD1 ASN d   1      -1.480  -7.393  -8.651  0.00  0.00    -0.276 OA
ATOM     34  ND2 ASN d   1      -3.081  -7.753 -10.143  0.00  0.00    -0.329 N 
ATOM     35 1HD2 ASN d   1      -3.703  -7.387 -10.791  0.00  0.00     0.145 HD
ATOM     36 2HD2 ASN d   1      -3.050  -8.711  -9.988  0.00  0.00     0.145 HD
ENDBRANCH  29  32
ENDBRANCH  23  29
ENDBRANCH  17  20
ENDBRANCH  16  17
ENDBRANCH   8  16
BRANCH   1  37
ATOM     37  C   UNK d   0       5.612  -1.734  -3.442  0.00  0.00    -0.018 A 
ATOM     38  C   UNK d   0       4.539  -1.780  -2.545  0.00  0.00    -0.054 A 
ATOM     39  C   UNK d   0       4.148  -0.637  -1.879  0.00  0.00    -0.058 A 
ATOM     40  H   UNK d   0       4.020  -2.711  -2.370  0.00  0.00     0.062 H 
ATOM     41  C   UNK d   0       4.806   0.559  -2.103  0.00  0.00    -0.020 A 
ATOM     42  H   UNK d   0       3.323  -0.675  -1.183  0.00  0.00     0.062 H 
ATOM     43  C   UNK d   0       5.869   0.618  -2.996  0.00  0.00     0.121 A 
ATOM     44  H   UNK d   0       4.492   1.451  -1.582  0.00  0.00     0.065 H 
ATOM     45  C   UNK d   0       6.275  -0.522  -3.666  0.00  0.00    -0.013 A 
ATOM     46  H   UNK d   0       7.101  -0.478  -4.361  0.00  0.00     0.066 H 
BRANCH  43  47
ATOM     47  O   UNK d   0       6.510   1.796  -3.211  0.00  0.00    -0.495 OA
BRANCH  47  48
ATOM     48  C   UNK d   0       7.724   1.747  -3.962  0.00  0.00     0.079 C 
ATOM     49  H   UNK d   0       8.456   2.420  -3.515  0.00  0.00     0.066 H 
ATOM     50  H   UNK d   0       8.114   0.730  -3.956  0.00  0.00     0.066 H 
ATOM     51  H   UNK d   0       7.530   2.054  -4.990  0.00  0.00     0.066 H 
ENDBRANCH  47  48
ENDBRANCH  43  47
ENDBRANCH   1  37
TORSDOF 10
ENDMDL
