MODEL 1
REMARK VINA RESULT:      -7.3      0.000      0.000
REMARK  10 active torsions:
REMARK  status: ('A' for Active; 'I' for Inactive)
REMARK    1  A    between atoms: C_1  and  C_2 
REMARK    2  A    between atoms: C_4  and  N_32 
REMARK    3  A    between atoms: C_8  and  C_31 
REMARK    4  A    between atoms: C_11  and  O_30 
REMARK    5  A    between atoms: C_13  and  C_17 
REMARK    6  A    between atoms: C_17  and  C_19 
REMARK    7  A    between atoms: C_17  and  C_20 
REMARK       I    between atoms: C_20  and  N_22 
REMARK    8  A    between atoms: N_22  and  C_23 
REMARK    9  A    between atoms: C_23  and  C_24 
REMARK       I    between atoms: N_32  and  C_33 
REMARK   10  A    between atoms: C_33  and  C_35 
ROOT
ATOM      1  C   LIG d   1       3.654  -4.667  -9.830  0.00  0.00    -0.020 C 
ATOM      2  H   LIG d   1       4.681  -4.886 -10.159  0.00  0.00     0.032 H 
ATOM      3  C   LIG d   1       3.099  -5.862  -9.053  0.00  0.00     0.026 C 
ATOM      4  H   LIG d   1       2.058  -5.678  -8.749  0.00  0.00     0.050 H 
ATOM      5  C   LIG d   1       3.979  -6.129  -7.831  0.00  0.00    -0.034 C 
ATOM      6  C   LIG d   1       3.986  -4.892  -6.928  0.00  0.00    -0.046 C 
ATOM      7  C   LIG d   1       4.541  -3.697  -7.705  0.00  0.00    -0.026 C 
ATOM      8  C   LIG d   1       3.660  -3.431  -8.928  0.00  0.00    -0.005 C 
ATOM      9  H   LIG d   1       2.634  -3.211  -8.600  0.00  0.00     0.033 H 
ATOM     10  C   LIG d   1       4.216  -2.235  -9.705  0.00  0.00     0.062 C 
ATOM     11  H   LIG d   1       5.220  -2.448 -10.099  0.00  0.00     0.060 H 
ATOM     12  C   LIG d   1       4.222  -0.999  -8.803  0.00  0.00    -0.004 C 
ATOM     13  H   LIG d   1       4.622  -0.140  -9.361  0.00  0.00     0.033 H 
ATOM     14  C   LIG d   1       5.103  -1.266  -7.579  0.00  0.00    -0.047 C 
ATOM     15  C   LIG d   1       4.547  -2.462  -6.803  0.00  0.00    -0.047 C 
ATOM     16  H   LIG d   1       3.580  -6.989  -7.273  0.00  0.00     0.028 H 
ATOM     17  H   LIG d   1       5.006  -6.349  -8.159  0.00  0.00     0.028 H 
ATOM     18  H   LIG d   1       2.959  -4.673  -6.600  0.00  0.00     0.027 H 
ATOM     19  H   LIG d   1       4.618  -5.084  -6.049  0.00  0.00     0.027 H 
ATOM     20  H   LIG d   1       6.129  -1.486  -7.907  0.00  0.00     0.027 H 
ATOM     21  H   LIG d   1       5.108  -0.377  -6.931  0.00  0.00     0.027 H 
ATOM     22  H   LIG d   1       3.521  -2.242  -6.475  0.00  0.00     0.027 H 
ATOM     23  H   LIG d   1       5.181  -2.654  -5.924  0.00  0.00     0.027 H 
ENDROOT
BRANCH  12  24
ATOM     24  C   LIG d   1       2.794  -0.694  -8.346  0.00  0.00     0.038 C 
ATOM     25  H   LIG d   1       2.303  -1.618  -8.008  0.00  0.00     0.040 H 
BRANCH  24  26
ATOM     26  C   LIG d   1       2.009  -0.081  -9.507  0.00  0.00    -0.054 C 
ATOM     27  H   LIG d   1       2.556  -0.246 -10.448  0.00  0.00     0.024 H 
ATOM     28  H   LIG d   1       1.889   1.000  -9.339  0.00  0.00     0.024 H 
ATOM     29  H   LIG d   1       1.018  -0.554  -9.571  0.00  0.00     0.024 H 
ENDBRANCH  24  26
BRANCH  24  30
ATOM     30  C   LIG d   1       2.833   0.281  -7.196  0.00  0.00     0.216 C 
ATOM     31  O   LIG d   1       3.261   1.402  -7.366  0.00  0.00    -0.276 OA
ATOM     32  N   LIG d   1       2.391  -0.096  -5.980  0.00  0.00    -0.311 N 
ATOM     33  H   LIG d   1       2.003  -1.114  -5.826  0.00  0.00     0.149 HD
BRANCH  32  34
ATOM     34  C   LIG d   1       2.429   0.850  -4.862  0.00  0.00     0.037 C 
ATOM     35  H   LIG d   1       2.944   1.769  -5.176  0.00  0.00     0.051 H 
ATOM     36  H   LIG d   1       1.402   1.093  -4.552  0.00  0.00     0.051 H 
BRANCH  34  37
ATOM     37  C   LIG d   1       3.169   0.230  -3.705  0.00  0.00    -0.030 A 
ATOM     38  C   LIG d   1       3.879   1.032  -2.830  0.00  0.00    -0.057 A 
ATOM     39  C   LIG d   1       4.558   0.463  -1.768  0.00  0.00    -0.061 A 
ATOM     40  H   LIG d   1       3.903   2.102  -2.975  0.00  0.00     0.062 H 
ATOM     41  C   LIG d   1       4.527  -0.907  -1.582  0.00  0.00    -0.062 A 
ATOM     42  H   LIG d   1       5.113   1.089  -1.085  0.00  0.00     0.062 H 
ATOM     43  C   LIG d   1       3.818  -1.708  -2.457  0.00  0.00    -0.061 A 
ATOM     44  H   LIG d   1       5.060  -1.351  -0.753  0.00  0.00     0.062 H 
ATOM     45  C   LIG d   1       3.135  -1.139  -3.516  0.00  0.00    -0.057 A 
ATOM     46  H   LIG d   1       3.795  -2.777  -2.312  0.00  0.00     0.062 H 
ATOM     47  H   LIG d   1       2.577  -1.764  -4.198  0.00  0.00     0.062 H 
ENDBRANCH  34  37
ENDBRANCH  32  34
ENDBRANCH  24  30
ENDBRANCH  12  24
BRANCH  10  48
ATOM     48  O   LIG d   1       3.394  -1.987 -10.847  0.00  0.00    -0.391 OA
ATOM     49  H   LIG d   1       3.818  -1.491 -11.733  0.00  0.00     0.210 HD
ENDBRANCH  10  48
BRANCH   1  50
ATOM     50  C   LIG d   1       2.774  -4.400 -11.053  0.00  0.00    -0.060 C 
ATOM     51  H   LIG d   1       3.206  -4.900 -11.932  0.00  0.00     0.023 H 
ATOM     52  H   LIG d   1       2.720  -3.317 -11.237  0.00  0.00     0.023 H 
ATOM     53  H   LIG d   1       1.762  -4.790 -10.869  0.00  0.00     0.023 H 
ENDBRANCH   1  50
BRANCH   7  54
ATOM     54  C   LIG d   1       5.968  -4.003  -8.161  0.00  0.00    -0.059 C 
ATOM     55  H   LIG d   1       6.034  -3.903  -9.254  0.00  0.00     0.024 H 
ATOM     56  H   LIG d   1       6.234  -5.031  -7.871  0.00  0.00     0.024 H 
ATOM     57  H   LIG d   1       6.665  -3.297  -7.685  0.00  0.00     0.024 H 
ENDBRANCH   7  54
BRANCH   3  58
ATOM     58  N   LIG d   1       3.093  -7.046  -9.918  0.00  0.00    -0.312 N 
ATOM     59  C   LIG d   1       1.949  -7.729 -10.115  0.00  0.00     0.216 C 
ATOM     60  O   LIG d   1       0.923  -7.365  -9.578  0.00  0.00    -0.276 OA
ATOM     61  H   LIG d   1       4.022  -7.375 -10.405  0.00  0.00     0.149 HD
BRANCH  59  62
ATOM     62  C   LIG d   1       1.941  -8.945 -11.004  0.00  0.00     0.036 C 
ATOM     63  C   LIG d   1       3.020  -9.925 -10.539  0.00  0.00    -0.042 C 
ATOM     64  C   LIG d   1       3.013 -11.160 -11.441  0.00  0.00    -0.052 C 
ATOM     65  H   LIG d   1       4.005  -9.438 -10.591  0.00  0.00     0.027 H 
ATOM     66  H   LIG d   1       2.817 -10.228  -9.501  0.00  0.00     0.027 H 
ATOM     67  C   LIG d   1       1.643 -11.838 -11.367  0.00  0.00    -0.053 C 
ATOM     68  H   LIG d   1       3.789 -11.864 -11.106  0.00  0.00     0.026 H 
ATOM     69  H   LIG d   1       3.217 -10.857 -12.479  0.00  0.00     0.026 H 
ATOM     70  C   LIG d   1       0.564 -10.859 -11.833  0.00  0.00    -0.052 C 
ATOM     71  H   LIG d   1       1.441 -12.140 -10.329  0.00  0.00     0.026 H 
ATOM     72  H   LIG d   1       1.638 -12.725 -12.016  0.00  0.00     0.026 H 
ATOM     73  C   LIG d   1       0.571  -9.623 -10.930  0.00  0.00    -0.042 C 
ATOM     74  H   LIG d   1      -0.420 -11.345 -11.780  0.00  0.00     0.026 H 
ATOM     75  H   LIG d   1       0.768 -10.555 -12.871  0.00  0.00     0.026 H 
ATOM     76  H   LIG d   1       0.368  -9.926  -9.893  0.00  0.00     0.027 H 
ATOM     77  H   LIG d   1      -0.204  -8.919 -11.266  0.00  0.00     0.027 H 
ATOM     78  H   LIG d   1       2.146  -8.628 -12.037  0.00  0.00     0.039 H 
ENDBRANCH  59  62
ENDBRANCH   3  58
TORSDOF 10
ENDMDL
MODEL 2
REMARK VINA RESULT:      -7.1      2.803      3.502
REMARK  10 active torsions:
REMARK  status: ('A' for Active; 'I' for Inactive)
REMARK    1  A    between atoms: C_1  and  C_2 
REMARK    2  A    between atoms: C_4  and  N_32 
REMARK    3  A    between atoms: C_8  and  C_31 
REMARK    4  A    between atoms: C_11  and  O_30 
REMARK    5  A    between atoms: C_13  and  C_17 
REMARK    6  A    between atoms: C_17  and  C_19 
REMARK    7  A    between atoms: C_17  and  C_20 
REMARK       I    between atoms: C_20  and  N_22 
REMARK    8  A    between atoms: N_22  and  C_23 
REMARK    9  A    between atoms: C_23  and  C_24 
REMARK       I    between atoms: N_32  and  C_33 
REMARK   10  A    between atoms: C_33  and  C_35 
ROOT
ATOM      1  C   LIG d   1       5.367  -4.422  -7.762  0.00  0.00    -0.020 C 
ATOM      2  H   LIG d   1       6.404  -4.422  -8.129  0.00  0.00     0.032 H 
ATOM      3  C   LIG d   1       5.304  -5.136  -6.410  0.00  0.00     0.026 C 
ATOM      4  H   LIG d   1       4.267  -5.181  -6.044  0.00  0.00     0.050 H 
ATOM      5  C   LIG d   1       6.199  -4.407  -5.407  0.00  0.00    -0.034 C 
ATOM      6  C   LIG d   1       5.715  -2.964  -5.245  0.00  0.00    -0.046 C 
ATOM      7  C   LIG d   1       5.779  -2.250  -6.597  0.00  0.00    -0.026 C 
ATOM      8  C   LIG d   1       4.883  -2.979  -7.600  0.00  0.00    -0.005 C 
ATOM      9  H   LIG d   1       3.846  -2.980  -7.234  0.00  0.00     0.033 H 
ATOM     10  C   LIG d   1       4.947  -2.265  -8.952  0.00  0.00     0.062 C 
ATOM     11  H   LIG d   1       5.961  -2.302  -9.375  0.00  0.00     0.060 H 
ATOM     12  C   LIG d   1       4.462  -0.823  -8.791  0.00  0.00    -0.004 C 
ATOM     13  H   LIG d   1       4.509  -0.310  -9.762  0.00  0.00     0.033 H 
ATOM     14  C   LIG d   1       5.359  -0.094  -7.786  0.00  0.00    -0.047 C 
ATOM     15  C   LIG d   1       5.295  -0.809  -6.435  0.00  0.00    -0.047 C 
ATOM     16  H   LIG d   1       6.154  -4.921  -4.435  0.00  0.00     0.028 H 
ATOM     17  H   LIG d   1       7.237  -4.407  -5.773  0.00  0.00     0.028 H 
ATOM     18  H   LIG d   1       4.679  -2.964  -4.878  0.00  0.00     0.027 H 
ATOM     19  H   LIG d   1       6.359  -2.440  -4.523  0.00  0.00     0.027 H 
ATOM     20  H   LIG d   1       6.395  -0.094  -8.153  0.00  0.00     0.027 H 
ATOM     21  H   LIG d   1       5.011   0.943  -7.670  0.00  0.00     0.027 H 
ATOM     22  H   LIG d   1       4.258  -0.808  -6.069  0.00  0.00     0.027 H 
ATOM     23  H   LIG d   1       5.940  -0.284  -5.713  0.00  0.00     0.027 H 
ENDROOT
BRANCH  12  24
ATOM     24  C   LIG d   1       3.020  -0.823  -8.280  0.00  0.00     0.038 C 
ATOM     25  H   LIG d   1       2.771  -1.810  -7.861  0.00  0.00     0.040 H 
BRANCH  24  26
ATOM     26  C   LIG d   1       2.071  -0.493  -9.434  0.00  0.00    -0.054 C 
ATOM     27  H   LIG d   1       1.053  -0.820  -9.176  0.00  0.00     0.024 H 
ATOM     28  H   LIG d   1       2.404  -1.017 -10.343  0.00  0.00     0.024 H 
ATOM     29  H   LIG d   1       2.075   0.592  -9.614  0.00  0.00     0.024 H 
ENDBRANCH  24  26
BRANCH  24  30
ATOM     30  C   LIG d   1       2.871   0.213  -7.196  0.00  0.00     0.216 C 
ATOM     31  O   LIG d   1       3.103   1.379  -7.435  0.00  0.00    -0.276 OA
ATOM     32  N   LIG d   1       2.480  -0.157  -5.960  0.00  0.00    -0.311 N 
ATOM     33  H   LIG d   1       2.269  -1.214  -5.743  0.00  0.00     0.149 HD
BRANCH  32  34
ATOM     34  C   LIG d   1       2.336   0.851  -4.906  0.00  0.00     0.037 C 
ATOM     35  H   LIG d   1       2.716   1.817  -5.267  0.00  0.00     0.051 H 
ATOM     36  H   LIG d   1       1.274   0.951  -4.637  0.00  0.00     0.051 H 
BRANCH  34  37
ATOM     37  C   LIG d   1       3.123   0.424  -3.694  0.00  0.00    -0.030 A 
ATOM     38  C   LIG d   1       3.728   1.375  -2.893  0.00  0.00    -0.057 A 
ATOM     39  C   LIG d   1       4.450   0.984  -1.780  0.00  0.00    -0.061 A 
ATOM     40  H   LIG d   1       3.637   2.423  -3.136  0.00  0.00     0.062 H 
ATOM     41  C   LIG d   1       4.566  -0.359  -1.469  0.00  0.00    -0.062 A 
ATOM     42  H   LIG d   1       4.923   1.726  -1.156  0.00  0.00     0.062 H 
ATOM     43  C   LIG d   1       3.961  -1.309  -2.270  0.00  0.00    -0.061 A 
ATOM     44  H   LIG d   1       5.132  -0.664  -0.601  0.00  0.00     0.062 H 
ATOM     45  C   LIG d   1       3.236  -0.918  -3.380  0.00  0.00    -0.057 A 
ATOM     46  H   LIG d   1       4.053  -2.357  -2.027  0.00  0.00     0.062 H 
ATOM     47  H   LIG d   1       2.759  -1.660  -4.003  0.00  0.00     0.062 H 
ENDBRANCH  34  37
ENDBRANCH  32  34
ENDBRANCH  24  30
ENDBRANCH  12  24
BRANCH  10  48
ATOM     48  O   LIG d   1       4.110  -2.946  -9.890  0.00  0.00    -0.391 OA
ATOM     49  H   LIG d   1       3.322  -3.626  -9.531  0.00  0.00     0.210 HD
ENDBRANCH  10  48
BRANCH   1  50
ATOM     50  C   LIG d   1       4.471  -5.151  -8.766  0.00  0.00    -0.060 C 
ATOM     51  H   LIG d   1       4.425  -4.575  -9.702  0.00  0.00     0.023 H 
ATOM     52  H   LIG d   1       3.459  -5.251  -8.347  0.00  0.00     0.023 H 
ATOM     53  H   LIG d   1       4.884  -6.149  -8.969  0.00  0.00     0.023 H 
ENDBRANCH   1  50
BRANCH   7  54
ATOM     54  C   LIG d   1       7.221  -2.250  -7.106  0.00  0.00    -0.059 C 
ATOM     55  H   LIG d   1       7.269  -1.731  -8.074  0.00  0.00     0.024 H 
ATOM     56  H   LIG d   1       7.567  -3.287  -7.230  0.00  0.00     0.024 H 
ATOM     57  H   LIG d   1       7.867  -1.733  -6.381  0.00  0.00     0.024 H 
ENDBRANCH   7  54
BRANCH   3  58
ATOM     58  N   LIG d   1       5.767  -6.517  -6.565  0.00  0.00    -0.312 N 
ATOM     59  C   LIG d   1       5.221  -7.498  -5.821  0.00  0.00     0.216 C 
ATOM     60  O   LIG d   1       4.345  -7.238  -5.023  0.00  0.00    -0.276 OA
ATOM     61  H   LIG d   1       6.561  -6.753  -7.290  0.00  0.00     0.149 HD
BRANCH  59  62
ATOM     62  C   LIG d   1       5.696  -8.919  -5.980  0.00  0.00     0.036 C 
ATOM     63  C   LIG d   1       5.767  -9.591  -4.608  0.00  0.00    -0.042 C 
ATOM     64  C   LIG d   1       6.251 -11.033  -4.770  0.00  0.00    -0.052 C 
ATOM     65  H   LIG d   1       6.468  -9.039  -3.965  0.00  0.00     0.027 H 
ATOM     66  H   LIG d   1       4.768  -9.589  -4.147  0.00  0.00     0.027 H 
ATOM     67  C   LIG d   1       5.275 -11.801  -5.664  0.00  0.00    -0.053 C 
ATOM     68  H   LIG d   1       6.300 -11.516  -3.783  0.00  0.00     0.026 H 
ATOM     69  H   LIG d   1       7.249 -11.036  -5.230  0.00  0.00     0.026 H 
ATOM     70  C   LIG d   1       5.204 -11.129  -7.036  0.00  0.00    -0.052 C 
ATOM     71  H   LIG d   1       4.276 -11.798  -5.203  0.00  0.00     0.026 H 
ATOM     72  H   LIG d   1       5.622 -12.837  -5.780  0.00  0.00     0.026 H 
ATOM     73  C   LIG d   1       4.721  -9.687  -6.875  0.00  0.00    -0.042 C 
ATOM     74  H   LIG d   1       4.503 -11.681  -7.679  0.00  0.00     0.026 H 
ATOM     75  H   LIG d   1       6.203 -11.131  -7.497  0.00  0.00     0.026 H 
ATOM     76  H   LIG d   1       3.722  -9.684  -6.414  0.00  0.00     0.027 H 
ATOM     77  H   LIG d   1       4.671  -9.204  -7.862  0.00  0.00     0.027 H 
ATOM     78  H   LIG d   1       6.695  -8.906  -6.442  0.00  0.00     0.039 H 
ENDBRANCH  59  62
ENDBRANCH   3  58
TORSDOF 10
ENDMDL
MODEL 3
REMARK VINA RESULT:      -6.9      7.805     11.063
REMARK  10 active torsions:
REMARK  status: ('A' for Active; 'I' for Inactive)
REMARK    1  A    between atoms: C_1  and  C_2 
REMARK    2  A    between atoms: C_4  and  N_32 
REMARK    3  A    between atoms: C_8  and  C_31 
REMARK    4  A    between atoms: C_11  and  O_30 
REMARK    5  A    between atoms: C_13  and  C_17 
REMARK    6  A    between atoms: C_17  and  C_19 
REMARK    7  A    between atoms: C_17  and  C_20 
REMARK       I    between atoms: C_20  and  N_22 
REMARK    8  A    between atoms: N_22  and  C_23 
REMARK    9  A    between atoms: C_23  and  C_24 
REMARK       I    between atoms: N_32  and  C_33 
REMARK   10  A    between atoms: C_33  and  C_35 
ROOT
ATOM      1  C   LIG d   1       9.002   2.321  -5.837  0.00  0.00    -0.020 C 
ATOM      2  H   LIG d   1       9.859   1.637  -5.757  0.00  0.00     0.032 H 
ATOM      3  C   LIG d   1       8.277   2.393  -4.492  0.00  0.00     0.026 C 
ATOM      4  H   LIG d   1       7.392   3.043  -4.562  0.00  0.00     0.050 H 
ATOM      5  C   LIG d   1       9.240   2.908  -3.421  0.00  0.00    -0.034 C 
ATOM      6  C   LIG d   1       9.736   4.303  -3.809  0.00  0.00    -0.046 C 
ATOM      7  C   LIG d   1      10.461   4.231  -5.154  0.00  0.00    -0.026 C 
ATOM      8  C   LIG d   1       9.497   3.716  -6.225  0.00  0.00    -0.005 C 
ATOM      9  H   LIG d   1       8.639   4.399  -6.306  0.00  0.00     0.033 H 
ATOM     10  C   LIG d   1      10.222   3.644  -7.571  0.00  0.00     0.062 C 
ATOM     11  H   LIG d   1      11.049   2.921  -7.539  0.00  0.00     0.060 H 
ATOM     12  C   LIG d   1      10.716   5.039  -7.959  0.00  0.00    -0.004 C 
ATOM     13  H   LIG d   1      11.237   4.987  -8.926  0.00  0.00     0.033 H 
ATOM     14  C   LIG d   1      11.680   5.554  -6.887  0.00  0.00    -0.047 C 
ATOM     15  C   LIG d   1      10.955   5.626  -5.542  0.00  0.00    -0.047 C 
ATOM     16  H   LIG d   1       8.720   2.959  -2.453  0.00  0.00     0.028 H 
ATOM     17  H   LIG d   1      10.098   2.224  -3.339  0.00  0.00     0.028 H 
ATOM     18  H   LIG d   1       8.878   4.987  -3.890  0.00  0.00     0.027 H 
ATOM     19  H   LIG d   1      10.428   4.674  -3.039  0.00  0.00     0.027 H 
ATOM     20  H   LIG d   1      12.537   4.870  -6.806  0.00  0.00     0.027 H 
ATOM     21  H   LIG d   1      12.036   6.557  -7.166  0.00  0.00     0.027 H 
ATOM     22  H   LIG d   1      10.098   6.309  -5.623  0.00  0.00     0.027 H 
ATOM     23  H   LIG d   1      11.648   5.996  -4.771  0.00  0.00     0.027 H 
ENDROOT
BRANCH  12  24
ATOM     24  C   LIG d   1       9.523   5.991  -8.071  0.00  0.00     0.038 C 
ATOM     25  H   LIG d   1       8.789   5.764  -7.284  0.00  0.00     0.040 H 
BRANCH  24  26
ATOM     26  C   LIG d   1       8.876   5.835  -9.448  0.00  0.00    -0.054 C 
ATOM     27  H   LIG d   1       8.328   6.755  -9.703  0.00  0.00     0.024 H 
ATOM     28  H   LIG d   1       8.175   4.986  -9.431  0.00  0.00     0.024 H 
ATOM     29  H   LIG d   1       9.655   5.651 -10.202  0.00  0.00     0.024 H 
ENDBRANCH  24  26
BRANCH  24  30
ATOM     30  C   LIG d   1       9.996   7.411  -7.897  0.00  0.00     0.216 C 
ATOM     31  O   LIG d   1      10.922   7.828  -8.560  0.00  0.00    -0.276 OA
ATOM     32  N   LIG d   1       9.389   8.218  -7.003  0.00  0.00    -0.311 N 
ATOM     33  H   LIG d   1       8.550   7.839  -6.402  0.00  0.00     0.149 HD
BRANCH  32  34
ATOM     34  C   LIG d   1       9.849   9.598  -6.833  0.00  0.00     0.037 C 
ATOM     35  H   LIG d   1      10.891   9.683  -7.174  0.00  0.00     0.051 H 
ATOM     36  H   LIG d   1       9.213  10.272  -7.425  0.00  0.00     0.051 H 
BRANCH  34  37
ATOM     37  C   LIG d   1       9.766   9.978  -5.377  0.00  0.00    -0.030 A 
ATOM     38  C   LIG d   1       9.166  11.168  -5.007  0.00  0.00    -0.057 A 
ATOM     39  C   LIG d   1       9.089  11.517  -3.671  0.00  0.00    -0.061 A 
ATOM     40  H   LIG d   1       8.758  11.825  -5.761  0.00  0.00     0.062 H 
ATOM     41  C   LIG d   1       9.612  10.677  -2.706  0.00  0.00    -0.062 A 
ATOM     42  H   LIG d   1       8.623  12.447  -3.383  0.00  0.00     0.062 H 
ATOM     43  C   LIG d   1      10.211   9.487  -3.076  0.00  0.00    -0.061 A 
ATOM     44  H   LIG d   1       9.554  10.951  -1.663  0.00  0.00     0.062 H 
ATOM     45  C   LIG d   1      10.284   9.136  -4.412  0.00  0.00    -0.057 A 
ATOM     46  H   LIG d   1      10.620   8.831  -2.323  0.00  0.00     0.062 H 
ATOM     47  H   LIG d   1      10.748   8.204  -4.701  0.00  0.00     0.062 H 
ENDBRANCH  34  37
ENDBRANCH  32  34
ENDBRANCH  24  30
ENDBRANCH  12  24
BRANCH  10  48
ATOM     48  O   LIG d   1       9.321   3.163  -8.571  0.00  0.00    -0.391 OA
ATOM     49  H   LIG d   1       9.554   3.308  -9.636  0.00  0.00     0.210 HD
ENDBRANCH  10  48
BRANCH   1  50
ATOM     50  C   LIG d   1       8.038   1.806  -6.908  0.00  0.00    -0.060 C 
ATOM     51  H   LIG d   1       7.108   1.464  -6.431  0.00  0.00     0.023 H 
ATOM     52  H   LIG d   1       8.503   0.968  -7.447  0.00  0.00     0.023 H 
ATOM     53  H   LIG d   1       7.810   2.616  -7.617  0.00  0.00     0.023 H 
ENDBRANCH   1  50
BRANCH   7  54
ATOM     54  C   LIG d   1      11.653   3.280  -5.041  0.00  0.00    -0.059 C 
ATOM     55  H   LIG d   1      12.366   3.486  -5.853  0.00  0.00     0.024 H 
ATOM     56  H   LIG d   1      11.302   2.240  -5.118  0.00  0.00     0.024 H 
ATOM     57  H   LIG d   1      12.150   3.428  -4.071  0.00  0.00     0.024 H 
ENDBRANCH   7  54
BRANCH   3  58
ATOM     58  N   LIG d   1       7.803   1.057  -4.120  0.00  0.00    -0.312 N 
ATOM     59  C   LIG d   1       6.632   0.915  -3.469  0.00  0.00     0.216 C 
ATOM     60  O   LIG d   1       5.971   1.893  -3.190  0.00  0.00    -0.276 OA
ATOM     61  H   LIG d   1       8.403   0.171  -4.374  0.00  0.00     0.149 HD
BRANCH  59  62
ATOM     62  C   LIG d   1       6.145  -0.458  -3.087  0.00  0.00     0.036 C 
ATOM     63  C   LIG d   1       4.814  -0.339  -2.342  0.00  0.00    -0.042 C 
ATOM     64  C   LIG d   1       4.319  -1.734  -1.954  0.00  0.00    -0.052 C 
ATOM     65  H   LIG d   1       4.955   0.265  -1.434  0.00  0.00     0.027 H 
ATOM     66  H   LIG d   1       4.071   0.146  -2.993  0.00  0.00     0.027 H 
ATOM     67  C   LIG d   1       4.122  -2.575  -3.217  0.00  0.00    -0.053 C 
ATOM     68  H   LIG d   1       3.362  -1.647  -1.419  0.00  0.00     0.026 H 
ATOM     69  H   LIG d   1       5.061  -2.218  -1.303  0.00  0.00     0.026 H 
ATOM     70  C   LIG d   1       5.452  -2.694  -3.963  0.00  0.00    -0.052 C 
ATOM     71  H   LIG d   1       3.380  -2.089  -3.868  0.00  0.00     0.026 H 
ATOM     72  H   LIG d   1       3.766  -3.576  -2.939  0.00  0.00     0.026 H 
ATOM     73  C   LIG d   1       5.948  -1.299  -4.350  0.00  0.00    -0.042 C 
ATOM     74  H   LIG d   1       5.311  -3.298  -4.870  0.00  0.00     0.026 H 
ATOM     75  H   LIG d   1       6.195  -3.179  -3.311  0.00  0.00     0.026 H 
ATOM     76  H   LIG d   1       5.205  -0.815  -5.001  0.00  0.00     0.027 H 
ATOM     77  H   LIG d   1       6.905  -1.386  -4.886  0.00  0.00     0.027 H 
ATOM     78  H   LIG d   1       6.896  -0.931  -2.437  0.00  0.00     0.039 H 
ENDBRANCH  59  62
ENDBRANCH   3  58
TORSDOF 10
ENDMDL
MODEL 4
REMARK VINA RESULT:      -6.7      8.050     14.753
REMARK  10 active torsions:
REMARK  status: ('A' for Active; 'I' for Inactive)
REMARK    1  A    between atoms: C_1  and  C_2 
REMARK    2  A    between atoms: C_4  and  N_32 
REMARK    3  A    between atoms: C_8  and  C_31 
REMARK    4  A    between atoms: C_11  and  O_30 
REMARK    5  A    between atoms: C_13  and  C_17 
REMARK    6  A    between atoms: C_17  and  C_19 
REMARK    7  A    between atoms: C_17  and  C_20 
REMARK       I    between atoms: C_20  and  N_22 
REMARK    8  A    between atoms: N_22  and  C_23 
REMARK    9  A    between atoms: C_23  and  C_24 
REMARK       I    between atoms: N_32  and  C_33 
REMARK   10  A    between atoms: C_33  and  C_35 
ROOT
ATOM      1  C   LIG d   1      10.581   5.707  -3.162  0.00  0.00    -0.020 C 
ATOM      2  H   LIG d   1      11.649   5.912  -3.327  0.00  0.00     0.032 H 
ATOM      3  C   LIG d   1       9.807   7.026  -3.124  0.00  0.00     0.026 C 
ATOM      4  H   LIG d   1       8.741   6.845  -2.921  0.00  0.00     0.050 H 
ATOM      5  C   LIG d   1       9.985   7.760  -4.454  0.00  0.00    -0.034 C 
ATOM      6  C   LIG d   1       9.452   6.888  -5.594  0.00  0.00    -0.046 C 
ATOM      7  C   LIG d   1      10.227   5.569  -5.631  0.00  0.00    -0.026 C 
ATOM      8  C   LIG d   1      10.048   4.835  -4.301  0.00  0.00    -0.005 C 
ATOM      9  H   LIG d   1       8.981   4.629  -4.135  0.00  0.00     0.033 H 
ATOM     10  C   LIG d   1      10.822   3.516  -4.338  0.00  0.00     0.062 C 
ATOM     11  H   LIG d   1      11.903   3.691  -4.441  0.00  0.00     0.060 H 
ATOM     12  C   LIG d   1      10.289   2.644  -5.476  0.00  0.00    -0.004 C 
ATOM     13  H   LIG d   1      10.846   1.696  -5.504  0.00  0.00     0.033 H 
ATOM     14  C   LIG d   1      10.467   3.378  -6.808  0.00  0.00    -0.047 C 
ATOM     15  C   LIG d   1       9.693   4.697  -6.769  0.00  0.00    -0.047 C 
ATOM     16  H   LIG d   1       9.429   8.708  -4.427  0.00  0.00     0.028 H 
ATOM     17  H   LIG d   1      11.053   7.966  -4.620  0.00  0.00     0.028 H 
ATOM     18  H   LIG d   1       8.384   6.682  -5.429  0.00  0.00     0.027 H 
ATOM     19  H   LIG d   1       9.580   7.415  -6.550  0.00  0.00     0.027 H 
ATOM     20  H   LIG d   1      11.535   3.584  -6.973  0.00  0.00     0.027 H 
ATOM     21  H   LIG d   1      10.084   2.751  -7.627  0.00  0.00     0.027 H 
ATOM     22  H   LIG d   1       8.626   4.491  -6.605  0.00  0.00     0.027 H 
ATOM     23  H   LIG d   1       9.822   5.225  -7.727  0.00  0.00     0.027 H 
ENDROOT
BRANCH  12  24
ATOM     24  C   LIG d   1       8.804   2.358  -5.247  0.00  0.00     0.038 C 
ATOM     25  H   LIG d   1       8.228   3.292  -5.315  0.00  0.00     0.040 H 
BRANCH  24  26
ATOM     26  C   LIG d   1       8.614   1.727  -3.867  0.00  0.00    -0.054 C 
ATOM     27  H   LIG d   1       8.414   2.518  -3.127  0.00  0.00     0.024 H 
ATOM     28  H   LIG d   1       9.528   1.184  -3.583  0.00  0.00     0.024 H 
ATOM     29  H   LIG d   1       7.765   1.028  -3.895  0.00  0.00     0.024 H 
ENDBRANCH  24  26
BRANCH  24  30
ATOM     30  C   LIG d   1       8.307   1.407  -6.306  0.00  0.00     0.216 C 
ATOM     31  O   LIG d   1       8.812   0.311  -6.423  0.00  0.00    -0.276 OA
ATOM     32  N   LIG d   1       7.299   1.775  -7.122  0.00  0.00    -0.311 N 
ATOM     33  H   LIG d   1       6.840   2.769  -7.016  0.00  0.00     0.149 HD
BRANCH  32  34
ATOM     34  C   LIG d   1       6.816   0.852  -8.152  0.00  0.00     0.037 C 
ATOM     35  H   LIG d   1       7.419   0.970  -9.064  0.00  0.00     0.051 H 
ATOM     36  H   LIG d   1       6.903  -0.182  -7.787  0.00  0.00     0.051 H 
BRANCH  34  37
ATOM     37  C   LIG d   1       5.373   1.155  -8.462  0.00  0.00    -0.030 A 
ATOM     38  C   LIG d   1       4.375   0.321  -7.992  0.00  0.00    -0.057 A 
ATOM     39  C   LIG d   1       3.051   0.599  -8.276  0.00  0.00    -0.061 A 
ATOM     40  H   LIG d   1       4.630  -0.548  -7.404  0.00  0.00     0.062 H 
ATOM     41  C   LIG d   1       2.725   1.712  -9.029  0.00  0.00    -0.062 A 
ATOM     42  H   LIG d   1       2.272  -0.053  -7.911  0.00  0.00     0.062 H 
ATOM     43  C   LIG d   1       3.722   2.547  -9.498  0.00  0.00    -0.061 A 
ATOM     44  H   LIG d   1       1.690   1.928  -9.252  0.00  0.00     0.062 H 
ATOM     45  C   LIG d   1       5.046   2.270  -9.211  0.00  0.00    -0.057 A 
ATOM     46  H   LIG d   1       3.468   3.415 -10.086  0.00  0.00     0.062 H 
ATOM     47  H   LIG d   1       5.826   2.924  -9.573  0.00  0.00     0.062 H 
ENDBRANCH  34  37
ENDBRANCH  32  34
ENDBRANCH  24  30
ENDBRANCH  12  24
BRANCH  10  48
ATOM     48  O   LIG d   1      10.655   2.830  -3.096  0.00  0.00    -0.391 OA
ATOM     49  H   LIG d   1      11.223   3.152  -2.209  0.00  0.00     0.210 HD
ENDBRANCH  10  48
BRANCH   1  50
ATOM     50  C   LIG d   1      10.402   4.973  -1.831  0.00  0.00    -0.060 C 
ATOM     51  H   LIG d   1       9.428   4.464  -1.821  0.00  0.00     0.023 H 
ATOM     52  H   LIG d   1      10.446   5.697  -1.004  0.00  0.00     0.023 H 
ATOM     53  H   LIG d   1      11.205   4.231  -1.710  0.00  0.00     0.023 H 
ENDBRANCH   1  50
BRANCH   7  54
ATOM     54  C   LIG d   1      11.711   5.855  -5.860  0.00  0.00    -0.059 C 
ATOM     55  H   LIG d   1      12.226   5.923  -4.891  0.00  0.00     0.024 H 
ATOM     56  H   LIG d   1      11.822   6.806  -6.402  0.00  0.00     0.024 H 
ATOM     57  H   LIG d   1      12.155   5.042  -6.455  0.00  0.00     0.024 H 
ENDBRANCH   7  54
BRANCH   3  58
ATOM     58  N   LIG d   1      10.317   7.861  -2.034  0.00  0.00    -0.312 N 
ATOM     59  C   LIG d   1       9.512   8.194  -1.006  0.00  0.00     0.216 C 
ATOM     60  O   LIG d   1       8.364   7.802  -0.984  0.00  0.00    -0.276 OA
ATOM     61  H   LIG d   1      11.359   8.215  -2.054  0.00  0.00     0.149 HD
BRANCH  59  62
ATOM     62  C   LIG d   1      10.036   9.052   0.115  0.00  0.00     0.036 C 
ATOM     63  C   LIG d   1      11.345   8.460   0.642  0.00  0.00    -0.042 C 
ATOM     64  C   LIG d   1      11.878   9.332   1.782  0.00  0.00    -0.052 C 
ATOM     65  H   LIG d   1      11.163   7.441   1.014  0.00  0.00     0.027 H 
ATOM     66  H   LIG d   1      12.086   8.427  -0.170  0.00  0.00     0.027 H 
ATOM     67  C   LIG d   1      12.131  10.749   1.264  0.00  0.00    -0.053 C 
ATOM     68  H   LIG d   1      12.819   8.906   2.159  0.00  0.00     0.026 H 
ATOM     69  H   LIG d   1      11.137   9.365   2.594  0.00  0.00     0.026 H 
ATOM     70  C   LIG d   1      10.823  11.341   0.737  0.00  0.00    -0.052 C 
ATOM     71  H   LIG d   1      12.871  10.715   0.451  0.00  0.00     0.026 H 
ATOM     72  H   LIG d   1      12.514  11.375   2.082  0.00  0.00     0.026 H 
ATOM     73  C   LIG d   1      10.290  10.470  -0.402  0.00  0.00    -0.042 C 
ATOM     74  H   LIG d   1      11.004  12.360   0.365  0.00  0.00     0.026 H 
ATOM     75  H   LIG d   1      10.082  11.374   1.550  0.00  0.00     0.026 H 
ATOM     76  H   LIG d   1      11.030  10.436  -1.215  0.00  0.00     0.027 H 
ATOM     77  H   LIG d   1       9.349  10.895  -0.780  0.00  0.00     0.027 H 
ATOM     78  H   LIG d   1       9.287   9.077   0.920  0.00  0.00     0.039 H 
ENDBRANCH  59  62
ENDBRANCH   3  58
TORSDOF 10
ENDMDL
MODEL 5
REMARK VINA RESULT:      -6.6      8.309     11.862
REMARK  10 active torsions:
REMARK  status: ('A' for Active; 'I' for Inactive)
REMARK    1  A    between atoms: C_1  and  C_2 
REMARK    2  A    between atoms: C_4  and  N_32 
REMARK    3  A    between atoms: C_8  and  C_31 
REMARK    4  A    between atoms: C_11  and  O_30 
REMARK    5  A    between atoms: C_13  and  C_17 
REMARK    6  A    between atoms: C_17  and  C_19 
REMARK    7  A    between atoms: C_17  and  C_20 
REMARK       I    between atoms: C_20  and  N_22 
REMARK    8  A    between atoms: N_22  and  C_23 
REMARK    9  A    between atoms: C_23  and  C_24 
REMARK       I    between atoms: N_32  and  C_33 
REMARK   10  A    between atoms: C_33  and  C_35 
ROOT
ATOM      1  C   LIG d   1       9.046   2.240  -5.908  0.00  0.00    -0.020 C 
ATOM      2  H   LIG d   1       9.888   1.542  -5.797  0.00  0.00     0.032 H 
ATOM      3  C   LIG d   1       8.329   2.395  -4.564  0.00  0.00     0.026 C 
ATOM      4  H   LIG d   1       7.459   3.060  -4.663  0.00  0.00     0.050 H 
ATOM      5  C   LIG d   1       9.309   2.940  -3.524  0.00  0.00    -0.034 C 
ATOM      6  C   LIG d   1       9.833   4.303  -3.983  0.00  0.00    -0.046 C 
ATOM      7  C   LIG d   1      10.550   4.148  -5.326  0.00  0.00    -0.026 C 
ATOM      8  C   LIG d   1       9.569   3.603  -6.366  0.00  0.00    -0.005 C 
ATOM      9  H   LIG d   1       8.727   4.300  -6.478  0.00  0.00     0.033 H 
ATOM     10  C   LIG d   1      10.285   3.448  -7.710  0.00  0.00     0.062 C 
ATOM     11  H   LIG d   1      11.097   2.709  -7.645  0.00  0.00     0.060 H 
ATOM     12  C   LIG d   1      10.809   4.810  -8.168  0.00  0.00    -0.004 C 
ATOM     13  H   LIG d   1      11.324   4.699  -9.133  0.00  0.00     0.033 H 
ATOM     14  C   LIG d   1      11.789   5.356  -7.127  0.00  0.00    -0.047 C 
ATOM     15  C   LIG d   1      11.073   5.510  -5.784  0.00  0.00    -0.047 C 
ATOM     16  H   LIG d   1       8.795   3.051  -2.558  0.00  0.00     0.028 H 
ATOM     17  H   LIG d   1      10.152   2.242  -3.412  0.00  0.00     0.028 H 
ATOM     18  H   LIG d   1       8.991   5.001  -4.094  0.00  0.00     0.027 H 
ATOM     19  H   LIG d   1      10.538   4.695  -3.235  0.00  0.00     0.027 H 
ATOM     20  H   LIG d   1      12.632   4.658  -7.016  0.00  0.00     0.027 H 
ATOM     21  H   LIG d   1      12.166   6.336  -7.457  0.00  0.00     0.027 H 
ATOM     22  H   LIG d   1      10.231   6.208  -5.896  0.00  0.00     0.027 H 
ATOM     23  H   LIG d   1      11.778   5.903  -5.036  0.00  0.00     0.027 H 
ENDROOT
BRANCH  12  24
ATOM     24  C   LIG d   1       9.636   5.782  -8.323  0.00  0.00     0.038 C 
ATOM     25  H   LIG d   1       9.069   5.835  -7.382  0.00  0.00     0.040 H 
BRANCH  24  26
ATOM     26  C   LIG d   1       8.726   5.304  -9.455  0.00  0.00    -0.054 C 
ATOM     27  H   LIG d   1       7.954   4.634  -9.047  0.00  0.00     0.024 H 
ATOM     28  H   LIG d   1       9.324   4.761 -10.203  0.00  0.00     0.024 H 
ATOM     29  H   LIG d   1       8.244   6.172  -9.930  0.00  0.00     0.024 H 
ENDBRANCH  24  26
BRANCH  24  30
ATOM     30  C   LIG d   1      10.164   7.156  -8.648  0.00  0.00     0.216 C 
ATOM     31  O   LIG d   1       9.914   8.090  -7.916  0.00  0.00    -0.276 OA
ATOM     32  N   LIG d   1      10.913   7.346  -9.752  0.00  0.00    -0.311 N 
ATOM     33  H   LIG d   1      11.139   6.499 -10.416  0.00  0.00     0.149 HD
BRANCH  32  34
ATOM     34  C   LIG d   1      11.425   8.682 -10.068  0.00  0.00     0.037 C 
ATOM     35  H   LIG d   1      11.026   9.409  -9.346  0.00  0.00     0.051 H 
ATOM     36  H   LIG d   1      12.523   8.676 -10.013  0.00  0.00     0.051 H 
BRANCH  34  37
ATOM     37  C   LIG d   1      10.994   9.068 -11.459  0.00  0.00    -0.030 A 
ATOM     38  C   LIG d   1      11.647  10.087 -12.128  0.00  0.00    -0.057 A 
ATOM     39  C   LIG d   1      11.252  10.441 -13.404  0.00  0.00    -0.061 A 
ATOM     40  H   LIG d   1      12.466  10.607 -11.653  0.00  0.00     0.062 H 
ATOM     41  C   LIG d   1      10.203   9.776 -14.013  0.00  0.00    -0.062 A 
ATOM     42  H   LIG d   1      11.761  11.238 -13.925  0.00  0.00     0.062 H 
ATOM     43  C   LIG d   1       9.551   8.757 -13.345  0.00  0.00    -0.061 A 
ATOM     44  H   LIG d   1       9.894  10.054 -15.010  0.00  0.00     0.062 H 
ATOM     45  C   LIG d   1       9.949   8.400 -12.070  0.00  0.00    -0.057 A 
ATOM     46  H   LIG d   1       8.732   8.238 -13.820  0.00  0.00     0.062 H 
ATOM     47  H   LIG d   1       9.442   7.600 -11.550  0.00  0.00     0.062 H 
ENDBRANCH  34  37
ENDBRANCH  32  34
ENDBRANCH  24  30
ENDBRANCH  12  24
BRANCH  10  48
ATOM     48  O   LIG d   1       9.369   2.938  -8.681  0.00  0.00    -0.391 OA
ATOM     49  H   LIG d   1       9.622   2.033  -9.253  0.00  0.00     0.210 HD
ENDBRANCH  10  48
BRANCH   1  50
ATOM     50  C   LIG d   1       8.065   1.694  -6.948  0.00  0.00    -0.060 C 
ATOM     51  H   LIG d   1       7.692   0.713  -6.621  0.00  0.00     0.023 H 
ATOM     52  H   LIG d   1       8.578   1.588  -7.915  0.00  0.00     0.023 H 
ATOM     53  H   LIG d   1       7.221   2.390  -7.057  0.00  0.00     0.023 H 
ENDBRANCH   1  50
BRANCH   7  54
ATOM     54  C   LIG d   1      11.721   3.178  -5.171  0.00  0.00    -0.059 C 
ATOM     55  H   LIG d   1      11.882   2.641  -6.117  0.00  0.00     0.024 H 
ATOM     56  H   LIG d   1      11.495   2.454  -4.373  0.00  0.00     0.024 H 
ATOM     57  H   LIG d   1      12.631   3.739  -4.909  0.00  0.00     0.024 H 
ENDBRANCH   7  54
BRANCH   3  58
ATOM     58  N   LIG d   1       7.828   1.089  -4.125  0.00  0.00    -0.312 N 
ATOM     59  C   LIG d   1       6.637   1.001  -3.501  0.00  0.00     0.216 C 
ATOM     60  O   LIG d   1       5.980   2.002  -3.302  0.00  0.00    -0.276 OA
ATOM     61  H   LIG d   1       8.423   0.182  -4.306  0.00  0.00     0.149 HD
BRANCH  59  62
ATOM     62  C   LIG d   1       6.121  -0.340  -3.050  0.00  0.00     0.036 C 
ATOM     63  C   LIG d   1       4.841  -0.148  -2.234  0.00  0.00    -0.042 C 
ATOM     64  C   LIG d   1       4.317  -1.510  -1.776  0.00  0.00    -0.052 C 
ATOM     65  H   LIG d   1       5.057   0.477  -1.355  0.00  0.00     0.027 H 
ATOM     66  H   LIG d   1       4.081   0.347  -2.857  0.00  0.00     0.027 H 
ATOM     67  C   LIG d   1       4.016  -2.378  -2.999  0.00  0.00    -0.053 C 
ATOM     68  H   LIG d   1       3.396  -1.370  -1.190  0.00  0.00     0.026 H 
ATOM     69  H   LIG d   1       5.077  -2.004  -1.153  0.00  0.00     0.026 H 
ATOM     70  C   LIG d   1       5.296  -2.571  -3.815  0.00  0.00    -0.052 C 
ATOM     71  H   LIG d   1       3.256  -1.883  -3.621  0.00  0.00     0.026 H 
ATOM     72  H   LIG d   1       3.639  -3.357  -2.670  0.00  0.00     0.026 H 
ATOM     73  C   LIG d   1       5.820  -1.209  -4.273  0.00  0.00    -0.042 C 
ATOM     74  H   LIG d   1       5.080  -3.196  -4.694  0.00  0.00     0.026 H 
ATOM     75  H   LIG d   1       6.056  -3.066  -3.192  0.00  0.00     0.026 H 
ATOM     76  H   LIG d   1       5.060  -0.715  -4.895  0.00  0.00     0.027 H 
ATOM     77  H   LIG d   1       6.740  -1.349  -4.859  0.00  0.00     0.027 H 
ATOM     78  H   LIG d   1       6.890  -0.823  -2.429  0.00  0.00     0.039 H 
ENDBRANCH  59  62
ENDBRANCH   3  58
TORSDOF 10
ENDMDL
MODEL 6
REMARK VINA RESULT:      -6.6      3.656      9.465
REMARK  10 active torsions:
REMARK  status: ('A' for Active; 'I' for Inactive)
REMARK    1  A    between atoms: C_1  and  C_2 
REMARK    2  A    between atoms: C_4  and  N_32 
REMARK    3  A    between atoms: C_8  and  C_31 
REMARK    4  A    between atoms: C_11  and  O_30 
REMARK    5  A    between atoms: C_13  and  C_17 
REMARK    6  A    between atoms: C_17  and  C_19 
REMARK    7  A    between atoms: C_17  and  C_20 
REMARK       I    between atoms: C_20  and  N_22 
REMARK    8  A    between atoms: N_22  and  C_23 
REMARK    9  A    between atoms: C_23  and  C_24 
REMARK       I    between atoms: N_32  and  C_33 
REMARK   10  A    between atoms: C_33  and  C_35 
ROOT
ATOM      1  C   LIG d   1       3.490  -1.838  -8.805  0.00  0.00    -0.020 C 
ATOM      2  H   LIG d   1       4.458  -1.454  -9.158  0.00  0.00     0.032 H 
ATOM      3  C   LIG d   1       2.840  -0.809  -7.878  0.00  0.00     0.026 C 
ATOM      4  H   LIG d   1       1.887  -1.191  -7.482  0.00  0.00     0.050 H 
ATOM      5  C   LIG d   1       2.621   0.498  -8.641  0.00  0.00    -0.034 C 
ATOM      6  C   LIG d   1       1.706   0.242  -9.840  0.00  0.00    -0.046 C 
ATOM      7  C   LIG d   1       2.356  -0.787 -10.767  0.00  0.00    -0.026 C 
ATOM      8  C   LIG d   1       2.574  -2.095 -10.004  0.00  0.00    -0.005 C 
ATOM      9  H   LIG d   1       1.607  -2.479  -9.650  0.00  0.00     0.033 H 
ATOM     10  C   LIG d   1       3.225  -3.124 -10.931  0.00  0.00     0.062 C 
ATOM     11  H   LIG d   1       4.223  -2.794 -11.254  0.00  0.00     0.060 H 
ATOM     12  C   LIG d   1       2.310  -3.381 -12.130  0.00  0.00    -0.004 C 
ATOM     13  H   LIG d   1       2.777  -4.119 -12.796  0.00  0.00     0.033 H 
ATOM     14  C   LIG d   1       2.090  -2.072 -12.893  0.00  0.00    -0.047 C 
ATOM     15  C   LIG d   1       1.441  -1.043 -11.965  0.00  0.00    -0.047 C 
ATOM     16  H   LIG d   1       2.154   1.238  -7.974  0.00  0.00     0.028 H 
ATOM     17  H   LIG d   1       3.589   0.883  -8.994  0.00  0.00     0.028 H 
ATOM     18  H   LIG d   1       0.738  -0.142  -9.487  0.00  0.00     0.027 H 
ATOM     19  H   LIG d   1       1.548   1.182 -10.389  0.00  0.00     0.027 H 
ATOM     20  H   LIG d   1       3.058  -1.688 -13.247  0.00  0.00     0.027 H 
ATOM     21  H   LIG d   1       1.432  -2.256 -13.755  0.00  0.00     0.027 H 
ATOM     22  H   LIG d   1       0.473  -1.428 -11.612  0.00  0.00     0.027 H 
ATOM     23  H   LIG d   1       1.284  -0.102 -12.515  0.00  0.00     0.027 H 
ENDROOT
BRANCH  12  24
ATOM     24  C   LIG d   1       0.963  -3.915 -11.638  0.00  0.00     0.038 C 
ATOM     25  H   LIG d   1       0.634  -3.346 -10.756  0.00  0.00     0.040 H 
BRANCH  24  26
ATOM     26  C   LIG d   1       1.103  -5.395 -11.280  0.00  0.00    -0.054 C 
ATOM     27  H   LIG d   1       2.156  -5.699 -11.382  0.00  0.00     0.024 H 
ATOM     28  H   LIG d   1       0.481  -5.998 -11.960  0.00  0.00     0.024 H 
ATOM     29  H   LIG d   1       0.773  -5.555 -10.243  0.00  0.00     0.024 H 
ENDBRANCH  24  26
BRANCH  24  30
ATOM     30  C   LIG d   1      -0.068  -3.757 -12.727  0.00  0.00     0.216 C 
ATOM     31  O   LIG d   1       0.177  -4.133 -13.853  0.00  0.00    -0.276 OA
ATOM     32  N   LIG d   1      -1.262  -3.198 -12.447  0.00  0.00    -0.311 N 
ATOM     33  H   LIG d   1      -1.484  -2.857 -11.425  0.00  0.00     0.149 HD
BRANCH  32  34
ATOM     34  C   LIG d   1      -2.263  -3.043 -13.505  0.00  0.00     0.037 C 
ATOM     35  H   LIG d   1      -1.784  -3.172 -14.487  0.00  0.00     0.051 H 
ATOM     36  H   LIG d   1      -3.050  -3.802 -13.379  0.00  0.00     0.051 H 
BRANCH  34  37
ATOM     37  C   LIG d   1      -2.873  -1.668 -13.422  0.00  0.00    -0.030 A 
ATOM     38  C   LIG d   1      -4.248  -1.519 -13.452  0.00  0.00    -0.057 A 
ATOM     39  C   LIG d   1      -4.808  -0.257 -13.375  0.00  0.00    -0.061 A 
ATOM     40  H   LIG d   1      -4.884  -2.387 -13.535  0.00  0.00     0.062 H 
ATOM     41  C   LIG d   1      -3.994   0.855 -13.268  0.00  0.00    -0.062 A 
ATOM     42  H   LIG d   1      -5.881  -0.141 -13.400  0.00  0.00     0.062 H 
ATOM     43  C   LIG d   1      -2.620   0.706 -13.237  0.00  0.00    -0.061 A 
ATOM     44  H   LIG d   1      -4.432   1.841 -13.210  0.00  0.00     0.062 H 
ATOM     45  C   LIG d   1      -2.060  -0.556 -13.310  0.00  0.00    -0.057 A 
ATOM     46  H   LIG d   1      -1.984   1.574 -13.155  0.00  0.00     0.062 H 
ATOM     47  H   LIG d   1      -0.986  -0.673 -13.282  0.00  0.00     0.062 H 
ENDBRANCH  34  37
ENDBRANCH  32  34
ENDBRANCH  24  30
ENDBRANCH  12  24
BRANCH  10  48
ATOM     48  O   LIG d   1       3.429  -4.345 -10.218  0.00  0.00    -0.391 OA
ATOM     49  H   LIG d   1       4.338  -4.939 -10.392  0.00  0.00     0.210 HD
ENDBRANCH  10  48
BRANCH   1  50
ATOM     50  C   LIG d   1       3.708  -3.146  -8.041  0.00  0.00    -0.060 C 
ATOM     51  H   LIG d   1       2.973  -3.223  -7.227  0.00  0.00     0.023 H 
ATOM     52  H   LIG d   1       4.724  -3.159  -7.619  0.00  0.00     0.023 H 
ATOM     53  H   LIG d   1       3.587  -3.997  -8.727  0.00  0.00     0.023 H 
ENDBRANCH   1  50
BRANCH   7  54
ATOM     54  C   LIG d   1       3.702  -0.252 -11.258  0.00  0.00    -0.059 C 
ATOM     55  H   LIG d   1       3.611   0.820 -11.486  0.00  0.00     0.024 H 
ATOM     56  H   LIG d   1       4.003  -0.795 -12.167  0.00  0.00     0.024 H 
ATOM     57  H   LIG d   1       4.462  -0.397 -10.476  0.00  0.00     0.024 H 
ENDBRANCH   7  54
BRANCH   3  58
ATOM     58  N   LIG d   1       3.717  -0.564  -6.729  0.00  0.00    -0.312 N 
ATOM     59  C   LIG d   1       3.193  -0.154  -5.558  0.00  0.00     0.216 C 
ATOM     60  O   LIG d   1       1.996   0.012  -5.453  0.00  0.00    -0.276 OA
ATOM     61  H   LIG d   1       4.802  -0.715  -6.824  0.00  0.00     0.149 HD
BRANCH  59  62
ATOM     62  C   LIG d   1       4.094   0.099  -4.377  0.00  0.00     0.036 C 
ATOM     63  C   LIG d   1       3.376   0.999  -3.370  0.00  0.00    -0.042 C 
ATOM     64  C   LIG d   1       4.291   1.255  -2.171  0.00  0.00    -0.052 C 
ATOM     65  H   LIG d   1       3.123   1.956  -3.849  0.00  0.00     0.027 H 
ATOM     66  H   LIG d   1       2.454   0.505  -3.028  0.00  0.00     0.027 H 
ATOM     67  C   LIG d   1       4.643  -0.076  -1.504  0.00  0.00    -0.053 C 
ATOM     68  H   LIG d   1       3.774   1.902  -1.447  0.00  0.00     0.026 H 
ATOM     69  H   LIG d   1       5.212   1.749  -2.512  0.00  0.00     0.026 H 
ATOM     70  C   LIG d   1       5.361  -0.977  -2.511  0.00  0.00    -0.052 C 
ATOM     71  H   LIG d   1       3.721  -0.570  -1.163  0.00  0.00     0.026 H 
ATOM     72  H   LIG d   1       5.301   0.108  -0.643  0.00  0.00     0.026 H 
ATOM     73  C   LIG d   1       4.446  -1.233  -3.710  0.00  0.00    -0.042 C 
ATOM     74  H   LIG d   1       5.615  -1.934  -2.032  0.00  0.00     0.026 H 
ATOM     75  H   LIG d   1       6.283  -0.482  -2.853  0.00  0.00     0.026 H 
ATOM     76  H   LIG d   1       3.525  -1.727  -3.369  0.00  0.00     0.027 H 
ATOM     77  H   LIG d   1       4.963  -1.880  -4.434  0.00  0.00     0.027 H 
ATOM     78  H   LIG d   1       5.010   0.592  -4.732  0.00  0.00     0.039 H 
ENDBRANCH  59  62
ENDBRANCH   3  58
TORSDOF 10
ENDMDL
MODEL 7
REMARK VINA RESULT:      -6.6      4.176      6.397
REMARK  10 active torsions:
REMARK  status: ('A' for Active; 'I' for Inactive)
REMARK    1  A    between atoms: C_1  and  C_2 
REMARK    2  A    between atoms: C_4  and  N_32 
REMARK    3  A    between atoms: C_8  and  C_31 
REMARK    4  A    between atoms: C_11  and  O_30 
REMARK    5  A    between atoms: C_13  and  C_17 
REMARK    6  A    between atoms: C_17  and  C_19 
REMARK    7  A    between atoms: C_17  and  C_20 
REMARK       I    between atoms: C_20  and  N_22 
REMARK    8  A    between atoms: N_22  and  C_23 
REMARK    9  A    between atoms: C_23  and  C_24 
REMARK       I    between atoms: N_32  and  C_33 
REMARK   10  A    between atoms: C_33  and  C_35 
ROOT
ATOM      1  C   LIG d   1       3.833  -1.756 -11.037  0.00  0.00    -0.020 C 
ATOM      2  H   LIG d   1       2.738  -1.676 -10.964  0.00  0.00     0.032 H 
ATOM      3  C   LIG d   1       4.362  -0.679 -11.985  0.00  0.00     0.026 C 
ATOM      4  H   LIG d   1       5.452  -0.766 -12.103  0.00  0.00     0.050 H 
ATOM      5  C   LIG d   1       3.988   0.703 -11.447  0.00  0.00    -0.034 C 
ATOM      6  C   LIG d   1       4.607   0.895 -10.060  0.00  0.00    -0.046 C 
ATOM      7  C   LIG d   1       4.078  -0.182  -9.112  0.00  0.00    -0.026 C 
ATOM      8  C   LIG d   1       4.453  -1.564  -9.651  0.00  0.00    -0.005 C 
ATOM      9  H   LIG d   1       5.546  -1.645  -9.725  0.00  0.00     0.033 H 
ATOM     10  C   LIG d   1       3.923  -2.642  -8.702  0.00  0.00     0.062 C 
ATOM     11  H   LIG d   1       2.824  -2.626  -8.655  0.00  0.00     0.060 H 
ATOM     12  C   LIG d   1       4.542  -2.450  -7.317  0.00  0.00    -0.004 C 
ATOM     13  H   LIG d   1       4.162  -3.224  -6.634  0.00  0.00     0.033 H 
ATOM     14  C   LIG d   1       4.168  -1.067  -6.778  0.00  0.00    -0.047 C 
ATOM     15  C   LIG d   1       4.697   0.010  -7.727  0.00  0.00    -0.047 C 
ATOM     16  H   LIG d   1       4.368   1.478 -12.129  0.00  0.00     0.028 H 
ATOM     17  H   LIG d   1       2.893   0.785 -11.374  0.00  0.00     0.028 H 
ATOM     18  H   LIG d   1       5.701   0.815 -10.134  0.00  0.00     0.027 H 
ATOM     19  H   LIG d   1       4.338   1.889  -9.673  0.00  0.00     0.027 H 
ATOM     20  H   LIG d   1       3.074  -0.987  -6.704  0.00  0.00     0.027 H 
ATOM     21  H   LIG d   1       4.613  -0.929  -5.781  0.00  0.00     0.027 H 
ATOM     22  H   LIG d   1       5.791  -0.071  -7.799  0.00  0.00     0.027 H 
ATOM     23  H   LIG d   1       4.427   1.004  -7.339  0.00  0.00     0.027 H 
ENDROOT
BRANCH  12  24
ATOM     24  C   LIG d   1       6.065  -2.562  -7.418  0.00  0.00     0.038 C 
ATOM     25  H   LIG d   1       6.428  -1.963  -8.267  0.00  0.00     0.040 H 
BRANCH  24  26
ATOM     26  C   LIG d   1       6.456  -4.029  -7.610  0.00  0.00    -0.054 C 
ATOM     27  H   LIG d   1       6.185  -4.350  -8.627  0.00  0.00     0.024 H 
ATOM     28  H   LIG d   1       5.921  -4.650  -6.876  0.00  0.00     0.024 H 
ATOM     29  H   LIG d   1       7.541  -4.142  -7.466  0.00  0.00     0.024 H 
ENDBRANCH  24  26
BRANCH  24  30
ATOM     30  C   LIG d   1       6.693  -2.037  -6.152  0.00  0.00     0.216 C 
ATOM     31  O   LIG d   1       7.507  -1.140  -6.206  0.00  0.00    -0.276 OA
ATOM     32  N   LIG d   1       6.347  -2.563  -4.961  0.00  0.00    -0.311 N 
ATOM     33  H   LIG d   1       5.608  -3.377  -4.912  0.00  0.00     0.149 HD
BRANCH  32  34
ATOM     34  C   LIG d   1       6.957  -2.053  -3.730  0.00  0.00     0.037 C 
ATOM     35  H   LIG d   1       7.115  -2.883  -3.027  0.00  0.00     0.051 H 
ATOM     36  H   LIG d   1       7.923  -1.584  -3.968  0.00  0.00     0.051 H 
BRANCH  34  37
ATOM     37  C   LIG d   1       6.043  -1.032  -3.103  0.00  0.00    -0.030 A 
ATOM     38  C   LIG d   1       6.326   0.316  -3.226  0.00  0.00    -0.057 A 
ATOM     39  C   LIG d   1       5.488   1.253  -2.651  0.00  0.00    -0.061 A 
ATOM     40  H   LIG d   1       7.201   0.637  -3.770  0.00  0.00     0.062 H 
ATOM     41  C   LIG d   1       4.367   0.842  -1.953  0.00  0.00    -0.062 A 
ATOM     42  H   LIG d   1       5.710   2.306  -2.745  0.00  0.00     0.062 H 
ATOM     43  C   LIG d   1       4.084  -0.505  -1.832  0.00  0.00    -0.061 A 
ATOM     44  H   LIG d   1       3.713   1.575  -1.503  0.00  0.00     0.062 H 
ATOM     45  C   LIG d   1       4.920  -1.442  -2.410  0.00  0.00    -0.057 A 
ATOM     46  H   LIG d   1       3.209  -0.826  -1.287  0.00  0.00     0.062 H 
ATOM     47  H   LIG d   1       4.696  -2.495  -2.319  0.00  0.00     0.062 H 
ENDBRANCH  34  37
ENDBRANCH  32  34
ENDBRANCH  24  30
ENDBRANCH  12  24
BRANCH  10  48
ATOM     48  O   LIG d   1       4.273  -3.932  -9.206  0.00  0.00    -0.391 OA
ATOM     49  H   LIG d   1       3.568  -4.771  -9.106  0.00  0.00     0.210 HD
ENDBRANCH  10  48
BRANCH   1  50
ATOM     50  C   LIG d   1       4.208  -3.138 -11.576  0.00  0.00    -0.060 C 
ATOM     51  H   LIG d   1       3.918  -3.210 -12.634  0.00  0.00     0.023 H 
ATOM     52  H   LIG d   1       3.681  -3.912 -10.998  0.00  0.00     0.023 H 
ATOM     53  H   LIG d   1       5.293  -3.287 -11.482  0.00  0.00     0.023 H 
ENDBRANCH   1  50
BRANCH   7  54
ATOM     54  C   LIG d   1       2.556  -0.070  -9.010  0.00  0.00    -0.059 C 
ATOM     55  H   LIG d   1       2.158   0.373  -9.935  0.00  0.00     0.024 H 
ATOM     56  H   LIG d   1       2.291   0.569  -8.155  0.00  0.00     0.024 H 
ATOM     57  H   LIG d   1       2.123  -1.071  -8.867  0.00  0.00     0.024 H 
ENDBRANCH   7  54
BRANCH   3  58
ATOM     58  N   LIG d   1       3.769  -0.862 -13.313  0.00  0.00    -0.312 N 
ATOM     59  C   LIG d   1       4.555  -0.870 -14.407  0.00  0.00     0.216 C 
ATOM     60  O   LIG d   1       5.754  -0.724 -14.293  0.00  0.00    -0.276 OA
ATOM     61  H   LIG d   1       2.682  -0.995 -13.415  0.00  0.00     0.149 HD
BRANCH  59  62
ATOM     62  C   LIG d   1       3.946  -1.059 -15.771  0.00  0.00     0.036 C 
ATOM     63  C   LIG d   1       2.555  -1.679 -15.629  0.00  0.00    -0.042 C 
ATOM     64  C   LIG d   1       1.936  -1.872 -17.014  0.00  0.00    -0.052 C 
ATOM     65  H   LIG d   1       2.638  -2.654 -15.125  0.00  0.00     0.027 H 
ATOM     66  H   LIG d   1       1.915  -1.012 -15.031  0.00  0.00     0.027 H 
ATOM     67  C   LIG d   1       1.820  -0.516 -17.714  0.00  0.00    -0.053 C 
ATOM     68  H   LIG d   1       0.936  -2.317 -16.911  0.00  0.00     0.026 H 
ATOM     69  H   LIG d   1       2.575  -2.539 -17.611  0.00  0.00     0.026 H 
ATOM     70  C   LIG d   1       3.211   0.105 -17.857  0.00  0.00    -0.052 C 
ATOM     71  H   LIG d   1       1.182   0.151 -17.116  0.00  0.00     0.026 H 
ATOM     72  H   LIG d   1       1.376  -0.654 -18.710  0.00  0.00     0.026 H 
ATOM     73  C   LIG d   1       3.830   0.297 -16.471  0.00  0.00    -0.042 C 
ATOM     74  H   LIG d   1       3.129   1.079 -18.360  0.00  0.00     0.026 H 
ATOM     75  H   LIG d   1       3.851  -0.563 -18.454  0.00  0.00     0.026 H 
ATOM     76  H   LIG d   1       3.191   0.964 -15.874  0.00  0.00     0.027 H 
ATOM     77  H   LIG d   1       4.830   0.742 -16.575  0.00  0.00     0.027 H 
ATOM     78  H   LIG d   1       4.595  -1.727 -16.357  0.00  0.00     0.039 H 
ENDBRANCH  59  62
ENDBRANCH   3  58
TORSDOF 10
ENDMDL
MODEL 8
REMARK VINA RESULT:      -6.5      3.603      5.061
REMARK  10 active torsions:
REMARK  status: ('A' for Active; 'I' for Inactive)
REMARK    1  A    between atoms: C_1  and  C_2 
REMARK    2  A    between atoms: C_4  and  N_32 
REMARK    3  A    between atoms: C_8  and  C_31 
REMARK    4  A    between atoms: C_11  and  O_30 
REMARK    5  A    between atoms: C_13  and  C_17 
REMARK    6  A    between atoms: C_17  and  C_19 
REMARK    7  A    between atoms: C_17  and  C_20 
REMARK       I    between atoms: C_20  and  N_22 
REMARK    8  A    between atoms: N_22  and  C_23 
REMARK    9  A    between atoms: C_23  and  C_24 
REMARK       I    between atoms: N_32  and  C_33 
REMARK   10  A    between atoms: C_33  and  C_35 
ROOT
ATOM      1  C   LIG d   1       4.022  -3.293 -12.024  0.00  0.00    -0.020 C 
ATOM      2  H   LIG d   1       3.080  -3.555 -12.527  0.00  0.00     0.032 H 
ATOM      3  C   LIG d   1       5.039  -2.812 -13.061  0.00  0.00     0.026 C 
ATOM      4  H   LIG d   1       6.002  -2.581 -12.582  0.00  0.00     0.050 H 
ATOM      5  C   LIG d   1       4.488  -1.581 -13.782  0.00  0.00    -0.034 C 
ATOM      6  C   LIG d   1       4.230  -0.466 -12.764  0.00  0.00    -0.046 C 
ATOM      7  C   LIG d   1       3.213  -0.948 -11.727  0.00  0.00    -0.026 C 
ATOM      8  C   LIG d   1       3.765  -2.180 -11.006  0.00  0.00    -0.005 C 
ATOM      9  H   LIG d   1       4.707  -1.919 -10.503  0.00  0.00     0.033 H 
ATOM     10  C   LIG d   1       2.748  -2.661  -9.969  0.00  0.00     0.062 C 
ATOM     11  H   LIG d   1       1.814  -2.988 -10.449  0.00  0.00     0.060 H 
ATOM     12  C   LIG d   1       2.491  -1.548  -8.952  0.00  0.00    -0.004 C 
ATOM     13  H   LIG d   1       1.760  -1.894  -8.207  0.00  0.00     0.033 H 
ATOM     14  C   LIG d   1       1.939  -0.316  -9.674  0.00  0.00    -0.047 C 
ATOM     15  C   LIG d   1       2.956   0.165 -10.711  0.00  0.00    -0.047 C 
ATOM     16  H   LIG d   1       5.218  -1.234 -14.528  0.00  0.00     0.028 H 
ATOM     17  H   LIG d   1       3.545  -1.842 -14.286  0.00  0.00     0.028 H 
ATOM     18  H   LIG d   1       5.172  -0.205 -12.261  0.00  0.00     0.027 H 
ATOM     19  H   LIG d   1       3.833   0.419 -13.283  0.00  0.00     0.027 H 
ATOM     20  H   LIG d   1       0.997  -0.578 -10.177  0.00  0.00     0.027 H 
ATOM     21  H   LIG d   1       1.754   0.485  -8.942  0.00  0.00     0.027 H 
ATOM     22  H   LIG d   1       3.898   0.426 -10.207  0.00  0.00     0.027 H 
ATOM     23  H   LIG d   1       2.559   1.051 -11.230  0.00  0.00     0.027 H 
ENDROOT
BRANCH  12  24
ATOM     24  C   LIG d   1       3.802  -1.184  -8.252  0.00  0.00     0.038 C 
ATOM     25  H   LIG d   1       4.520  -0.787  -8.985  0.00  0.00     0.040 H 
BRANCH  24  26
ATOM     26  C   LIG d   1       4.381  -2.428  -7.576  0.00  0.00    -0.054 C 
ATOM     27  H   LIG d   1       5.372  -2.649  -8.001  0.00  0.00     0.024 H 
ATOM     28  H   LIG d   1       3.711  -3.284  -7.748  0.00  0.00     0.024 H 
ATOM     29  H   LIG d   1       4.476  -2.249  -6.495  0.00  0.00     0.024 H 
ENDBRANCH  24  26
BRANCH  24  30
ATOM     30  C   LIG d   1       3.538  -0.125  -7.212  0.00  0.00     0.216 C 
ATOM     31  O   LIG d   1       4.057   0.967  -7.313  0.00  0.00    -0.276 OA
ATOM     32  N   LIG d   1       2.724  -0.391  -6.172  0.00  0.00    -0.311 N 
ATOM     33  H   LIG d   1       2.253  -1.381  -6.080  0.00  0.00     0.149 HD
BRANCH  32  34
ATOM     34  C   LIG d   1       2.467   0.638  -5.161  0.00  0.00     0.037 C 
ATOM     35  H   LIG d   1       2.842   1.608  -5.520  0.00  0.00     0.051 H 
ATOM     36  H   LIG d   1       1.385   0.708  -4.976  0.00  0.00     0.051 H 
BRANCH  34  37
ATOM     37  C   LIG d   1       3.172   0.271  -3.881  0.00  0.00    -0.030 A 
ATOM     38  C   LIG d   1       3.309  -1.058  -3.523  0.00  0.00    -0.057 A 
ATOM     39  C   LIG d   1       3.956  -1.395  -2.349  0.00  0.00    -0.061 A 
ATOM     40  H   LIG d   1       2.910  -1.833  -4.161  0.00  0.00     0.062 H 
ATOM     41  C   LIG d   1       4.467  -0.403  -1.532  0.00  0.00    -0.062 A 
ATOM     42  H   LIG d   1       4.061  -2.433  -2.069  0.00  0.00     0.062 H 
ATOM     43  C   LIG d   1       4.331   0.925  -1.890  0.00  0.00    -0.061 A 
ATOM     44  H   LIG d   1       4.971  -0.667  -0.614  0.00  0.00     0.062 H 
ATOM     45  C   LIG d   1       3.688   1.262  -3.066  0.00  0.00    -0.057 A 
ATOM     46  H   LIG d   1       4.730   1.699  -1.252  0.00  0.00     0.062 H 
ATOM     47  H   LIG d   1       3.585   2.300  -3.348  0.00  0.00     0.062 H 
ENDBRANCH  34  37
ENDBRANCH  32  34
ENDBRANCH  24  30
ENDBRANCH  12  24
BRANCH  10  48
ATOM     48  O   LIG d   1       3.264  -3.811  -9.296  0.00  0.00    -0.391 OA
ATOM     49  H   LIG d   1       2.600  -4.427  -8.672  0.00  0.00     0.210 HD
ENDBRANCH  10  48
BRANCH   1  50
ATOM     50  C   LIG d   1       4.575  -4.525 -11.303  0.00  0.00    -0.060 C 
ATOM     51  H   LIG d   1       4.532  -5.394 -11.976  0.00  0.00     0.023 H 
ATOM     52  H   LIG d   1       3.970  -4.726 -10.406  0.00  0.00     0.023 H 
ATOM     53  H   LIG d   1       5.618  -4.340 -11.007  0.00  0.00     0.023 H 
ENDBRANCH   1  50
BRANCH   7  54
ATOM     54  C   LIG d   1       1.903  -1.312 -12.428  0.00  0.00    -0.059 C 
ATOM     55  H   LIG d   1       1.206  -0.464 -12.368  0.00  0.00     0.024 H 
ATOM     56  H   LIG d   1       1.456  -2.189 -11.938  0.00  0.00     0.024 H 
ATOM     57  H   LIG d   1       2.105  -1.546 -13.484  0.00  0.00     0.024 H 
ENDBRANCH   7  54
BRANCH   3  58
ATOM     58  N   LIG d   1       5.286  -3.878 -14.035  0.00  0.00    -0.312 N 
ATOM     59  C   LIG d   1       6.547  -4.174 -14.406  0.00  0.00     0.216 C 
ATOM     60  O   LIG d   1       7.478  -3.557 -13.932  0.00  0.00    -0.276 OA
ATOM     61  H   LIG d   1       4.441  -4.438 -14.464  0.00  0.00     0.149 HD
BRANCH  59  62
ATOM     62  C   LIG d   1       6.801  -5.270 -15.407  0.00  0.00     0.036 C 
ATOM     63  C   LIG d   1       6.166  -6.571 -14.912  0.00  0.00    -0.042 C 
ATOM     64  C   LIG d   1       6.424  -7.685 -15.928  0.00  0.00    -0.052 C 
ATOM     65  H   LIG d   1       6.607  -6.849 -13.943  0.00  0.00     0.027 H 
ATOM     66  H   LIG d   1       5.082  -6.428 -14.793  0.00  0.00     0.027 H 
ATOM     67  C   LIG d   1       5.810  -7.298 -17.276  0.00  0.00    -0.053 C 
ATOM     68  H   LIG d   1       5.967  -8.620 -15.572  0.00  0.00     0.026 H 
ATOM     69  H   LIG d   1       7.508  -7.829 -16.047  0.00  0.00     0.026 H 
ATOM     70  C   LIG d   1       6.445  -5.997 -17.770  0.00  0.00    -0.052 C 
ATOM     71  H   LIG d   1       4.726  -7.154 -17.156  0.00  0.00     0.026 H 
ATOM     72  H   LIG d   1       5.996  -8.098 -18.006  0.00  0.00     0.026 H 
ATOM     73  C   LIG d   1       6.187  -4.884 -16.754  0.00  0.00    -0.042 C 
ATOM     74  H   LIG d   1       6.004  -5.719 -18.739  0.00  0.00     0.026 H 
ATOM     75  H   LIG d   1       7.530  -6.141 -17.889  0.00  0.00     0.026 H 
ATOM     76  H   LIG d   1       5.103  -4.740 -16.635  0.00  0.00     0.027 H 
ATOM     77  H   LIG d   1       6.644  -3.949 -17.110  0.00  0.00     0.027 H 
ATOM     78  H   LIG d   1       7.888  -5.403 -15.515  0.00  0.00     0.039 H 
ENDBRANCH  59  62
ENDBRANCH   3  58
TORSDOF 10
ENDMDL
MODEL 9
REMARK VINA RESULT:      -6.3      7.946     14.405
REMARK  10 active torsions:
REMARK  status: ('A' for Active; 'I' for Inactive)
REMARK    1  A    between atoms: C_1  and  C_2 
REMARK    2  A    between atoms: C_4  and  N_32 
REMARK    3  A    between atoms: C_8  and  C_31 
REMARK    4  A    between atoms: C_11  and  O_30 
REMARK    5  A    between atoms: C_13  and  C_17 
REMARK    6  A    between atoms: C_17  and  C_19 
REMARK    7  A    between atoms: C_17  and  C_20 
REMARK       I    between atoms: C_20  and  N_22 
REMARK    8  A    between atoms: N_22  and  C_23 
REMARK    9  A    between atoms: C_23  and  C_24 
REMARK       I    between atoms: N_32  and  C_33 
REMARK   10  A    between atoms: C_33  and  C_35 
ROOT
ATOM      1  C   LIG d   1      10.546   5.529  -3.235  0.00  0.00    -0.020 C 
ATOM      2  H   LIG d   1      11.628   5.648  -3.388  0.00  0.00     0.032 H 
ATOM      3  C   LIG d   1       9.872   6.902  -3.256  0.00  0.00     0.026 C 
ATOM      4  H   LIG d   1       8.792   6.808  -3.066  0.00  0.00     0.050 H 
ATOM      5  C   LIG d   1      10.124   7.573  -4.608  0.00  0.00    -0.034 C 
ATOM      6  C   LIG d   1       9.543   6.702  -5.725  0.00  0.00    -0.046 C 
ATOM      7  C   LIG d   1      10.217   5.329  -5.704  0.00  0.00    -0.026 C 
ATOM      8  C   LIG d   1       9.964   4.658  -4.351  0.00  0.00    -0.005 C 
ATOM      9  H   LIG d   1       8.883   4.539  -4.197  0.00  0.00     0.033 H 
ATOM     10  C   LIG d   1      10.638   3.285  -4.330  0.00  0.00     0.062 C 
ATOM     11  H   LIG d   1      11.731   3.376  -4.421  0.00  0.00     0.060 H 
ATOM     12  C   LIG d   1      10.058   2.414  -5.446  0.00  0.00    -0.004 C 
ATOM     13  H   LIG d   1      10.542   1.428  -5.431  0.00  0.00     0.033 H 
ATOM     14  C   LIG d   1      10.310   3.085  -6.799  0.00  0.00    -0.047 C 
ATOM     15  C   LIG d   1       9.636   4.459  -6.820  0.00  0.00    -0.047 C 
ATOM     16  H   LIG d   1       9.640   8.560  -4.623  0.00  0.00     0.028 H 
ATOM     17  H   LIG d   1      11.206   7.693  -4.762  0.00  0.00     0.028 H 
ATOM     18  H   LIG d   1       8.461   6.583  -5.572  0.00  0.00     0.027 H 
ATOM     19  H   LIG d   1       9.724   7.184  -6.697  0.00  0.00     0.027 H 
ATOM     20  H   LIG d   1      11.392   3.205  -6.952  0.00  0.00     0.027 H 
ATOM     21  H   LIG d   1       9.892   2.459  -7.602  0.00  0.00     0.027 H 
ATOM     22  H   LIG d   1       8.554   4.339  -6.666  0.00  0.00     0.027 H 
ATOM     23  H   LIG d   1       9.818   4.941  -7.792  0.00  0.00     0.027 H 
ENDROOT
BRANCH  12  24
ATOM     24  C   LIG d   1       8.551   2.248  -5.232  0.00  0.00     0.038 C 
ATOM     25  H   LIG d   1       8.001   2.792  -6.014  0.00  0.00     0.040 H 
BRANCH  24  26
ATOM     26  C   LIG d   1       8.170   2.790  -3.853  0.00  0.00    -0.054 C 
ATOM     27  H   LIG d   1       8.653   3.767  -3.697  0.00  0.00     0.024 H 
ATOM     28  H   LIG d   1       8.508   2.087  -3.077  0.00  0.00     0.024 H 
ATOM     29  H   LIG d   1       7.078   2.907  -3.794  0.00  0.00     0.024 H 
ENDBRANCH  24  26
BRANCH  24  30
ATOM     30  C   LIG d   1       8.191   0.787  -5.315  0.00  0.00     0.216 C 
ATOM     31  O   LIG d   1       8.069   0.253  -6.397  0.00  0.00    -0.276 OA
ATOM     32  N   LIG d   1       8.005   0.075  -4.186  0.00  0.00    -0.311 N 
ATOM     33  H   LIG d   1       8.116   0.559  -3.205  0.00  0.00     0.149 HD
BRANCH  32  34
ATOM     34  C   LIG d   1       7.654  -1.346  -4.266  0.00  0.00     0.037 C 
ATOM     35  H   LIG d   1       7.625  -1.658  -5.320  0.00  0.00     0.051 H 
ATOM     36  H   LIG d   1       8.408  -1.940  -3.729  0.00  0.00     0.051 H 
BRANCH  34  37
ATOM     37  C   LIG d   1       6.302  -1.564  -3.640  0.00  0.00    -0.030 A 
ATOM     38  C   LIG d   1       5.534  -2.652  -4.015  0.00  0.00    -0.057 A 
ATOM     39  C   LIG d   1       4.293  -2.853  -3.440  0.00  0.00    -0.061 A 
ATOM     40  H   LIG d   1       5.904  -3.344  -4.756  0.00  0.00     0.062 H 
ATOM     41  C   LIG d   1       3.819  -1.967  -2.490  0.00  0.00    -0.062 A 
ATOM     42  H   LIG d   1       3.693  -3.701  -3.734  0.00  0.00     0.062 H 
ATOM     43  C   LIG d   1       4.587  -0.880  -2.115  0.00  0.00    -0.061 A 
ATOM     44  H   LIG d   1       2.849  -2.123  -2.042  0.00  0.00     0.062 H 
ATOM     45  C   LIG d   1       5.830  -0.681  -2.687  0.00  0.00    -0.057 A 
ATOM     46  H   LIG d   1       4.217  -0.188  -1.374  0.00  0.00     0.062 H 
ATOM     47  H   LIG d   1       6.432   0.166  -2.391  0.00  0.00     0.062 H 
ENDBRANCH  34  37
ENDBRANCH  32  34
ENDBRANCH  24  30
ENDBRANCH  12  24
BRANCH  10  48
ATOM     48  O   LIG d   1      10.403   2.659  -3.067  0.00  0.00    -0.391 OA
ATOM     49  H   LIG d   1      10.263   1.569  -3.011  0.00  0.00     0.210 HD
ENDBRANCH  10  48
BRANCH   1  50
ATOM     50  C   LIG d   1      10.293   4.859  -1.883  0.00  0.00    -0.060 C 
ATOM     51  H   LIG d   1       9.281   5.109  -1.533  0.00  0.00     0.023 H 
ATOM     52  H   LIG d   1      11.033   5.218  -1.152  0.00  0.00     0.023 H 
ATOM     53  H   LIG d   1      10.384   3.768  -1.991  0.00  0.00     0.023 H 
ENDBRANCH   1  50
BRANCH   7  54
ATOM     54  C   LIG d   1      11.722   5.495  -5.917  0.00  0.00    -0.059 C 
ATOM     55  H   LIG d   1      11.903   6.010  -6.872  0.00  0.00     0.024 H 
ATOM     56  H   LIG d   1      12.202   4.506  -5.937  0.00  0.00     0.024 H 
ATOM     57  H   LIG d   1      12.146   6.091  -5.095  0.00  0.00     0.024 H 
ENDBRANCH   7  54
BRANCH   3  58
ATOM     58  N   LIG d   1      10.428   7.736  -2.187  0.00  0.00    -0.312 N 
ATOM     59  C   LIG d   1       9.646   8.128  -1.162  0.00  0.00     0.216 C 
ATOM     60  O   LIG d   1       8.481   7.790  -1.125  0.00  0.00    -0.276 OA
ATOM     61  H   LIG d   1      11.484   8.041  -2.221  0.00  0.00     0.149 HD
BRANCH  59  62
ATOM     62  C   LIG d   1      10.217   8.984  -0.063  0.00  0.00     0.036 C 
ATOM     63  C   LIG d   1      11.213   8.163   0.759  0.00  0.00    -0.042 C 
ATOM     64  C   LIG d   1      11.793   9.033   1.876  0.00  0.00    -0.052 C 
ATOM     65  H   LIG d   1      10.699   7.296   1.199  0.00  0.00     0.027 H 
ATOM     66  H   LIG d   1      12.027   7.814   0.106  0.00  0.00     0.027 H 
ATOM     67  C   LIG d   1      12.509  10.239   1.264  0.00  0.00    -0.053 C 
ATOM     68  H   LIG d   1      12.509   8.443   2.466  0.00  0.00     0.026 H 
ATOM     69  H   LIG d   1      10.980   9.382   2.529  0.00  0.00     0.026 H 
ATOM     70  C   LIG d   1      11.513  11.060   0.442  0.00  0.00    -0.052 C 
ATOM     71  H   LIG d   1      13.322   9.889   0.611  0.00  0.00     0.026 H 
ATOM     72  H   LIG d   1      12.925  10.864   2.066  0.00  0.00     0.026 H 
ATOM     73  C   LIG d   1      10.933  10.190  -0.675  0.00  0.00    -0.042 C 
ATOM     74  H   LIG d   1      12.027  11.927   0.002  0.00  0.00     0.026 H 
ATOM     75  H   LIG d   1      10.699  11.409   1.095  0.00  0.00     0.026 H 
ATOM     76  H   LIG d   1      11.746   9.841  -1.327  0.00  0.00     0.027 H 
ATOM     77  H   LIG d   1      10.216  10.780  -1.265  0.00  0.00     0.027 H 
ATOM     78  H   LIG d   1       9.393   9.326   0.582  0.00  0.00     0.039 H 
ENDBRANCH  59  62
ENDBRANCH   3  58
TORSDOF 10
ENDMDL
