MODEL 1
REMARK VINA RESULT:      -6.6      0.000      0.000
REMARK  2 active torsions:
REMARK  status: ('A' for Active; 'I' for Inactive)
REMARK    1  A    between atoms: C_1  and  C_2 
REMARK    2  A    between atoms: C_17  and  C_27 
ROOT
ATOM      1  C   LIG d   1       5.140  -0.860  -6.371  0.00  0.00    -0.008 C 
ATOM      2  C   LIG d   1       5.282  -2.323  -5.971  0.00  0.00    -0.042 C 
ATOM      3  C   LIG d   1       4.479  -2.597  -4.697  0.00  0.00    -0.036 C 
ATOM      4  C   LIG d   1       4.779  -1.563  -3.615  0.00  0.00     0.038 C 
ATOM      5  H   LIG d   1       5.858  -1.500  -3.459  0.00  0.00     0.047 H 
ATOM      6  C   LIG d   1       4.245  -0.191  -4.046  0.00  0.00    -0.015 C 
ATOM      7  C   LIG d   1       4.026  -0.249  -5.550  0.00  0.00    -0.066 C 
ATOM      8  C   LIG d   1       2.909   0.195  -6.041  0.00  0.00    -0.084 C 
ATOM      9  C   LIG d   1       2.553   0.122  -7.503  0.00  0.00    -0.031 C 
ATOM     10  C   LIG d   1       3.382  -1.002  -8.120  0.00  0.00    -0.030 C 
ATOM     11  H   LIG d   1       3.144  -1.930  -7.557  0.00  0.00     0.031 H 
ATOM     12  C   LIG d   1       4.864  -0.686  -7.859  0.00  0.00    -0.029 C 
ATOM     13  H   LIG d   1       5.071   0.356  -8.103  0.00  0.00     0.031 H 
ATOM     14  C   LIG d   1       5.725  -1.595  -8.727  0.00  0.00    -0.049 C 
ATOM     15  C   LIG d   1       5.582  -1.212 -10.212  0.00  0.00    -0.042 C 
ATOM     16  C   LIG d   1       4.215  -0.632 -10.489  0.00  0.00     0.025 C 
ATOM     17  C   LIG d   1       3.148  -1.263  -9.570  0.00  0.00    -0.027 C 
ATOM     18  H   LIG d   1       3.177  -2.365  -9.733  0.00  0.00     0.031 H 
ATOM     19  C   LIG d   1       1.840  -0.754 -10.190  0.00  0.00    -0.044 C 
ATOM     20  C   LIG d   1       2.115  -0.880 -11.717  0.00  0.00     0.002 C 
ATOM     21  C   LIG d   1       3.644  -0.993 -11.872  0.00  0.00     0.176 C 
ATOM     22  O   LIG d   1       4.124  -0.103 -12.880  0.00  0.00    -0.346 OA
ATOM     23  C   LIG d   1       4.395  -0.894 -14.051  0.00  0.00     0.074 C 
ATOM     24  C   LIG d   1       3.936  -2.322 -13.685  0.00  0.00     0.074 C 
ATOM     25  O   LIG d   1       4.013  -2.326 -12.238  0.00  0.00    -0.346 OA
ATOM     26 CL   LIG d   1       3.986  -2.058  -2.073  0.00  0.00    -0.121 Cl
ATOM     27  H   LIG d   1       4.911  -2.963  -6.771  0.00  0.00     0.027 H 
ATOM     28  H   LIG d   1       6.334  -2.549  -5.788  0.00  0.00     0.027 H 
ATOM     29  H   LIG d   1       3.417  -2.573  -4.937  0.00  0.00     0.028 H 
ATOM     30  H   LIG d   1       4.729  -3.590  -4.320  0.00  0.00     0.028 H 
ATOM     31  H   LIG d   1       4.955   0.592  -3.791  0.00  0.00     0.032 H 
ATOM     32  H   LIG d   1       3.293   0.006  -3.547  0.00  0.00     0.032 H 
ATOM     33  H   LIG d   1       2.195   0.639  -5.368  0.00  0.00     0.057 H 
ATOM     34  H   LIG d   1       2.778   1.071  -7.978  0.00  0.00     0.031 H 
ATOM     35  H   LIG d   1       1.492  -0.102  -7.599  0.00  0.00     0.031 H 
ATOM     36  H   LIG d   1       5.405  -2.633  -8.600  0.00  0.00     0.027 H 
ATOM     37  H   LIG d   1       6.771  -1.511  -8.435  0.00  0.00     0.027 H 
ATOM     38  H   LIG d   1       5.729  -2.111 -10.823  0.00  0.00     0.027 H 
ATOM     39  H   LIG d   1       6.355  -0.488 -10.482  0.00  0.00     0.027 H 
ATOM     40  H   LIG d   1       1.008  -1.401  -9.902  0.00  0.00     0.027 H 
ATOM     41  H   LIG d   1       1.629   0.273  -9.912  0.00  0.00     0.027 H 
ATOM     42  H   LIG d   1       1.743  -0.000 -12.240  0.00  0.00     0.032 H 
ATOM     43  H   LIG d   1       1.635  -1.777 -12.107  0.00  0.00     0.032 H 
ATOM     44  H   LIG d   1       3.826  -0.522 -14.903  0.00  0.00     0.058 H 
ATOM     45  H   LIG d   1       5.462  -0.884 -14.275  0.00  0.00     0.058 H 
ATOM     46  H   LIG d   1       2.913  -2.497 -14.018  0.00  0.00     0.058 H 
ATOM     47  H   LIG d   1       4.609  -3.066 -14.111  0.00  0.00     0.058 H 
ENDROOT
BRANCH  16  48
ATOM     48  C   LIG d   1       4.241   0.893 -10.400  0.00  0.00    -0.054 C 
ATOM     49  H   LIG d   1       3.349   1.301 -10.878  0.00  0.00     0.024 H 
ATOM     50  H   LIG d   1       4.262   1.196  -9.353  0.00  0.00     0.024 H 
ATOM     51  H   LIG d   1       5.128   1.273 -10.906  0.00  0.00     0.024 H 
ENDBRANCH  16  48
BRANCH   1  52
ATOM     52  C   LIG d   1       6.445  -0.128  -6.039  0.00  0.00    -0.056 C 
ATOM     53  H   LIG d   1       7.291  -0.716  -6.396  0.00  0.00     0.024 H 
ATOM     54  H   LIG d   1       6.448   0.847  -6.525  0.00  0.00     0.024 H 
ATOM     55  H   LIG d   1       6.523   0.003  -4.959  0.00  0.00     0.024 H 
ENDBRANCH   1  52
TORSDOF 2
ENDMDL
MODEL 2
REMARK VINA RESULT:      -6.5      3.673      6.999
REMARK  2 active torsions:
REMARK  status: ('A' for Active; 'I' for Inactive)
REMARK    1  A    between atoms: C_1  and  C_2 
REMARK    2  A    between atoms: C_17  and  C_27 
ROOT
ATOM      1  C   LIG d   1       3.207  -0.400  -9.653  0.00  0.00    -0.008 C 
ATOM      2  C   LIG d   1       1.780  -0.920  -9.781  0.00  0.00    -0.042 C 
ATOM      3  C   LIG d   1       1.652  -1.789 -11.034  0.00  0.00    -0.036 C 
ATOM      4  C   LIG d   1       2.236  -1.092 -12.259  0.00  0.00     0.038 C 
ATOM      5  H   LIG d   1       1.796  -0.097 -12.359  0.00  0.00     0.047 H 
ATOM      6  C   LIG d   1       3.757  -0.964 -12.108  0.00  0.00    -0.015 C 
ATOM      7  C   LIG d   1       4.077  -1.153 -10.634  0.00  0.00    -0.066 C 
ATOM      8  C   LIG d   1       5.043  -1.953 -10.297  0.00  0.00    -0.084 C 
ATOM      9  C   LIG d   1       5.401  -2.274  -8.869  0.00  0.00    -0.031 C 
ATOM     10  C   LIG d   1       4.163  -2.005  -8.016  0.00  0.00    -0.030 C 
ATOM     11  H   LIG d   1       3.344  -2.637  -8.421  0.00  0.00     0.031 H 
ATOM     12  C   LIG d   1       3.753  -0.540  -8.237  0.00  0.00    -0.029 C 
ATOM     13  H   LIG d   1       4.629   0.106  -8.167  0.00  0.00     0.031 H 
ATOM     14  C   LIG d   1       2.738  -0.144  -7.173  0.00  0.00    -0.049 C 
ATOM     15  C   LIG d   1       3.411  -0.073  -5.789  0.00  0.00    -0.042 C 
ATOM     16  C   LIG d   1       4.565  -1.043  -5.701  0.00  0.00     0.025 C 
ATOM     17  C   LIG d   1       4.301  -2.299  -6.560  0.00  0.00    -0.027 C 
ATOM     18  H   LIG d   1       3.345  -2.749  -6.205  0.00  0.00     0.031 H 
ATOM     19  C   LIG d   1       5.430  -3.240  -6.119  0.00  0.00    -0.044 C 
ATOM     20  C   LIG d   1       5.481  -3.014  -4.580  0.00  0.00     0.002 C 
ATOM     21  C   LIG d   1       4.748  -1.684  -4.314  0.00  0.00     0.176 C 
ATOM     22  O   LIG d   1       5.512  -0.842  -3.450  0.00  0.00    -0.346 OA
ATOM     23  C   LIG d   1       4.911  -0.918  -2.145  0.00  0.00     0.074 C 
ATOM     24  C   LIG d   1       3.781  -1.962  -2.283  0.00  0.00     0.074 C 
ATOM     25  O   LIG d   1       3.479  -1.926  -3.700  0.00  0.00    -0.346 OA
ATOM     26 CL   LIG d   1       1.859  -2.055 -13.737  0.00  0.00    -0.121 Cl
ATOM     27  H   LIG d   1       1.523  -1.515  -8.905  0.00  0.00     0.027 H 
ATOM     28  H   LIG d   1       1.092  -0.076  -9.857  0.00  0.00     0.027 H 
ATOM     29  H   LIG d   1       2.177  -2.729 -10.867  0.00  0.00     0.028 H 
ATOM     30  H   LIG d   1       0.598  -2.006 -11.216  0.00  0.00     0.028 H 
ATOM     31  H   LIG d   1       4.094   0.011 -12.452  0.00  0.00     0.032 H 
ATOM     32  H   LIG d   1       4.251  -1.745 -12.692  0.00  0.00     0.032 H 
ATOM     33  H   LIG d   1       5.619  -2.417 -11.080  0.00  0.00     0.057 H 
ATOM     34  H   LIG d   1       6.229  -1.647  -8.554  0.00  0.00     0.031 H 
ATOM     35  H   LIG d   1       5.680  -3.325  -8.800  0.00  0.00     0.031 H 
ATOM     36  H   LIG d   1       1.937  -0.887  -7.136  0.00  0.00     0.027 H 
ATOM     37  H   LIG d   1       2.306   0.828  -7.410  0.00  0.00     0.027 H 
ATOM     38  H   LIG d   1       2.666  -0.320  -5.023  0.00  0.00     0.027 H 
ATOM     39  H   LIG d   1       3.765   0.944  -5.603  0.00  0.00     0.027 H 
ATOM     40  H   LIG d   1       5.166  -4.276  -6.339  0.00  0.00     0.027 H 
ATOM     41  H   LIG d   1       6.377  -2.987  -6.585  0.00  0.00     0.027 H 
ATOM     42  H   LIG d   1       6.514  -2.953  -4.242  0.00  0.00     0.032 H 
ATOM     43  H   LIG d   1       4.968  -3.829  -4.069  0.00  0.00     0.032 H 
ATOM     44  H   LIG d   1       5.642  -1.249  -1.407  0.00  0.00     0.058 H 
ATOM     45  H   LIG d   1       4.500   0.051  -1.861  0.00  0.00     0.058 H 
ATOM     46  H   LIG d   1       4.131  -2.951  -1.987  0.00  0.00     0.058 H 
ATOM     47  H   LIG d   1       2.912  -1.672  -1.693  0.00  0.00     0.058 H 
ENDROOT
BRANCH  16  48
ATOM     48  C   LIG d   1       5.884  -0.356  -6.054  0.00  0.00    -0.054 C 
ATOM     49  H   LIG d   1       6.512  -1.044  -6.621  0.00  0.00     0.024 H 
ATOM     50  H   LIG d   1       5.682   0.531  -6.654  0.00  0.00     0.024 H 
ATOM     51  H   LIG d   1       6.400  -0.066  -5.139  0.00  0.00     0.024 H 
ENDBRANCH  16  48
BRANCH   1  52
ATOM     52  C   LIG d   1       3.227   1.086 -10.027  0.00  0.00    -0.056 C 
ATOM     53  H   LIG d   1       2.781   1.669  -9.221  0.00  0.00     0.024 H 
ATOM     54  H   LIG d   1       4.257   1.407 -10.181  0.00  0.00     0.024 H 
ATOM     55  H   LIG d   1       2.657   1.237 -10.944  0.00  0.00     0.024 H 
ENDBRANCH   1  52
TORSDOF 2
ENDMDL
MODEL 3
REMARK VINA RESULT:      -6.2      3.471      4.711
REMARK  2 active torsions:
REMARK  status: ('A' for Active; 'I' for Inactive)
REMARK    1  A    between atoms: C_1  and  C_2 
REMARK    2  A    between atoms: C_17  and  C_27 
ROOT
ATOM      1  C   LIG d   1       5.506  -2.262  -4.295  0.00  0.00    -0.008 C 
ATOM      2  C   LIG d   1       4.365  -2.512  -3.316  0.00  0.00    -0.042 C 
ATOM      3  C   LIG d   1       3.675  -1.191  -2.970  0.00  0.00    -0.036 C 
ATOM      4  C   LIG d   1       4.687  -0.118  -2.578  0.00  0.00     0.038 C 
ATOM      5  H   LIG d   1       5.339  -0.502  -1.790  0.00  0.00     0.047 H 
ATOM      6  C   LIG d   1       5.534   0.268  -3.797  0.00  0.00    -0.015 C 
ATOM      7  C   LIG d   1       5.382  -0.849  -4.818  0.00  0.00    -0.066 C 
ATOM      8  C   LIG d   1       5.134  -0.541  -6.055  0.00  0.00    -0.084 C 
ATOM      9  C   LIG d   1       4.892  -1.562  -7.136  0.00  0.00    -0.031 C 
ATOM     10  C   LIG d   1       4.429  -2.848  -6.456  0.00  0.00    -0.030 C 
ATOM     11  H   LIG d   1       3.519  -2.597  -5.869  0.00  0.00     0.031 H 
ATOM     12  C   LIG d   1       5.515  -3.259  -5.447  0.00  0.00    -0.029 C 
ATOM     13  H   LIG d   1       6.498  -3.200  -5.914  0.00  0.00     0.031 H 
ATOM     14  C   LIG d   1       5.250  -4.688  -4.991  0.00  0.00    -0.049 C 
ATOM     15  C   LIG d   1       5.506  -5.676  -6.144  0.00  0.00    -0.042 C 
ATOM     16  C   LIG d   1       5.229  -5.029  -7.480  0.00  0.00     0.025 C 
ATOM     17  C   LIG d   1       4.099  -3.983  -7.366  0.00  0.00    -0.027 C 
ATOM     18  H   LIG d   1       3.203  -4.505  -6.958  0.00  0.00     0.031 H 
ATOM     19  C   LIG d   1       3.800  -3.663  -8.836  0.00  0.00    -0.044 C 
ATOM     20  C   LIG d   1       3.868  -5.064  -9.511  0.00  0.00     0.002 C 
ATOM     21  C   LIG d   1       4.628  -5.979  -8.531  0.00  0.00     0.176 C 
ATOM     22  O   LIG d   1       5.647  -6.718  -9.206  0.00  0.00    -0.346 OA
ATOM     23  C   LIG d   1       5.156  -8.059  -9.377  0.00  0.00     0.074 C 
ATOM     24  C   LIG d   1       3.709  -8.028  -8.835  0.00  0.00     0.074 C 
ATOM     25  O   LIG d   1       3.731  -6.909  -7.916  0.00  0.00    -0.346 OA
ATOM     26 CL   LIG d   1       3.815   1.337  -1.967  0.00  0.00    -0.121 Cl
ATOM     27  H   LIG d   1       3.638  -3.190  -3.762  0.00  0.00     0.027 H 
ATOM     28  H   LIG d   1       4.762  -2.960  -2.404  0.00  0.00     0.027 H 
ATOM     29  H   LIG d   1       3.106  -0.853  -3.835  0.00  0.00     0.028 H 
ATOM     30  H   LIG d   1       2.985  -1.352  -2.140  0.00  0.00     0.028 H 
ATOM     31  H   LIG d   1       6.576   0.391  -3.514  0.00  0.00     0.032 H 
ATOM     32  H   LIG d   1       5.161   1.203  -4.222  0.00  0.00     0.032 H 
ATOM     33  H   LIG d   1       5.096   0.501  -6.325  0.00  0.00     0.057 H 
ATOM     34  H   LIG d   1       5.812  -1.729  -7.689  0.00  0.00     0.031 H 
ATOM     35  H   LIG d   1       4.115  -1.194  -7.805  0.00  0.00     0.031 H 
ATOM     36  H   LIG d   1       4.209  -4.784  -4.672  0.00  0.00     0.027 H 
ATOM     37  H   LIG d   1       5.900  -4.940  -4.154  0.00  0.00     0.027 H 
ATOM     38  H   LIG d   1       4.849  -6.545  -6.016  0.00  0.00     0.027 H 
ATOM     39  H   LIG d   1       6.541  -6.025  -6.108  0.00  0.00     0.027 H 
ATOM     40  H   LIG d   1       2.796  -3.245  -8.935  0.00  0.00     0.027 H 
ATOM     41  H   LIG d   1       4.532  -2.985  -9.264  0.00  0.00     0.027 H 
ATOM     42  H   LIG d   1       4.396  -4.999 -10.460  0.00  0.00     0.032 H 
ATOM     43  H   LIG d   1       2.859  -5.447  -9.670  0.00  0.00     0.032 H 
ATOM     44  H   LIG d   1       5.157  -8.335 -10.431  0.00  0.00     0.058 H 
ATOM     45  H   LIG d   1       5.761  -8.760  -8.802  0.00  0.00     0.058 H 
ATOM     46  H   LIG d   1       2.998  -7.852  -9.642  0.00  0.00     0.058 H 
ATOM     47  H   LIG d   1       3.473  -8.955  -8.312  0.00  0.00     0.058 H 
ENDROOT
BRANCH  16  48
ATOM     48  C   LIG d   1       6.509  -4.448  -8.082  0.00  0.00    -0.054 C 
ATOM     49  H   LIG d   1       6.333  -3.416  -8.385  0.00  0.00     0.024 H 
ATOM     50  H   LIG d   1       7.305  -4.477  -7.338  0.00  0.00     0.024 H 
ATOM     51  H   LIG d   1       6.802  -5.037  -8.951  0.00  0.00     0.024 H 
ENDBRANCH  16  48
BRANCH   1  52
ATOM     52  C   LIG d   1       6.837  -2.388  -3.546  0.00  0.00    -0.056 C 
ATOM     53  H   LIG d   1       7.228  -3.399  -3.668  0.00  0.00     0.024 H 
ATOM     54  H   LIG d   1       7.551  -1.671  -3.951  0.00  0.00     0.024 H 
ATOM     55  H   LIG d   1       6.677  -2.185  -2.487  0.00  0.00     0.024 H 
ENDBRANCH   1  52
TORSDOF 2
ENDMDL
MODEL 4
REMARK VINA RESULT:      -5.8      4.940      6.233
REMARK  2 active torsions:
REMARK  status: ('A' for Active; 'I' for Inactive)
REMARK    1  A    between atoms: C_1  and  C_2 
REMARK    2  A    between atoms: C_17  and  C_27 
ROOT
ATOM      1  C   LIG d   1       4.786  -1.725  -3.659  0.00  0.00    -0.008 C 
ATOM      2  C   LIG d   1       3.699  -1.284  -4.632  0.00  0.00    -0.042 C 
ATOM      3  C   LIG d   1       3.561   0.239  -4.606  0.00  0.00    -0.036 C 
ATOM      4  C   LIG d   1       3.451   0.766  -3.178  0.00  0.00     0.038 C 
ATOM      5  H   LIG d   1       2.653   0.236  -2.653  0.00  0.00     0.047 H 
ATOM      6  C   LIG d   1       4.779   0.548  -2.440  0.00  0.00    -0.015 C 
ATOM      7  C   LIG d   1       5.557  -0.500  -3.221  0.00  0.00    -0.066 C 
ATOM      8  C   LIG d   1       6.809  -0.284  -3.489  0.00  0.00    -0.084 C 
ATOM      9  C   LIG d   1       7.657  -1.214  -4.316  0.00  0.00    -0.031 C 
ATOM     10  C   LIG d   1       6.715  -2.035  -5.193  0.00  0.00    -0.030 C 
ATOM     11  H   LIG d   1       6.123  -1.315  -5.800  0.00  0.00     0.031 H 
ATOM     12  C   LIG d   1       5.726  -2.759  -4.265  0.00  0.00    -0.029 C 
ATOM     13  H   LIG d   1       6.264  -3.225  -3.438  0.00  0.00     0.031 H 
ATOM     14  C   LIG d   1       4.990  -3.828  -5.063  0.00  0.00    -0.049 C 
ATOM     15  C   LIG d   1       5.951  -4.969  -5.446  0.00  0.00    -0.042 C 
ATOM     16  C   LIG d   1       7.362  -4.455  -5.604  0.00  0.00     0.025 C 
ATOM     17  C   LIG d   1       7.368  -3.001  -6.123  0.00  0.00    -0.027 C 
ATOM     18  H   LIG d   1       6.807  -2.990  -7.086  0.00  0.00     0.031 H 
ATOM     19  C   LIG d   1       8.848  -2.782  -6.465  0.00  0.00    -0.044 C 
ATOM     20  C   LIG d   1       9.248  -4.133  -7.126  0.00  0.00     0.002 C 
ATOM     21  C   LIG d   1       8.169  -5.153  -6.713  0.00  0.00     0.176 C 
ATOM     22  O   LIG d   1       8.762  -6.363  -6.240  0.00  0.00    -0.346 OA
ATOM     23  C   LIG d   1       8.641  -7.335  -7.293  0.00  0.00     0.074 C 
ATOM     24  C   LIG d   1       8.014  -6.567  -8.478  0.00  0.00     0.074 C 
ATOM     25  O   LIG d   1       7.327  -5.470  -7.825  0.00  0.00    -0.346 OA
ATOM     26 CL   LIG d   1       3.067   2.527  -3.213  0.00  0.00    -0.121 Cl
ATOM     27  H   LIG d   1       3.956  -1.603  -5.642  0.00  0.00     0.027 H 
ATOM     28  H   LIG d   1       2.749  -1.736  -4.344  0.00  0.00     0.027 H 
ATOM     29  H   LIG d   1       4.432   0.682  -5.089  0.00  0.00     0.028 H 
ATOM     30  H   LIG d   1       2.669   0.530  -5.163  0.00  0.00     0.028 H 
ATOM     31  H   LIG d   1       4.598   0.213  -1.422  0.00  0.00     0.032 H 
ATOM     32  H   LIG d   1       5.345   1.482  -2.419  0.00  0.00     0.032 H 
ATOM     33  H   LIG d   1       7.268   0.610  -3.102  0.00  0.00     0.057 H 
ATOM     34  H   LIG d   1       8.232  -1.860  -3.659  0.00  0.00     0.031 H 
ATOM     35  H   LIG d   1       8.327  -0.623  -4.940  0.00  0.00     0.031 H 
ATOM     36  H   LIG d   1       4.586  -3.388  -5.978  0.00  0.00     0.027 H 
ATOM     37  H   LIG d   1       4.168  -4.235  -4.475  0.00  0.00     0.027 H 
ATOM     38  H   LIG d   1       5.614  -5.410  -6.392  0.00  0.00     0.027 H 
ATOM     39  H   LIG d   1       5.922  -5.748  -4.680  0.00  0.00     0.027 H 
ATOM     40  H   LIG d   1       8.953  -1.966  -7.183  0.00  0.00     0.027 H 
ATOM     41  H   LIG d   1       9.446  -2.584  -5.582  0.00  0.00     0.027 H 
ATOM     42  H   LIG d   1      10.228  -4.450  -6.772  0.00  0.00     0.032 H 
ATOM     43  H   LIG d   1       9.260  -4.025  -8.211  0.00  0.00     0.032 H 
ATOM     44  H   LIG d   1       9.622  -7.721  -7.571  0.00  0.00     0.058 H 
ATOM     45  H   LIG d   1       7.988  -8.150  -6.982  0.00  0.00     0.058 H 
ATOM     46  H   LIG d   1       8.788  -6.193  -9.149  0.00  0.00     0.058 H 
ATOM     47  H   LIG d   1       7.310  -7.199  -9.019  0.00  0.00     0.058 H 
ENDROOT
BRANCH  16  48
ATOM     48  C   LIG d   1       8.152  -4.619  -4.305  0.00  0.00    -0.054 C 
ATOM     49  H   LIG d   1       7.857  -3.842  -3.600  0.00  0.00     0.024 H 
ATOM     50  H   LIG d   1       7.943  -5.598  -3.875  0.00  0.00     0.024 H 
ATOM     51  H   LIG d   1       9.218  -4.534  -4.514  0.00  0.00     0.024 H 
ENDBRANCH  16  48
BRANCH   1  52
ATOM     52  C   LIG d   1       4.123  -2.348  -2.426  0.00  0.00    -0.056 C 
ATOM     53  H   LIG d   1       3.321  -3.016  -2.744  0.00  0.00     0.024 H 
ATOM     54  H   LIG d   1       4.864  -2.912  -1.861  0.00  0.00     0.024 H 
ATOM     55  H   LIG d   1       3.709  -1.557  -1.799  0.00  0.00     0.024 H 
ENDBRANCH   1  52
TORSDOF 2
ENDMDL
MODEL 5
REMARK VINA RESULT:      -5.6      8.458     11.584
REMARK  2 active torsions:
REMARK  status: ('A' for Active; 'I' for Inactive)
REMARK    1  A    between atoms: C_1  and  C_2 
REMARK    2  A    between atoms: C_17  and  C_27 
ROOT
ATOM      1  C   LIG d   1       9.856   3.360  -4.952  0.00  0.00    -0.008 C 
ATOM      2  C   LIG d   1       8.388   2.957  -4.878  0.00  0.00    -0.042 C 
ATOM      3  C   LIG d   1       8.271   1.462  -4.576  0.00  0.00    -0.036 C 
ATOM      4  C   LIG d   1       9.159   0.634  -5.501  0.00  0.00     0.038 C 
ATOM      5  H   LIG d   1       8.951   0.897  -6.540  0.00  0.00     0.047 H 
ATOM      6  C   LIG d   1      10.635   0.913  -5.190  0.00  0.00    -0.015 C 
ATOM      7  C   LIG d   1      10.689   2.219  -4.412  0.00  0.00    -0.066 C 
ATOM      8  C   LIG d   1      11.410   2.280  -3.334  0.00  0.00    -0.084 C 
ATOM      9  C   LIG d   1      11.481   3.495  -2.446  0.00  0.00    -0.031 C 
ATOM     10  C   LIG d   1      10.213   4.311  -2.685  0.00  0.00    -0.030 C 
ATOM     11  H   LIG d   1       9.350   3.646  -2.461  0.00  0.00     0.031 H 
ATOM     12  C   LIG d   1      10.148   4.643  -4.185  0.00  0.00    -0.029 C 
ATOM     13  H   LIG d   1      11.117   5.007  -4.528  0.00  0.00     0.031 H 
ATOM     14  C   LIG d   1       9.089   5.716  -4.408  0.00  0.00    -0.049 C 
ATOM     15  C   LIG d   1       9.551   7.058  -3.811  0.00  0.00    -0.042 C 
ATOM     16  C   LIG d   1      10.457   6.837  -2.623  0.00  0.00     0.025 C 
ATOM     17  C   LIG d   1      10.072   5.549  -1.864  0.00  0.00    -0.027 C 
ATOM     18  H   LIG d   1       9.003   5.646  -1.565  0.00  0.00     0.031 H 
ATOM     19  C   LIG d   1      10.908   5.662  -0.583  0.00  0.00    -0.044 C 
ATOM     20  C   LIG d   1      10.776   7.170  -0.222  0.00  0.00     0.002 C 
ATOM     21  C   LIG d   1      10.299   7.881  -1.504  0.00  0.00     0.176 C 
ATOM     22  O   LIG d   1      11.083   9.045  -1.765  0.00  0.00    -0.346 OA
ATOM     23  C   LIG d   1      10.294  10.184  -1.376  0.00  0.00     0.074 C 
ATOM     24  C   LIG d   1       9.008   9.589  -0.761  0.00  0.00     0.074 C 
ATOM     25  O   LIG d   1       8.931   8.279  -1.376  0.00  0.00    -0.346 OA
ATOM     26 CL   LIG d   1       8.815  -1.119  -5.255  0.00  0.00    -0.121 Cl
ATOM     27  H   LIG d   1       7.889   3.522  -4.091  0.00  0.00     0.027 H 
ATOM     28  H   LIG d   1       7.906   3.170  -5.834  0.00  0.00     0.027 H 
ATOM     29  H   LIG d   1       8.563   1.287  -3.541  0.00  0.00     0.028 H 
ATOM     30  H   LIG d   1       7.233   1.149  -4.703  0.00  0.00     0.028 H 
ATOM     31  H   LIG d   1      11.211   0.989  -6.109  0.00  0.00     0.032 H 
ATOM     32  H   LIG d   1      11.040   0.105  -4.574  0.00  0.00     0.032 H 
ATOM     33  H   LIG d   1      11.989   1.415  -3.057  0.00  0.00     0.057 H 
ATOM     34  H   LIG d   1      12.364   4.075  -2.695  0.00  0.00     0.031 H 
ATOM     35  H   LIG d   1      11.527   3.172  -1.406  0.00  0.00     0.031 H 
ATOM     36  H   LIG d   1       8.157   5.418  -3.921  0.00  0.00     0.027 H 
ATOM     37  H   LIG d   1       8.905   5.843  -5.474  0.00  0.00     0.027 H 
ATOM     38  H   LIG d   1       8.667   7.626  -3.496  0.00  0.00     0.027 H 
ATOM     39  H   LIG d   1      10.074   7.641  -4.574  0.00  0.00     0.027 H 
ATOM     40  H   LIG d   1      10.473   5.046   0.207  0.00  0.00     0.027 H 
ATOM     41  H   LIG d   1      11.944   5.386  -0.746  0.00  0.00     0.027 H 
ATOM     42  H   LIG d   1      11.739   7.566   0.097  0.00  0.00     0.032 H 
ATOM     43  H   LIG d   1      10.038   7.298   0.570  0.00  0.00     0.032 H 
ATOM     44  H   LIG d   1      10.825  10.781  -0.635  0.00  0.00     0.058 H 
ATOM     45  H   LIG d   1      10.051  10.792  -2.248  0.00  0.00     0.058 H 
ATOM     46  H   LIG d   1       9.101   9.504   0.322  0.00  0.00     0.058 H 
ATOM     47  H   LIG d   1       8.139  10.193  -1.024  0.00  0.00     0.058 H 
ENDROOT
BRANCH  16  48
ATOM     48  C   LIG d   1      11.926   6.853  -3.046  0.00  0.00    -0.054 C 
ATOM     49  H   LIG d   1      12.551   7.086  -2.183  0.00  0.00     0.024 H 
ATOM     50  H   LIG d   1      12.201   5.875  -3.440  0.00  0.00     0.024 H 
ATOM     51  H   LIG d   1      12.075   7.610  -3.816  0.00  0.00     0.024 H 
ENDBRANCH  16  48
BRANCH   1  52
ATOM     52  C   LIG d   1      10.234   3.585  -6.419  0.00  0.00    -0.056 C 
ATOM     53  H   LIG d   1       9.331   3.769  -7.003  0.00  0.00     0.024 H 
ATOM     54  H   LIG d   1      10.898   4.446  -6.496  0.00  0.00     0.024 H 
ATOM     55  H   LIG d   1      10.741   2.699  -6.804  0.00  0.00     0.024 H 
ENDBRANCH   1  52
TORSDOF 2
ENDMDL
MODEL 6
REMARK VINA RESULT:      -5.6      4.952      6.630
REMARK  2 active torsions:
REMARK  status: ('A' for Active; 'I' for Inactive)
REMARK    1  A    between atoms: C_1  and  C_2 
REMARK    2  A    between atoms: C_17  and  C_27 
ROOT
ATOM      1  C   LIG d   1       6.859  -1.008  -4.332  0.00  0.00    -0.008 C 
ATOM      2  C   LIG d   1       5.825  -1.380  -5.388  0.00  0.00    -0.042 C 
ATOM      3  C   LIG d   1       4.441  -0.888  -4.961  0.00  0.00    -0.036 C 
ATOM      4  C   LIG d   1       4.123  -1.293  -3.524  0.00  0.00     0.038 C 
ATOM      5  H   LIG d   1       4.271  -2.369  -3.407  0.00  0.00     0.047 H 
ATOM      6  C   LIG d   1       5.047  -0.543  -2.556  0.00  0.00    -0.015 C 
ATOM      7  C   LIG d   1       6.224  -0.028  -3.370  0.00  0.00    -0.066 C 
ATOM      8  C   LIG d   1       6.600   1.205  -3.221  0.00  0.00    -0.084 C 
ATOM      9  C   LIG d   1       7.703   1.844  -4.026  0.00  0.00    -0.031 C 
ATOM     10  C   LIG d   1       7.846   1.046  -5.320  0.00  0.00    -0.030 C 
ATOM     11  H   LIG d   1       6.857   1.067  -5.827  0.00  0.00     0.031 H 
ATOM     12  C   LIG d   1       8.125  -0.417  -4.938  0.00  0.00    -0.029 C 
ATOM     13  H   LIG d   1       8.898  -0.460  -4.169  0.00  0.00     0.031 H 
ATOM     14  C   LIG d   1       8.592  -1.171  -6.176  0.00  0.00    -0.049 C 
ATOM     15  C   LIG d   1       9.991  -0.688  -6.603  0.00  0.00    -0.042 C 
ATOM     16  C   LIG d   1      10.200   0.759  -6.225  0.00  0.00     0.025 C 
ATOM     17  C   LIG d   1       8.872   1.545  -6.281  0.00  0.00    -0.027 C 
ATOM     18  H   LIG d   1       8.464   1.434  -7.312  0.00  0.00     0.031 H 
ATOM     19  C   LIG d   1       9.345   2.997  -6.139  0.00  0.00    -0.044 C 
ATOM     20  C   LIG d   1      10.621   3.029  -7.031  0.00  0.00     0.002 C 
ATOM     21  C   LIG d   1      11.044   1.561  -7.232  0.00  0.00     0.176 C 
ATOM     22  O   LIG d   1      12.441   1.393  -6.989  0.00  0.00    -0.346 OA
ATOM     23  C   LIG d   1      13.085   1.286  -8.270  0.00  0.00     0.074 C 
ATOM     24  C   LIG d   1      11.959   1.509  -9.305  0.00  0.00     0.074 C 
ATOM     25  O   LIG d   1      10.767   1.138  -8.570  0.00  0.00    -0.346 OA
ATOM     26 CL   LIG d   1       2.406  -0.888  -3.150  0.00  0.00    -0.121 Cl
ATOM     27  H   LIG d   1       6.089  -0.922  -6.341  0.00  0.00     0.027 H 
ATOM     28  H   LIG d   1       5.800  -2.464  -5.505  0.00  0.00     0.027 H 
ATOM     29  H   LIG d   1       4.410   0.198  -5.045  0.00  0.00     0.028 H 
ATOM     30  H   LIG d   1       3.687  -1.311  -5.626  0.00  0.00     0.028 H 
ATOM     31  H   LIG d   1       5.388  -1.205  -1.764  0.00  0.00     0.032 H 
ATOM     32  H   LIG d   1       4.511   0.302  -2.116  0.00  0.00     0.032 H 
ATOM     33  H   LIG d   1       6.097   1.809  -2.485  0.00  0.00     0.057 H 
ATOM     34  H   LIG d   1       8.627   1.821  -3.455  0.00  0.00     0.031 H 
ATOM     35  H   LIG d   1       7.428   2.874  -4.251  0.00  0.00     0.031 H 
ATOM     36  H   LIG d   1       7.894  -0.994  -6.998  0.00  0.00     0.027 H 
ATOM     37  H   LIG d   1       8.631  -2.240  -5.971  0.00  0.00     0.027 H 
ATOM     38  H   LIG d   1      10.086  -0.799  -7.690  0.00  0.00     0.027 H 
ATOM     39  H   LIG d   1      10.756  -1.310  -6.131  0.00  0.00     0.027 H 
ATOM     40  H   LIG d   1       8.591   3.680  -6.536  0.00  0.00     0.027 H 
ATOM     41  H   LIG d   1       9.579   3.252  -5.111  0.00  0.00     0.027 H 
ATOM     42  H   LIG d   1      11.412   3.590  -6.536  0.00  0.00     0.032 H 
ATOM     43  H   LIG d   1      10.387   3.483  -7.994  0.00  0.00     0.032 H 
ATOM     44  H   LIG d   1      13.852   2.053  -8.377  0.00  0.00     0.058 H 
ATOM     45  H   LIG d   1      13.521   0.295  -8.393  0.00  0.00     0.058 H 
ATOM     46  H   LIG d   1      11.916   2.555  -9.609  0.00  0.00     0.058 H 
ATOM     47  H   LIG d   1      12.098   0.864 -10.172  0.00  0.00     0.058 H 
ENDROOT
BRANCH  16  48
ATOM     48  C   LIG d   1      10.895   0.874  -4.868  0.00  0.00    -0.054 C 
ATOM     49  H   LIG d   1      10.211   0.556  -4.081  0.00  0.00     0.024 H 
ATOM     50  H   LIG d   1      11.781   0.239  -4.858  0.00  0.00     0.024 H 
ATOM     51  H   LIG d   1      11.189   1.910  -4.696  0.00  0.00     0.024 H 
ENDBRANCH  16  48
BRANCH   1  52
ATOM     52  C   LIG d   1       7.246  -2.270  -3.554  0.00  0.00    -0.056 C 
ATOM     53  H   LIG d   1       6.970  -2.149  -2.506  0.00  0.00     0.024 H 
ATOM     54  H   LIG d   1       6.723  -3.129  -3.971  0.00  0.00     0.024 H 
ATOM     55  H   LIG d   1       8.323  -2.426  -3.630  0.00  0.00     0.024 H 
ENDBRANCH   1  52
TORSDOF 2
ENDMDL
MODEL 7
REMARK VINA RESULT:      -5.4      4.171      5.830
REMARK  2 active torsions:
REMARK  status: ('A' for Active; 'I' for Inactive)
REMARK    1  A    between atoms: C_1  and  C_2 
REMARK    2  A    between atoms: C_17  and  C_27 
ROOT
ATOM      1  C   LIG d   1       3.689  -1.598  -9.971  0.00  0.00    -0.008 C 
ATOM      2  C   LIG d   1       3.316  -1.128  -8.570  0.00  0.00    -0.042 C 
ATOM      3  C   LIG d   1       3.047   0.378  -8.579  0.00  0.00    -0.036 C 
ATOM      4  C   LIG d   1       4.169   1.142  -9.277  0.00  0.00     0.038 C 
ATOM      5  H   LIG d   1       5.129   0.862  -8.838  0.00  0.00     0.047 H 
ATOM      6  C   LIG d   1       4.174   0.805 -10.774  0.00  0.00    -0.015 C 
ATOM      7  C   LIG d   1       3.382  -0.482 -10.945  0.00  0.00    -0.066 C 
ATOM      8  C   LIG d   1       2.483  -0.548 -11.879  0.00  0.00    -0.084 C 
ATOM      9  C   LIG d   1       1.589  -1.742 -12.094  0.00  0.00    -0.031 C 
ATOM     10  C   LIG d   1       1.521  -2.506 -10.774  0.00  0.00    -0.030 C 
ATOM     11  H   LIG d   1       1.140  -1.797 -10.006  0.00  0.00     0.031 H 
ATOM     12  C   LIG d   1       2.960  -2.873 -10.373  0.00  0.00    -0.029 C 
ATOM     13  H   LIG d   1       3.490  -3.289 -11.229  0.00  0.00     0.031 H 
ATOM     14  C   LIG d   1       2.912  -3.902  -9.250  0.00  0.00    -0.049 C 
ATOM     15  C   LIG d   1       2.383  -5.249  -9.778  0.00  0.00    -0.042 C 
ATOM     16  C   LIG d   1       1.427  -5.038 -10.928  0.00  0.00     0.025 C 
ATOM     17  C   LIG d   1       0.647  -3.715 -10.766  0.00  0.00    -0.027 C 
ATOM     18  H   LIG d   1       0.122  -3.757  -9.784  0.00  0.00     0.031 H 
ATOM     19  C   LIG d   1      -0.427  -3.833 -11.855  0.00  0.00    -0.044 C 
ATOM     20  C   LIG d   1      -0.860  -5.324 -11.747  0.00  0.00     0.002 C 
ATOM     21  C   LIG d   1       0.264  -6.045 -10.976  0.00  0.00     0.176 C 
ATOM     22  O   LIG d   1       0.648  -7.250 -11.639  0.00  0.00    -0.346 OA
ATOM     23  C   LIG d   1       0.059  -8.342 -10.910  0.00  0.00     0.074 C 
ATOM     24  C   LIG d   1      -0.798  -7.674  -9.812  0.00  0.00     0.074 C 
ATOM     25  O   LIG d   1      -0.170  -6.378  -9.654  0.00  0.00    -0.346 OA
ATOM     26 CL   LIG d   1       3.916   2.915  -9.062  0.00  0.00    -0.121 Cl
ATOM     27  H   LIG d   1       2.420  -1.649  -8.233  0.00  0.00     0.027 H 
ATOM     28  H   LIG d   1       4.136  -1.342  -7.885  0.00  0.00     0.027 H 
ATOM     29  H   LIG d   1       2.106   0.567  -9.095  0.00  0.00     0.028 H 
ATOM     30  H   LIG d   1       2.958   0.735  -7.551  0.00  0.00     0.028 H 
ATOM     31  H   LIG d   1       5.192   0.680 -11.133  0.00  0.00     0.032 H 
ATOM     32  H   LIG d   1       3.689   1.609 -11.333  0.00  0.00     0.032 H 
ATOM     33  H   LIG d   1       2.367   0.296 -12.537  0.00  0.00     0.057 H 
ATOM     34  H   LIG d   1       2.003  -2.367 -12.879  0.00  0.00     0.031 H 
ATOM     35  H   LIG d   1       0.596  -1.396 -12.376  0.00  0.00     0.031 H 
ATOM     36  H   LIG d   1       2.247  -3.550  -8.458  0.00  0.00     0.027 H 
ATOM     37  H   LIG d   1       3.909  -4.048  -8.834  0.00  0.00     0.027 H 
ATOM     38  H   LIG d   1       1.866  -5.768  -8.963  0.00  0.00     0.027 H 
ATOM     39  H   LIG d   1       3.220  -5.873 -10.101  0.00  0.00     0.027 H 
ATOM     40  H   LIG d   1      -1.271  -3.178 -11.626  0.00  0.00     0.027 H 
ATOM     41  H   LIG d   1      -0.035  -3.608 -12.842  0.00  0.00     0.027 H 
ATOM     42  H   LIG d   1      -0.978  -5.755 -12.740  0.00  0.00     0.032 H 
ATOM     43  H   LIG d   1      -1.796  -5.399 -11.194  0.00  0.00     0.032 H 
ATOM     44  H   LIG d   1      -0.571  -8.943 -11.566  0.00  0.00     0.058 H 
ATOM     45  H   LIG d   1       0.836  -8.960 -10.462  0.00  0.00     0.058 H 
ATOM     46  H   LIG d   1      -1.831  -7.565 -10.141  0.00  0.00     0.058 H 
ATOM     47  H   LIG d   1      -0.749  -8.244  -8.884  0.00  0.00     0.058 H 
ENDROOT
BRANCH  16  48
ATOM     48  C   LIG d   1       2.155  -5.131 -12.269  0.00  0.00    -0.054 C 
ATOM     49  H   LIG d   1       1.781  -5.990 -12.827  0.00  0.00     0.024 H 
ATOM     50  H   LIG d   1       1.979  -4.221 -12.842  0.00  0.00     0.024 H 
ATOM     51  H   LIG d   1       3.224  -5.250 -12.095  0.00  0.00     0.024 H 
ENDBRANCH  16  48
BRANCH   1  52
ATOM     52  C   LIG d   1       5.195  -1.877 -10.013  0.00  0.00    -0.056 C 
ATOM     53  H   LIG d   1       5.368  -2.875 -10.417  0.00  0.00     0.024 H 
ATOM     54  H   LIG d   1       5.684  -1.138 -10.648  0.00  0.00     0.024 H 
ATOM     55  H   LIG d   1       5.604  -1.817  -9.004  0.00  0.00     0.024 H 
ENDBRANCH   1  52
TORSDOF 2
ENDMDL
MODEL 8
REMARK VINA RESULT:      -5.4      5.074      7.753
REMARK  2 active torsions:
REMARK  status: ('A' for Active; 'I' for Inactive)
REMARK    1  A    between atoms: C_1  and  C_2 
REMARK    2  A    between atoms: C_17  and  C_27 
ROOT
ATOM      1  C   LIG d   1       6.306  -1.577  -4.289  0.00  0.00    -0.008 C 
ATOM      2  C   LIG d   1       5.416  -1.798  -3.073  0.00  0.00    -0.042 C 
ATOM      3  C   LIG d   1       3.948  -1.610  -3.459  0.00  0.00    -0.036 C 
ATOM      4  C   LIG d   1       3.735  -0.311  -4.232  0.00  0.00     0.038 C 
ATOM      5  H   LIG d   1       4.159   0.523  -3.668  0.00  0.00     0.047 H 
ATOM      6  C   LIG d   1       4.422  -0.403  -5.601  0.00  0.00    -0.015 C 
ATOM      7  C   LIG d   1       5.428  -1.539  -5.520  0.00  0.00    -0.066 C 
ATOM      8  C   LIG d   1       5.466  -2.416  -6.477  0.00  0.00    -0.084 C 
ATOM      9  C   LIG d   1       6.369  -3.622  -6.469  0.00  0.00    -0.031 C 
ATOM     10  C   LIG d   1       6.727  -3.915  -5.014  0.00  0.00    -0.030 C 
ATOM     11  H   LIG d   1       5.772  -4.071  -4.468  0.00  0.00     0.031 H 
ATOM     12  C   LIG d   1       7.378  -2.650  -4.430  0.00  0.00    -0.029 C 
ATOM     13  H   LIG d   1       8.128  -2.265  -5.121  0.00  0.00     0.031 H 
ATOM     14  C   LIG d   1       8.037  -3.001  -3.102  0.00  0.00    -0.049 C 
ATOM     15  C   LIG d   1       9.264  -3.904  -3.334  0.00  0.00    -0.042 C 
ATOM     16  C   LIG d   1       9.082  -4.753  -4.569  0.00  0.00     0.025 C 
ATOM     17  C   LIG d   1       7.595  -5.107  -4.785  0.00  0.00    -0.027 C 
ATOM     18  H   LIG d   1       7.239  -5.624  -3.864  0.00  0.00     0.031 H 
ATOM     19  C   LIG d   1       7.668  -6.167  -5.893  0.00  0.00    -0.044 C 
ATOM     20  C   LIG d   1       8.898  -7.021  -5.466  0.00  0.00     0.002 C 
ATOM     21  C   LIG d   1       9.694  -6.162  -4.464  0.00  0.00     0.176 C 
ATOM     22  O   LIG d   1      11.084  -6.149  -4.791  0.00  0.00    -0.346 OA
ATOM     23  C   LIG d   1      11.744  -7.036  -3.871  0.00  0.00     0.074 C 
ATOM     24  C   LIG d   1      10.608  -7.659  -3.030  0.00  0.00     0.074 C 
ATOM     25  O   LIG d   1       9.548  -6.676  -3.137  0.00  0.00    -0.346 OA
ATOM     26 CL   LIG d   1       1.969  -0.029  -4.464  0.00  0.00    -0.121 Cl
ATOM     27  H   LIG d   1       5.558  -2.807  -2.689  0.00  0.00     0.027 H 
ATOM     28  H   LIG d   1       5.678  -1.078  -2.296  0.00  0.00     0.027 H 
ATOM     29  H   LIG d   1       3.633  -2.452  -4.074  0.00  0.00     0.028 H 
ATOM     30  H   LIG d   1       3.336  -1.590  -2.555  0.00  0.00     0.028 H 
ATOM     31  H   LIG d   1       4.918   0.533  -5.843  0.00  0.00     0.032 H 
ATOM     32  H   LIG d   1       3.678  -0.628  -6.370  0.00  0.00     0.032 H 
ATOM     33  H   LIG d   1       4.815  -2.277  -7.324  0.00  0.00     0.057 H 
ATOM     34  H   LIG d   1       7.261  -3.410  -7.050  0.00  0.00     0.031 H 
ATOM     35  H   LIG d   1       5.835  -4.469  -6.899  0.00  0.00     0.031 H 
ATOM     36  H   LIG d   1       7.324  -3.534  -2.469  0.00  0.00     0.027 H 
ATOM     37  H   LIG d   1       8.354  -2.093  -2.590  0.00  0.00     0.027 H 
ATOM     38  H   LIG d   1       9.393  -4.553  -2.460  0.00  0.00     0.027 H 
ATOM     39  H   LIG d   1      10.161  -3.288  -3.435  0.00  0.00     0.027 H 
ATOM     40  H   LIG d   1       6.764  -6.780  -5.889  0.00  0.00     0.027 H 
ATOM     41  H   LIG d   1       7.818  -5.724  -6.872  0.00  0.00     0.027 H 
ATOM     42  H   LIG d   1       9.510  -7.259  -6.335  0.00  0.00     0.032 H 
ATOM     43  H   LIG d   1       8.561  -7.938  -4.983  0.00  0.00     0.032 H 
ATOM     44  H   LIG d   1      12.284  -7.814  -4.410  0.00  0.00     0.058 H 
ATOM     45  H   LIG d   1      12.426  -6.477  -3.231  0.00  0.00     0.058 H 
ATOM     46  H   LIG d   1      10.294  -8.614  -3.452  0.00  0.00     0.058 H 
ATOM     47  H   LIG d   1      10.919  -7.783  -1.992  0.00  0.00     0.058 H 
ENDROOT
BRANCH  16  48
ATOM     48  C   LIG d   1       9.710  -4.083  -5.791  0.00  0.00    -0.054 C 
ATOM     49  H   LIG d   1       8.983  -4.050  -6.603  0.00  0.00     0.024 H 
ATOM     50  H   LIG d   1      10.012  -3.068  -5.533  0.00  0.00     0.024 H 
ATOM     51  H   LIG d   1      10.584  -4.651  -6.109  0.00  0.00     0.024 H 
ENDBRANCH  16  48
BRANCH   1  52
ATOM     52  C   LIG d   1       7.006  -0.221  -4.151  0.00  0.00    -0.056 C 
ATOM     53  H   LIG d   1       6.808   0.190  -3.160  0.00  0.00     0.024 H 
ATOM     54  H   LIG d   1       8.079  -0.350  -4.283  0.00  0.00     0.024 H 
ATOM     55  H   LIG d   1       6.625   0.463  -4.910  0.00  0.00     0.024 H 
ENDBRANCH   1  52
TORSDOF 2
ENDMDL
MODEL 9
REMARK VINA RESULT:      -5.4      4.677      6.465
REMARK  2 active torsions:
REMARK  status: ('A' for Active; 'I' for Inactive)
REMARK    1  A    between atoms: C_1  and  C_2 
REMARK    2  A    between atoms: C_17  and  C_27 
ROOT
ATOM      1  C   LIG d   1       8.707   1.115  -5.736  0.00  0.00    -0.008 C 
ATOM      2  C   LIG d   1      10.094   0.530  -5.503  0.00  0.00    -0.042 C 
ATOM      3  C   LIG d   1      10.833   1.345  -4.440  0.00  0.00    -0.036 C 
ATOM      4  C   LIG d   1      10.766   2.840  -4.736  0.00  0.00     0.038 C 
ATOM      5  H   LIG d   1      11.106   3.026  -5.757  0.00  0.00     0.047 H 
ATOM      6  C   LIG d   1       9.323   3.337  -4.579  0.00  0.00    -0.015 C 
ATOM      7  C   LIG d   1       8.422   2.114  -4.636  0.00  0.00    -0.066 C 
ATOM      8  C   LIG d   1       7.490   1.977  -3.742  0.00  0.00    -0.084 C 
ATOM      9  C   LIG d   1       6.587   0.773  -3.656  0.00  0.00    -0.031 C 
ATOM     10  C   LIG d   1       7.305  -0.387  -4.341  0.00  0.00    -0.030 C 
ATOM     11  H   LIG d   1       8.277  -0.522  -3.820  0.00  0.00     0.031 H 
ATOM     12  C   LIG d   1       7.622   0.046  -5.781  0.00  0.00    -0.029 C 
ATOM     13  H   LIG d   1       6.743   0.502  -6.236  0.00  0.00     0.031 H 
ATOM     14  C   LIG d   1       8.038  -1.179  -6.586  0.00  0.00    -0.049 C 
ATOM     15  C   LIG d   1       6.833  -2.113  -6.801  0.00  0.00    -0.042 C 
ATOM     16  C   LIG d   1       5.855  -2.004  -5.655  0.00  0.00     0.025 C 
ATOM     17  C   LIG d   1       6.585  -1.694  -4.331  0.00  0.00    -0.027 C 
ATOM     18  H   LIG d   1       7.335  -2.502  -4.167  0.00  0.00     0.031 H 
ATOM     19  C   LIG d   1       5.475  -1.896  -3.290  0.00  0.00    -0.044 C 
ATOM     20  C   LIG d   1       4.746  -3.168  -3.813  0.00  0.00     0.002 C 
ATOM     21  C   LIG d   1       5.158  -3.327  -5.289  0.00  0.00     0.176 C 
ATOM     22  O   LIG d   1       4.018  -3.559  -6.117  0.00  0.00    -0.346 OA
ATOM     23  C   LIG d   1       4.004  -4.962  -6.436  0.00  0.00     0.074 C 
ATOM     24  C   LIG d   1       5.181  -5.566  -5.638  0.00  0.00     0.074 C 
ATOM     25  O   LIG d   1       6.058  -4.429  -5.443  0.00  0.00    -0.346 OA
ATOM     26 CL   LIG d   1      11.835   3.730  -3.587  0.00  0.00    -0.121 Cl
ATOM     27  H   LIG d   1      10.008  -0.503  -5.166  0.00  0.00     0.027 H 
ATOM     28  H   LIG d   1      10.661   0.557  -6.435  0.00  0.00     0.027 H 
ATOM     29  H   LIG d   1      10.384   1.148  -3.467  0.00  0.00     0.028 H 
ATOM     30  H   LIG d   1      11.879   1.034  -4.410  0.00  0.00     0.028 H 
ATOM     31  H   LIG d   1       9.072   4.036  -5.373  0.00  0.00     0.032 H 
ATOM     32  H   LIG d   1       9.208   3.830  -3.611  0.00  0.00     0.032 H 
ATOM     33  H   LIG d   1       7.354   2.764  -3.020  0.00  0.00     0.057 H 
ATOM     34  H   LIG d   1       5.646   0.991  -4.152  0.00  0.00     0.031 H 
ATOM     35  H   LIG d   1       6.411   0.536  -2.607  0.00  0.00     0.031 H 
ATOM     36  H   LIG d   1       8.814  -1.726  -6.046  0.00  0.00     0.027 H 
ATOM     37  H   LIG d   1       8.431  -0.874  -7.555  0.00  0.00     0.027 H 
ATOM     38  H   LIG d   1       7.196  -3.146  -6.874  0.00  0.00     0.027 H 
ATOM     39  H   LIG d   1       6.334  -1.862  -7.741  0.00  0.00     0.027 H 
ATOM     40  H   LIG d   1       5.910  -2.087  -2.307  0.00  0.00     0.027 H 
ATOM     41  H   LIG d   1       4.800  -1.048  -3.243  0.00  0.00     0.027 H 
ATOM     42  H   LIG d   1       3.668  -3.045  -3.729  0.00  0.00     0.032 H 
ATOM     43  H   LIG d   1       5.068  -4.039  -3.242  0.00  0.00     0.032 H 
ATOM     44  H   LIG d   1       3.064  -5.416  -6.121  0.00  0.00     0.058 H 
ATOM     45  H   LIG d   1       4.156  -5.109  -7.505  0.00  0.00     0.058 H 
ATOM     46  H   LIG d   1       4.838  -5.959  -4.680  0.00  0.00     0.058 H 
ATOM     47  H   LIG d   1       5.679  -6.346  -6.214  0.00  0.00     0.058 H 
ENDROOT
BRANCH  16  48
ATOM     48  C   LIG d   1       4.754  -0.992  -5.971  0.00  0.00    -0.054 C 
ATOM     49  H   LIG d   1       5.178  -0.152  -6.522  0.00  0.00     0.024 H 
ATOM     50  H   LIG d   1       3.983  -1.470  -6.575  0.00  0.00     0.024 H 
ATOM     51  H   LIG d   1       4.314  -0.630  -5.042  0.00  0.00     0.024 H 
ENDBRANCH  16  48
BRANCH   1  52
ATOM     52  C   LIG d   1       8.702   1.857  -7.077  0.00  0.00    -0.056 C 
ATOM     53  H   LIG d   1       9.728   2.078  -7.373  0.00  0.00     0.024 H 
ATOM     54  H   LIG d   1       8.231   1.232  -7.836  0.00  0.00     0.024 H 
ATOM     55  H   LIG d   1       8.145   2.788  -6.974  0.00  0.00     0.024 H 
ENDBRANCH   1  52
TORSDOF 2
ENDMDL
MODEL 10
REMARK VINA RESULT:      -5.3      9.615     12.694
REMARK  2 active torsions:
REMARK  status: ('A' for Active; 'I' for Inactive)
REMARK    1  A    between atoms: C_1  and  C_2 
REMARK    2  A    between atoms: C_17  and  C_27 
ROOT
ATOM      1  C   LIG d   1      10.179   3.785  -4.013  0.00  0.00    -0.008 C 
ATOM      2  C   LIG d   1      11.517   3.080  -4.195  0.00  0.00    -0.042 C 
ATOM      3  C   LIG d   1      11.763   2.801  -5.679  0.00  0.00    -0.036 C 
ATOM      4  C   LIG d   1      10.551   2.141  -6.331  0.00  0.00     0.038 C 
ATOM      5  H   LIG d   1      10.258   1.262  -5.754  0.00  0.00     0.047 H 
ATOM      6  C   LIG d   1       9.382   3.134  -6.378  0.00  0.00    -0.015 C 
ATOM      7  C   LIG d   1       9.689   4.232  -5.373  0.00  0.00    -0.066 C 
ATOM      8  C   LIG d   1       9.543   5.472  -5.731  0.00  0.00    -0.084 C 
ATOM      9  C   LIG d   1       9.886   6.642  -4.845  0.00  0.00    -0.031 C 
ATOM     10  C   LIG d   1      10.901   6.154  -3.815  0.00  0.00    -0.030 C 
ATOM     11  H   LIG d   1      11.771   5.753  -4.378  0.00  0.00     0.031 H 
ATOM     12  C   LIG d   1      10.269   4.972  -3.061  0.00  0.00    -0.029 C 
ATOM     13  H   LIG d   1       9.250   5.221  -2.764  0.00  0.00     0.031 H 
ATOM     14  C   LIG d   1      11.105   4.670  -1.824  0.00  0.00    -0.049 C 
ATOM     15  C   LIG d   1      10.966   5.806  -0.793  0.00  0.00    -0.042 C 
ATOM     16  C   LIG d   1      10.707   7.127  -1.478  0.00  0.00     0.025 C 
ATOM     17  C   LIG d   1      11.401   7.182  -2.856  0.00  0.00    -0.027 C 
ATOM     18  H   LIG d   1      12.488   7.001  -2.689  0.00  0.00     0.031 H 
ATOM     19  C   LIG d   1      11.247   8.659  -3.241  0.00  0.00    -0.044 C 
ATOM     20  C   LIG d   1      11.526   9.393  -1.897  0.00  0.00     0.002 C 
ATOM     21  C   LIG d   1      11.360   8.337  -0.786  0.00  0.00     0.176 C 
ATOM     22  O   LIG d   1      10.541   8.833   0.273  0.00  0.00    -0.346 OA
ATOM     23  C   LIG d   1      11.418   9.185   1.358  0.00  0.00     0.074 C 
ATOM     24  C   LIG d   1      12.844   8.952   0.812  0.00  0.00     0.074 C 
ATOM     25  O   LIG d   1      12.633   7.979  -0.241  0.00  0.00    -0.346 OA
ATOM     26 CL   LIG d   1      10.973   1.632  -8.009  0.00  0.00    -0.121 Cl
ATOM     27  H   LIG d   1      12.321   3.707  -3.811  0.00  0.00     0.027 H 
ATOM     28  H   LIG d   1      11.506   2.135  -3.648  0.00  0.00     0.027 H 
ATOM     29  H   LIG d   1      11.979   3.741  -6.184  0.00  0.00     0.028 H 
ATOM     30  H   LIG d   1      12.627   2.142  -5.783  0.00  0.00     0.028 H 
ATOM     31  H   LIG d   1       8.449   2.635  -6.129  0.00  0.00     0.032 H 
ATOM     32  H   LIG d   1       9.307   3.566  -7.379  0.00  0.00     0.032 H 
ATOM     33  H   LIG d   1       9.158   5.678  -6.715  0.00  0.00     0.057 H 
ATOM     34  H   LIG d   1       8.985   7.003  -4.358  0.00  0.00     0.031 H 
ATOM     35  H   LIG d   1      10.324   7.432  -5.455  0.00  0.00     0.031 H 
ATOM     36  H   LIG d   1      12.157   4.579  -2.105  0.00  0.00     0.027 H 
ATOM     37  H   LIG d   1      10.778   3.735  -1.371  0.00  0.00     0.027 H 
ATOM     38  H   LIG d   1      11.894   5.871  -0.213  0.00  0.00     0.027 H 
ATOM     39  H   LIG d   1      10.150   5.580  -0.102  0.00  0.00     0.027 H 
ATOM     40  H   LIG d   1      11.997   8.936  -3.984  0.00  0.00     0.027 H 
ATOM     41  H   LIG d   1      10.252   8.883  -3.611  0.00  0.00     0.027 H 
ATOM     42  H   LIG d   1      10.817  10.207  -1.758  0.00  0.00     0.032 H 
ATOM     43  H   LIG d   1      12.545   9.780  -1.892  0.00  0.00     0.032 H 
ATOM     44  H   LIG d   1      11.286  10.233   1.631  0.00  0.00     0.058 H 
ATOM     45  H   LIG d   1      11.232   8.544   2.219  0.00  0.00     0.058 H 
ATOM     46  H   LIG d   1      13.259   9.876   0.408  0.00  0.00     0.058 H 
ATOM     47  H   LIG d   1      13.494   8.549   1.589  0.00  0.00     0.058 H 
ENDROOT
BRANCH  16  48
ATOM     48  C   LIG d   1       9.208   7.415  -1.562  0.00  0.00    -0.054 C 
ATOM     49  H   LIG d   1       8.775   7.381  -0.562  0.00  0.00     0.024 H 
ATOM     50  H   LIG d   1       9.052   8.404  -1.993  0.00  0.00     0.024 H 
ATOM     51  H   LIG d   1       8.728   6.665  -2.191  0.00  0.00     0.024 H 
ENDBRANCH  16  48
BRANCH   1  52
ATOM     52  C   LIG d   1       9.168   2.788  -3.437  0.00  0.00    -0.056 C 
ATOM     53  H   LIG d   1       8.992   3.016  -2.385  0.00  0.00     0.024 H 
ATOM     54  H   LIG d   1       8.230   2.863  -3.987  0.00  0.00     0.024 H 
ATOM     55  H   LIG d   1       9.565   1.776  -3.528  0.00  0.00     0.024 H 
ENDBRANCH   1  52
TORSDOF 2
ENDMDL
