MODEL 1
REMARK VINA RESULT:      -6.1      0.000      0.000
REMARK  4 active torsions:
REMARK  status: ('A' for Active; 'I' for Inactive)
REMARK    1  A    between atoms: C_1  and  O_2 
REMARK    2  A    between atoms: O_2  and  C_3 
REMARK    3  A    between atoms: C_6  and  C_9 
REMARK    4  A    between atoms: C_10  and  C_22 
ROOT
ATOM      1  C   LIG d   1       4.170  -2.093  -7.059  0.00  0.00     0.075 A 
ATOM      2  C   LIG d   1       3.899  -1.556  -8.316  0.00  0.00     0.007 A 
ATOM      3  C   LIG d   1       3.562  -2.488  -9.405  0.00  0.00     0.029 A 
ATOM      4  C   LIG d   1       3.280  -2.008 -10.687  0.00  0.00    -0.032 A 
ATOM      5  C   LIG d   1       2.967  -2.892 -11.696  0.00  0.00     0.043 A 
ATOM      6  C   LIG d   1       2.937  -4.257 -11.444  0.00  0.00    -0.021 A 
ATOM      7  C   LIG d   1       3.208  -4.744 -10.182  0.00  0.00     0.085 A 
ATOM      8  C   LIG d   1       3.527  -3.868  -9.149  0.00  0.00     0.158 A 
ATOM      9  O   LIG d   1       3.796  -4.347  -7.916  0.00  0.00    -0.420 OA
ATOM     10  C   LIG d   1       4.108  -3.544  -6.888  0.00  0.00     0.346 A 
ATOM     11  O   LIG d   1       4.342  -4.030  -5.796  0.00  0.00    -0.244 OA
ATOM     12 CL   LIG d   1       3.159  -6.454  -9.884  0.00  0.00    -0.080 Cl
ATOM     13 CL   LIG d   1       2.616  -2.298 -13.289  0.00  0.00    -0.084 Cl
ATOM     14  H   LIG d   1       3.307  -0.946 -10.887  0.00  0.00     0.064 H 
ATOM     15  H   LIG d   1       2.695  -4.943 -12.242  0.00  0.00     0.065 H 
ENDROOT
BRANCH   1  16
ATOM     16  C   LIG d   1       4.515  -1.212  -5.921  0.00  0.00    -0.010 A 
ATOM     17  C   LIG d   1       3.505  -0.674  -5.122  0.00  0.00    -0.050 A 
ATOM     18  C   LIG d   1       3.830   0.146  -4.063  0.00  0.00    -0.019 A 
ATOM     19  H   LIG d   1       2.470  -0.900  -5.333  0.00  0.00     0.062 H 
ATOM     20  C   LIG d   1       5.160   0.436  -3.790  0.00  0.00     0.120 A 
ATOM     21  H   LIG d   1       3.050   0.563  -3.444  0.00  0.00     0.065 H 
ATOM     22  C   LIG d   1       6.168  -0.098  -4.582  0.00  0.00    -0.019 A 
ATOM     23  C   LIG d   1       5.851  -0.923  -5.641  0.00  0.00    -0.050 A 
ATOM     24  H   LIG d   1       7.202   0.130  -4.367  0.00  0.00     0.065 H 
ATOM     25  H   LIG d   1       6.636  -1.340  -6.254  0.00  0.00     0.062 H 
BRANCH  20  26
ATOM     26  O   LIG d   1       5.477   1.244  -2.744  0.00  0.00    -0.495 OA
BRANCH  26  27
ATOM     27  C   LIG d   1       4.682   1.117  -1.563  0.00  0.00     0.079 C 
ATOM     28  H   LIG d   1       4.000   0.275  -1.673  0.00  0.00     0.066 H 
ATOM     29  H   LIG d   1       5.333   0.949  -0.704  0.00  0.00     0.066 H 
ATOM     30  H   LIG d   1       4.109   2.031  -1.410  0.00  0.00     0.066 H 
ENDBRANCH  26  27
ENDBRANCH  20  26
ENDBRANCH   1  16
BRANCH   2  31
ATOM     31  C   LIG d   1       3.946  -0.098  -8.548  0.00  0.00    -0.016 A 
ATOM     32  C   LIG d   1       5.142   0.512  -8.931  0.00  0.00    -0.054 A 
ATOM     33  C   LIG d   1       5.180   1.875  -9.146  0.00  0.00    -0.061 A 
ATOM     34  H   LIG d   1       6.036  -0.080  -9.057  0.00  0.00     0.062 H 
ATOM     35  C   LIG d   1       4.036   2.635  -8.984  0.00  0.00    -0.062 A 
ATOM     36  H   LIG d   1       6.105   2.348  -9.442  0.00  0.00     0.062 H 
ATOM     37  C   LIG d   1       2.847   2.037  -8.606  0.00  0.00    -0.061 A 
ATOM     38  H   LIG d   1       4.071   3.701  -9.154  0.00  0.00     0.062 H 
ATOM     39  C   LIG d   1       2.794   0.675  -8.392  0.00  0.00    -0.054 A 
ATOM     40  H   LIG d   1       1.958   2.637  -8.482  0.00  0.00     0.062 H 
ATOM     41  H   LIG d   1       1.864   0.209  -8.102  0.00  0.00     0.062 H 
ENDBRANCH   2  31
TORSDOF 4
ENDMDL
MODEL 2
REMARK VINA RESULT:      -6.0      1.527      1.939
REMARK  4 active torsions:
REMARK  status: ('A' for Active; 'I' for Inactive)
REMARK    1  A    between atoms: C_1  and  O_2 
REMARK    2  A    between atoms: O_2  and  C_3 
REMARK    3  A    between atoms: C_6  and  C_9 
REMARK    4  A    between atoms: C_10  and  C_22 
ROOT
ATOM      1  C   LIG d   1       4.081  -2.385  -8.054  0.00  0.00     0.075 A 
ATOM      2  C   LIG d   1       3.335  -1.697  -9.009  0.00  0.00     0.007 A 
ATOM      3  C   LIG d   1       2.440  -2.479  -9.879  0.00  0.00     0.029 A 
ATOM      4  C   LIG d   1       1.668  -1.843 -10.855  0.00  0.00    -0.032 A 
ATOM      5  C   LIG d   1       0.836  -2.588 -11.663  0.00  0.00     0.043 A 
ATOM      6  C   LIG d   1       0.768  -3.967 -11.512  0.00  0.00    -0.021 A 
ATOM      7  C   LIG d   1       1.522  -4.605 -10.549  0.00  0.00     0.085 A 
ATOM      8  C   LIG d   1       2.368  -3.872  -9.724  0.00  0.00     0.158 A 
ATOM      9  O   LIG d   1       3.108  -4.501  -8.785  0.00  0.00    -0.420 OA
ATOM     10  C   LIG d   1       3.938  -3.838  -7.967  0.00  0.00     0.346 A 
ATOM     11  O   LIG d   1       4.582  -4.456  -7.137  0.00  0.00    -0.244 OA
ATOM     12 CL   LIG d   1       1.418  -6.330 -10.371  0.00  0.00    -0.080 Cl
ATOM     13 CL   LIG d   1      -0.125  -1.801 -12.874  0.00  0.00    -0.084 Cl
ATOM     14  H   LIG d   1       1.722  -0.771 -10.977  0.00  0.00     0.064 H 
ATOM     15  H   LIG d   1       0.116  -4.543 -12.152  0.00  0.00     0.065 H 
ENDROOT
BRANCH   1  16
ATOM     16  C   LIG d   1       4.999  -1.660  -7.148  0.00  0.00    -0.010 A 
ATOM     17  C   LIG d   1       4.562  -1.260  -5.884  0.00  0.00    -0.050 A 
ATOM     18  C   LIG d   1       5.421  -0.585  -5.042  0.00  0.00    -0.019 A 
ATOM     19  H   LIG d   1       3.554  -1.479  -5.566  0.00  0.00     0.062 H 
ATOM     20  C   LIG d   1       6.718  -0.304  -5.451  0.00  0.00     0.120 A 
ATOM     21  H   LIG d   1       5.084  -0.275  -4.064  0.00  0.00     0.065 H 
ATOM     22  C   LIG d   1       7.156  -0.700  -6.707  0.00  0.00    -0.019 A 
ATOM     23  C   LIG d   1       6.305  -1.380  -7.553  0.00  0.00    -0.050 A 
ATOM     24  H   LIG d   1       8.165  -0.480  -7.021  0.00  0.00     0.065 H 
ATOM     25  H   LIG d   1       6.648  -1.691  -8.528  0.00  0.00     0.062 H 
BRANCH  20  26
ATOM     26  O   LIG d   1       7.561   0.361  -4.617  0.00  0.00    -0.495 OA
BRANCH  26  27
ATOM     27  C   LIG d   1       6.964   1.178  -3.608  0.00  0.00     0.079 C 
ATOM     28  H   LIG d   1       5.879   1.098  -3.670  0.00  0.00     0.066 H 
ATOM     29  H   LIG d   1       7.299   0.844  -2.626  0.00  0.00     0.066 H 
ATOM     30  H   LIG d   1       7.261   2.216  -3.759  0.00  0.00     0.066 H 
ENDBRANCH  26  27
ENDBRANCH  20  26
ENDBRANCH   1  16
BRANCH   2  31
ATOM     31  C   LIG d   1       3.438  -0.230  -9.144  0.00  0.00    -0.016 A 
ATOM     32  C   LIG d   1       2.690   0.605  -8.311  0.00  0.00    -0.054 A 
ATOM     33  C   LIG d   1       2.791   1.975  -8.442  0.00  0.00    -0.061 A 
ATOM     34  H   LIG d   1       2.033   0.180  -7.567  0.00  0.00     0.062 H 
ATOM     35  C   LIG d   1       3.632   2.522  -9.395  0.00  0.00    -0.062 A 
ATOM     36  H   LIG d   1       2.212   2.622  -7.799  0.00  0.00     0.062 H 
ATOM     37  C   LIG d   1       4.377   1.700 -10.222  0.00  0.00    -0.061 A 
ATOM     38  H   LIG d   1       3.707   3.594  -9.493  0.00  0.00     0.062 H 
ATOM     39  C   LIG d   1       4.290   0.329 -10.099  0.00  0.00    -0.054 A 
ATOM     40  H   LIG d   1       5.031   2.134 -10.964  0.00  0.00     0.062 H 
ATOM     41  H   LIG d   1       4.875  -0.311 -10.742  0.00  0.00     0.062 H 
ENDBRANCH   2  31
TORSDOF 4
ENDMDL
MODEL 3
REMARK VINA RESULT:      -5.8      2.984      6.250
REMARK  4 active torsions:
REMARK  status: ('A' for Active; 'I' for Inactive)
REMARK    1  A    between atoms: C_1  and  O_2 
REMARK    2  A    between atoms: O_2  and  C_3 
REMARK    3  A    between atoms: C_6  and  C_9 
REMARK    4  A    between atoms: C_10  and  C_22 
ROOT
ATOM      1  C   LIG d   1       4.317  -2.237  -9.450  0.00  0.00     0.075 A 
ATOM      2  C   LIG d   1       4.282  -1.312  -8.408  0.00  0.00     0.007 A 
ATOM      3  C   LIG d   1       4.413  -1.820  -7.031  0.00  0.00     0.029 A 
ATOM      4  C   LIG d   1       4.386  -0.939  -5.946  0.00  0.00    -0.032 A 
ATOM      5  C   LIG d   1       4.508  -1.429  -4.664  0.00  0.00     0.043 A 
ATOM      6  C   LIG d   1       4.653  -2.793  -4.449  0.00  0.00    -0.021 A 
ATOM      7  C   LIG d   1       4.686  -3.672  -5.512  0.00  0.00     0.085 A 
ATOM      8  C   LIG d   1       4.564  -3.198  -6.814  0.00  0.00     0.158 A 
ATOM      9  O   LIG d   1       4.592  -4.061  -7.852  0.00  0.00    -0.420 OA
ATOM     10  C   LIG d   1       4.479  -3.654  -9.125  0.00  0.00     0.346 A 
ATOM     11  O   LIG d   1       4.512  -4.476 -10.023  0.00  0.00    -0.244 OA
ATOM     12 CL   LIG d   1       4.875  -5.374  -5.223  0.00  0.00    -0.080 Cl
ATOM     13 CL   LIG d   1       4.475  -0.339  -3.315  0.00  0.00    -0.084 Cl
ATOM     14  H   LIG d   1       4.268   0.122  -6.111  0.00  0.00     0.064 H 
ATOM     15  H   LIG d   1       4.744  -3.169  -3.440  0.00  0.00     0.065 H 
ENDROOT
BRANCH   1  16
ATOM     16  C   LIG d   1       4.191  -1.794 -10.856  0.00  0.00    -0.010 A 
ATOM     17  C   LIG d   1       2.929  -1.683 -11.443  0.00  0.00    -0.050 A 
ATOM     18  C   LIG d   1       2.815  -1.270 -12.754  0.00  0.00    -0.019 A 
ATOM     19  H   LIG d   1       2.044  -1.920 -10.872  0.00  0.00     0.062 H 
ATOM     20  C   LIG d   1       3.953  -0.964 -13.488  0.00  0.00     0.120 A 
ATOM     21  H   LIG d   1       1.840  -1.184 -13.209  0.00  0.00     0.065 H 
ATOM     22  C   LIG d   1       5.210  -1.073 -12.908  0.00  0.00    -0.019 A 
ATOM     23  C   LIG d   1       5.332  -1.481 -11.596  0.00  0.00    -0.050 A 
ATOM     24  H   LIG d   1       6.093  -0.834 -13.483  0.00  0.00     0.065 H 
ATOM     25  H   LIG d   1       6.309  -1.562 -11.144  0.00  0.00     0.062 H 
BRANCH  20  26
ATOM     26  O   LIG d   1       3.837  -0.556 -14.780  0.00  0.00    -0.495 OA
BRANCH  26  27
ATOM     27  C   LIG d   1       5.050  -0.351 -15.507  0.00  0.00     0.079 C 
ATOM     28  H   LIG d   1       5.714  -1.202 -15.354  0.00  0.00     0.066 H 
ATOM     29  H   LIG d   1       4.824  -0.253 -16.569  0.00  0.00     0.066 H 
ATOM     30  H   LIG d   1       5.536   0.557 -15.153  0.00  0.00     0.066 H 
ENDBRANCH  26  27
ENDBRANCH  20  26
ENDBRANCH   1  16
BRANCH   2  31
ATOM     31  C   LIG d   1       4.121   0.131  -8.676  0.00  0.00    -0.016 A 
ATOM     32  C   LIG d   1       2.852   0.714  -8.637  0.00  0.00    -0.054 A 
ATOM     33  C   LIG d   1       2.709   2.063  -8.888  0.00  0.00    -0.061 A 
ATOM     34  H   LIG d   1       1.986   0.110  -8.412  0.00  0.00     0.062 H 
ATOM     35  C   LIG d   1       3.818   2.838  -9.177  0.00  0.00    -0.062 A 
ATOM     36  H   LIG d   1       1.728   2.515  -8.859  0.00  0.00     0.062 H 
ATOM     37  C   LIG d   1       5.078   2.267  -9.216  0.00  0.00    -0.061 A 
ATOM     38  H   LIG d   1       3.700   3.893  -9.373  0.00  0.00     0.062 H 
ATOM     39  C   LIG d   1       5.237   0.920  -8.962  0.00  0.00    -0.054 A 
ATOM     40  H   LIG d   1       5.939   2.878  -9.442  0.00  0.00     0.062 H 
ATOM     41  H   LIG d   1       6.221   0.477  -8.988  0.00  0.00     0.062 H 
ENDBRANCH   2  31
TORSDOF 4
ENDMDL
MODEL 4
REMARK VINA RESULT:      -5.8      4.196      6.852
REMARK  4 active torsions:
REMARK  status: ('A' for Active; 'I' for Inactive)
REMARK    1  A    between atoms: C_1  and  O_2 
REMARK    2  A    between atoms: O_2  and  C_3 
REMARK    3  A    between atoms: C_6  and  C_9 
REMARK    4  A    between atoms: C_10  and  C_22 
ROOT
ATOM      1  C   LIG d   1       6.893  -2.356  -6.570  0.00  0.00     0.075 A 
ATOM      2  C   LIG d   1       7.032  -2.635  -5.212  0.00  0.00     0.007 A 
ATOM      3  C   LIG d   1       8.169  -3.472  -4.793  0.00  0.00     0.029 A 
ATOM      4  C   LIG d   1       8.361  -3.784  -3.444  0.00  0.00    -0.032 A 
ATOM      5  C   LIG d   1       9.428  -4.569  -3.068  0.00  0.00     0.043 A 
ATOM      6  C   LIG d   1      10.311  -5.053  -4.025  0.00  0.00    -0.021 A 
ATOM      7  C   LIG d   1      10.136  -4.748  -5.358  0.00  0.00     0.085 A 
ATOM      8  C   LIG d   1       9.064  -3.957  -5.760  0.00  0.00     0.158 A 
ATOM      9  O   LIG d   1       8.892  -3.664  -7.067  0.00  0.00    -0.420 OA
ATOM     10  C   LIG d   1       7.875  -2.906  -7.503  0.00  0.00     0.346 A 
ATOM     11  O   LIG d   1       7.769  -2.672  -8.694  0.00  0.00    -0.244 OA
ATOM     12 CL   LIG d   1      11.253  -5.357  -6.540  0.00  0.00    -0.080 Cl
ATOM     13 CL   LIG d   1       9.669  -4.957  -1.394  0.00  0.00    -0.084 Cl
ATOM     14  H   LIG d   1       7.673  -3.412  -2.698  0.00  0.00     0.064 H 
ATOM     15  H   LIG d   1      11.143  -5.670  -3.721  0.00  0.00     0.065 H 
ENDROOT
BRANCH   1  16
ATOM     16  C   LIG d   1       5.772  -1.522  -7.058  0.00  0.00    -0.010 A 
ATOM     17  C   LIG d   1       5.943  -0.145  -7.216  0.00  0.00    -0.050 A 
ATOM     18  C   LIG d   1       4.897   0.629  -7.671  0.00  0.00    -0.019 A 
ATOM     19  H   LIG d   1       6.893   0.312  -6.983  0.00  0.00     0.062 H 
ATOM     20  C   LIG d   1       3.676   0.041  -7.972  0.00  0.00     0.120 A 
ATOM     21  H   LIG d   1       5.028   1.693  -7.794  0.00  0.00     0.065 H 
ATOM     22  C   LIG d   1       3.502  -1.328  -7.817  0.00  0.00    -0.019 A 
ATOM     23  C   LIG d   1       4.545  -2.110  -7.367  0.00  0.00    -0.050 A 
ATOM     24  H   LIG d   1       2.550  -1.782  -8.052  0.00  0.00     0.065 H 
ATOM     25  H   LIG d   1       4.410  -3.175  -7.249  0.00  0.00     0.062 H 
BRANCH  20  26
ATOM     26  O   LIG d   1       2.647   0.808  -8.422  0.00  0.00    -0.495 OA
BRANCH  26  27
ATOM     27  C   LIG d   1       2.914   2.197  -8.622  0.00  0.00     0.079 C 
ATOM     28  H   LIG d   1       2.220   2.598  -9.360  0.00  0.00     0.066 H 
ATOM     29  H   LIG d   1       2.790   2.730  -7.679  0.00  0.00     0.066 H 
ATOM     30  H   LIG d   1       3.936   2.323  -8.978  0.00  0.00     0.066 H 
ENDBRANCH  26  27
ENDBRANCH  20  26
ENDBRANCH   1  16
BRANCH   2  31
ATOM     31  C   LIG d   1       6.070  -2.106  -4.223  0.00  0.00    -0.016 A 
ATOM     32  C   LIG d   1       4.928  -2.840  -3.895  0.00  0.00    -0.054 A 
ATOM     33  C   LIG d   1       4.033  -2.340  -2.971  0.00  0.00    -0.061 A 
ATOM     34  H   LIG d   1       4.744  -3.795  -4.365  0.00  0.00     0.062 H 
ATOM     35  C   LIG d   1       4.266  -1.117  -2.370  0.00  0.00    -0.062 A 
ATOM     36  H   LIG d   1       3.149  -2.907  -2.717  0.00  0.00     0.062 H 
ATOM     37  C   LIG d   1       5.397  -0.385  -2.689  0.00  0.00    -0.061 A 
ATOM     38  H   LIG d   1       3.563  -0.730  -1.647  0.00  0.00     0.062 H 
ATOM     39  C   LIG d   1       6.302  -0.875  -3.608  0.00  0.00    -0.054 A 
ATOM     40  H   LIG d   1       5.572   0.569  -2.215  0.00  0.00     0.062 H 
ATOM     41  H   LIG d   1       7.186  -0.305  -3.853  0.00  0.00     0.062 H 
ENDBRANCH   2  31
TORSDOF 4
ENDMDL
MODEL 5
REMARK VINA RESULT:      -5.8     10.177     12.761
REMARK  4 active torsions:
REMARK  status: ('A' for Active; 'I' for Inactive)
REMARK    1  A    between atoms: C_1  and  O_2 
REMARK    2  A    between atoms: O_2  and  C_3 
REMARK    3  A    between atoms: C_6  and  C_9 
REMARK    4  A    between atoms: C_10  and  C_22 
ROOT
ATOM      1  C   LIG d   1      10.388   7.816  -1.764  0.00  0.00     0.075 A 
ATOM      2  C   LIG d   1      10.354   7.970  -3.149  0.00  0.00     0.007 A 
ATOM      3  C   LIG d   1      10.093   6.775  -3.969  0.00  0.00     0.029 A 
ATOM      4  C   LIG d   1      10.046   6.868  -5.363  0.00  0.00    -0.032 A 
ATOM      5  C   LIG d   1       9.802   5.741  -6.117  0.00  0.00     0.043 A 
ATOM      6  C   LIG d   1       9.608   4.514  -5.496  0.00  0.00    -0.021 A 
ATOM      7  C   LIG d   1       9.647   4.409  -4.121  0.00  0.00     0.085 A 
ATOM      8  C   LIG d   1       9.892   5.535  -3.341  0.00  0.00     0.158 A 
ATOM      9  O   LIG d   1       9.935   5.429  -1.996  0.00  0.00    -0.420 OA
ATOM     10  C   LIG d   1      10.168   6.484  -1.202  0.00  0.00     0.346 A 
ATOM     11  O   LIG d   1      10.194   6.331   0.007  0.00  0.00    -0.244 OA
ATOM     12 CL   LIG d   1       9.396   2.868  -3.362  0.00  0.00    -0.080 Cl
ATOM     13 CL   LIG d   1       9.742   5.854  -7.848  0.00  0.00    -0.084 Cl
ATOM     14  H   LIG d   1      10.201   7.821  -5.848  0.00  0.00     0.064 H 
ATOM     15  H   LIG d   1       9.421   3.635  -6.095  0.00  0.00     0.065 H 
ENDROOT
BRANCH   1  16
ATOM     16  C   LIG d   1      10.646   8.976  -0.883  0.00  0.00    -0.010 A 
ATOM     17  C   LIG d   1       9.584   9.769  -0.444  0.00  0.00    -0.050 A 
ATOM     18  C   LIG d   1       9.828  10.849   0.378  0.00  0.00    -0.019 A 
ATOM     19  H   LIG d   1       8.575   9.537  -0.747  0.00  0.00     0.062 H 
ATOM     20  C   LIG d   1      11.126  11.147   0.769  0.00  0.00     0.120 A 
ATOM     21  H   LIG d   1       9.008  11.463   0.719  0.00  0.00     0.065 H 
ATOM     22  C   LIG d   1      12.185  10.360   0.335  0.00  0.00    -0.019 A 
ATOM     23  C   LIG d   1      11.949   9.275  -0.483  0.00  0.00    -0.050 A 
ATOM     24  H   LIG d   1      13.194  10.595   0.641  0.00  0.00     0.065 H 
ATOM     25  H   LIG d   1      12.772   8.662  -0.817  0.00  0.00     0.062 H 
BRANCH  20  26
ATOM     26  O   LIG d   1      11.362  12.212   1.581  0.00  0.00    -0.495 OA
BRANCH  26  27
ATOM     27  C   LIG d   1      11.384  13.502   0.966  0.00  0.00     0.079 C 
ATOM     28  H   LIG d   1      11.272  14.271   1.730  0.00  0.00     0.066 H 
ATOM     29  H   LIG d   1      12.333  13.640   0.446  0.00  0.00     0.066 H 
ATOM     30  H   LIG d   1      10.565  13.578   0.251  0.00  0.00     0.066 H 
ENDBRANCH  26  27
ENDBRANCH  20  26
ENDBRANCH   1  16
BRANCH   2  31
ATOM     31  C   LIG d   1      10.570   9.290  -3.774  0.00  0.00    -0.016 A 
ATOM     32  C   LIG d   1      11.863   9.711  -4.095  0.00  0.00    -0.054 A 
ATOM     33  C   LIG d   1      12.058  10.946  -4.679  0.00  0.00    -0.061 A 
ATOM     34  H   LIG d   1      12.707   9.071  -3.886  0.00  0.00     0.062 H 
ATOM     35  C   LIG d   1      10.977  11.766  -4.947  0.00  0.00    -0.062 A 
ATOM     36  H   LIG d   1      13.057  11.272  -4.928  0.00  0.00     0.062 H 
ATOM     37  C   LIG d   1       9.693  11.355  -4.632  0.00  0.00    -0.061 A 
ATOM     38  H   LIG d   1      11.135  12.732  -5.404  0.00  0.00     0.062 H 
ATOM     39  C   LIG d   1       9.483  10.121  -4.053  0.00  0.00    -0.054 A 
ATOM     40  H   LIG d   1       8.854  12.001  -4.844  0.00  0.00     0.062 H 
ATOM     41  H   LIG d   1       8.480   9.800  -3.812  0.00  0.00     0.062 H 
ENDBRANCH   2  31
TORSDOF 4
ENDMDL
MODEL 6
REMARK VINA RESULT:      -5.7     12.174     16.345
REMARK  4 active torsions:
REMARK  status: ('A' for Active; 'I' for Inactive)
REMARK    1  A    between atoms: C_1  and  O_2 
REMARK    2  A    between atoms: O_2  and  C_3 
REMARK    3  A    between atoms: C_6  and  C_9 
REMARK    4  A    between atoms: C_10  and  C_22 
ROOT
ATOM      1  C   LIG d   1      11.262   7.350   1.223  0.00  0.00     0.075 A 
ATOM      2  C   LIG d   1      11.725   8.612   1.594  0.00  0.00     0.007 A 
ATOM      3  C   LIG d   1      11.927   8.876   3.029  0.00  0.00     0.029 A 
ATOM      4  C   LIG d   1      12.390  10.123   3.461  0.00  0.00    -0.032 A 
ATOM      5  C   LIG d   1      12.573  10.356   4.807  0.00  0.00     0.043 A 
ATOM      6  C   LIG d   1      12.296   9.358   5.732  0.00  0.00    -0.021 A 
ATOM      7  C   LIG d   1      11.844   8.123   5.318  0.00  0.00     0.085 A 
ATOM      8  C   LIG d   1      11.651   7.867   3.964  0.00  0.00     0.158 A 
ATOM      9  O   LIG d   1      11.204   6.657   3.562  0.00  0.00    -0.420 OA
ATOM     10  C   LIG d   1      11.003   6.363   2.270  0.00  0.00     0.346 A 
ATOM     11  O   LIG d   1      10.599   5.255   1.963  0.00  0.00    -0.244 OA
ATOM     12 CL   LIG d   1      11.509   6.886   6.490  0.00  0.00    -0.080 Cl
ATOM     13 CL   LIG d   1      13.148  11.902   5.346  0.00  0.00    -0.084 Cl
ATOM     14  H   LIG d   1      12.602  10.901   2.743  0.00  0.00     0.064 H 
ATOM     15  H   LIG d   1      12.439   9.551   6.785  0.00  0.00     0.065 H 
ENDROOT
BRANCH   1  16
ATOM     16  C   LIG d   1      11.037   7.019  -0.201  0.00  0.00    -0.010 A 
ATOM     17  C   LIG d   1       9.804   7.294  -0.796  0.00  0.00    -0.050 A 
ATOM     18  C   LIG d   1       9.598   6.984  -2.124  0.00  0.00    -0.019 A 
ATOM     19  H   LIG d   1       9.015   7.749  -0.218  0.00  0.00     0.062 H 
ATOM     20  C   LIG d   1      10.614   6.400  -2.868  0.00  0.00     0.120 A 
ATOM     21  H   LIG d   1       8.645   7.197  -2.585  0.00  0.00     0.065 H 
ATOM     22  C   LIG d   1      11.841   6.125  -2.280  0.00  0.00    -0.019 A 
ATOM     23  C   LIG d   1      12.057   6.436  -0.954  0.00  0.00    -0.050 A 
ATOM     24  H   LIG d   1      12.629   5.670  -2.862  0.00  0.00     0.065 H 
ATOM     25  H   LIG d   1      13.013   6.225  -0.499  0.00  0.00     0.062 H 
BRANCH  20  26
ATOM     26  O   LIG d   1      10.406   6.096  -4.177  0.00  0.00    -0.495 OA
BRANCH  26  27
ATOM     27  C   LIG d   1       9.095   6.326  -4.695  0.00  0.00     0.079 C 
ATOM     28  H   LIG d   1       8.410   5.577  -4.297  0.00  0.00     0.066 H 
ATOM     29  H   LIG d   1       8.757   7.321  -4.401  0.00  0.00     0.066 H 
ATOM     30  H   LIG d   1       9.116   6.258  -5.782  0.00  0.00     0.066 H 
ENDBRANCH  26  27
ENDBRANCH  20  26
ENDBRANCH   1  16
BRANCH   2  31
ATOM     31  C   LIG d   1      12.003   9.650   0.581  0.00  0.00    -0.016 A 
ATOM     32  C   LIG d   1      11.005  10.553   0.210  0.00  0.00    -0.054 A 
ATOM     33  C   LIG d   1      11.272  11.520  -0.738  0.00  0.00    -0.061 A 
ATOM     34  H   LIG d   1      10.026  10.494   0.662  0.00  0.00     0.062 H 
ATOM     35  C   LIG d   1      12.526  11.596  -1.318  0.00  0.00    -0.062 A 
ATOM     36  H   LIG d   1      10.501  12.219  -1.026  0.00  0.00     0.062 H 
ATOM     37  C   LIG d   1      13.520  10.705  -0.953  0.00  0.00    -0.061 A 
ATOM     38  H   LIG d   1      12.729  12.355  -2.059  0.00  0.00     0.062 H 
ATOM     39  C   LIG d   1      13.268   9.736  -0.004  0.00  0.00    -0.054 A 
ATOM     40  H   LIG d   1      14.496  10.771  -1.411  0.00  0.00     0.062 H 
ATOM     41  H   LIG d   1      14.046   9.045   0.283  0.00  0.00     0.062 H 
ENDBRANCH   2  31
TORSDOF 4
ENDMDL
MODEL 7
REMARK VINA RESULT:      -5.7     10.305     13.371
REMARK  4 active torsions:
REMARK  status: ('A' for Active; 'I' for Inactive)
REMARK    1  A    between atoms: C_1  and  O_2 
REMARK    2  A    between atoms: O_2  and  C_3 
REMARK    3  A    between atoms: C_6  and  C_9 
REMARK    4  A    between atoms: C_10  and  C_22 
ROOT
ATOM      1  C   LIG d   1      10.273   9.357  -3.179  0.00  0.00     0.075 A 
ATOM      2  C   LIG d   1      10.523   7.996  -3.346  0.00  0.00     0.007 A 
ATOM      3  C   LIG d   1      10.231   7.399  -4.660  0.00  0.00     0.029 A 
ATOM      4  C   LIG d   1      10.462   6.039  -4.887  0.00  0.00    -0.032 A 
ATOM      5  C   LIG d   1      10.183   5.494  -6.122  0.00  0.00     0.043 A 
ATOM      6  C   LIG d   1       9.671   6.291  -7.137  0.00  0.00    -0.021 A 
ATOM      7  C   LIG d   1       9.444   7.635  -6.927  0.00  0.00     0.085 A 
ATOM      8  C   LIG d   1       9.718   8.205  -5.688  0.00  0.00     0.158 A 
ATOM      9  O   LIG d   1       9.490   9.521  -5.484  0.00  0.00    -0.420 OA
ATOM     10  C   LIG d   1       9.738  10.116  -4.308  0.00  0.00     0.346 A 
ATOM     11  O   LIG d   1       9.514  11.307  -4.180  0.00  0.00    -0.244 OA
ATOM     12 CL   LIG d   1       8.809   8.617  -8.211  0.00  0.00    -0.080 Cl
ATOM     13 CL   LIG d   1      10.469   3.806  -6.407  0.00  0.00    -0.084 Cl
ATOM     14  H   LIG d   1      10.856   5.416  -4.097  0.00  0.00     0.064 H 
ATOM     15  H   LIG d   1       9.452   5.854  -8.100  0.00  0.00     0.065 H 
ENDROOT
BRANCH   1  16
ATOM     16  C   LIG d   1      10.543  10.020  -1.884  0.00  0.00    -0.010 A 
ATOM     17  C   LIG d   1      11.788  10.605  -1.644  0.00  0.00    -0.050 A 
ATOM     18  C   LIG d   1      12.036  11.221  -0.436  0.00  0.00    -0.019 A 
ATOM     19  H   LIG d   1      12.555  10.574  -2.403  0.00  0.00     0.062 H 
ATOM     20  C   LIG d   1      11.050  11.262   0.540  0.00  0.00     0.120 A 
ATOM     21  H   LIG d   1      12.999  11.674  -0.250  0.00  0.00     0.065 H 
ATOM     22  C   LIG d   1       9.810  10.682   0.306  0.00  0.00    -0.019 A 
ATOM     23  C   LIG d   1       9.553  10.067  -0.902  0.00  0.00    -0.050 A 
ATOM     24  H   LIG d   1       9.046  10.715   1.068  0.00  0.00     0.065 H 
ATOM     25  H   LIG d   1       8.588   9.620  -1.085  0.00  0.00     0.062 H 
BRANCH  20  26
ATOM     26  O   LIG d   1      11.298  11.872   1.730  0.00  0.00    -0.495 OA
BRANCH  26  27
ATOM     27  C   LIG d   1      12.563  11.609   2.341  0.00  0.00     0.079 C 
ATOM     28  H   LIG d   1      13.321  11.484   1.568  0.00  0.00     0.066 H 
ATOM     29  H   LIG d   1      12.835  12.444   2.986  0.00  0.00     0.066 H 
ATOM     30  H   LIG d   1      12.496  10.698   2.936  0.00  0.00     0.066 H 
ENDBRANCH  26  27
ENDBRANCH  20  26
ENDBRANCH   1  16
BRANCH   2  31
ATOM     31  C   LIG d   1      11.063   7.179  -2.240  0.00  0.00    -0.016 A 
ATOM     32  C   LIG d   1      10.196   6.552  -1.343  0.00  0.00    -0.054 A 
ATOM     33  C   LIG d   1      10.707   5.790  -0.313  0.00  0.00    -0.061 A 
ATOM     34  H   LIG d   1       9.127   6.664  -1.455  0.00  0.00     0.062 H 
ATOM     35  C   LIG d   1      12.075   5.647  -0.168  0.00  0.00    -0.062 A 
ATOM     36  H   LIG d   1      10.037   5.305   0.382  0.00  0.00     0.062 H 
ATOM     37  C   LIG d   1      12.940   6.265  -1.054  0.00  0.00    -0.061 A 
ATOM     38  H   LIG d   1      12.470   5.050   0.641  0.00  0.00     0.062 H 
ATOM     39  C   LIG d   1      12.443   7.025  -2.092  0.00  0.00    -0.054 A 
ATOM     40  H   LIG d   1      14.007   6.148  -0.934  0.00  0.00     0.062 H 
ATOM     41  H   LIG d   1      13.119   7.503  -2.785  0.00  0.00     0.062 H 
ENDBRANCH   2  31
TORSDOF 4
ENDMDL
MODEL 8
REMARK VINA RESULT:      -5.7     10.332     13.725
REMARK  4 active torsions:
REMARK  status: ('A' for Active; 'I' for Inactive)
REMARK    1  A    between atoms: C_1  and  O_2 
REMARK    2  A    between atoms: O_2  and  C_3 
REMARK    3  A    between atoms: C_6  and  C_9 
REMARK    4  A    between atoms: C_10  and  C_22 
ROOT
ATOM      1  C   LIG d   1      10.246   8.890  -4.463  0.00  0.00     0.075 A 
ATOM      2  C   LIG d   1      10.449   7.749  -3.689  0.00  0.00     0.007 A 
ATOM      3  C   LIG d   1      10.524   7.911  -2.228  0.00  0.00     0.029 A 
ATOM      4  C   LIG d   1      10.725   6.802  -1.401  0.00  0.00    -0.032 A 
ATOM      5  C   LIG d   1      10.794   6.970  -0.035  0.00  0.00     0.043 A 
ATOM      6  C   LIG d   1      10.668   8.236   0.520  0.00  0.00    -0.021 A 
ATOM      7  C   LIG d   1      10.464   9.338  -0.285  0.00  0.00     0.085 A 
ATOM      8  C   LIG d   1      10.392   9.190  -1.666  0.00  0.00     0.158 A 
ATOM      9  O   LIG d   1      10.197  10.272  -2.452  0.00  0.00    -0.420 OA
ATOM     10  C   LIG d   1      10.120  10.181  -3.787  0.00  0.00     0.346 A 
ATOM     11  O   LIG d   1       9.942  11.189  -4.448  0.00  0.00    -0.244 OA
ATOM     12 CL   LIG d   1      10.303  10.913   0.428  0.00  0.00    -0.080 Cl
ATOM     13 CL   LIG d   1      11.043   5.594   0.994  0.00  0.00    -0.084 Cl
ATOM     14  H   LIG d   1      10.828   5.816  -1.831  0.00  0.00     0.064 H 
ATOM     15  H   LIG d   1      10.727   8.358   1.591  0.00  0.00     0.065 H 
ENDROOT
BRANCH   1  16
ATOM     16  C   LIG d   1      10.162   8.797  -5.937  0.00  0.00    -0.010 A 
ATOM     17  C   LIG d   1       8.936   8.540  -6.552  0.00  0.00    -0.050 A 
ATOM     18  C   LIG d   1       8.861   8.454  -7.926  0.00  0.00    -0.019 A 
ATOM     19  H   LIG d   1       8.047   8.408  -5.953  0.00  0.00     0.062 H 
ATOM     20  C   LIG d   1      10.003   8.624  -8.697  0.00  0.00     0.120 A 
ATOM     21  H   LIG d   1       7.913   8.255  -8.403  0.00  0.00     0.065 H 
ATOM     22  C   LIG d   1      11.225   8.881  -8.090  0.00  0.00    -0.019 A 
ATOM     23  C   LIG d   1      11.306   8.973  -6.716  0.00  0.00    -0.050 A 
ATOM     24  H   LIG d   1      12.111   9.012  -8.692  0.00  0.00     0.065 H 
ATOM     25  H   LIG d   1      12.256   9.176  -6.244  0.00  0.00     0.062 H 
BRANCH  20  26
ATOM     26  O   LIG d   1       9.925   8.540 -10.052  0.00  0.00    -0.495 OA
BRANCH  26  27
ATOM     27  C   LIG d   1       9.918   7.229 -10.620  0.00  0.00     0.079 C 
ATOM     28  H   LIG d   1      10.660   6.610 -10.116  0.00  0.00     0.066 H 
ATOM     29  H   LIG d   1       8.929   6.785 -10.497  0.00  0.00     0.066 H 
ATOM     30  H   LIG d   1      10.158   7.291 -11.681  0.00  0.00     0.066 H 
ENDBRANCH  26  27
ENDBRANCH  20  26
ENDBRANCH   1  16
BRANCH   2  31
ATOM     31  C   LIG d   1      10.584   6.418  -4.316  0.00  0.00    -0.016 A 
ATOM     32  C   LIG d   1       9.451   5.636  -4.552  0.00  0.00    -0.054 A 
ATOM     33  C   LIG d   1       9.584   4.394  -5.138  0.00  0.00    -0.061 A 
ATOM     34  H   LIG d   1       8.474   6.002  -4.275  0.00  0.00     0.062 H 
ATOM     35  C   LIG d   1      10.836   3.923  -5.492  0.00  0.00    -0.062 A 
ATOM     36  H   LIG d   1       8.709   3.788  -5.321  0.00  0.00     0.062 H 
ATOM     37  C   LIG d   1      11.962   4.694  -5.263  0.00  0.00    -0.061 A 
ATOM     38  H   LIG d   1      10.934   2.951  -5.951  0.00  0.00     0.062 H 
ATOM     39  C   LIG d   1      11.844   5.940  -4.682  0.00  0.00    -0.054 A 
ATOM     40  H   LIG d   1      12.936   4.320  -5.543  0.00  0.00     0.062 H 
ATOM     41  H   LIG d   1      12.723   6.541  -4.508  0.00  0.00     0.062 H 
ENDBRANCH   2  31
TORSDOF 4
ENDMDL
MODEL 9
REMARK VINA RESULT:      -5.6      2.902      5.469
REMARK  4 active torsions:
REMARK  status: ('A' for Active; 'I' for Inactive)
REMARK    1  A    between atoms: C_1  and  O_2 
REMARK    2  A    between atoms: O_2  and  C_3 
REMARK    3  A    between atoms: C_6  and  C_9 
REMARK    4  A    between atoms: C_10  and  C_22 
ROOT
ATOM      1  C   LIG d   1       4.260  -4.215  -7.854  0.00  0.00     0.075 A 
ATOM      2  C   LIG d   1       4.314  -2.885  -7.440  0.00  0.00     0.007 A 
ATOM      3  C   LIG d   1       3.539  -1.893  -8.205  0.00  0.00     0.029 A 
ATOM      4  C   LIG d   1       3.554  -0.545  -7.835  0.00  0.00    -0.032 A 
ATOM      5  C   LIG d   1       2.826   0.372  -8.561  0.00  0.00     0.043 A 
ATOM      6  C   LIG d   1       2.082  -0.039  -9.659  0.00  0.00    -0.021 A 
ATOM      7  C   LIG d   1       2.055  -1.367 -10.031  0.00  0.00     0.085 A 
ATOM      8  C   LIG d   1       2.784  -2.309  -9.312  0.00  0.00     0.158 A 
ATOM      9  O   LIG d   1       2.759  -3.608  -9.681  0.00  0.00    -0.420 OA
ATOM     10  C   LIG d   1       3.444  -4.553  -9.020  0.00  0.00     0.346 A 
ATOM     11  O   LIG d   1       3.385  -5.710  -9.396  0.00  0.00    -0.244 OA
ATOM     12 CL   LIG d   1       1.114  -1.864 -11.403  0.00  0.00    -0.080 Cl
ATOM     13 CL   LIG d   1       2.842   2.046  -8.105  0.00  0.00    -0.084 Cl
ATOM     14  H   LIG d   1       4.136  -0.222  -6.984  0.00  0.00     0.064 H 
ATOM     15  H   LIG d   1       1.517   0.687 -10.225  0.00  0.00     0.065 H 
ENDROOT
BRANCH   1  16
ATOM     16  C   LIG d   1       5.014  -5.262  -7.131  0.00  0.00    -0.010 A 
ATOM     17  C   LIG d   1       4.401  -5.981  -6.103  0.00  0.00    -0.050 A 
ATOM     18  C   LIG d   1       5.107  -6.956  -5.431  0.00  0.00    -0.019 A 
ATOM     19  H   LIG d   1       3.376  -5.774  -5.835  0.00  0.00     0.062 H 
ATOM     20  C   LIG d   1       6.426  -7.223  -5.775  0.00  0.00     0.120 A 
ATOM     21  H   LIG d   1       4.634  -7.512  -4.636  0.00  0.00     0.065 H 
ATOM     22  C   LIG d   1       7.039  -6.510  -6.797  0.00  0.00    -0.019 A 
ATOM     23  C   LIG d   1       6.338  -5.536  -7.477  0.00  0.00    -0.050 A 
ATOM     24  H   LIG d   1       8.065  -6.720  -7.062  0.00  0.00     0.065 H 
ATOM     25  H   LIG d   1       6.814  -4.985  -8.274  0.00  0.00     0.062 H 
BRANCH  20  26
ATOM     26  O   LIG d   1       7.118  -8.186  -5.111  0.00  0.00    -0.495 OA
BRANCH  26  27
ATOM     27  C   LIG d   1       6.356  -9.110  -4.331  0.00  0.00     0.079 C 
ATOM     28  H   LIG d   1       5.762  -9.740  -4.993  0.00  0.00     0.066 H 
ATOM     29  H   LIG d   1       7.032  -9.733  -3.745  0.00  0.00     0.066 H 
ATOM     30  H   LIG d   1       5.695  -8.562  -3.661  0.00  0.00     0.066 H 
ENDBRANCH  26  27
ENDBRANCH  20  26
ENDBRANCH   1  16
BRANCH   2  31
ATOM     31  C   LIG d   1       5.121  -2.484  -6.269  0.00  0.00    -0.016 A 
ATOM     32  C   LIG d   1       6.437  -2.050  -6.441  0.00  0.00    -0.054 A 
ATOM     33  C   LIG d   1       7.186  -1.677  -5.344  0.00  0.00    -0.061 A 
ATOM     34  H   LIG d   1       6.869  -2.008  -7.430  0.00  0.00     0.062 H 
ATOM     35  C   LIG d   1       6.635  -1.732  -4.076  0.00  0.00    -0.062 A 
ATOM     36  H   LIG d   1       8.204  -1.341  -5.475  0.00  0.00     0.062 H 
ATOM     37  C   LIG d   1       5.330  -2.160  -3.899  0.00  0.00    -0.061 A 
ATOM     38  H   LIG d   1       7.225  -1.439  -3.220  0.00  0.00     0.062 H 
ATOM     39  C   LIG d   1       4.569  -2.531  -4.988  0.00  0.00    -0.054 A 
ATOM     40  H   LIG d   1       4.907  -2.200  -2.906  0.00  0.00     0.062 H 
ATOM     41  H   LIG d   1       3.550  -2.860  -4.849  0.00  0.00     0.062 H 
ENDBRANCH   2  31
TORSDOF 4
ENDMDL
MODEL 10
REMARK VINA RESULT:      -5.5      3.144      6.167
REMARK  4 active torsions:
REMARK  status: ('A' for Active; 'I' for Inactive)
REMARK    1  A    between atoms: C_1  and  O_2 
REMARK    2  A    between atoms: O_2  and  C_3 
REMARK    3  A    between atoms: C_6  and  C_9 
REMARK    4  A    between atoms: C_10  and  C_22 
ROOT
ATOM      1  C   LIG d   1       4.493  -2.173  -8.481  0.00  0.00     0.075 A 
ATOM      2  C   LIG d   1       4.872  -1.028  -7.783  0.00  0.00     0.007 A 
ATOM      3  C   LIG d   1       5.716  -1.197  -6.588  0.00  0.00     0.029 A 
ATOM      4  C   LIG d   1       6.128  -0.085  -5.848  0.00  0.00    -0.032 A 
ATOM      5  C   LIG d   1       6.917  -0.260  -4.732  0.00  0.00     0.043 A 
ATOM      6  C   LIG d   1       7.299  -1.535  -4.340  0.00  0.00    -0.021 A 
ATOM      7  C   LIG d   1       6.904  -2.641  -5.065  0.00  0.00     0.085 A 
ATOM      8  C   LIG d   1       6.106  -2.487  -6.194  0.00  0.00     0.158 A 
ATOM      9  O   LIG d   1       5.717  -3.571  -6.899  0.00  0.00    -0.420 OA
ATOM     10  C   LIG d   1       4.949  -3.474  -7.994  0.00  0.00     0.346 A 
ATOM     11  O   LIG d   1       4.628  -4.486  -8.593  0.00  0.00    -0.244 OA
ATOM     12 CL   LIG d   1       7.397  -4.228  -4.562  0.00  0.00    -0.080 Cl
ATOM     13 CL   LIG d   1       7.430   1.119  -3.812  0.00  0.00    -0.084 Cl
ATOM     14  H   LIG d   1       5.828   0.908  -6.149  0.00  0.00     0.064 H 
ATOM     15  H   LIG d   1       7.914  -1.663  -3.461  0.00  0.00     0.065 H 
ENDROOT
BRANCH   1  16
ATOM     16  C   LIG d   1       3.645  -2.074  -9.690  0.00  0.00    -0.010 A 
ATOM     17  C   LIG d   1       2.257  -2.177  -9.579  0.00  0.00    -0.050 A 
ATOM     18  C   LIG d   1       1.469  -2.084 -10.707  0.00  0.00    -0.019 A 
ATOM     19  H   LIG d   1       1.801  -2.329  -8.613  0.00  0.00     0.062 H 
ATOM     20  C   LIG d   1       2.055  -1.887 -11.951  0.00  0.00     0.120 A 
ATOM     21  H   LIG d   1       0.396  -2.163 -10.624  0.00  0.00     0.065 H 
ATOM     22  C   LIG d   1       3.435  -1.783 -12.065  0.00  0.00    -0.019 A 
ATOM     23  C   LIG d   1       4.229  -1.871 -10.940  0.00  0.00    -0.050 A 
ATOM     24  H   LIG d   1       3.887  -1.631 -13.033  0.00  0.00     0.065 H 
ATOM     25  H   LIG d   1       5.302  -1.787 -11.029  0.00  0.00     0.062 H 
BRANCH  20  26
ATOM     26  O   LIG d   1       1.275  -1.795 -13.061  0.00  0.00    -0.495 OA
BRANCH  26  27
ATOM     27  C   LIG d   1      -0.058  -2.301 -12.959  0.00  0.00     0.079 C 
ATOM     28  H   LIG d   1      -0.768  -1.489 -13.116  0.00  0.00     0.066 H 
ATOM     29  H   LIG d   1      -0.212  -3.070 -13.716  0.00  0.00     0.066 H 
ATOM     30  H   LIG d   1      -0.209  -2.730 -11.969  0.00  0.00     0.066 H 
ENDBRANCH  26  27
ENDBRANCH  20  26
ENDBRANCH   1  16
BRANCH   2  31
ATOM     31  C   LIG d   1       4.440   0.313  -8.228  0.00  0.00    -0.016 A 
ATOM     32  C   LIG d   1       5.282   1.091  -9.025  0.00  0.00    -0.054 A 
ATOM     33  C   LIG d   1       4.874   2.343  -9.437  0.00  0.00    -0.061 A 
ATOM     34  H   LIG d   1       6.252   0.715  -9.317  0.00  0.00     0.062 H 
ATOM     35  C   LIG d   1       3.633   2.827  -9.063  0.00  0.00    -0.062 A 
ATOM     36  H   LIG d   1       5.524   2.946 -10.054  0.00  0.00     0.062 H 
ATOM     37  C   LIG d   1       2.793   2.060  -8.274  0.00  0.00    -0.061 A 
ATOM     38  H   LIG d   1       3.318   3.807  -9.388  0.00  0.00     0.062 H 
ATOM     39  C   LIG d   1       3.187   0.805  -7.859  0.00  0.00    -0.054 A 
ATOM     40  H   LIG d   1       1.826   2.444  -7.986  0.00  0.00     0.062 H 
ATOM     41  H   LIG d   1       2.529   0.206  -7.248  0.00  0.00     0.062 H 
ENDBRANCH   2  31
TORSDOF 4
ENDMDL
