MODEL 1
REMARK VINA RESULT:      -5.1      0.000      0.000
REMARK  21 active torsions:
REMARK  status: ('A' for Active; 'I' for Inactive)
REMARK    1  A    between atoms: C_1  and  C_2 
REMARK    2  A    between atoms: C_2  and  C_3 
REMARK    3  A    between atoms: C_3  and  C_4 
REMARK    4  A    between atoms: C_4  and  O_5 
REMARK    5  A    between atoms: O_5  and  C_6 
REMARK    6  A    between atoms: C_6  and  C_7 
REMARK    7  A    between atoms: C_7  and  O_8 
REMARK    8  A    between atoms: O_8  and  C_9 
REMARK    9  A    between atoms: C_9  and  C_11 
REMARK   10  A    between atoms: C_11  and  C_12 
REMARK   11  A    between atoms: C_12  and  C_13 
REMARK   12  A    between atoms: C_13  and  C_14 
REMARK   13  A    between atoms: C_14  and  C_15 
REMARK   14  A    between atoms: C_15  and  O_17 
REMARK   15  A    between atoms: O_17  and  C_18 
REMARK   16  A    between atoms: C_18  and  C_19 
REMARK   17  A    between atoms: C_19  and  O_20 
REMARK   18  A    between atoms: O_20  and  C_21 
REMARK   19  A    between atoms: C_21  and  C_22 
REMARK   20  A    between atoms: C_22  and  C_23 
REMARK   21  A    between atoms: C_23  and  C_24 
ROOT
ATOM      1  C   LIG d   1       3.444  -1.642  -2.983  0.00  0.00    -0.043 C 
ATOM      2  H   LIG d   1       2.772  -2.426  -2.633  0.00  0.00     0.027 H 
ATOM      3  H   LIG d   1       4.027  -2.014  -3.826  0.00  0.00     0.027 H 
ENDROOT
BRANCH   1   4
ATOM      4  C   LIG d   1       2.625  -0.427  -3.425  0.00  0.00     0.045 C 
ATOM      5  H   LIG d   1       2.776   0.389  -2.718  0.00  0.00     0.038 H 
ATOM      6  H   LIG d   1       1.568  -0.693  -3.452  0.00  0.00     0.038 H 
BRANCH   4   7
ATOM      7  C   LIG d   1       3.070   0.006  -4.797  0.00  0.00     0.307 C 
ATOM      8  O   LIG d   1       2.641   1.029  -5.276  0.00  0.00    -0.251 OA
BRANCH   7   9
ATOM      9  O   LIG d   1       3.944  -0.743  -5.487  0.00  0.00    -0.462 OA
BRANCH   9  10
ATOM     10  C   LIG d   1       3.841  -0.710  -6.935  0.00  0.00     0.116 C 
ATOM     11  H   LIG d   1       3.162   0.087  -7.233  0.00  0.00     0.072 H 
ATOM     12  H   LIG d   1       3.459  -1.666  -7.294  0.00  0.00     0.072 H 
BRANCH  10  13
ATOM     13  C   LIG d   1       5.224  -0.455  -7.538  0.00  0.00     0.082 C 
ATOM     14  H   LIG d   1       5.919  -1.219  -7.189  0.00  0.00     0.059 H 
ATOM     15  H   LIG d   1       5.579   0.528  -7.229  0.00  0.00     0.059 H 
BRANCH  13  16
ATOM     16  O   LIG d   1       5.139  -0.504  -8.963  0.00  0.00    -0.376 OA
BRANCH  16  17
ATOM     17  C   LIG d   1       3.935   0.056  -9.494  0.00  0.00     0.048 C 
ATOM     18  H   LIG d   1       3.448  -0.676 -10.139  0.00  0.00     0.056 H 
ATOM     19  H   LIG d   1       3.267   0.321  -8.675  0.00  0.00     0.056 H 
BRANCH  17  20
ATOM     20  C   LIG d   1       4.269   1.308 -10.306  0.00  0.00    -0.030 C 
ATOM     21  H   LIG d   1       5.318   1.281 -10.603  0.00  0.00     0.029 H 
ATOM     22  H   LIG d   1       3.641   1.342 -11.196  0.00  0.00     0.029 H 
BRANCH  20  23
ATOM     23  C   LIG d   1       4.012   2.552  -9.455  0.00  0.00    -0.054 C 
ATOM     24  H   LIG d   1       4.891   2.766  -8.847  0.00  0.00     0.026 H 
ATOM     25  H   LIG d   1       3.808   3.403 -10.107  0.00  0.00     0.026 H 
BRANCH  23  26
ATOM     26  C   LIG d   1       2.808   2.308  -8.544  0.00  0.00    -0.065 C 
ATOM     27  H   LIG d   1       1.897   2.292  -9.142  0.00  0.00     0.023 H 
ATOM     28  H   LIG d   1       2.926   1.351  -8.035  0.00  0.00     0.023 H 
ATOM     29  H   LIG d   1       2.743   3.107  -7.805  0.00  0.00     0.023 H 
ENDBRANCH  23  26
ENDBRANCH  20  23
ENDBRANCH  17  20
ENDBRANCH  16  17
ENDBRANCH  13  16
ENDBRANCH  10  13
ENDBRANCH   9  10
ENDBRANCH   7   9
ENDBRANCH   4   7
ENDBRANCH   1   4
BRANCH   1  30
ATOM     30  C   LIG d   1       4.388  -1.237  -1.850  0.00  0.00    -0.043 C 
ATOM     31  H   LIG d   1       3.953  -1.524  -0.893  0.00  0.00     0.027 H 
ATOM     32  H   LIG d   1       5.346  -1.739  -1.979  0.00  0.00     0.027 H 
BRANCH  30  33
ATOM     33  C   LIG d   1       4.599   0.279  -1.880  0.00  0.00     0.045 C 
ATOM     34  H   LIG d   1       3.722   0.760  -2.313  0.00  0.00     0.038 H 
ATOM     35  H   LIG d   1       4.751   0.644  -0.864  0.00  0.00     0.038 H 
BRANCH  33  36
ATOM     36  C   LIG d   1       5.812   0.600  -2.716  0.00  0.00     0.307 C 
ATOM     37  O   LIG d   1       5.952   1.708  -3.175  0.00  0.00    -0.251 OA
BRANCH  36  38
ATOM     38  O   LIG d   1       6.737  -0.345  -2.946  0.00  0.00    -0.462 OA
BRANCH  38  39
ATOM     39  C   LIG d   1       7.199  -0.496  -4.315  0.00  0.00     0.116 C 
ATOM     40  H   LIG d   1       6.524   0.036  -4.987  0.00  0.00     0.072 H 
ATOM     41  H   LIG d   1       8.202  -0.081  -4.408  0.00  0.00     0.072 H 
BRANCH  39  42
ATOM     42  C   LIG d   1       7.224  -1.979  -4.686  0.00  0.00     0.082 C 
ATOM     43  H   LIG d   1       6.225  -2.296  -4.986  0.00  0.00     0.059 H 
ATOM     44  H   LIG d   1       7.919  -2.135  -5.512  0.00  0.00     0.059 H 
BRANCH  42  45
ATOM     45  O   LIG d   1       7.648  -2.746  -3.556  0.00  0.00    -0.376 OA
BRANCH  45  46
ATOM     46  C   LIG d   1       8.835  -3.509  -3.784  0.00  0.00     0.048 C 
ATOM     47  H   LIG d   1       8.592  -4.387  -4.381  0.00  0.00     0.056 H 
ATOM     48  H   LIG d   1       9.563  -2.896  -4.317  0.00  0.00     0.056 H 
BRANCH  46  49
ATOM     49  C   LIG d   1       9.424  -3.948  -2.442  0.00  0.00    -0.030 C 
ATOM     50  H   LIG d   1      10.059  -3.156  -2.047  0.00  0.00     0.029 H 
ATOM     51  H   LIG d   1       8.615  -4.150  -1.740  0.00  0.00     0.029 H 
BRANCH  49  52
ATOM     52  C   LIG d   1      10.255  -5.217  -2.642  0.00  0.00    -0.054 C 
ATOM     53  H   LIG d   1      10.035  -5.645  -3.620  0.00  0.00     0.026 H 
ATOM     54  H   LIG d   1      11.315  -4.970  -2.582  0.00  0.00     0.026 H 
BRANCH  52  55
ATOM     55  C   LIG d   1       9.906  -6.232  -1.551  0.00  0.00    -0.065 C 
ATOM     56  H   LIG d   1      10.405  -5.954  -0.623  0.00  0.00     0.023 H 
ATOM     57  H   LIG d   1       8.826  -6.241  -1.395  0.00  0.00     0.023 H 
ATOM     58  H   LIG d   1      10.236  -7.224  -1.859  0.00  0.00     0.023 H 
ENDBRANCH  52  55
ENDBRANCH  49  52
ENDBRANCH  46  49
ENDBRANCH  45  46
ENDBRANCH  42  45
ENDBRANCH  39  42
ENDBRANCH  38  39
ENDBRANCH  36  38
ENDBRANCH  33  36
ENDBRANCH  30  33
ENDBRANCH   1  30
TORSDOF 21
ENDMDL
MODEL 2
REMARK VINA RESULT:      -5.1      3.497      6.792
REMARK  21 active torsions:
REMARK  status: ('A' for Active; 'I' for Inactive)
REMARK    1  A    between atoms: C_1  and  C_2 
REMARK    2  A    between atoms: C_2  and  C_3 
REMARK    3  A    between atoms: C_3  and  C_4 
REMARK    4  A    between atoms: C_4  and  O_5 
REMARK    5  A    between atoms: O_5  and  C_6 
REMARK    6  A    between atoms: C_6  and  C_7 
REMARK    7  A    between atoms: C_7  and  O_8 
REMARK    8  A    between atoms: O_8  and  C_9 
REMARK    9  A    between atoms: C_9  and  C_11 
REMARK   10  A    between atoms: C_11  and  C_12 
REMARK   11  A    between atoms: C_12  and  C_13 
REMARK   12  A    between atoms: C_13  and  C_14 
REMARK   13  A    between atoms: C_14  and  C_15 
REMARK   14  A    between atoms: C_15  and  O_17 
REMARK   15  A    between atoms: O_17  and  C_18 
REMARK   16  A    between atoms: C_18  and  C_19 
REMARK   17  A    between atoms: C_19  and  O_20 
REMARK   18  A    between atoms: O_20  and  C_21 
REMARK   19  A    between atoms: C_21  and  C_22 
REMARK   20  A    between atoms: C_22  and  C_23 
REMARK   21  A    between atoms: C_23  and  C_24 
ROOT
ATOM      1  C   LIG d   1       5.470  -1.514  -3.375  0.00  0.00    -0.043 C 
ATOM      2  H   LIG d   1       4.979  -1.125  -4.267  0.00  0.00     0.027 H 
ATOM      3  H   LIG d   1       5.749  -2.555  -3.537  0.00  0.00     0.027 H 
ENDROOT
BRANCH   1   4
ATOM      4  C   LIG d   1       6.725  -0.689  -3.081  0.00  0.00     0.045 C 
ATOM      5  H   LIG d   1       7.610  -1.288  -3.290  0.00  0.00     0.038 H 
ATOM      6  H   LIG d   1       6.727  -0.392  -2.033  0.00  0.00     0.038 H 
BRANCH   4   7
ATOM      7  C   LIG d   1       6.733   0.541  -3.952  0.00  0.00     0.307 C 
ATOM      8  O   LIG d   1       6.265   0.495  -5.065  0.00  0.00    -0.251 OA
BRANCH   7   9
ATOM      9  O   LIG d   1       7.258   1.686  -3.491  0.00  0.00    -0.462 OA
BRANCH   9  10
ATOM     10  C   LIG d   1       8.684   1.882  -3.683  0.00  0.00     0.116 C 
ATOM     11  H   LIG d   1       9.185   0.915  -3.689  0.00  0.00     0.072 H 
ATOM     12  H   LIG d   1       9.079   2.492  -2.870  0.00  0.00     0.072 H 
BRANCH  10  13
ATOM     13  C   LIG d   1       8.926   2.592  -5.017  0.00  0.00     0.082 C 
ATOM     14  H   LIG d   1       8.085   2.405  -5.685  0.00  0.00     0.059 H 
ATOM     15  H   LIG d   1       9.841   2.211  -5.470  0.00  0.00     0.059 H 
BRANCH  13  16
ATOM     16  O   LIG d   1       9.054   3.997  -4.793  0.00  0.00    -0.376 OA
BRANCH  16  17
ATOM     17  C   LIG d   1       9.726   4.694  -5.844  0.00  0.00     0.048 C 
ATOM     18  H   LIG d   1      10.512   4.060  -6.257  0.00  0.00     0.056 H 
ATOM     19  H   LIG d   1       9.013   4.946  -6.628  0.00  0.00     0.056 H 
BRANCH  17  20
ATOM     20  C   LIG d   1      10.347   5.978  -5.289  0.00  0.00    -0.030 C 
ATOM     21  H   LIG d   1      10.873   5.755  -4.360  0.00  0.00     0.029 H 
ATOM     22  H   LIG d   1      11.050   6.384  -6.016  0.00  0.00     0.029 H 
BRANCH  20  23
ATOM     23  C   LIG d   1       9.245   7.003  -5.019  0.00  0.00    -0.054 C 
ATOM     24  H   LIG d   1       8.273   6.514  -5.070  0.00  0.00     0.026 H 
ATOM     25  H   LIG d   1       9.383   7.431  -4.025  0.00  0.00     0.026 H 
BRANCH  23  26
ATOM     26  C   LIG d   1       9.314   8.115  -6.067  0.00  0.00    -0.065 C 
ATOM     27  H   LIG d   1       9.959   7.801  -6.888  0.00  0.00     0.023 H 
ATOM     28  H   LIG d   1       8.313   8.316  -6.448  0.00  0.00     0.023 H 
ATOM     29  H   LIG d   1       9.718   9.019  -5.612  0.00  0.00     0.023 H 
ENDBRANCH  23  26
ENDBRANCH  20  23
ENDBRANCH  17  20
ENDBRANCH  16  17
ENDBRANCH  13  16
ENDBRANCH  10  13
ENDBRANCH   9  10
ENDBRANCH   7   9
ENDBRANCH   4   7
ENDBRANCH   1   4
BRANCH   1  30
ATOM     30  C   LIG d   1       4.511  -1.424  -2.186  0.00  0.00    -0.043 C 
ATOM     31  H   LIG d   1       4.350  -2.419  -1.772  0.00  0.00     0.027 H 
ATOM     32  H   LIG d   1       4.940  -0.777  -1.421  0.00  0.00     0.027 H 
BRANCH  30  33
ATOM     33  C   LIG d   1       3.174  -0.844  -2.652  0.00  0.00     0.045 C 
ATOM     34  H   LIG d   1       2.877  -1.319  -3.587  0.00  0.00     0.038 H 
ATOM     35  H   LIG d   1       2.414  -1.028  -1.892  0.00  0.00     0.038 H 
BRANCH  33  36
ATOM     36  C   LIG d   1       3.318   0.641  -2.867  0.00  0.00     0.307 C 
ATOM     37  O   LIG d   1       3.546   1.368  -1.929  0.00  0.00    -0.251 OA
BRANCH  36  38
ATOM     38  O   LIG d   1       3.195   1.155  -4.101  0.00  0.00    -0.462 OA
BRANCH  38  39
ATOM     39  C   LIG d   1       2.388   0.407  -5.049  0.00  0.00     0.116 C 
ATOM     40  H   LIG d   1       2.014  -0.499  -4.572  0.00  0.00     0.072 H 
ATOM     41  H   LIG d   1       1.547   1.020  -5.372  0.00  0.00     0.072 H 
BRANCH  39  42
ATOM     42  C   LIG d   1       3.241   0.031  -6.262  0.00  0.00     0.082 C 
ATOM     43  H   LIG d   1       4.022   0.778  -6.403  0.00  0.00     0.059 H 
ATOM     44  H   LIG d   1       3.697  -0.945  -6.096  0.00  0.00     0.059 H 
BRANCH  42  45
ATOM     45  O   LIG d   1       2.415  -0.021  -7.427  0.00  0.00    -0.376 OA
BRANCH  45  46
ATOM     46  C   LIG d   1       3.020   0.541  -8.594  0.00  0.00     0.048 C 
ATOM     47  H   LIG d   1       4.083   0.303  -8.603  0.00  0.00     0.056 H 
ATOM     48  H   LIG d   1       2.546   0.126  -9.484  0.00  0.00     0.056 H 
BRANCH  46  49
ATOM     49  C   LIG d   1       2.837   2.060  -8.580  0.00  0.00    -0.030 C 
ATOM     50  H   LIG d   1       1.894   2.317  -9.064  0.00  0.00     0.029 H 
ATOM     51  H   LIG d   1       2.825   2.415  -7.550  0.00  0.00     0.029 H 
BRANCH  49  52
ATOM     52  C   LIG d   1       3.994   2.720  -9.334  0.00  0.00    -0.054 C 
ATOM     53  H   LIG d   1       3.771   2.734 -10.400  0.00  0.00     0.026 H 
ATOM     54  H   LIG d   1       4.125   3.741  -8.976  0.00  0.00     0.026 H 
BRANCH  52  55
ATOM     55  C   LIG d   1       5.279   1.925  -9.091  0.00  0.00    -0.065 C 
ATOM     56  H   LIG d   1       5.359   1.129  -9.830  0.00  0.00     0.023 H 
ATOM     57  H   LIG d   1       6.139   2.591  -9.178  0.00  0.00     0.023 H 
ATOM     58  H   LIG d   1       5.255   1.493  -8.091  0.00  0.00     0.023 H 
ENDBRANCH  52  55
ENDBRANCH  49  52
ENDBRANCH  46  49
ENDBRANCH  45  46
ENDBRANCH  42  45
ENDBRANCH  39  42
ENDBRANCH  38  39
ENDBRANCH  36  38
ENDBRANCH  33  36
ENDBRANCH  30  33
ENDBRANCH   1  30
TORSDOF 21
ENDMDL
MODEL 3
REMARK VINA RESULT:      -5.0      2.627      6.279
REMARK  21 active torsions:
REMARK  status: ('A' for Active; 'I' for Inactive)
REMARK    1  A    between atoms: C_1  and  C_2 
REMARK    2  A    between atoms: C_2  and  C_3 
REMARK    3  A    between atoms: C_3  and  C_4 
REMARK    4  A    between atoms: C_4  and  O_5 
REMARK    5  A    between atoms: O_5  and  C_6 
REMARK    6  A    between atoms: C_6  and  C_7 
REMARK    7  A    between atoms: C_7  and  O_8 
REMARK    8  A    between atoms: O_8  and  C_9 
REMARK    9  A    between atoms: C_9  and  C_11 
REMARK   10  A    between atoms: C_11  and  C_12 
REMARK   11  A    between atoms: C_12  and  C_13 
REMARK   12  A    between atoms: C_13  and  C_14 
REMARK   13  A    between atoms: C_14  and  C_15 
REMARK   14  A    between atoms: C_15  and  O_17 
REMARK   15  A    between atoms: O_17  and  C_18 
REMARK   16  A    between atoms: C_18  and  C_19 
REMARK   17  A    between atoms: C_19  and  O_20 
REMARK   18  A    between atoms: O_20  and  C_21 
REMARK   19  A    between atoms: C_21  and  C_22 
REMARK   20  A    between atoms: C_22  and  C_23 
REMARK   21  A    between atoms: C_23  and  C_24 
ROOT
ATOM      1  C   LIG d   1       2.753   0.204  -7.644  0.00  0.00    -0.043 C 
ATOM      2  H   LIG d   1       2.954  -0.367  -8.551  0.00  0.00     0.027 H 
ATOM      3  H   LIG d   1       1.714   0.061  -7.346  0.00  0.00     0.027 H 
ENDROOT
BRANCH   1   4
ATOM      4  C   LIG d   1       3.676  -0.276  -6.522  0.00  0.00     0.045 C 
ATOM      5  H   LIG d   1       4.689   0.082  -6.707  0.00  0.00     0.038 H 
ATOM      6  H   LIG d   1       3.677  -1.366  -6.495  0.00  0.00     0.038 H 
BRANCH   4   7
ATOM      7  C   LIG d   1       3.185   0.260  -5.203  0.00  0.00     0.307 C 
ATOM      8  O   LIG d   1       2.021   0.149  -4.901  0.00  0.00    -0.251 OA
BRANCH   7   9
ATOM      9  O   LIG d   1       4.041   0.862  -4.362  0.00  0.00    -0.462 OA
BRANCH   9  10
ATOM     10  C   LIG d   1       3.508   1.314  -3.090  0.00  0.00     0.116 C 
ATOM     11  H   LIG d   1       2.562   0.812  -2.894  0.00  0.00     0.072 H 
ATOM     12  H   LIG d   1       3.348   2.392  -3.125  0.00  0.00     0.072 H 
BRANCH  10  13
ATOM     13  C   LIG d   1       4.502   0.982  -1.975  0.00  0.00     0.082 C 
ATOM     14  H   LIG d   1       3.980   0.960  -1.018  0.00  0.00     0.059 H 
ATOM     15  H   LIG d   1       5.282   1.744  -1.945  0.00  0.00     0.059 H 
BRANCH  13  16
ATOM     16  O   LIG d   1       5.092  -0.294  -2.226  0.00  0.00    -0.376 OA
BRANCH  16  17
ATOM     17  C   LIG d   1       4.305  -1.398  -1.775  0.00  0.00     0.048 C 
ATOM     18  H   LIG d   1       4.793  -1.868  -0.921  0.00  0.00     0.056 H 
ATOM     19  H   LIG d   1       3.318  -1.044  -1.479  0.00  0.00     0.056 H 
BRANCH  17  20
ATOM     20  C   LIG d   1       4.162  -2.419  -2.905  0.00  0.00    -0.030 C 
ATOM     21  H   LIG d   1       4.047  -3.417  -2.482  0.00  0.00     0.029 H 
ATOM     22  H   LIG d   1       3.285  -2.176  -3.505  0.00  0.00     0.029 H 
BRANCH  20  23
ATOM     23  C   LIG d   1       5.409  -2.380  -3.790  0.00  0.00    -0.054 C 
ATOM     24  H   LIG d   1       5.569  -1.364  -4.148  0.00  0.00     0.026 H 
ATOM     25  H   LIG d   1       6.276  -2.700  -3.210  0.00  0.00     0.026 H 
BRANCH  23  26
ATOM     26  C   LIG d   1       5.218  -3.318  -4.983  0.00  0.00    -0.065 C 
ATOM     27  H   LIG d   1       5.521  -2.808  -5.898  0.00  0.00     0.023 H 
ATOM     28  H   LIG d   1       5.830  -4.210  -4.845  0.00  0.00     0.023 H 
ATOM     29  H   LIG d   1       4.169  -3.605  -5.056  0.00  0.00     0.023 H 
ENDBRANCH  23  26
ENDBRANCH  20  23
ENDBRANCH  17  20
ENDBRANCH  16  17
ENDBRANCH  13  16
ENDBRANCH  10  13
ENDBRANCH   9  10
ENDBRANCH   7   9
ENDBRANCH   4   7
ENDBRANCH   1   4
BRANCH   1  30
ATOM     30  C   LIG d   1       3.005   1.689  -7.911  0.00  0.00    -0.043 C 
ATOM     31  H   LIG d   1       2.321   2.289  -7.312  0.00  0.00     0.027 H 
ATOM     32  H   LIG d   1       4.033   1.937  -7.645  0.00  0.00     0.027 H 
BRANCH  30  33
ATOM     33  C   LIG d   1       2.778   1.987  -9.395  0.00  0.00     0.045 C 
ATOM     34  H   LIG d   1       1.992   1.337  -9.780  0.00  0.00     0.038 H 
ATOM     35  H   LIG d   1       2.480   3.029  -9.515  0.00  0.00     0.038 H 
BRANCH  33  36
ATOM     36  C   LIG d   1       4.054   1.738 -10.158  0.00  0.00     0.307 C 
ATOM     37  O   LIG d   1       4.020   1.160 -11.218  0.00  0.00    -0.251 OA
BRANCH  36  38
ATOM     38  O   LIG d   1       5.227   2.162  -9.660  0.00  0.00    -0.462 OA
BRANCH  38  39
ATOM     39  C   LIG d   1       6.237   1.151  -9.403  0.00  0.00     0.116 C 
ATOM     40  H   LIG d   1       5.762   0.259  -8.993  0.00  0.00     0.072 H 
ATOM     41  H   LIG d   1       6.742   0.897 -10.334  0.00  0.00     0.072 H 
BRANCH  39  42
ATOM     42  C   LIG d   1       7.257   1.693  -8.400  0.00  0.00     0.082 C 
ATOM     43  H   LIG d   1       8.243   1.290  -8.631  0.00  0.00     0.059 H 
ATOM     44  H   LIG d   1       7.285   2.781  -8.464  0.00  0.00     0.059 H 
BRANCH  42  45
ATOM     45  O   LIG d   1       6.879   1.303  -7.078  0.00  0.00    -0.376 OA
BRANCH  45  46
ATOM     46  C   LIG d   1       7.985   1.042  -6.211  0.00  0.00     0.048 C 
ATOM     47  H   LIG d   1       8.611   0.264  -6.645  0.00  0.00     0.056 H 
ATOM     48  H   LIG d   1       8.571   1.954  -6.086  0.00  0.00     0.056 H 
BRANCH  46  49
ATOM     49  C   LIG d   1       7.465   0.580  -4.848  0.00  0.00    -0.030 C 
ATOM     50  H   LIG d   1       6.419   0.288  -4.938  0.00  0.00     0.029 H 
ATOM     51  H   LIG d   1       8.052  -0.273  -4.506  0.00  0.00     0.029 H 
BRANCH  49  52
ATOM     52  C   LIG d   1       7.592   1.723  -3.840  0.00  0.00    -0.054 C 
ATOM     53  H   LIG d   1       7.017   2.581  -4.189  0.00  0.00     0.026 H 
ATOM     54  H   LIG d   1       7.209   1.399  -2.872  0.00  0.00     0.026 H 
BRANCH  52  55
ATOM     55  C   LIG d   1       9.063   2.119  -3.699  0.00  0.00    -0.065 C 
ATOM     56  H   LIG d   1       9.154   3.204  -3.736  0.00  0.00     0.023 H 
ATOM     57  H   LIG d   1       9.448   1.754  -2.746  0.00  0.00     0.023 H 
ATOM     58  H   LIG d   1       9.637   1.677  -4.514  0.00  0.00     0.023 H 
ENDBRANCH  52  55
ENDBRANCH  49  52
ENDBRANCH  46  49
ENDBRANCH  45  46
ENDBRANCH  42  45
ENDBRANCH  39  42
ENDBRANCH  38  39
ENDBRANCH  36  38
ENDBRANCH  33  36
ENDBRANCH  30  33
ENDBRANCH   1  30
TORSDOF 21
ENDMDL
MODEL 4
REMARK VINA RESULT:      -5.0      2.786      6.084
REMARK  21 active torsions:
REMARK  status: ('A' for Active; 'I' for Inactive)
REMARK    1  A    between atoms: C_1  and  C_2 
REMARK    2  A    between atoms: C_2  and  C_3 
REMARK    3  A    between atoms: C_3  and  C_4 
REMARK    4  A    between atoms: C_4  and  O_5 
REMARK    5  A    between atoms: O_5  and  C_6 
REMARK    6  A    between atoms: C_6  and  C_7 
REMARK    7  A    between atoms: C_7  and  O_8 
REMARK    8  A    between atoms: O_8  and  C_9 
REMARK    9  A    between atoms: C_9  and  C_11 
REMARK   10  A    between atoms: C_11  and  C_12 
REMARK   11  A    between atoms: C_12  and  C_13 
REMARK   12  A    between atoms: C_13  and  C_14 
REMARK   13  A    between atoms: C_14  and  C_15 
REMARK   14  A    between atoms: C_15  and  O_17 
REMARK   15  A    between atoms: O_17  and  C_18 
REMARK   16  A    between atoms: C_18  and  C_19 
REMARK   17  A    between atoms: C_19  and  O_20 
REMARK   18  A    between atoms: O_20  and  C_21 
REMARK   19  A    between atoms: C_21  and  C_22 
REMARK   20  A    between atoms: C_22  and  C_23 
REMARK   21  A    between atoms: C_23  and  C_24 
ROOT
ATOM      1  C   LIG d   1       3.894  -0.588  -2.099  0.00  0.00    -0.043 C 
ATOM      2  H   LIG d   1       3.250  -0.950  -1.298  0.00  0.00     0.027 H 
ATOM      3  H   LIG d   1       3.286  -0.328  -2.966  0.00  0.00     0.027 H 
ENDROOT
BRANCH   1   4
ATOM      4  C   LIG d   1       4.657   0.650  -1.622  0.00  0.00     0.045 C 
ATOM      5  H   LIG d   1       5.613   0.346  -1.197  0.00  0.00     0.038 H 
ATOM      6  H   LIG d   1       4.071   1.167  -0.862  0.00  0.00     0.038 H 
BRANCH   4   7
ATOM      7  C   LIG d   1       4.895   1.574  -2.788  0.00  0.00     0.307 C 
ATOM      8  O   LIG d   1       3.961   1.976  -3.441  0.00  0.00    -0.251 OA
BRANCH   7   9
ATOM      9  O   LIG d   1       6.144   1.951  -3.101  0.00  0.00    -0.462 OA
BRANCH   9  10
ATOM     10  C   LIG d   1       6.986   0.964  -3.755  0.00  0.00     0.116 C 
ATOM     11  H   LIG d   1       6.562   0.711  -4.725  0.00  0.00     0.072 H 
ATOM     12  H   LIG d   1       7.042   0.068  -3.137  0.00  0.00     0.072 H 
BRANCH  10  13
ATOM     13  C   LIG d   1       8.390   1.540  -3.947  0.00  0.00     0.082 C 
ATOM     14  H   LIG d   1       8.994   1.326  -3.065  0.00  0.00     0.059 H 
ATOM     15  H   LIG d   1       8.325   2.619  -4.089  0.00  0.00     0.059 H 
BRANCH  13  16
ATOM     16  O   LIG d   1       8.997   0.945  -5.095  0.00  0.00    -0.376 OA
BRANCH  16  17
ATOM     17  C   LIG d   1       8.193  -0.054  -5.726  0.00  0.00     0.048 C 
ATOM     18  H   LIG d   1       8.604  -1.041  -5.511  0.00  0.00     0.056 H 
ATOM     19  H   LIG d   1       7.174   0.006  -5.345  0.00  0.00     0.056 H 
BRANCH  17  20
ATOM     20  C   LIG d   1       8.185   0.176  -7.239  0.00  0.00    -0.030 C 
ATOM     21  H   LIG d   1       9.209   0.152  -7.615  0.00  0.00     0.029 H 
ATOM     22  H   LIG d   1       7.602  -0.607  -7.722  0.00  0.00     0.029 H 
BRANCH  20  23
ATOM     23  C   LIG d   1       7.562   1.539  -7.545  0.00  0.00    -0.054 C 
ATOM     24  H   LIG d   1       6.672   1.677  -6.931  0.00  0.00     0.026 H 
ATOM     25  H   LIG d   1       8.282   2.327  -7.321  0.00  0.00     0.026 H 
BRANCH  23  26
ATOM     26  C   LIG d   1       7.177   1.604  -9.024  0.00  0.00    -0.065 C 
ATOM     27  H   LIG d   1       6.109   1.800  -9.113  0.00  0.00     0.023 H 
ATOM     28  H   LIG d   1       7.736   2.404  -9.509  0.00  0.00     0.023 H 
ATOM     29  H   LIG d   1       7.414   0.654  -9.503  0.00  0.00     0.023 H 
ENDBRANCH  23  26
ENDBRANCH  20  23
ENDBRANCH  17  20
ENDBRANCH  16  17
ENDBRANCH  13  16
ENDBRANCH  10  13
ENDBRANCH   9  10
ENDBRANCH   7   9
ENDBRANCH   4   7
ENDBRANCH   1   4
BRANCH   1  30
ATOM     30  C   LIG d   1       4.890  -1.683  -2.486  0.00  0.00    -0.043 C 
ATOM     31  H   LIG d   1       5.671  -1.258  -3.117  0.00  0.00     0.027 H 
ATOM     32  H   LIG d   1       5.338  -2.101  -1.585  0.00  0.00     0.027 H 
BRANCH  30  33
ATOM     33  C   LIG d   1       4.161  -2.788  -3.253  0.00  0.00     0.045 C 
ATOM     34  H   LIG d   1       4.409  -3.757  -2.819  0.00  0.00     0.038 H 
ATOM     35  H   LIG d   1       3.085  -2.625  -3.188  0.00  0.00     0.038 H 
BRANCH  33  36
ATOM     36  C   LIG d   1       4.586  -2.761  -4.699  0.00  0.00     0.307 C 
ATOM     37  O   LIG d   1       4.437  -3.740  -5.390  0.00  0.00    -0.251 OA
BRANCH  36  38
ATOM     38  O   LIG d   1       5.128  -1.647  -5.217  0.00  0.00    -0.462 OA
BRANCH  38  39
ATOM     39  C   LIG d   1       4.415  -1.015  -6.313  0.00  0.00     0.116 C 
ATOM     40  H   LIG d   1       5.101  -0.382  -6.876  0.00  0.00     0.072 H 
ATOM     41  H   LIG d   1       4.007  -1.782  -6.971  0.00  0.00     0.072 H 
BRANCH  39  42
ATOM     42  C   LIG d   1       3.274  -0.163  -5.755  0.00  0.00     0.082 C 
ATOM     43  H   LIG d   1       2.358  -0.753  -5.728  0.00  0.00     0.059 H 
ATOM     44  H   LIG d   1       3.526   0.164  -4.745  0.00  0.00     0.059 H 
BRANCH  42  45
ATOM     45  O   LIG d   1       3.081   0.981  -6.591  0.00  0.00    -0.376 OA
BRANCH  45  46
ATOM     46  C   LIG d   1       3.484   0.784  -7.947  0.00  0.00     0.048 C 
ATOM     47  H   LIG d   1       4.551   0.983  -8.041  0.00  0.00     0.056 H 
ATOM     48  H   LIG d   1       3.279  -0.246  -8.241  0.00  0.00     0.056 H 
BRANCH  46  49
ATOM     49  C   LIG d   1       2.704   1.737  -8.854  0.00  0.00    -0.030 C 
ATOM     50  H   LIG d   1       1.889   1.195  -9.335  0.00  0.00     0.029 H 
ATOM     51  H   LIG d   1       2.295   2.553  -8.258  0.00  0.00     0.029 H 
BRANCH  49  52
ATOM     52  C   LIG d   1       3.640   2.305  -9.923  0.00  0.00    -0.054 C 
ATOM     53  H   LIG d   1       3.157   3.147 -10.419  0.00  0.00     0.026 H 
ATOM     54  H   LIG d   1       4.565   2.641  -9.454  0.00  0.00     0.026 H 
BRANCH  52  55
ATOM     55  C   LIG d   1       3.956   1.219 -10.953  0.00  0.00    -0.065 C 
ATOM     56  H   LIG d   1       3.766   1.601 -11.955  0.00  0.00     0.023 H 
ATOM     57  H   LIG d   1       5.005   0.930 -10.866  0.00  0.00     0.023 H 
ATOM     58  H   LIG d   1       3.326   0.349 -10.769  0.00  0.00     0.023 H 
ENDBRANCH  52  55
ENDBRANCH  49  52
ENDBRANCH  46  49
ENDBRANCH  45  46
ENDBRANCH  42  45
ENDBRANCH  39  42
ENDBRANCH  38  39
ENDBRANCH  36  38
ENDBRANCH  33  36
ENDBRANCH  30  33
ENDBRANCH   1  30
TORSDOF 21
ENDMDL
MODEL 5
REMARK VINA RESULT:      -5.0      2.075      2.707
REMARK  21 active torsions:
REMARK  status: ('A' for Active; 'I' for Inactive)
REMARK    1  A    between atoms: C_1  and  C_2 
REMARK    2  A    between atoms: C_2  and  C_3 
REMARK    3  A    between atoms: C_3  and  C_4 
REMARK    4  A    between atoms: C_4  and  O_5 
REMARK    5  A    between atoms: O_5  and  C_6 
REMARK    6  A    between atoms: C_6  and  C_7 
REMARK    7  A    between atoms: C_7  and  O_8 
REMARK    8  A    between atoms: O_8  and  C_9 
REMARK    9  A    between atoms: C_9  and  C_11 
REMARK   10  A    between atoms: C_11  and  C_12 
REMARK   11  A    between atoms: C_12  and  C_13 
REMARK   12  A    between atoms: C_13  and  C_14 
REMARK   13  A    between atoms: C_14  and  C_15 
REMARK   14  A    between atoms: C_15  and  O_17 
REMARK   15  A    between atoms: O_17  and  C_18 
REMARK   16  A    between atoms: C_18  and  C_19 
REMARK   17  A    between atoms: C_19  and  O_20 
REMARK   18  A    between atoms: O_20  and  C_21 
REMARK   19  A    between atoms: C_21  and  C_22 
REMARK   20  A    between atoms: C_22  and  C_23 
REMARK   21  A    between atoms: C_23  and  C_24 
ROOT
ATOM      1  C   LIG d   1       2.399  -0.514  -2.935  0.00  0.00    -0.043 C 
ATOM      2  H   LIG d   1       2.766   0.455  -2.595  0.00  0.00     0.027 H 
ATOM      3  H   LIG d   1       1.508  -0.784  -2.368  0.00  0.00     0.027 H 
ENDROOT
BRANCH   1   4
ATOM      4  C   LIG d   1       2.053  -0.436  -4.423  0.00  0.00     0.045 C 
ATOM      5  H   LIG d   1       0.970  -0.399  -4.543  0.00  0.00     0.038 H 
ATOM      6  H   LIG d   1       2.444  -1.316  -4.933  0.00  0.00     0.038 H 
BRANCH   4   7
ATOM      7  C   LIG d   1       2.668   0.804  -5.018  0.00  0.00     0.307 C 
ATOM      8  O   LIG d   1       2.811   1.793  -4.338  0.00  0.00    -0.251 OA
BRANCH   7   9
ATOM      9  O   LIG d   1       3.058   0.810  -6.302  0.00  0.00    -0.462 OA
BRANCH   9  10
ATOM     10  C   LIG d   1       3.953  -0.253  -6.724  0.00  0.00     0.116 C 
ATOM     11  H   LIG d   1       4.066  -0.974  -5.916  0.00  0.00     0.072 H 
ATOM     12  H   LIG d   1       4.926   0.170  -6.974  0.00  0.00     0.072 H 
BRANCH  10  13
ATOM     13  C   LIG d   1       3.369  -0.952  -7.953  0.00  0.00     0.082 C 
ATOM     14  H   LIG d   1       2.936  -1.908  -7.657  0.00  0.00     0.059 H 
ATOM     15  H   LIG d   1       4.160  -1.123  -8.684  0.00  0.00     0.059 H 
BRANCH  13  16
ATOM     16  O   LIG d   1       2.355  -0.129  -8.533  0.00  0.00    -0.376 OA
BRANCH  16  17
ATOM     17  C   LIG d   1       2.357  -0.123  -9.962  0.00  0.00     0.048 C 
ATOM     18  H   LIG d   1       2.412  -1.148 -10.330  0.00  0.00     0.056 H 
ATOM     19  H   LIG d   1       1.442   0.344 -10.325  0.00  0.00     0.056 H 
BRANCH  17  20
ATOM     20  C   LIG d   1       3.566   0.665 -10.468  0.00  0.00    -0.030 C 
ATOM     21  H   LIG d   1       4.481   0.221 -10.074  0.00  0.00     0.029 H 
ATOM     22  H   LIG d   1       3.589   0.636 -11.557  0.00  0.00     0.029 H 
BRANCH  20  23
ATOM     23  C   LIG d   1       3.462   2.117 -10.000  0.00  0.00    -0.054 C 
ATOM     24  H   LIG d   1       3.362   2.772 -10.865  0.00  0.00     0.026 H 
ATOM     25  H   LIG d   1       2.588   2.230  -9.358  0.00  0.00     0.026 H 
BRANCH  23  26
ATOM     26  C   LIG d   1       4.721   2.493  -9.217  0.00  0.00    -0.065 C 
ATOM     27  H   LIG d   1       5.603   2.274  -9.820  0.00  0.00     0.023 H 
ATOM     28  H   LIG d   1       4.698   3.557  -8.981  0.00  0.00     0.023 H 
ATOM     29  H   LIG d   1       4.761   1.917  -8.292  0.00  0.00     0.023 H 
ENDBRANCH  23  26
ENDBRANCH  20  23
ENDBRANCH  17  20
ENDBRANCH  16  17
ENDBRANCH  13  16
ENDBRANCH  10  13
ENDBRANCH   9  10
ENDBRANCH   7   9
ENDBRANCH   4   7
ENDBRANCH   1   4
BRANCH   1  30
ATOM     30  C   LIG d   1       3.481  -1.573  -2.717  0.00  0.00    -0.043 C 
ATOM     31  H   LIG d   1       3.039  -2.457  -2.258  0.00  0.00     0.027 H 
ATOM     32  H   LIG d   1       3.922  -1.844  -3.676  0.00  0.00     0.027 H 
BRANCH  30  33
ATOM     33  C   LIG d   1       4.568  -1.011  -1.798  0.00  0.00     0.045 C 
ATOM     34  H   LIG d   1       4.121  -0.700  -0.854  0.00  0.00     0.038 H 
ATOM     35  H   LIG d   1       5.318  -1.779  -1.611  0.00  0.00     0.038 H 
BRANCH  33  36
ATOM     36  C   LIG d   1       5.221   0.176  -2.460  0.00  0.00     0.307 C 
ATOM     37  O   LIG d   1       5.235   1.247  -1.901  0.00  0.00    -0.251 OA
BRANCH  36  38
ATOM     38  O   LIG d   1       5.788   0.042  -3.670  0.00  0.00    -0.462 OA
BRANCH  38  39
ATOM     39  C   LIG d   1       7.193  -0.324  -3.702  0.00  0.00     0.116 C 
ATOM     40  H   LIG d   1       7.781   0.524  -4.057  0.00  0.00     0.072 H 
ATOM     41  H   LIG d   1       7.520  -0.596  -2.699  0.00  0.00     0.072 H 
BRANCH  39  42
ATOM     42  C   LIG d   1       7.390  -1.512  -4.644  0.00  0.00     0.082 C 
ATOM     43  H   LIG d   1       6.896  -1.310  -5.593  0.00  0.00     0.059 H 
ATOM     44  H   LIG d   1       8.456  -1.667  -4.814  0.00  0.00     0.059 H 
BRANCH  42  45
ATOM     45  O   LIG d   1       6.828  -2.687  -4.054  0.00  0.00    -0.376 OA
BRANCH  45  46
ATOM     46  C   LIG d   1       6.477  -3.700  -4.998  0.00  0.00     0.048 C 
ATOM     47  H   LIG d   1       6.770  -3.382  -5.998  0.00  0.00     0.056 H 
ATOM     48  H   LIG d   1       6.994  -4.627  -4.744  0.00  0.00     0.056 H 
BRANCH  46  49
ATOM     49  C   LIG d   1       4.965  -3.933  -4.957  0.00  0.00    -0.030 C 
ATOM     50  H   LIG d   1       4.749  -4.805  -4.339  0.00  0.00     0.029 H 
ATOM     51  H   LIG d   1       4.474  -3.057  -4.534  0.00  0.00     0.029 H 
BRANCH  49  52
ATOM     52  C   LIG d   1       4.448  -4.172  -6.377  0.00  0.00    -0.054 C 
ATOM     53  H   LIG d   1       3.666  -4.930  -6.355  0.00  0.00     0.026 H 
ATOM     54  H   LIG d   1       4.043  -3.243  -6.777  0.00  0.00     0.026 H 
BRANCH  52  55
ATOM     55  C   LIG d   1       5.599  -4.651  -7.264  0.00  0.00    -0.065 C 
ATOM     56  H   LIG d   1       5.197  -5.204  -8.113  0.00  0.00     0.023 H 
ATOM     57  H   LIG d   1       6.162  -3.789  -7.625  0.00  0.00     0.023 H 
ATOM     58  H   LIG d   1       6.258  -5.299  -6.687  0.00  0.00     0.023 H 
ENDBRANCH  52  55
ENDBRANCH  49  52
ENDBRANCH  46  49
ENDBRANCH  45  46
ENDBRANCH  42  45
ENDBRANCH  39  42
ENDBRANCH  38  39
ENDBRANCH  36  38
ENDBRANCH  33  36
ENDBRANCH  30  33
ENDBRANCH   1  30
TORSDOF 21
ENDMDL
MODEL 6
REMARK VINA RESULT:      -4.9      3.012      6.201
REMARK  21 active torsions:
REMARK  status: ('A' for Active; 'I' for Inactive)
REMARK    1  A    between atoms: C_1  and  C_2 
REMARK    2  A    between atoms: C_2  and  C_3 
REMARK    3  A    between atoms: C_3  and  C_4 
REMARK    4  A    between atoms: C_4  and  O_5 
REMARK    5  A    between atoms: O_5  and  C_6 
REMARK    6  A    between atoms: C_6  and  C_7 
REMARK    7  A    between atoms: C_7  and  O_8 
REMARK    8  A    between atoms: O_8  and  C_9 
REMARK    9  A    between atoms: C_9  and  C_11 
REMARK   10  A    between atoms: C_11  and  C_12 
REMARK   11  A    between atoms: C_12  and  C_13 
REMARK   12  A    between atoms: C_13  and  C_14 
REMARK   13  A    between atoms: C_14  and  C_15 
REMARK   14  A    between atoms: C_15  and  O_17 
REMARK   15  A    between atoms: O_17  and  C_18 
REMARK   16  A    between atoms: C_18  and  C_19 
REMARK   17  A    between atoms: C_19  and  O_20 
REMARK   18  A    between atoms: O_20  and  C_21 
REMARK   19  A    between atoms: C_21  and  C_22 
REMARK   20  A    between atoms: C_22  and  C_23 
REMARK   21  A    between atoms: C_23  and  C_24 
ROOT
ATOM      1  C   LIG d   1       3.925  -0.723  -9.220  0.00  0.00    -0.043 C 
ATOM      2  H   LIG d   1       4.927  -0.353  -9.003  0.00  0.00     0.027 H 
ATOM      3  H   LIG d   1       3.995  -1.651  -9.788  0.00  0.00     0.027 H 
ENDROOT
BRANCH   1   4
ATOM      4  C   LIG d   1       3.182  -0.984  -7.908  0.00  0.00     0.045 C 
ATOM      5  H   LIG d   1       3.101  -2.058  -7.743  0.00  0.00     0.038 H 
ATOM      6  H   LIG d   1       2.184  -0.549  -7.963  0.00  0.00     0.038 H 
BRANCH   4   7
ATOM      7  C   LIG d   1       3.941  -0.356  -6.767  0.00  0.00     0.307 C 
ATOM      8  O   LIG d   1       3.485   0.606  -6.195  0.00  0.00    -0.251 OA
BRANCH   7   9
ATOM      9  O   LIG d   1       5.122  -0.866  -6.387  0.00  0.00    -0.462 OA
BRANCH   9  10
ATOM     10  C   LIG d   1       5.103  -2.170  -5.749  0.00  0.00     0.116 C 
ATOM     11  H   LIG d   1       6.032  -2.695  -5.968  0.00  0.00     0.072 H 
ATOM     12  H   LIG d   1       4.260  -2.748  -6.130  0.00  0.00     0.072 H 
BRANCH  10  13
ATOM     13  C   LIG d   1       4.959  -1.995  -4.236  0.00  0.00     0.082 C 
ATOM     14  H   LIG d   1       5.362  -1.026  -3.942  0.00  0.00     0.059 H 
ATOM     15  H   LIG d   1       5.508  -2.787  -3.725  0.00  0.00     0.059 H 
BRANCH  13  16
ATOM     16  O   LIG d   1       3.578  -2.066  -3.877  0.00  0.00    -0.376 OA
BRANCH  16  17
ATOM     17  C   LIG d   1       3.231  -1.272  -2.740  0.00  0.00     0.048 C 
ATOM     18  H   LIG d   1       2.711  -0.372  -3.069  0.00  0.00     0.056 H 
ATOM     19  H   LIG d   1       2.581  -1.847  -2.081  0.00  0.00     0.056 H 
BRANCH  17  20
ATOM     20  C   LIG d   1       4.502  -0.878  -1.985  0.00  0.00    -0.030 C 
ATOM     21  H   LIG d   1       4.569  -1.453  -1.061  0.00  0.00     0.029 H 
ATOM     22  H   LIG d   1       5.373  -1.088  -2.607  0.00  0.00     0.029 H 
BRANCH  20  23
ATOM     23  C   LIG d   1       4.459   0.615  -1.657  0.00  0.00    -0.054 C 
ATOM     24  H   LIG d   1       3.995   0.759  -0.681  0.00  0.00     0.026 H 
ATOM     25  H   LIG d   1       5.475   1.012  -1.636  0.00  0.00     0.026 H 
BRANCH  23  26
ATOM     26  C   LIG d   1       3.646   1.350  -2.723  0.00  0.00    -0.065 C 
ATOM     27  H   LIG d   1       3.213   0.625  -3.413  0.00  0.00     0.023 H 
ATOM     28  H   LIG d   1       2.848   1.917  -2.244  0.00  0.00     0.023 H 
ATOM     29  H   LIG d   1       4.297   2.030  -3.272  0.00  0.00     0.023 H 
ENDBRANCH  23  26
ENDBRANCH  20  23
ENDBRANCH  17  20
ENDBRANCH  16  17
ENDBRANCH  13  16
ENDBRANCH  10  13
ENDBRANCH   9  10
ENDBRANCH   7   9
ENDBRANCH   4   7
ENDBRANCH   1   4
BRANCH   1  30
ATOM     30  C   LIG d   1       3.162   0.320 -10.039  0.00  0.00    -0.043 C 
ATOM     31  H   LIG d   1       2.679  -0.165 -10.887  0.00  0.00     0.027 H 
ATOM     32  H   LIG d   1       2.406   0.792  -9.413  0.00  0.00     0.027 H 
BRANCH  30  33
ATOM     33  C   LIG d   1       4.139   1.382 -10.548  0.00  0.00     0.045 C 
ATOM     34  H   LIG d   1       5.035   0.897 -10.935  0.00  0.00     0.038 H 
ATOM     35  H   LIG d   1       3.665   1.959 -11.343  0.00  0.00     0.038 H 
BRANCH  33  36
ATOM     36  C   LIG d   1       4.514   2.303  -9.415  0.00  0.00     0.307 C 
ATOM     37  O   LIG d   1       3.663   2.712  -8.663  0.00  0.00    -0.251 OA
BRANCH  36  38
ATOM     38  O   LIG d   1       5.795   2.667  -9.243  0.00  0.00    -0.462 OA
BRANCH  38  39
ATOM     39  C   LIG d   1       6.674   1.702  -8.607  0.00  0.00     0.116 C 
ATOM     40  H   LIG d   1       6.462   1.667  -7.538  0.00  0.00     0.072 H 
ATOM     41  H   LIG d   1       6.508   0.717  -9.042  0.00  0.00     0.072 H 
BRANCH  39  42
ATOM     42  C   LIG d   1       8.131   2.116  -8.825  0.00  0.00     0.082 C 
ATOM     43  H   LIG d   1       8.559   1.527  -9.635  0.00  0.00     0.059 H 
ATOM     44  H   LIG d   1       8.171   3.175  -9.084  0.00  0.00     0.059 H 
BRANCH  42  45
ATOM     45  O   LIG d   1       8.875   1.891  -7.625  0.00  0.00    -0.376 OA
BRANCH  45  46
ATOM     46  C   LIG d   1       8.063   1.660  -6.473  0.00  0.00     0.048 C 
ATOM     47  H   LIG d   1       7.028   1.916  -6.700  0.00  0.00     0.056 H 
ATOM     48  H   LIG d   1       8.124   0.608  -6.191  0.00  0.00     0.056 H 
BRANCH  46  49
ATOM     49  C   LIG d   1       8.562   2.527  -5.315  0.00  0.00    -0.030 C 
ATOM     50  H   LIG d   1       9.558   2.904  -5.547  0.00  0.00     0.029 H 
ATOM     51  H   LIG d   1       7.881   3.366  -5.170  0.00  0.00     0.029 H 
BRANCH  49  52
ATOM     52  C   LIG d   1       8.618   1.688  -4.037  0.00  0.00    -0.054 C 
ATOM     53  H   LIG d   1       9.440   0.977  -4.105  0.00  0.00     0.026 H 
ATOM     54  H   LIG d   1       8.772   2.342  -3.179  0.00  0.00     0.026 H 
BRANCH  52  55
ATOM     55  C   LIG d   1       7.300   0.929  -3.868  0.00  0.00    -0.065 C 
ATOM     56  H   LIG d   1       6.467   1.629  -3.924  0.00  0.00     0.023 H 
ATOM     57  H   LIG d   1       7.205   0.186  -4.661  0.00  0.00     0.023 H 
ATOM     58  H   LIG d   1       7.290   0.429  -2.900  0.00  0.00     0.023 H 
ENDBRANCH  52  55
ENDBRANCH  49  52
ENDBRANCH  46  49
ENDBRANCH  45  46
ENDBRANCH  42  45
ENDBRANCH  39  42
ENDBRANCH  38  39
ENDBRANCH  36  38
ENDBRANCH  33  36
ENDBRANCH  30  33
ENDBRANCH   1  30
TORSDOF 21
ENDMDL
MODEL 7
REMARK VINA RESULT:      -4.9      3.271      7.383
REMARK  21 active torsions:
REMARK  status: ('A' for Active; 'I' for Inactive)
REMARK    1  A    between atoms: C_1  and  C_2 
REMARK    2  A    between atoms: C_2  and  C_3 
REMARK    3  A    between atoms: C_3  and  C_4 
REMARK    4  A    between atoms: C_4  and  O_5 
REMARK    5  A    between atoms: O_5  and  C_6 
REMARK    6  A    between atoms: C_6  and  C_7 
REMARK    7  A    between atoms: C_7  and  O_8 
REMARK    8  A    between atoms: O_8  and  C_9 
REMARK    9  A    between atoms: C_9  and  C_11 
REMARK   10  A    between atoms: C_11  and  C_12 
REMARK   11  A    between atoms: C_12  and  C_13 
REMARK   12  A    between atoms: C_13  and  C_14 
REMARK   13  A    between atoms: C_14  and  C_15 
REMARK   14  A    between atoms: C_15  and  O_17 
REMARK   15  A    between atoms: O_17  and  C_18 
REMARK   16  A    between atoms: C_18  and  C_19 
REMARK   17  A    between atoms: C_19  and  O_20 
REMARK   18  A    between atoms: O_20  and  C_21 
REMARK   19  A    between atoms: C_21  and  C_22 
REMARK   20  A    between atoms: C_22  and  C_23 
REMARK   21  A    between atoms: C_23  and  C_24 
ROOT
ATOM      1  C   LIG d   1       4.714   0.654  -1.498  0.00  0.00    -0.043 C 
ATOM      2  H   LIG d   1       5.600   0.716  -0.867  0.00  0.00     0.027 H 
ATOM      3  H   LIG d   1       3.877   1.144  -0.999  0.00  0.00     0.027 H 
ENDROOT
BRANCH   1   4
ATOM      4  C   LIG d   1       4.988   1.347  -2.834  0.00  0.00     0.045 C 
ATOM      5  H   LIG d   1       4.815   2.418  -2.730  0.00  0.00     0.038 H 
ATOM      6  H   LIG d   1       4.322   0.943  -3.596  0.00  0.00     0.038 H 
BRANCH   4   7
ATOM      7  C   LIG d   1       6.419   1.106  -3.240  0.00  0.00     0.307 C 
ATOM      8  O   LIG d   1       6.867  -0.016  -3.239  0.00  0.00    -0.251 OA
BRANCH   7   9
ATOM      9  O   LIG d   1       7.196   2.138  -3.604  0.00  0.00    -0.462 OA
BRANCH   9  10
ATOM     10  C   LIG d   1       8.421   1.822  -4.317  0.00  0.00     0.116 C 
ATOM     11  H   LIG d   1       8.190   1.618  -5.362  0.00  0.00     0.072 H 
ATOM     12  H   LIG d   1       8.886   0.943  -3.870  0.00  0.00     0.072 H 
BRANCH  10  13
ATOM     13  C   LIG d   1       9.383   3.008  -4.229  0.00  0.00     0.082 C 
ATOM     14  H   LIG d   1       9.080   3.775  -4.943  0.00  0.00     0.059 H 
ATOM     15  H   LIG d   1      10.394   2.674  -4.462  0.00  0.00     0.059 H 
BRANCH  13  16
ATOM     16  O   LIG d   1       9.352   3.549  -2.907  0.00  0.00    -0.376 OA
BRANCH  16  17
ATOM     17  C   LIG d   1      10.337   4.557  -2.668  0.00  0.00     0.048 C 
ATOM     18  H   LIG d   1      10.658   4.513  -1.627  0.00  0.00     0.056 H 
ATOM     19  H   LIG d   1      11.194   4.389  -3.320  0.00  0.00     0.056 H 
BRANCH  17  20
ATOM     20  C   LIG d   1       9.738   5.935  -2.959  0.00  0.00    -0.030 C 
ATOM     21  H   LIG d   1      10.304   6.416  -3.757  0.00  0.00     0.029 H 
ATOM     22  H   LIG d   1       8.699   5.821  -3.268  0.00  0.00     0.029 H 
BRANCH  20  23
ATOM     23  C   LIG d   1       9.802   6.796  -1.697  0.00  0.00    -0.054 C 
ATOM     24  H   LIG d   1      10.319   7.730  -1.919  0.00  0.00     0.026 H 
ATOM     25  H   LIG d   1       8.790   7.016  -1.355  0.00  0.00     0.026 H 
BRANCH  23  26
ATOM     26  C   LIG d   1      10.558   6.042  -0.602  0.00  0.00    -0.065 C 
ATOM     27  H   LIG d   1      11.625   6.248  -0.690  0.00  0.00     0.023 H 
ATOM     28  H   LIG d   1      10.205   6.371   0.376  0.00  0.00     0.023 H 
ATOM     29  H   LIG d   1      10.384   4.972  -0.710  0.00  0.00     0.023 H 
ENDBRANCH  23  26
ENDBRANCH  20  23
ENDBRANCH  17  20
ENDBRANCH  16  17
ENDBRANCH  13  16
ENDBRANCH  10  13
ENDBRANCH   9  10
ENDBRANCH   7   9
ENDBRANCH   4   7
ENDBRANCH   1   4
BRANCH   1  30
ATOM     30  C   LIG d   1       4.367  -0.815  -1.747  0.00  0.00    -0.043 C 
ATOM     31  H   LIG d   1       5.253  -1.344  -2.097  0.00  0.00     0.027 H 
ATOM     32  H   LIG d   1       4.016  -1.268  -0.820  0.00  0.00     0.027 H 
BRANCH  30  33
ATOM     33  C   LIG d   1       3.267  -0.907  -2.807  0.00  0.00     0.045 C 
ATOM     34  H   LIG d   1       2.399  -1.417  -2.387  0.00  0.00     0.038 H 
ATOM     35  H   LIG d   1       2.982   0.097  -3.122  0.00  0.00     0.038 H 
BRANCH  33  36
ATOM     36  C   LIG d   1       3.778  -1.680  -3.995  0.00  0.00     0.307 C 
ATOM     37  O   LIG d   1       4.032  -2.856  -3.887  0.00  0.00    -0.251 OA
BRANCH  36  38
ATOM     38  O   LIG d   1       3.949  -1.061  -5.175  0.00  0.00    -0.462 OA
BRANCH  38  39
ATOM     39  C   LIG d   1       3.075   0.063  -5.462  0.00  0.00     0.116 C 
ATOM     40  H   LIG d   1       2.118  -0.083  -4.959  0.00  0.00     0.072 H 
ATOM     41  H   LIG d   1       3.536   0.982  -5.102  0.00  0.00     0.072 H 
BRANCH  39  42
ATOM     42  C   LIG d   1       2.849   0.162  -6.971  0.00  0.00     0.082 C 
ATOM     43  H   LIG d   1       3.243  -0.731  -7.457  0.00  0.00     0.059 H 
ATOM     44  H   LIG d   1       1.780   0.245  -7.173  0.00  0.00     0.059 H 
BRANCH  42  45
ATOM     45  O   LIG d   1       3.520   1.317  -7.479  0.00  0.00    -0.376 OA
BRANCH  45  46
ATOM     46  C   LIG d   1       2.816   1.983  -8.529  0.00  0.00     0.048 C 
ATOM     47  H   LIG d   1       2.087   1.303  -8.966  0.00  0.00     0.056 H 
ATOM     48  H   LIG d   1       2.303   2.857  -8.124  0.00  0.00     0.056 H 
BRANCH  46  49
ATOM     49  C   LIG d   1       3.809   2.429  -9.605  0.00  0.00    -0.030 C 
ATOM     50  H   LIG d   1       3.541   1.973 -10.558  0.00  0.00     0.029 H 
ATOM     51  H   LIG d   1       3.777   3.515  -9.700  0.00  0.00     0.029 H 
BRANCH  49  52
ATOM     52  C   LIG d   1       5.220   1.993  -9.208  0.00  0.00    -0.054 C 
ATOM     53  H   LIG d   1       5.918   2.809  -9.394  0.00  0.00     0.026 H 
ATOM     54  H   LIG d   1       5.237   1.734  -8.150  0.00  0.00     0.026 H 
BRANCH  52  55
ATOM     55  C   LIG d   1       5.629   0.774 -10.038  0.00  0.00    -0.065 C 
ATOM     56  H   LIG d   1       6.200   1.100 -10.907  0.00  0.00     0.023 H 
ATOM     57  H   LIG d   1       6.242   0.109  -9.428  0.00  0.00     0.023 H 
ATOM     58  H   LIG d   1       4.736   0.242 -10.367  0.00  0.00     0.023 H 
ENDBRANCH  52  55
ENDBRANCH  49  52
ENDBRANCH  46  49
ENDBRANCH  45  46
ENDBRANCH  42  45
ENDBRANCH  39  42
ENDBRANCH  38  39
ENDBRANCH  36  38
ENDBRANCH  33  36
ENDBRANCH  30  33
ENDBRANCH   1  30
TORSDOF 21
ENDMDL
MODEL 8
REMARK VINA RESULT:      -4.9      3.033      4.764
REMARK  21 active torsions:
REMARK  status: ('A' for Active; 'I' for Inactive)
REMARK    1  A    between atoms: C_1  and  C_2 
REMARK    2  A    between atoms: C_2  and  C_3 
REMARK    3  A    between atoms: C_3  and  C_4 
REMARK    4  A    between atoms: C_4  and  O_5 
REMARK    5  A    between atoms: O_5  and  C_6 
REMARK    6  A    between atoms: C_6  and  C_7 
REMARK    7  A    between atoms: C_7  and  O_8 
REMARK    8  A    between atoms: O_8  and  C_9 
REMARK    9  A    between atoms: C_9  and  C_11 
REMARK   10  A    between atoms: C_11  and  C_12 
REMARK   11  A    between atoms: C_12  and  C_13 
REMARK   12  A    between atoms: C_13  and  C_14 
REMARK   13  A    between atoms: C_14  and  C_15 
REMARK   14  A    between atoms: C_15  and  O_17 
REMARK   15  A    between atoms: O_17  and  C_18 
REMARK   16  A    between atoms: C_18  and  C_19 
REMARK   17  A    between atoms: C_19  and  O_20 
REMARK   18  A    between atoms: O_20  and  C_21 
REMARK   19  A    between atoms: C_21  and  C_22 
REMARK   20  A    between atoms: C_22  and  C_23 
REMARK   21  A    between atoms: C_23  and  C_24 
ROOT
ATOM      1  C   LIG d   1       4.115  -2.448  -2.990  0.00  0.00    -0.043 C 
ATOM      2  H   LIG d   1       3.134  -2.522  -3.459  0.00  0.00     0.027 H 
ATOM      3  H   LIG d   1       4.317  -3.358  -2.424  0.00  0.00     0.027 H 
ENDROOT
BRANCH   1   4
ATOM      4  C   LIG d   1       5.185  -2.271  -4.069  0.00  0.00     0.045 C 
ATOM      5  H   LIG d   1       6.070  -2.849  -3.803  0.00  0.00     0.038 H 
ATOM      6  H   LIG d   1       5.451  -1.217  -4.147  0.00  0.00     0.038 H 
BRANCH   4   7
ATOM      7  C   LIG d   1       4.649  -2.752  -5.393  0.00  0.00     0.307 C 
ATOM      8  O   LIG d   1       4.363  -3.917  -5.541  0.00  0.00    -0.251 OA
BRANCH   7   9
ATOM      9  O   LIG d   1       4.487  -1.887  -6.406  0.00  0.00    -0.462 OA
BRANCH   9  10
ATOM     10  C   LIG d   1       5.172  -0.611  -6.299  0.00  0.00     0.116 C 
ATOM     11  H   LIG d   1       5.965  -0.687  -5.556  0.00  0.00     0.072 H 
ATOM     12  H   LIG d   1       4.462   0.158  -5.996  0.00  0.00     0.072 H 
BRANCH  10  13
ATOM     13  C   LIG d   1       5.776  -0.242  -7.655  0.00  0.00     0.082 C 
ATOM     14  H   LIG d   1       4.995  -0.254  -8.416  0.00  0.00     0.059 H 
ATOM     15  H   LIG d   1       6.550  -0.965  -7.917  0.00  0.00     0.059 H 
BRANCH  13  16
ATOM     16  O   LIG d   1       6.350   1.064  -7.582  0.00  0.00    -0.376 OA
BRANCH  16  17
ATOM     17  C   LIG d   1       6.263   1.807  -8.800  0.00  0.00     0.048 C 
ATOM     18  H   LIG d   1       6.261   2.874  -8.576  0.00  0.00     0.056 H 
ATOM     19  H   LIG d   1       7.118   1.569  -9.432  0.00  0.00     0.056 H 
BRANCH  17  20
ATOM     20  C   LIG d   1       4.970   1.439  -9.531  0.00  0.00    -0.030 C 
ATOM     21  H   LIG d   1       5.185   1.272 -10.587  0.00  0.00     0.029 H 
ATOM     22  H   LIG d   1       4.554   0.530  -9.098  0.00  0.00     0.029 H 
BRANCH  20  23
ATOM     23  C   LIG d   1       3.961   2.578  -9.389  0.00  0.00    -0.054 C 
ATOM     24  H   LIG d   1       4.458   3.456  -8.977  0.00  0.00     0.026 H 
ATOM     25  H   LIG d   1       3.549   2.823 -10.369  0.00  0.00     0.026 H 
BRANCH  23  26
ATOM     26  C   LIG d   1       2.830   2.146  -8.454  0.00  0.00    -0.065 C 
ATOM     27  H   LIG d   1       3.183   1.347  -7.802  0.00  0.00     0.023 H 
ATOM     28  H   LIG d   1       2.514   2.995  -7.849  0.00  0.00     0.023 H 
ATOM     29  H   LIG d   1       1.987   1.787  -9.045  0.00  0.00     0.023 H 
ENDBRANCH  23  26
ENDBRANCH  20  23
ENDBRANCH  17  20
ENDBRANCH  16  17
ENDBRANCH  13  16
ENDBRANCH  10  13
ENDBRANCH   9  10
ENDBRANCH   7   9
ENDBRANCH   4   7
ENDBRANCH   1   4
BRANCH   1  30
ATOM     30  C   LIG d   1       4.139  -1.245  -2.045  0.00  0.00    -0.043 C 
ATOM     31  H   LIG d   1       3.311  -1.319  -1.341  0.00  0.00     0.027 H 
ATOM     32  H   LIG d   1       5.081  -1.232  -1.497  0.00  0.00     0.027 H 
BRANCH  30  33
ATOM     33  C   LIG d   1       4.005   0.044  -2.857  0.00  0.00     0.045 C 
ATOM     34  H   LIG d   1       4.255  -0.154  -3.900  0.00  0.00     0.038 H 
ATOM     35  H   LIG d   1       2.979   0.409  -2.793  0.00  0.00     0.038 H 
BRANCH  33  36
ATOM     36  C   LIG d   1       4.943   1.086  -2.305  0.00  0.00     0.307 C 
ATOM     37  O   LIG d   1       4.897   1.380  -1.134  0.00  0.00    -0.251 OA
BRANCH  36  38
ATOM     38  O   LIG d   1       5.831   1.686  -3.114  0.00  0.00    -0.462 OA
BRANCH  38  39
ATOM     39  C   LIG d   1       7.032   0.938  -3.444  0.00  0.00     0.116 C 
ATOM     40  H   LIG d   1       7.536   0.637  -2.526  0.00  0.00     0.072 H 
ATOM     41  H   LIG d   1       6.761   0.052  -4.017  0.00  0.00     0.072 H 
BRANCH  39  42
ATOM     42  C   LIG d   1       7.968   1.817  -4.276  0.00  0.00     0.082 C 
ATOM     43  H   LIG d   1       8.443   1.213  -5.049  0.00  0.00     0.059 H 
ATOM     44  H   LIG d   1       7.394   2.618  -4.743  0.00  0.00     0.059 H 
BRANCH  42  45
ATOM     45  O   LIG d   1       8.970   2.382  -3.428  0.00  0.00    -0.376 OA
BRANCH  45  46
ATOM     46  C   LIG d   1       9.410   3.679  -3.833  0.00  0.00     0.048 C 
ATOM     47  H   LIG d   1      10.179   3.580  -4.598  0.00  0.00     0.056 H 
ATOM     48  H   LIG d   1       8.566   4.240  -4.236  0.00  0.00     0.056 H 
BRANCH  46  49
ATOM     49  C   LIG d   1       9.984   4.423  -2.625  0.00  0.00    -0.030 C 
ATOM     50  H   LIG d   1       9.294   4.339  -1.785  0.00  0.00     0.029 H 
ATOM     51  H   LIG d   1      10.944   3.985  -2.352  0.00  0.00     0.029 H 
BRANCH  49  52
ATOM     52  C   LIG d   1      10.180   5.898  -2.980  0.00  0.00    -0.054 C 
ATOM     53  H   LIG d   1      11.245   6.114  -3.062  0.00  0.00     0.026 H 
ATOM     54  H   LIG d   1       9.691   6.111  -3.931  0.00  0.00     0.026 H 
BRANCH  52  55
ATOM     55  C   LIG d   1       9.564   6.772  -1.885  0.00  0.00    -0.065 C 
ATOM     56  H   LIG d   1      10.358   7.264  -1.323  0.00  0.00     0.023 H 
ATOM     57  H   LIG d   1       8.920   7.525  -2.340  0.00  0.00     0.023 H 
ATOM     58  H   LIG d   1       8.974   6.149  -1.212  0.00  0.00     0.023 H 
ENDBRANCH  52  55
ENDBRANCH  49  52
ENDBRANCH  46  49
ENDBRANCH  45  46
ENDBRANCH  42  45
ENDBRANCH  39  42
ENDBRANCH  38  39
ENDBRANCH  36  38
ENDBRANCH  33  36
ENDBRANCH  30  33
ENDBRANCH   1  30
TORSDOF 21
ENDMDL
MODEL 9
REMARK VINA RESULT:      -4.8      2.590      6.366
REMARK  21 active torsions:
REMARK  status: ('A' for Active; 'I' for Inactive)
REMARK    1  A    between atoms: C_1  and  C_2 
REMARK    2  A    between atoms: C_2  and  C_3 
REMARK    3  A    between atoms: C_3  and  C_4 
REMARK    4  A    between atoms: C_4  and  O_5 
REMARK    5  A    between atoms: O_5  and  C_6 
REMARK    6  A    between atoms: C_6  and  C_7 
REMARK    7  A    between atoms: C_7  and  O_8 
REMARK    8  A    between atoms: O_8  and  C_9 
REMARK    9  A    between atoms: C_9  and  C_11 
REMARK   10  A    between atoms: C_11  and  C_12 
REMARK   11  A    between atoms: C_12  and  C_13 
REMARK   12  A    between atoms: C_13  and  C_14 
REMARK   13  A    between atoms: C_14  and  C_15 
REMARK   14  A    between atoms: C_15  and  O_17 
REMARK   15  A    between atoms: O_17  and  C_18 
REMARK   16  A    between atoms: C_18  and  C_19 
REMARK   17  A    between atoms: C_19  and  O_20 
REMARK   18  A    between atoms: O_20  and  C_21 
REMARK   19  A    between atoms: C_21  and  C_22 
REMARK   20  A    between atoms: C_22  and  C_23 
REMARK   21  A    between atoms: C_23  and  C_24 
ROOT
ATOM      1  C   LIG d   1       4.479  -2.481  -3.486  0.00  0.00    -0.043 C 
ATOM      2  H   LIG d   1       3.989  -2.221  -4.425  0.00  0.00     0.027 H 
ATOM      3  H   LIG d   1       4.267  -3.523  -3.242  0.00  0.00     0.027 H 
ENDROOT
BRANCH   1   4
ATOM      4  C   LIG d   1       5.990  -2.288  -3.629  0.00  0.00     0.045 C 
ATOM      5  H   LIG d   1       6.464  -3.252  -3.812  0.00  0.00     0.038 H 
ATOM      6  H   LIG d   1       6.389  -1.856  -2.711  0.00  0.00     0.038 H 
BRANCH   4   7
ATOM      7  C   LIG d   1       6.271  -1.361  -4.784  0.00  0.00     0.307 C 
ATOM      8  O   LIG d   1       5.667  -1.490  -5.822  0.00  0.00    -0.251 OA
BRANCH   7   9
ATOM      9  O   LIG d   1       7.192  -0.393  -4.658  0.00  0.00    -0.462 OA
BRANCH   9  10
ATOM     10  C   LIG d   1       6.975   0.591  -3.613  0.00  0.00     0.116 C 
ATOM     11  H   LIG d   1       7.291   0.179  -2.656  0.00  0.00     0.072 H 
ATOM     12  H   LIG d   1       5.916   0.846  -3.568  0.00  0.00     0.072 H 
BRANCH  10  13
ATOM     13  C   LIG d   1       7.790   1.849  -3.921  0.00  0.00     0.082 C 
ATOM     14  H   LIG d   1       8.791   1.745  -3.503  0.00  0.00     0.059 H 
ATOM     15  H   LIG d   1       7.299   2.717  -3.479  0.00  0.00     0.059 H 
BRANCH  13  16
ATOM     16  O   LIG d   1       7.880   2.024  -5.337  0.00  0.00    -0.376 OA
BRANCH  16  17
ATOM     17  C   LIG d   1       9.136   2.542  -5.780  0.00  0.00     0.048 C 
ATOM     18  H   LIG d   1       9.355   3.468  -5.249  0.00  0.00     0.056 H 
ATOM     19  H   LIG d   1       9.921   1.813  -5.578  0.00  0.00     0.056 H 
BRANCH  17  20
ATOM     20  C   LIG d   1       9.072   2.819  -7.283  0.00  0.00    -0.030 C 
ATOM     21  H   LIG d   1       9.678   2.084  -7.814  0.00  0.00     0.029 H 
ATOM     22  H   LIG d   1       8.039   2.749  -7.621  0.00  0.00     0.029 H 
BRANCH  20  23
ATOM     23  C   LIG d   1       9.608   4.223  -7.567  0.00  0.00    -0.054 C 
ATOM     24  H   LIG d   1       9.005   4.957  -7.033  0.00  0.00     0.026 H 
ATOM     25  H   LIG d   1      10.643   4.292  -7.231  0.00  0.00     0.026 H 
BRANCH  23  26
ATOM     26  C   LIG d   1       9.539   4.502  -9.070  0.00  0.00    -0.065 C 
ATOM     27  H   LIG d   1       8.797   3.847  -9.527  0.00  0.00     0.023 H 
ATOM     28  H   LIG d   1       9.256   5.541  -9.233  0.00  0.00     0.023 H 
ATOM     29  H   LIG d   1      10.515   4.315  -9.519  0.00  0.00     0.023 H 
ENDBRANCH  23  26
ENDBRANCH  20  23
ENDBRANCH  17  20
ENDBRANCH  16  17
ENDBRANCH  13  16
ENDBRANCH  10  13
ENDBRANCH   9  10
ENDBRANCH   7   9
ENDBRANCH   4   7
ENDBRANCH   1   4
BRANCH   1  30
ATOM     30  C   LIG d   1       3.952  -1.579  -2.369  0.00  0.00    -0.043 C 
ATOM     31  H   LIG d   1       3.604  -2.193  -1.539  0.00  0.00     0.027 H 
ATOM     32  H   LIG d   1       4.751  -0.923  -2.024  0.00  0.00     0.027 H 
BRANCH  30  33
ATOM     33  C   LIG d   1       2.792  -0.734  -2.899  0.00  0.00     0.045 C 
ATOM     34  H   LIG d   1       2.326  -1.244  -3.742  0.00  0.00     0.038 H 
ATOM     35  H   LIG d   1       2.057  -0.590  -2.108  0.00  0.00     0.038 H 
BRANCH  33  36
ATOM     36  C   LIG d   1       3.313   0.607  -3.350  0.00  0.00     0.307 C 
ATOM     37  O   LIG d   1       3.568   1.461  -2.535  0.00  0.00    -0.251 OA
BRANCH  36  38
ATOM     38  O   LIG d   1       3.494   0.851  -4.658  0.00  0.00    -0.462 OA
BRANCH  38  39
ATOM     39  C   LIG d   1       2.534   0.265  -5.577  0.00  0.00     0.116 C 
ATOM     40  H   LIG d   1       2.393  -0.788  -5.332  0.00  0.00     0.072 H 
ATOM     41  H   LIG d   1       1.582   0.788  -5.489  0.00  0.00     0.072 H 
BRANCH  39  42
ATOM     42  C   LIG d   1       3.055   0.391  -7.009  0.00  0.00     0.082 C 
ATOM     43  H   LIG d   1       4.083   0.032  -7.055  0.00  0.00     0.059 H 
ATOM     44  H   LIG d   1       2.432  -0.206  -7.676  0.00  0.00     0.059 H 
BRANCH  42  45
ATOM     45  O   LIG d   1       3.009   1.761  -7.415  0.00  0.00    -0.376 OA
BRANCH  45  46
ATOM     46  C   LIG d   1       2.762   1.945  -8.810  0.00  0.00     0.048 C 
ATOM     47  H   LIG d   1       2.159   1.119  -9.185  0.00  0.00     0.056 H 
ATOM     48  H   LIG d   1       2.229   2.885  -8.963  0.00  0.00     0.056 H 
BRANCH  46  49
ATOM     49  C   LIG d   1       4.095   1.988  -9.562  0.00  0.00    -0.030 C 
ATOM     50  H   LIG d   1       4.389   3.025  -9.720  0.00  0.00     0.029 H 
ATOM     51  H   LIG d   1       4.859   1.478  -8.975  0.00  0.00     0.029 H 
BRANCH  49  52
ATOM     52  C   LIG d   1       3.939   1.289 -10.914  0.00  0.00    -0.054 C 
ATOM     53  H   LIG d   1       3.534   1.992 -11.642  0.00  0.00     0.026 H 
ATOM     54  H   LIG d   1       4.912   0.934 -11.254  0.00  0.00     0.026 H 
BRANCH  52  55
ATOM     55  C   LIG d   1       2.986   0.101 -10.767  0.00  0.00    -0.065 C 
ATOM     56  H   LIG d   1       3.531  -0.756 -10.371  0.00  0.00     0.023 H 
ATOM     57  H   LIG d   1       2.178   0.366 -10.084  0.00  0.00     0.023 H 
ATOM     58  H   LIG d   1       2.568  -0.152 -11.741  0.00  0.00     0.023 H 
ENDBRANCH  52  55
ENDBRANCH  49  52
ENDBRANCH  46  49
ENDBRANCH  45  46
ENDBRANCH  42  45
ENDBRANCH  39  42
ENDBRANCH  38  39
ENDBRANCH  36  38
ENDBRANCH  33  36
ENDBRANCH  30  33
ENDBRANCH   1  30
TORSDOF 21
ENDMDL
