MODEL 1
REMARK VINA RESULT:      -5.8      0.000      0.000
REMARK  8 active torsions:
REMARK  status: ('A' for Active; 'I' for Inactive)
REMARK    1  A    between atoms: C_1  and  N_2 
REMARK    2  A    between atoms: N_2  and  C_3 
REMARK       I    between atoms: N_2  and  C_6 
REMARK    3  A    between atoms: C_3  and  C_4 
REMARK    4  A    between atoms: C_6  and  C_8 
REMARK    5  A    between atoms: C_8  and  C_9 
REMARK    6  A    between atoms: C_14  and  C_16 
REMARK    7  A    between atoms: C_16  and  C_17 
REMARK    8  A    between atoms: C_19  and  C_22 
ROOT
ATOM      1  C   LIG d   1       2.233  -0.289  -9.208  0.00  0.00    -0.086 C 
ATOM      2  C   LIG d   1       1.646  -1.119  -9.794  0.00  0.00    -0.118 C 
ATOM      3  H   LIG d   1       1.121  -1.863 -10.318  0.00  0.00     0.123 H 
ENDROOT
BRANCH   1   4
ATOM      4  C   LIG d   1       2.969   0.753  -8.473  0.00  0.00     0.076 C 
ATOM      5  H   LIG d   1       2.260   1.418  -7.978  0.00  0.00     0.060 H 
ATOM      6  H   LIG d   1       3.580   1.328  -9.170  0.00  0.00     0.060 H 
BRANCH   4   7
ATOM      7  N   LIG d   1       3.834   0.125  -7.471  0.00  0.00    -0.293 N 
ATOM      8  C   LIG d   1       3.534   0.229  -6.162  0.00  0.00     0.216 C 
ATOM      9  O   LIG d   1       2.547   0.843  -5.812  0.00  0.00    -0.276 OA
BRANCH   7  10
ATOM     10  C   LIG d   1       5.025  -0.616  -7.893  0.00  0.00     0.004 C 
ATOM     11  H   LIG d   1       5.087  -0.614  -8.982  0.00  0.00     0.043 H 
ATOM     12  H   LIG d   1       5.914  -0.142  -7.477  0.00  0.00     0.043 H 
ATOM     13  H   LIG d   1       4.959  -1.643  -7.535  0.00  0.00     0.043 H 
ENDBRANCH   7  10
BRANCH   8  14
ATOM     14  C   LIG d   1       4.426  -0.411  -5.130  0.00  0.00     0.028 C 
ATOM     15  H   LIG d   1       5.286  -0.863  -5.624  0.00  0.00     0.036 H 
ATOM     16  H   LIG d   1       4.769   0.347  -4.426  0.00  0.00     0.036 H 
BRANCH  14  17
ATOM     17  C   LIG d   1       3.645  -1.490  -4.378  0.00  0.00    -0.020 C 
ATOM     18  H   LIG d   1       3.016  -2.039  -5.078  0.00  0.00     0.031 H 
ATOM     19  C   LIG d   1       4.625  -2.455  -3.704  0.00  0.00     0.008 C 
ATOM     20  C   LIG d   1       5.465  -1.689  -2.679  0.00  0.00    -0.030 C 
ATOM     21  H   LIG d   1       4.069  -3.246  -3.202  0.00  0.00     0.036 H 
ATOM     22  H   LIG d   1       6.153  -2.376  -2.188  0.00  0.00     0.082 H 
ATOM     23  H   LIG d   1       6.031  -0.908  -3.186  0.00  0.00     0.082 H 
ATOM     24  N   LIG d   1       4.582  -1.084  -1.665  0.00  0.00     0.227 N 
ATOM     25  C   LIG d   1       3.663  -0.115  -2.294  0.00  0.00    -0.033 C 
ATOM     26  H   LIG d   1       4.033  -1.824  -1.209  0.00  0.00     0.201 HD
ATOM     27  H   LIG d   1       5.154  -0.601  -0.963  0.00  0.00     0.201 HD
ATOM     28  C   LIG d   1       2.769  -0.834  -3.306  0.00  0.00    -0.009 C 
ATOM     29  H   LIG d   1       3.043   0.340  -1.521  0.00  0.00     0.081 H 
ATOM     30  H   LIG d   1       4.238   0.659  -2.801  0.00  0.00     0.081 H 
ATOM     31  H   LIG d   1       2.099  -0.114  -3.775  0.00  0.00     0.032 H 
ATOM     32  H   LIG d   1       2.184  -1.600  -2.797  0.00  0.00     0.032 H 
BRANCH  19  33
ATOM     33  C   LIG d   1       5.544  -3.070  -4.761  0.00  0.00     0.001 C 
ATOM     34  H   LIG d   1       5.942  -2.280  -5.400  0.00  0.00     0.033 H 
ATOM     35  H   LIG d   1       6.367  -3.588  -4.270  0.00  0.00     0.033 H 
BRANCH  33  36
ATOM     36  C   LIG d   1       4.762  -4.049  -5.599  0.00  0.00     0.085 A 
ATOM     37  N   LIG d   1       4.119  -5.096  -5.173  0.00  0.00    -0.083 NA
ATOM     38  O   LIG d   1       3.580  -5.694  -6.074  0.00  0.00    -0.353 OA
ATOM     39  C   LIG d   1       3.811  -5.106  -7.263  0.00  0.00     0.183 A 
ATOM     40  C   LIG d   1       4.590  -4.011  -7.000  0.00  0.00     0.009 A 
ATOM     41  H   LIG d   1       4.981  -3.288  -7.701  0.00  0.00     0.068 H 
BRANCH  39  42
ATOM     42  C   LIG d   1       3.324  -5.550  -8.581  0.00  0.00     0.110 C 
ATOM     43  O   LIG d   1       3.200  -4.749  -9.486  0.00  0.00    -0.541 OA
ATOM     44  O   LIG d   1       3.016  -6.847  -8.783  0.00  0.00    -0.541 OA
ENDBRANCH  39  42
ENDBRANCH  33  36
ENDBRANCH  19  33
ENDBRANCH  14  17
ENDBRANCH   8  14
ENDBRANCH   4   7
ENDBRANCH   1   4
TORSDOF 8
ENDMDL
MODEL 2
REMARK VINA RESULT:      -5.7      1.452      1.894
REMARK  8 active torsions:
REMARK  status: ('A' for Active; 'I' for Inactive)
REMARK    1  A    between atoms: C_1  and  N_2 
REMARK    2  A    between atoms: N_2  and  C_3 
REMARK       I    between atoms: N_2  and  C_6 
REMARK    3  A    between atoms: C_3  and  C_4 
REMARK    4  A    between atoms: C_6  and  C_8 
REMARK    5  A    between atoms: C_8  and  C_9 
REMARK    6  A    between atoms: C_14  and  C_16 
REMARK    7  A    between atoms: C_16  and  C_17 
REMARK    8  A    between atoms: C_19  and  C_22 
ROOT
ATOM      1  C   LIG d   1       2.083  -0.502  -9.334  0.00  0.00    -0.086 C 
ATOM      2  C   LIG d   1       1.514  -1.341  -9.926  0.00  0.00    -0.118 C 
ATOM      3  H   LIG d   1       1.005  -2.092 -10.455  0.00  0.00     0.123 H 
ENDROOT
BRANCH   1   4
ATOM      4  C   LIG d   1       2.797   0.550  -8.592  0.00  0.00     0.076 C 
ATOM      5  H   LIG d   1       2.074   1.213  -8.116  0.00  0.00     0.060 H 
ATOM      6  H   LIG d   1       3.419   1.122  -9.280  0.00  0.00     0.060 H 
BRANCH   4   7
ATOM      7  N   LIG d   1       3.644  -0.065  -7.566  0.00  0.00    -0.293 N 
ATOM      8  C   LIG d   1       3.514   0.300  -6.277  0.00  0.00     0.216 C 
ATOM      9  O   LIG d   1       2.696   1.139  -5.963  0.00  0.00    -0.276 OA
BRANCH   7  10
ATOM     10  C   LIG d   1       4.633  -1.078  -7.945  0.00  0.00     0.004 C 
ATOM     11  H   LIG d   1       5.565  -0.588  -8.229  0.00  0.00     0.043 H 
ATOM     12  H   LIG d   1       4.815  -1.743  -7.101  0.00  0.00     0.043 H 
ATOM     13  H   LIG d   1       4.255  -1.657  -8.788  0.00  0.00     0.043 H 
ENDBRANCH   7  10
BRANCH   8  14
ATOM     14  C   LIG d   1       4.390  -0.328  -5.222  0.00  0.00     0.028 C 
ATOM     15  H   LIG d   1       5.272  -0.762  -5.694  0.00  0.00     0.036 H 
ATOM     16  H   LIG d   1       4.698   0.434  -4.507  0.00  0.00     0.036 H 
BRANCH  14  17
ATOM     17  C   LIG d   1       3.608  -1.424  -4.496  0.00  0.00    -0.020 C 
ATOM     18  H   LIG d   1       2.933  -1.915  -5.197  0.00  0.00     0.031 H 
ATOM     19  C   LIG d   1       4.586  -2.454  -3.921  0.00  0.00     0.008 C 
ATOM     20  C   LIG d   1       5.493  -1.771  -2.894  0.00  0.00    -0.030 C 
ATOM     21  H   LIG d   1       4.028  -3.255  -3.439  0.00  0.00     0.036 H 
ATOM     22  H   LIG d   1       6.180  -2.504  -2.473  0.00  0.00     0.082 H 
ATOM     23  H   LIG d   1       6.061  -0.978  -3.383  0.00  0.00     0.082 H 
ATOM     24  N   LIG d   1       4.673  -1.198  -1.810  0.00  0.00     0.227 N 
ATOM     25  C   LIG d   1       3.759  -0.170  -2.343  0.00  0.00    -0.033 C 
ATOM     26  H   LIG d   1       4.122  -1.947  -1.372  0.00  0.00     0.201 HD
ATOM     27  H   LIG d   1       5.291  -0.772  -1.109  0.00  0.00     0.201 HD
ATOM     28  C   LIG d   1       2.801  -0.805  -3.352  0.00  0.00    -0.009 C 
ATOM     29  H   LIG d   1       3.187   0.259  -1.520  0.00  0.00     0.081 H 
ATOM     30  H   LIG d   1       4.335   0.614  -2.833  0.00  0.00     0.081 H 
ATOM     31  H   LIG d   1       2.133  -0.041  -3.750  0.00  0.00     0.032 H 
ATOM     32  H   LIG d   1       2.214  -1.581  -2.860  0.00  0.00     0.032 H 
BRANCH  19  33
ATOM     33  C   LIG d   1       5.440  -3.034  -5.051  0.00  0.00     0.001 C 
ATOM     34  H   LIG d   1       5.365  -2.392  -5.929  0.00  0.00     0.033 H 
ATOM     35  H   LIG d   1       6.479  -3.089  -4.729  0.00  0.00     0.033 H 
BRANCH  33  36
ATOM     36  C   LIG d   1       4.946  -4.416  -5.394  0.00  0.00     0.085 A 
ATOM     37  N   LIG d   1       3.793  -4.723  -5.912  0.00  0.00    -0.083 NA
ATOM     38  O   LIG d   1       3.676  -5.914  -6.083  0.00  0.00    -0.353 OA
ATOM     39  C   LIG d   1       4.772  -6.580  -5.675  0.00  0.00     0.183 A 
ATOM     40  C   LIG d   1       5.643  -5.630  -5.211  0.00  0.00     0.009 A 
ATOM     41  H   LIG d   1       6.631  -5.777  -4.801  0.00  0.00     0.068 H 
BRANCH  39  42
ATOM     42  C   LIG d   1       4.992  -8.037  -5.719  0.00  0.00     0.110 C 
ATOM     43  O   LIG d   1       5.824  -8.504  -6.471  0.00  0.00    -0.541 OA
ATOM     44  O   LIG d   1       4.268  -8.851  -4.925  0.00  0.00    -0.541 OA
ENDBRANCH  39  42
ENDBRANCH  33  36
ENDBRANCH  19  33
ENDBRANCH  14  17
ENDBRANCH   8  14
ENDBRANCH   4   7
ENDBRANCH   1   4
TORSDOF 8
ENDMDL
MODEL 3
REMARK VINA RESULT:      -5.5      2.586      5.555
REMARK  8 active torsions:
REMARK  status: ('A' for Active; 'I' for Inactive)
REMARK    1  A    between atoms: C_1  and  N_2 
REMARK    2  A    between atoms: N_2  and  C_3 
REMARK       I    between atoms: N_2  and  C_6 
REMARK    3  A    between atoms: C_3  and  C_4 
REMARK    4  A    between atoms: C_6  and  C_8 
REMARK    5  A    between atoms: C_8  and  C_9 
REMARK    6  A    between atoms: C_14  and  C_16 
REMARK    7  A    between atoms: C_16  and  C_17 
REMARK    8  A    between atoms: C_19  and  C_22 
ROOT
ATOM      1  C   LIG d   1       3.913   0.728  -2.460  0.00  0.00    -0.086 C 
ATOM      2  C   LIG d   1       3.532   1.740  -2.916  0.00  0.00    -0.118 C 
ATOM      3  H   LIG d   1       3.191   2.645  -3.324  0.00  0.00     0.123 H 
ENDROOT
BRANCH   1   4
ATOM      4  C   LIG d   1       4.391  -0.542  -1.887  0.00  0.00     0.076 C 
ATOM      5  H   LIG d   1       3.542  -1.204  -1.714  0.00  0.00     0.060 H 
ATOM      6  H   LIG d   1       4.899  -0.346  -0.942  0.00  0.00     0.060 H 
BRANCH   4   7
ATOM      7  N   LIG d   1       5.325  -1.177  -2.820  0.00  0.00    -0.293 N 
ATOM      8  C   LIG d   1       5.027  -2.374  -3.361  0.00  0.00     0.216 C 
ATOM      9  O   LIG d   1       3.985  -2.926  -3.076  0.00  0.00    -0.276 OA
BRANCH   7  10
ATOM     10  C   LIG d   1       6.583  -0.510  -3.164  0.00  0.00     0.004 C 
ATOM     11  H   LIG d   1       6.471   0.567  -3.032  0.00  0.00     0.043 H 
ATOM     12  H   LIG d   1       7.378  -0.875  -2.514  0.00  0.00     0.043 H 
ATOM     13  H   LIG d   1       6.835  -0.724  -4.203  0.00  0.00     0.043 H 
ENDBRANCH   7  10
BRANCH   8  14
ATOM     14  C   LIG d   1       5.990  -3.031  -4.316  0.00  0.00     0.028 C 
ATOM     15  H   LIG d   1       6.825  -2.358  -4.510  0.00  0.00     0.036 H 
ATOM     16  H   LIG d   1       6.364  -3.955  -3.875  0.00  0.00     0.036 H 
BRANCH  14  17
ATOM     17  C   LIG d   1       5.272  -3.346  -5.630  0.00  0.00    -0.020 C 
ATOM     18  H   LIG d   1       4.343  -2.778  -5.682  0.00  0.00     0.031 H 
ATOM     19  C   LIG d   1       6.173  -2.966  -6.809  0.00  0.00     0.008 C 
ATOM     20  C   LIG d   1       7.449  -3.810  -6.762  0.00  0.00    -0.030 C 
ATOM     21  H   LIG d   1       5.646  -3.153  -7.744  0.00  0.00     0.036 H 
ATOM     22  H   LIG d   1       8.085  -3.552  -7.608  0.00  0.00     0.082 H 
ATOM     23  H   LIG d   1       7.982  -3.611  -5.832  0.00  0.00     0.082 H 
ATOM     24  N   LIG d   1       7.102  -5.242  -6.839  0.00  0.00     0.227 N 
ATOM     25  C   LIG d   1       6.273  -5.633  -5.683  0.00  0.00    -0.033 C 
ATOM     26  H   LIG d   1       6.578  -5.416  -7.706  0.00  0.00     0.201 HD
ATOM     27  H   LIG d   1       7.964  -5.798  -6.841  0.00  0.00     0.201 HD
ATOM     28  C   LIG d   1       4.962  -4.844  -5.698  0.00  0.00    -0.009 C 
ATOM     29  H   LIG d   1       6.055  -6.699  -5.745  0.00  0.00     0.081 H 
ATOM     30  H   LIG d   1       6.811  -5.426  -4.758  0.00  0.00     0.081 H 
ATOM     31  H   LIG d   1       4.356  -5.129  -4.837  0.00  0.00     0.032 H 
ATOM     32  H   LIG d   1       4.416  -5.061  -6.615  0.00  0.00     0.032 H 
BRANCH  19  33
ATOM     33  C   LIG d   1       6.537  -1.483  -6.715  0.00  0.00     0.001 C 
ATOM     34  H   LIG d   1       6.902  -1.261  -5.712  0.00  0.00     0.033 H 
ATOM     35  H   LIG d   1       7.315  -1.254  -7.443  0.00  0.00     0.033 H 
BRANCH  33  36
ATOM     36  C   LIG d   1       5.317  -0.647  -7.004  0.00  0.00     0.085 A 
ATOM     37  N   LIG d   1       4.645   0.067  -6.149  0.00  0.00    -0.083 NA
ATOM     38  O   LIG d   1       3.713   0.636  -6.669  0.00  0.00    -0.353 OA
ATOM     39  C   LIG d   1       3.635   0.356  -7.983  0.00  0.00     0.183 A 
ATOM     40  C   LIG d   1       4.677  -0.491  -8.253  0.00  0.00     0.009 A 
ATOM     41  H   LIG d   1       4.946  -0.935  -9.200  0.00  0.00     0.068 H 
BRANCH  39  42
ATOM     42  C   LIG d   1       2.632   0.858  -8.939  0.00  0.00     0.110 C 
ATOM     43  O   LIG d   1       1.868   0.084  -9.481  0.00  0.00    -0.541 OA
ATOM     44  O   LIG d   1       2.564   2.176  -9.213  0.00  0.00    -0.541 OA
ENDBRANCH  39  42
ENDBRANCH  33  36
ENDBRANCH  19  33
ENDBRANCH  14  17
ENDBRANCH   8  14
ENDBRANCH   4   7
ENDBRANCH   1   4
TORSDOF 8
ENDMDL
MODEL 4
REMARK VINA RESULT:      -5.4      3.398      5.675
REMARK  8 active torsions:
REMARK  status: ('A' for Active; 'I' for Inactive)
REMARK    1  A    between atoms: C_1  and  N_2 
REMARK    2  A    between atoms: N_2  and  C_3 
REMARK       I    between atoms: N_2  and  C_6 
REMARK    3  A    between atoms: C_3  and  C_4 
REMARK    4  A    between atoms: C_6  and  C_8 
REMARK    5  A    between atoms: C_8  and  C_9 
REMARK    6  A    between atoms: C_14  and  C_16 
REMARK    7  A    between atoms: C_16  and  C_17 
REMARK    8  A    between atoms: C_19  and  C_22 
ROOT
ATOM      1  C   LIG d   1       9.948   2.202  -4.054  0.00  0.00    -0.086 C 
ATOM      2  C   LIG d   1      10.621   2.555  -3.159  0.00  0.00    -0.118 C 
ATOM      3  H   LIG d   1      11.222   2.870  -2.357  0.00  0.00     0.123 H 
ENDROOT
BRANCH   1   4
ATOM      4  C   LIG d   1       9.105   1.760  -5.177  0.00  0.00     0.076 C 
ATOM      5  H   LIG d   1       9.736   1.525  -6.034  0.00  0.00     0.060 H 
ATOM      6  H   LIG d   1       8.410   2.556  -5.445  0.00  0.00     0.060 H 
BRANCH   4   7
ATOM      7  N   LIG d   1       8.352   0.567  -4.782  0.00  0.00    -0.293 N 
ATOM      8  C   LIG d   1       7.190   0.694  -4.113  0.00  0.00     0.216 C 
ATOM      9  O   LIG d   1       6.767   1.797  -3.836  0.00  0.00    -0.276 OA
BRANCH   7  10
ATOM     10  C   LIG d   1       8.864  -0.765  -5.116  0.00  0.00     0.004 C 
ATOM     11  H   LIG d   1       9.954  -0.752  -5.091  0.00  0.00     0.043 H 
ATOM     12  H   LIG d   1       8.493  -1.489  -4.391  0.00  0.00     0.043 H 
ATOM     13  H   LIG d   1       8.526  -1.044  -6.114  0.00  0.00     0.043 H 
ENDBRANCH   7  10
BRANCH   8  14
ATOM     14  C   LIG d   1       6.418  -0.534  -3.701  0.00  0.00     0.028 C 
ATOM     15  H   LIG d   1       6.750  -1.387  -4.293  0.00  0.00     0.036 H 
ATOM     16  H   LIG d   1       6.594  -0.735  -2.644  0.00  0.00     0.036 H 
BRANCH  14  17
ATOM     17  C   LIG d   1       4.925  -0.300  -3.935  0.00  0.00    -0.020 C 
ATOM     18  H   LIG d   1       4.786   0.604  -4.528  0.00  0.00     0.031 H 
ATOM     19  C   LIG d   1       4.331  -1.499  -4.682  0.00  0.00     0.008 C 
ATOM     20  C   LIG d   1       4.476  -2.755  -3.819  0.00  0.00    -0.030 C 
ATOM     21  H   LIG d   1       3.277  -1.315  -4.884  0.00  0.00     0.036 H 
ATOM     22  H   LIG d   1       4.042  -3.606  -4.341  0.00  0.00     0.082 H 
ATOM     23  H   LIG d   1       5.533  -2.945  -3.630  0.00  0.00     0.082 H 
ATOM     24  N   LIG d   1       3.769  -2.562  -2.538  0.00  0.00     0.227 N 
ATOM     25  C   LIG d   1       4.362  -1.440  -1.786  0.00  0.00    -0.033 C 
ATOM     26  H   LIG d   1       2.780  -2.359  -2.726  0.00  0.00     0.201 HD
ATOM     27  H   LIG d   1       3.843  -3.420  -1.980  0.00  0.00     0.201 HD
ATOM     28  C   LIG d   1       4.213  -0.145  -2.588  0.00  0.00    -0.009 C 
ATOM     29  H   LIG d   1       3.844  -1.337  -0.833  0.00  0.00     0.081 H 
ATOM     30  H   LIG d   1       5.419  -1.636  -1.606  0.00  0.00     0.081 H 
ATOM     31  H   LIG d   1       4.661   0.680  -2.033  0.00  0.00     0.032 H 
ATOM     32  H   LIG d   1       3.157   0.060  -2.757  0.00  0.00     0.032 H 
BRANCH  19  33
ATOM     33  C   LIG d   1       5.077  -1.698  -6.003  0.00  0.00     0.001 C 
ATOM     34  H   LIG d   1       6.142  -1.521  -5.849  0.00  0.00     0.033 H 
ATOM     35  H   LIG d   1       4.925  -2.717  -6.356  0.00  0.00     0.033 H 
BRANCH  33  36
ATOM     36  C   LIG d   1       4.550  -0.728  -7.028  0.00  0.00     0.085 A 
ATOM     37  N   LIG d   1       3.320  -0.623  -7.440  0.00  0.00    -0.083 NA
ATOM     38  O   LIG d   1       3.192   0.249  -8.267  0.00  0.00    -0.353 OA
ATOM     39  C   LIG d   1       4.365   0.854  -8.531  0.00  0.00     0.183 A 
ATOM     40  C   LIG d   1       5.296   0.242  -7.735  0.00  0.00     0.009 A 
ATOM     41  H   LIG d   1       6.353   0.452  -7.664  0.00  0.00     0.068 H 
BRANCH  39  42
ATOM     42  C   LIG d   1       4.601   1.952  -9.485  0.00  0.00     0.110 C 
ATOM     43  O   LIG d   1       3.827   2.138 -10.403  0.00  0.00    -0.541 OA
ATOM     44  O   LIG d   1       5.678   2.750  -9.340  0.00  0.00    -0.541 OA
ENDBRANCH  39  42
ENDBRANCH  33  36
ENDBRANCH  19  33
ENDBRANCH  14  17
ENDBRANCH   8  14
ENDBRANCH   4   7
ENDBRANCH   1   4
TORSDOF 8
ENDMDL
MODEL 5
REMARK VINA RESULT:      -5.4      6.639      9.800
REMARK  8 active torsions:
REMARK  status: ('A' for Active; 'I' for Inactive)
REMARK    1  A    between atoms: C_1  and  N_2 
REMARK    2  A    between atoms: N_2  and  C_3 
REMARK       I    between atoms: N_2  and  C_6 
REMARK    3  A    between atoms: C_3  and  C_4 
REMARK    4  A    between atoms: C_6  and  C_8 
REMARK    5  A    between atoms: C_8  and  C_9 
REMARK    6  A    between atoms: C_14  and  C_16 
REMARK    7  A    between atoms: C_16  and  C_17 
REMARK    8  A    between atoms: C_19  and  C_22 
ROOT
ATOM      1  C   LIG d   1       4.110  -1.316  -2.987  0.00  0.00    -0.086 C 
ATOM      2  C   LIG d   1       3.860  -2.229  -2.292  0.00  0.00    -0.118 C 
ATOM      3  H   LIG d   1       3.637  -3.046  -1.671  0.00  0.00     0.123 H 
ENDROOT
BRANCH   1   4
ATOM      4  C   LIG d   1       4.423  -0.172  -3.858  0.00  0.00     0.076 C 
ATOM      5  H   LIG d   1       4.125   0.753  -3.363  0.00  0.00     0.060 H 
ATOM      6  H   LIG d   1       3.881  -0.272  -4.799  0.00  0.00     0.060 H 
BRANCH   4   7
ATOM      7  N   LIG d   1       5.863  -0.141  -4.126  0.00  0.00    -0.293 N 
ATOM      8  C   LIG d   1       6.600   0.913  -3.726  0.00  0.00     0.216 C 
ATOM      9  O   LIG d   1       6.072   1.837  -3.145  0.00  0.00    -0.276 OA
BRANCH   7  10
ATOM     10  C   LIG d   1       6.501  -1.258  -4.828  0.00  0.00     0.004 C 
ATOM     11  H   LIG d   1       7.354  -1.612  -4.249  0.00  0.00     0.043 H 
ATOM     12  H   LIG d   1       5.783  -2.069  -4.948  0.00  0.00     0.043 H 
ATOM     13  H   LIG d   1       6.840  -0.924  -5.808  0.00  0.00     0.043 H 
ENDBRANCH   7  10
BRANCH   8  14
ATOM     14  C   LIG d   1       8.081   0.947  -4.007  0.00  0.00     0.028 C 
ATOM     15  H   LIG d   1       8.625   1.070  -3.070  0.00  0.00     0.036 H 
ATOM     16  H   LIG d   1       8.382   0.014  -4.483  0.00  0.00     0.036 H 
BRANCH  14  17
ATOM     17  C   LIG d   1       8.397   2.120  -4.938  0.00  0.00    -0.020 C 
ATOM     18  H   LIG d   1       7.725   2.950  -4.718  0.00  0.00     0.031 H 
ATOM     19  C   LIG d   1       9.847   2.564  -4.726  0.00  0.00     0.008 C 
ATOM     20  C   LIG d   1      10.787   1.413  -5.093  0.00  0.00    -0.030 C 
ATOM     21  H   LIG d   1      10.060   3.425  -5.360  0.00  0.00     0.036 H 
ATOM     22  H   LIG d   1      11.820   1.731  -4.957  0.00  0.00     0.082 H 
ATOM     23  H   LIG d   1      10.582   0.558  -4.448  0.00  0.00     0.082 H 
ATOM     24  N   LIG d   1      10.580   1.032  -6.503  0.00  0.00     0.227 N 
ATOM     25  C   LIG d   1       9.199   0.557  -6.711  0.00  0.00    -0.033 C 
ATOM     26  H   LIG d   1      10.751   1.850  -7.102  0.00  0.00     0.201 HD
ATOM     27  H   LIG d   1      11.237   0.283  -6.750  0.00  0.00     0.201 HD
ATOM     28  C   LIG d   1       8.213   1.682  -6.393  0.00  0.00    -0.009 C 
ATOM     29  H   LIG d   1       9.080   0.253  -7.751  0.00  0.00     0.081 H 
ATOM     30  H   LIG d   1       9.002  -0.294  -6.059  0.00  0.00     0.081 H 
ATOM     31  H   LIG d   1       7.193   1.324  -6.539  0.00  0.00     0.032 H 
ATOM     32  H   LIG d   1       8.399   2.529  -7.054  0.00  0.00     0.032 H 
BRANCH  19  33
ATOM     33  C   LIG d   1      10.056   2.946  -3.260  0.00  0.00     0.001 C 
ATOM     34  H   LIG d   1       9.338   2.410  -2.639  0.00  0.00     0.033 H 
ATOM     35  H   LIG d   1      11.068   2.682  -2.956  0.00  0.00     0.033 H 
BRANCH  33  36
ATOM     36  C   LIG d   1       9.853   4.431  -3.094  0.00  0.00     0.085 A 
ATOM     37  N   LIG d   1       9.480   5.272  -4.013  0.00  0.00    -0.083 NA
ATOM     38  O   LIG d   1       9.398   6.400  -3.588  0.00  0.00    -0.353 OA
ATOM     39  C   LIG d   1       9.728   6.461  -2.284  0.00  0.00     0.183 A 
ATOM     40  C   LIG d   1      10.037   5.180  -1.911  0.00  0.00     0.009 A 
ATOM     41  H   LIG d   1      10.349   4.827  -0.939  0.00  0.00     0.068 H 
BRANCH  39  42
ATOM     42  C   LIG d   1       9.752   7.662  -1.430  0.00  0.00     0.110 C 
ATOM     43  O   LIG d   1       8.749   8.006  -0.836  0.00  0.00    -0.541 OA
ATOM     44  O   LIG d   1      10.886   8.380  -1.311  0.00  0.00    -0.541 OA
ENDBRANCH  39  42
ENDBRANCH  33  36
ENDBRANCH  19  33
ENDBRANCH  14  17
ENDBRANCH   8  14
ENDBRANCH   4   7
ENDBRANCH   1   4
TORSDOF 8
ENDMDL
MODEL 6
REMARK VINA RESULT:      -5.4      3.347      5.175
REMARK  8 active torsions:
REMARK  status: ('A' for Active; 'I' for Inactive)
REMARK    1  A    between atoms: C_1  and  N_2 
REMARK    2  A    between atoms: N_2  and  C_3 
REMARK       I    between atoms: N_2  and  C_6 
REMARK    3  A    between atoms: C_3  and  C_4 
REMARK    4  A    between atoms: C_6  and  C_8 
REMARK    5  A    between atoms: C_8  and  C_9 
REMARK    6  A    between atoms: C_14  and  C_16 
REMARK    7  A    between atoms: C_16  and  C_17 
REMARK    8  A    between atoms: C_19  and  C_22 
ROOT
ATOM      1  C   LIG d   1      10.594   1.623  -4.646  0.00  0.00    -0.086 C 
ATOM      2  C   LIG d   1      11.680   1.478  -4.226  0.00  0.00    -0.118 C 
ATOM      3  H   LIG d   1      12.652   1.348  -3.850  0.00  0.00     0.123 H 
ENDROOT
BRANCH   1   4
ATOM      4  C   LIG d   1       9.231   1.805  -5.173  0.00  0.00     0.076 C 
ATOM      5  H   LIG d   1       9.263   1.827  -6.263  0.00  0.00     0.060 H 
ATOM      6  H   LIG d   1       8.820   2.744  -4.801  0.00  0.00     0.060 H 
BRANCH   4   7
ATOM      7  N   LIG d   1       8.385   0.693  -4.731  0.00  0.00    -0.293 N 
ATOM      8  C   LIG d   1       7.337   0.926  -3.918  0.00  0.00     0.216 C 
ATOM      9  O   LIG d   1       7.094   2.056  -3.550  0.00  0.00    -0.276 OA
BRANCH   7  10
ATOM     10  C   LIG d   1       8.679  -0.672  -5.176  0.00  0.00     0.004 C 
ATOM     11  H   LIG d   1       9.640  -0.987  -4.770  0.00  0.00     0.043 H 
ATOM     12  H   LIG d   1       7.897  -1.345  -4.824  0.00  0.00     0.043 H 
ATOM     13  H   LIG d   1       8.718  -0.698  -6.265  0.00  0.00     0.043 H 
ENDBRANCH   7  10
BRANCH   8  14
ATOM     14  C   LIG d   1       6.469  -0.218  -3.459  0.00  0.00     0.028 C 
ATOM     15  H   LIG d   1       6.646  -1.085  -4.095  0.00  0.00     0.036 H 
ATOM     16  H   LIG d   1       6.716  -0.468  -2.427  0.00  0.00     0.036 H 
BRANCH  14  17
ATOM     17  C   LIG d   1       4.997   0.189  -3.548  0.00  0.00    -0.020 C 
ATOM     18  H   LIG d   1       4.927   1.236  -3.845  0.00  0.00     0.031 H 
ATOM     19  C   LIG d   1       4.287  -0.686  -4.585  0.00  0.00     0.008 C 
ATOM     20  C   LIG d   1       4.338  -2.148  -4.133  0.00  0.00    -0.030 C 
ATOM     21  H   LIG d   1       3.248  -0.369  -4.677  0.00  0.00     0.036 H 
ATOM     22  H   LIG d   1       3.821  -2.771  -4.861  0.00  0.00     0.082 H 
ATOM     23  H   LIG d   1       5.378  -2.466  -4.055  0.00  0.00     0.082 H 
ATOM     24  N   LIG d   1       3.676  -2.286  -2.822  0.00  0.00     0.227 N 
ATOM     25  C   LIG d   1       4.380  -1.485  -1.802  0.00  0.00    -0.033 C 
ATOM     26  H   LIG d   1       2.705  -1.960  -2.898  0.00  0.00     0.201 HD
ATOM     27  H   LIG d   1       3.686  -3.274  -2.542  0.00  0.00     0.201 HD
ATOM     28  C   LIG d   1       4.329  -0.004  -2.184  0.00  0.00    -0.009 C 
ATOM     29  H   LIG d   1       3.892  -1.627  -0.838  0.00  0.00     0.081 H 
ATOM     30  H   LIG d   1       5.419  -1.807  -1.735  0.00  0.00     0.081 H 
ATOM     31  H   LIG d   1       4.857   0.584  -1.434  0.00  0.00     0.032 H 
ATOM     32  H   LIG d   1       3.291   0.323  -2.239  0.00  0.00     0.032 H 
BRANCH  19  33
ATOM     33  C   LIG d   1       4.986  -0.545  -5.938  0.00  0.00     0.001 C 
ATOM     34  H   LIG d   1       5.638   0.329  -5.921  0.00  0.00     0.033 H 
ATOM     35  H   LIG d   1       5.580  -1.437  -6.135  0.00  0.00     0.033 H 
BRANCH  33  36
ATOM     36  C   LIG d   1       3.953  -0.380  -7.023  0.00  0.00     0.085 A 
ATOM     37  N   LIG d   1       3.290   0.703  -7.306  0.00  0.00    -0.083 NA
ATOM     38  O   LIG d   1       2.529   0.539  -8.232  0.00  0.00    -0.353 OA
ATOM     39  C   LIG d   1       2.582  -0.724  -8.695  0.00  0.00     0.183 A 
ATOM     40  C   LIG d   1       3.512  -1.372  -7.926  0.00  0.00     0.009 A 
ATOM     41  H   LIG d   1       3.833  -2.401  -7.995  0.00  0.00     0.068 H 
BRANCH  39  42
ATOM     42  C   LIG d   1       1.799  -1.295  -9.805  0.00  0.00     0.110 C 
ATOM     43  O   LIG d   1       1.311  -0.564 -10.645  0.00  0.00    -0.541 OA
ATOM     44  O   LIG d   1       1.622  -2.629  -9.888  0.00  0.00    -0.541 OA
ENDBRANCH  39  42
ENDBRANCH  33  36
ENDBRANCH  19  33
ENDBRANCH  14  17
ENDBRANCH   8  14
ENDBRANCH   4   7
ENDBRANCH   1   4
TORSDOF 8
ENDMDL
MODEL 7
REMARK VINA RESULT:      -5.2      3.172      5.436
REMARK  8 active torsions:
REMARK  status: ('A' for Active; 'I' for Inactive)
REMARK    1  A    between atoms: C_1  and  N_2 
REMARK    2  A    between atoms: N_2  and  C_3 
REMARK       I    between atoms: N_2  and  C_6 
REMARK    3  A    between atoms: C_3  and  C_4 
REMARK    4  A    between atoms: C_6  and  C_8 
REMARK    5  A    between atoms: C_8  and  C_9 
REMARK    6  A    between atoms: C_14  and  C_16 
REMARK    7  A    between atoms: C_16  and  C_17 
REMARK    8  A    between atoms: C_19  and  C_22 
ROOT
ATOM      1  C   LIG d   1       2.626  -0.099  -4.027  0.00  0.00    -0.086 C 
ATOM      2  C   LIG d   1       2.201   0.513  -4.934  0.00  0.00    -0.118 C 
ATOM      3  H   LIG d   1       1.820   1.059  -5.746  0.00  0.00     0.123 H 
ENDROOT
BRANCH   1   4
ATOM      4  C   LIG d   1       3.160  -0.866  -2.889  0.00  0.00     0.076 C 
ATOM      5  H   LIG d   1       2.655  -1.831  -2.833  0.00  0.00     0.060 H 
ATOM      6  H   LIG d   1       2.990  -0.312  -1.966  0.00  0.00     0.060 H 
BRANCH   4   7
ATOM      7  N   LIG d   1       4.598  -1.076  -3.074  0.00  0.00    -0.293 N 
ATOM      8  C   LIG d   1       5.050  -2.244  -3.568  0.00  0.00     0.216 C 
ATOM      9  O   LIG d   1       4.267  -3.123  -3.860  0.00  0.00    -0.276 OA
BRANCH   7  10
ATOM     10  C   LIG d   1       5.544  -0.014  -2.720  0.00  0.00     0.004 C 
ATOM     11  H   LIG d   1       6.446  -0.114  -3.325  0.00  0.00     0.043 H 
ATOM     12  H   LIG d   1       5.087   0.957  -2.907  0.00  0.00     0.043 H 
ATOM     13  H   LIG d   1       5.804  -0.097  -1.665  0.00  0.00     0.043 H 
ENDBRANCH   7  10
BRANCH   8  14
ATOM     14  C   LIG d   1       6.530  -2.463  -3.752  0.00  0.00     0.028 C 
ATOM     15  H   LIG d   1       7.068  -1.554  -3.482  0.00  0.00     0.036 H 
ATOM     16  H   LIG d   1       6.858  -3.283  -3.112  0.00  0.00     0.036 H 
BRANCH  14  17
ATOM     17  C   LIG d   1       6.817  -2.810  -5.214  0.00  0.00    -0.020 C 
ATOM     18  H   LIG d   1       5.947  -2.566  -5.824  0.00  0.00     0.031 H 
ATOM     19  C   LIG d   1       8.027  -2.007  -5.702  0.00  0.00     0.008 C 
ATOM     20  C   LIG d   1       9.258  -2.398  -4.881  0.00  0.00    -0.030 C 
ATOM     21  H   LIG d   1       8.207  -2.224  -6.754  0.00  0.00     0.036 H 
ATOM     22  H   LIG d   1      10.123  -1.838  -5.235  0.00  0.00     0.082 H 
ATOM     23  H   LIG d   1       9.081  -2.167  -3.830  0.00  0.00     0.082 H 
ATOM     24  N   LIG d   1       9.520  -3.841  -5.034  0.00  0.00     0.227 N 
ATOM     25  C   LIG d   1       8.382  -4.629  -4.524  0.00  0.00    -0.033 C 
ATOM     26  H   LIG d   1       9.661  -4.055  -6.030  0.00  0.00     0.201 HD
ATOM     27  H   LIG d   1      10.366  -4.089  -4.508  0.00  0.00     0.201 HD
ATOM     28  C   LIG d   1       7.126  -4.305  -5.335  0.00  0.00    -0.009 C 
ATOM     29  H   LIG d   1       8.612  -5.690  -4.620  0.00  0.00     0.081 H 
ATOM     30  H   LIG d   1       8.210  -4.388  -3.475  0.00  0.00     0.081 H 
ATOM     31  H   LIG d   1       6.285  -4.882  -4.949  0.00  0.00     0.032 H 
ATOM     32  H   LIG d   1       7.291  -4.558  -6.381  0.00  0.00     0.032 H 
BRANCH  19  33
ATOM     33  C   LIG d   1       7.751  -0.512  -5.529  0.00  0.00     0.001 C 
ATOM     34  H   LIG d   1       7.347  -0.330  -4.532  0.00  0.00     0.033 H 
ATOM     35  H   LIG d   1       8.679   0.046  -5.652  0.00  0.00     0.033 H 
BRANCH  33  36
ATOM     36  C   LIG d   1       6.753  -0.062  -6.565  0.00  0.00     0.085 A 
ATOM     37  N   LIG d   1       5.505   0.244  -6.361  0.00  0.00    -0.083 NA
ATOM     38  O   LIG d   1       4.948   0.575  -7.381  0.00  0.00    -0.353 OA
ATOM     39  C   LIG d   1       5.780   0.521  -8.438  0.00  0.00     0.183 A 
ATOM     40  C   LIG d   1       6.989   0.104  -7.947  0.00  0.00     0.009 A 
ATOM     41  H   LIG d   1       7.908  -0.060  -8.492  0.00  0.00     0.068 H 
BRANCH  39  42
ATOM     42  C   LIG d   1       5.457   0.844  -9.839  0.00  0.00     0.110 C 
ATOM     43  O   LIG d   1       4.837   1.855 -10.102  0.00  0.00    -0.541 OA
ATOM     44  O   LIG d   1       5.849   0.016 -10.828  0.00  0.00    -0.541 OA
ENDBRANCH  39  42
ENDBRANCH  33  36
ENDBRANCH  19  33
ENDBRANCH  14  17
ENDBRANCH   8  14
ENDBRANCH   4   7
ENDBRANCH   1   4
TORSDOF 8
ENDMDL
MODEL 8
REMARK VINA RESULT:      -5.1      2.983      3.889
REMARK  8 active torsions:
REMARK  status: ('A' for Active; 'I' for Inactive)
REMARK    1  A    between atoms: C_1  and  N_2 
REMARK    2  A    between atoms: N_2  and  C_3 
REMARK       I    between atoms: N_2  and  C_6 
REMARK    3  A    between atoms: C_3  and  C_4 
REMARK    4  A    between atoms: C_6  and  C_8 
REMARK    5  A    between atoms: C_8  and  C_9 
REMARK    6  A    between atoms: C_14  and  C_16 
REMARK    7  A    between atoms: C_16  and  C_17 
REMARK    8  A    between atoms: C_19  and  C_22 
ROOT
ATOM      1  C   LIG d   1       8.828   2.104  -6.344  0.00  0.00    -0.086 C 
ATOM      2  C   LIG d   1       8.740   2.326  -7.493  0.00  0.00    -0.118 C 
ATOM      3  H   LIG d   1       8.662   2.524  -8.522  0.00  0.00     0.123 H 
ENDROOT
BRANCH   1   4
ATOM      4  C   LIG d   1       8.939   1.827  -4.903  0.00  0.00     0.076 C 
ATOM      5  H   LIG d   1       8.528   2.665  -4.339  0.00  0.00     0.060 H 
ATOM      6  H   LIG d   1       9.987   1.689  -4.638  0.00  0.00     0.060 H 
BRANCH   4   7
ATOM      7  N   LIG d   1       8.190   0.608  -4.581  0.00  0.00    -0.293 N 
ATOM      8  C   LIG d   1       7.093   0.677  -3.804  0.00  0.00     0.216 C 
ATOM      9  O   LIG d   1       6.723   1.748  -3.369  0.00  0.00    -0.276 OA
BRANCH   7  10
ATOM     10  C   LIG d   1       8.637  -0.684  -5.106  0.00  0.00     0.004 C 
ATOM     11  H   LIG d   1       7.901  -1.062  -5.816  0.00  0.00     0.043 H 
ATOM     12  H   LIG d   1       9.596  -0.561  -5.609  0.00  0.00     0.043 H 
ATOM     13  H   LIG d   1       8.745  -1.392  -4.284  0.00  0.00     0.043 H 
ENDBRANCH   7  10
BRANCH   8  14
ATOM     14  C   LIG d   1       6.326  -0.576  -3.468  0.00  0.00     0.028 C 
ATOM     15  H   LIG d   1       6.977  -1.443  -3.590  0.00  0.00     0.036 H 
ATOM     16  H   LIG d   1       5.981  -0.525  -2.435  0.00  0.00     0.036 H 
BRANCH  14  17
ATOM     17  C   LIG d   1       5.123  -0.706  -4.403  0.00  0.00    -0.020 C 
ATOM     18  H   LIG d   1       5.433  -0.494  -5.427  0.00  0.00     0.031 H 
ATOM     19  C   LIG d   1       4.563  -2.129  -4.322  0.00  0.00     0.008 C 
ATOM     20  C   LIG d   1       4.075  -2.400  -2.896  0.00  0.00    -0.030 C 
ATOM     21  H   LIG d   1       3.731  -2.232  -5.018  0.00  0.00     0.036 H 
ATOM     22  H   LIG d   1       3.662  -3.406  -2.839  0.00  0.00     0.082 H 
ATOM     23  H   LIG d   1       4.912  -2.309  -2.204  0.00  0.00     0.082 H 
ATOM     24  N   LIG d   1       3.026  -1.427  -2.537  0.00  0.00     0.227 N 
ATOM     25  C   LIG d   1       3.565  -0.054  -2.565  0.00  0.00    -0.033 C 
ATOM     26  H   LIG d   1       2.252  -1.500  -3.209  0.00  0.00     0.201 HD
ATOM     27  H   LIG d   1       2.681  -1.636  -1.593  0.00  0.00     0.201 HD
ATOM     28  C   LIG d   1       4.036   0.287  -3.980  0.00  0.00    -0.009 C 
ATOM     29  H   LIG d   1       2.781   0.643  -2.266  0.00  0.00     0.081 H 
ATOM     30  H   LIG d   1       4.403   0.025  -1.874  0.00  0.00     0.081 H 
ATOM     31  H   LIG d   1       4.442   1.298  -3.995  0.00  0.00     0.032 H 
ATOM     32  H   LIG d   1       3.196   0.222  -4.670  0.00  0.00     0.032 H 
BRANCH  19  33
ATOM     33  C   LIG d   1       5.660  -3.131  -4.685  0.00  0.00     0.001 C 
ATOM     34  H   LIG d   1       6.345  -2.676  -5.401  0.00  0.00     0.033 H 
ATOM     35  H   LIG d   1       6.208  -3.412  -3.786  0.00  0.00     0.033 H 
BRANCH  33  36
ATOM     36  C   LIG d   1       5.036  -4.359  -5.297  0.00  0.00     0.085 A 
ATOM     37  N   LIG d   1       3.853  -4.446  -5.832  0.00  0.00    -0.083 NA
ATOM     38  O   LIG d   1       3.624  -5.558  -6.246  0.00  0.00    -0.353 OA
ATOM     39  C   LIG d   1       4.658  -6.390  -6.024  0.00  0.00     0.183 A 
ATOM     40  C   LIG d   1       5.619  -5.641  -5.397  0.00  0.00     0.009 A 
ATOM     41  H   LIG d   1       6.595  -5.959  -5.059  0.00  0.00     0.068 H 
BRANCH  39  42
ATOM     42  C   LIG d   1       4.742  -7.817  -6.381  0.00  0.00     0.110 C 
ATOM     43  O   LIG d   1       4.330  -8.662  -5.611  0.00  0.00    -0.541 OA
ATOM     44  O   LIG d   1       5.277  -8.185  -7.562  0.00  0.00    -0.541 OA
ENDBRANCH  39  42
ENDBRANCH  33  36
ENDBRANCH  19  33
ENDBRANCH  14  17
ENDBRANCH   8  14
ENDBRANCH   4   7
ENDBRANCH   1   4
TORSDOF 8
ENDMDL
MODEL 9
REMARK VINA RESULT:      -5.1      2.978      5.467
REMARK  8 active torsions:
REMARK  status: ('A' for Active; 'I' for Inactive)
REMARK    1  A    between atoms: C_1  and  N_2 
REMARK    2  A    between atoms: N_2  and  C_3 
REMARK       I    between atoms: N_2  and  C_6 
REMARK    3  A    between atoms: C_3  and  C_4 
REMARK    4  A    between atoms: C_6  and  C_8 
REMARK    5  A    between atoms: C_8  and  C_9 
REMARK    6  A    between atoms: C_14  and  C_16 
REMARK    7  A    between atoms: C_16  and  C_17 
REMARK    8  A    between atoms: C_19  and  C_22 
ROOT
ATOM      1  C   LIG d   1       6.841  -5.666  -5.608  0.00  0.00    -0.086 C 
ATOM      2  C   LIG d   1       6.568  -6.807  -5.587  0.00  0.00    -0.118 C 
ATOM      3  H   LIG d   1       6.324  -7.829  -5.569  0.00  0.00     0.123 H 
ENDROOT
BRANCH   1   4
ATOM      4  C   LIG d   1       7.183  -4.234  -5.634  0.00  0.00     0.076 C 
ATOM      5  H   LIG d   1       7.438  -3.940  -6.653  0.00  0.00     0.060 H 
ATOM      6  H   LIG d   1       8.034  -4.052  -4.978  0.00  0.00     0.060 H 
BRANCH   4   7
ATOM      7  N   LIG d   1       6.035  -3.449  -5.172  0.00  0.00    -0.293 N 
ATOM      8  C   LIG d   1       6.186  -2.559  -4.173  0.00  0.00     0.216 C 
ATOM      9  O   LIG d   1       7.272  -2.408  -3.654  0.00  0.00    -0.276 OA
BRANCH   7  10
ATOM     10  C   LIG d   1       4.723  -3.633  -5.799  0.00  0.00     0.004 C 
ATOM     11  H   LIG d   1       4.852  -3.812  -6.866  0.00  0.00     0.043 H 
ATOM     12  H   LIG d   1       4.220  -4.487  -5.345  0.00  0.00     0.043 H 
ATOM     13  H   LIG d   1       4.122  -2.736  -5.651  0.00  0.00     0.043 H 
ENDBRANCH   7  10
BRANCH   8  14
ATOM     14  C   LIG d   1       5.004  -1.756  -3.693  0.00  0.00     0.028 C 
ATOM     15  H   LIG d   1       4.096  -2.126  -4.170  0.00  0.00     0.036 H 
ATOM     16  H   LIG d   1       4.913  -1.855  -2.611  0.00  0.00     0.036 H 
BRANCH  14  17
ATOM     17  C   LIG d   1       5.206  -0.284  -4.056  0.00  0.00    -0.020 C 
ATOM     18  H   LIG d   1       5.910  -0.206  -4.884  0.00  0.00     0.031 H 
ATOM     19  C   LIG d   1       3.864   0.331  -4.464  0.00  0.00     0.008 C 
ATOM     20  C   LIG d   1       2.899   0.273  -3.277  0.00  0.00    -0.030 C 
ATOM     21  H   LIG d   1       4.016   1.369  -4.760  0.00  0.00     0.036 H 
ATOM     22  H   LIG d   1       1.949   0.723  -3.561  0.00  0.00     0.082 H 
ATOM     23  H   LIG d   1       2.739  -0.767  -2.992  0.00  0.00     0.082 H 
ATOM     24  N   LIG d   1       3.466   1.019  -2.138  0.00  0.00     0.227 N 
ATOM     25  C   LIG d   1       4.737   0.408  -1.703  0.00  0.00    -0.033 C 
ATOM     26  H   LIG d   1       3.638   1.991  -2.423  0.00  0.00     0.201 HD
ATOM     27  H   LIG d   1       2.798   1.003  -1.359  0.00  0.00     0.201 HD
ATOM     28  C   LIG d   1       5.756   0.471  -2.842  0.00  0.00    -0.009 C 
ATOM     29  H   LIG d   1       5.119   0.957  -0.843  0.00  0.00     0.081 H 
ATOM     30  H   LIG d   1       4.567  -0.631  -1.424  0.00  0.00     0.081 H 
ATOM     31  H   LIG d   1       6.690   0.011  -2.520  0.00  0.00     0.032 H 
ATOM     32  H   LIG d   1       5.937   1.511  -3.113  0.00  0.00     0.032 H 
BRANCH  19  33
ATOM     33  C   LIG d   1       3.279  -0.455  -5.638  0.00  0.00     0.001 C 
ATOM     34  H   LIG d   1       3.764  -1.430  -5.701  0.00  0.00     0.033 H 
ATOM     35  H   LIG d   1       2.208  -0.591  -5.486  0.00  0.00     0.033 H 
BRANCH  33  36
ATOM     36  C   LIG d   1       3.511   0.306  -6.918  0.00  0.00     0.085 A 
ATOM     37  N   LIG d   1       3.056   1.488  -7.214  0.00  0.00    -0.083 NA
ATOM     38  O   LIG d   1       3.409   1.848  -8.313  0.00  0.00    -0.353 OA
ATOM     39  C   LIG d   1       4.166   0.913  -8.918  0.00  0.00     0.183 A 
ATOM     40  C   LIG d   1       4.263  -0.128  -8.033  0.00  0.00     0.009 A 
ATOM     41  H   LIG d   1       4.790  -1.062  -8.159  0.00  0.00     0.068 H 
BRANCH  39  42
ATOM     42  C   LIG d   1       4.768   0.993 -10.260  0.00  0.00     0.110 C 
ATOM     43  O   LIG d   1       5.977   1.018 -10.384  0.00  0.00    -0.541 OA
ATOM     44  O   LIG d   1       3.978   1.040 -11.351  0.00  0.00    -0.541 OA
ENDBRANCH  39  42
ENDBRANCH  33  36
ENDBRANCH  19  33
ENDBRANCH  14  17
ENDBRANCH   8  14
ENDBRANCH   4   7
ENDBRANCH   1   4
TORSDOF 8
ENDMDL
