MODEL 1
REMARK VINA RESULT:      -6.4      0.000      0.000
REMARK  10 active torsions:
REMARK  status: ('A' for Active; 'I' for Inactive)
REMARK    1  A    between atoms: C_1  and  C_2 
REMARK    2  A    between atoms: C_9  and  O_20 
REMARK    3  A    between atoms: C_12  and  C_14 
REMARK    4  A    between atoms: C_23  and  O_38 
REMARK    5  A    between atoms: C_24  and  C_31 
REMARK    6  A    between atoms: C_27  and  O_30 
REMARK    7  A    between atoms: N_32  and  C_33 
REMARK    8  A    between atoms: C_33  and  C_34 
REMARK    9  A    between atoms: C_34  and  O_36 
REMARK   10  A    between atoms: O_36  and  C_37 
ROOT
ATOM      1  C   LIG d   1       5.415  -4.760  -6.708  0.00  0.00     0.004 C 
ATOM      2  C   LIG d   1       6.465  -3.649  -6.633  0.00  0.00    -0.044 C 
ATOM      3  C   LIG d   1       5.796  -2.279  -6.549  0.00  0.00    -0.048 C 
ATOM      4  C   LIG d   1       4.983  -2.052  -7.828  0.00  0.00    -0.022 C 
ATOM      5  H   LIG d   1       5.631  -2.134  -8.714  0.00  0.00     0.031 H 
ATOM      6  C   LIG d   1       3.878  -3.104  -7.892  0.00  0.00    -0.008 C 
ATOM      7  H   LIG d   1       3.248  -3.005  -6.995  0.00  0.00     0.033 H 
ATOM      8  C   LIG d   1       4.436  -4.506  -7.868  0.00  0.00     0.075 C 
ATOM      9  C   LIG d   1       5.270  -4.833  -9.120  0.00  0.00    -0.023 C 
ATOM     10  C   LIG d   1       6.089  -6.074  -8.694  0.00  0.00    -0.043 C 
ATOM     11  C   LIG d   1       6.160  -6.046  -7.156  0.00  0.00    -0.008 C 
ATOM     12  H   LIG d   1       7.199  -6.074  -6.796  0.00  0.00     0.035 H 
ATOM     13  C   LIG d   1       3.035  -2.886  -9.151  0.00  0.00    -0.045 C 
ATOM     14  C   LIG d   1       2.410  -1.490  -9.110  0.00  0.00    -0.023 C 
ATOM     15  C   LIG d   1       3.518  -0.436  -9.046  0.00  0.00     0.079 C 
ATOM     16  C   LIG d   1       4.358  -0.656  -7.788  0.00  0.00     0.038 C 
ATOM     17  C   LIG d   1       5.467   0.397  -7.724  0.00  0.00    -0.037 C 
ATOM     18  C   LIG d   1       6.357   0.278  -8.960  0.00  0.00    -0.026 C 
ATOM     19  C   LIG d   1       5.516   0.499 -10.219  0.00  0.00     0.058 C 
ATOM     20  H   LIG d   1       6.140   0.478 -11.125  0.00  0.00     0.059 H 
ATOM     21  C   LIG d   1       4.410  -0.556 -10.284  0.00  0.00     0.003 C 
ATOM     22  H   LIG d   1       7.089  -3.794  -5.739  0.00  0.00     0.027 H 
ATOM     23  H   LIG d   1       7.097  -3.681  -7.532  0.00  0.00     0.027 H 
ATOM     24  H   LIG d   1       5.132  -2.248  -5.673  0.00  0.00     0.027 H 
ATOM     25  H   LIG d   1       6.566  -1.500  -6.452  0.00  0.00     0.027 H 
ATOM     26  H   LIG d   1       4.596  -5.046  -9.964  0.00  0.00     0.029 H 
ATOM     27  H   LIG d   1       5.910  -3.975  -9.370  0.00  0.00     0.029 H 
ATOM     28  H   LIG d   1       5.584  -6.985  -9.047  0.00  0.00     0.027 H 
ATOM     29  H   LIG d   1       7.096  -6.018  -9.135  0.00  0.00     0.027 H 
ATOM     30  H   LIG d   1       3.675  -2.974 -10.041  0.00  0.00     0.027 H 
ATOM     31  H   LIG d   1       2.238  -3.642  -9.195  0.00  0.00     0.027 H 
ATOM     32  H   LIG d   1       1.806  -1.332 -10.016  0.00  0.00     0.029 H 
ATOM     33  H   LIG d   1       1.768  -1.401  -8.222  0.00  0.00     0.029 H 
ATOM     34  H   LIG d   1       5.018   1.400  -7.692  0.00  0.00     0.028 H 
ATOM     35  H   LIG d   1       6.072   0.238  -6.820  0.00  0.00     0.028 H 
ATOM     36  H   LIG d   1       7.153   1.036  -8.914  0.00  0.00     0.029 H 
ATOM     37  H   LIG d   1       6.808  -0.725  -8.992  0.00  0.00     0.029 H 
ATOM     38  H   LIG d   1       4.860  -1.559 -10.314  0.00  0.00     0.032 H 
ATOM     39  H   LIG d   1       3.805  -0.398 -11.188  0.00  0.00     0.032 H 
ENDROOT
BRANCH  16  40
ATOM     40  C   LIG d   1       3.479  -0.534  -6.569  0.00  0.00     0.009 C 
ATOM     41  N   LIG d   1       3.338   0.599  -5.994  0.00  0.00    -0.284 NA
ATOM     42  H   LIG d   1       2.959  -1.421  -6.175  0.00  0.00     0.079 H 
BRANCH  41  43
ATOM     43  C   LIG d   1       2.484   0.717  -4.809  0.00  0.00     0.136 C 
ATOM     44  H   LIG d   1       1.887   1.640  -4.878  0.00  0.00     0.062 H 
ATOM     45  H   LIG d   1       1.809  -0.150  -4.755  0.00  0.00     0.062 H 
BRANCH  43  46
ATOM     46  C   LIG d   1       3.343   0.764  -3.572  0.00  0.00     0.328 C 
ATOM     47  O   LIG d   1       4.216   1.593  -3.475  0.00  0.00    -0.249 OA
BRANCH  46  48
ATOM     48  O   LIG d   1       3.137  -0.114  -2.578  0.00  0.00    -0.467 OA
BRANCH  48  49
ATOM     49  C   LIG d   1       3.402  -1.512  -2.869  0.00  0.00     0.082 C 
ATOM     50  H   LIG d   1       3.677  -1.621  -3.929  0.00  0.00     0.066 H 
ATOM     51  H   LIG d   1       2.500  -2.107  -2.662  0.00  0.00     0.066 H 
ATOM     52  H   LIG d   1       4.230  -1.867  -2.238  0.00  0.00     0.066 H 
ENDBRANCH  48  49
ENDBRANCH  46  48
ENDBRANCH  43  46
ENDBRANCH  41  43
ENDBRANCH  16  40
BRANCH  15  53
ATOM     53  O   LIG d   1       2.932   0.867  -9.006  0.00  0.00    -0.388 OA
ATOM     54  H   LIG d   1       2.646   1.312  -8.042  0.00  0.00     0.210 HD
ENDBRANCH  15  53
BRANCH   8  55
ATOM     55  O   LIG d   1       3.358  -5.440  -7.784  0.00  0.00    -0.388 OA
ATOM     56  H   LIG d   1       2.805  -5.558  -6.841  0.00  0.00     0.210 HD
ENDBRANCH   8  55
BRANCH  19  57
ATOM     57  O   LIG d   1       4.930   1.801 -10.178  0.00  0.00    -0.392 OA
ATOM     58  H   LIG d   1       3.843   1.919 -10.297  0.00  0.00     0.210 HD
ENDBRANCH  19  57
BRANCH   1  59
ATOM     59  C   LIG d   1       4.694  -4.952  -5.372  0.00  0.00    -0.056 C 
ATOM     60  H   LIG d   1       3.692  -4.501  -5.428  0.00  0.00     0.024 H 
ATOM     61  H   LIG d   1       5.271  -4.468  -4.571  0.00  0.00     0.024 H 
ATOM     62  H   LIG d   1       4.601  -6.027  -5.158  0.00  0.00     0.024 H 
ENDBRANCH   1  59
BRANCH  11  63
ATOM     63  C   LIG d   1       5.481  -7.263  -6.584  0.00  0.00    -0.022 A 
ATOM     64  C   LIG d   1       4.602  -8.238  -7.332  0.00  0.00     0.115 A 
ATOM     65  O   LIG d   1       4.186  -9.234  -6.357  0.00  0.00    -0.457 OA
ATOM     66  H   LIG d   1       3.735  -7.704  -7.749  0.00  0.00     0.075 H 
ATOM     67  H   LIG d   1       5.177  -8.697  -8.150  0.00  0.00     0.075 H 
ATOM     68  C   LIG d   1       4.742  -8.904  -5.176  0.00  0.00     0.332 A 
ATOM     69  C   LIG d   1       5.546  -7.688  -5.325  0.00  0.00     0.025 A 
ATOM     70  O   LIG d   1       4.602  -9.525  -4.140  0.00  0.00    -0.246 OA
ATOM     71  H   LIG d   1       6.143  -7.133  -4.587  0.00  0.00     0.069 H 
ENDBRANCH  11  63
TORSDOF 10
ENDMDL
MODEL 2
REMARK VINA RESULT:      -6.0      3.092      5.523
REMARK  10 active torsions:
REMARK  status: ('A' for Active; 'I' for Inactive)
REMARK    1  A    between atoms: C_1  and  C_2 
REMARK    2  A    between atoms: C_9  and  O_20 
REMARK    3  A    between atoms: C_12  and  C_14 
REMARK    4  A    between atoms: C_23  and  O_38 
REMARK    5  A    between atoms: C_24  and  C_31 
REMARK    6  A    between atoms: C_27  and  O_30 
REMARK    7  A    between atoms: N_32  and  C_33 
REMARK    8  A    between atoms: C_33  and  C_34 
REMARK    9  A    between atoms: C_34  and  O_36 
REMARK   10  A    between atoms: O_36  and  C_37 
ROOT
ATOM      1  C   LIG d   1       7.298  -4.676  -5.732  0.00  0.00     0.004 C 
ATOM      2  C   LIG d   1       5.974  -4.919  -5.003  0.00  0.00    -0.044 C 
ATOM      3  C   LIG d   1       5.032  -3.732  -5.183  0.00  0.00    -0.048 C 
ATOM      4  C   LIG d   1       5.678  -2.494  -4.552  0.00  0.00    -0.022 C 
ATOM      5  H   LIG d   1       5.902  -2.677  -3.491  0.00  0.00     0.031 H 
ATOM      6  C   LIG d   1       6.967  -2.182  -5.310  0.00  0.00    -0.008 C 
ATOM      7  H   LIG d   1       6.717  -2.007  -6.368  0.00  0.00     0.033 H 
ATOM      8  C   LIG d   1       7.927  -3.345  -5.285  0.00  0.00     0.075 C 
ATOM      9  C   LIG d   1       8.450  -3.652  -3.869  0.00  0.00    -0.023 C 
ATOM     10  C   LIG d   1       9.012  -5.087  -3.996  0.00  0.00    -0.043 C 
ATOM     11  C   LIG d   1       8.300  -5.733  -5.199  0.00  0.00    -0.008 C 
ATOM     12  H   LIG d   1       7.806  -6.675  -4.922  0.00  0.00     0.035 H 
ATOM     13  C   LIG d   1       7.622  -0.933  -4.714  0.00  0.00    -0.045 C 
ATOM     14  C   LIG d   1       6.661   0.251  -4.829  0.00  0.00    -0.023 C 
ATOM     15  C   LIG d   1       5.370  -0.062  -4.070  0.00  0.00     0.079 C 
ATOM     16  C   LIG d   1       4.717  -1.309  -4.667  0.00  0.00     0.038 C 
ATOM     17  C   LIG d   1       3.426  -1.624  -3.907  0.00  0.00    -0.037 C 
ATOM     18  C   LIG d   1       3.748  -1.872  -2.434  0.00  0.00    -0.026 C 
ATOM     19  C   LIG d   1       4.400  -0.624  -1.836  0.00  0.00     0.058 C 
ATOM     20  H   LIG d   1       4.591  -0.749  -0.760  0.00  0.00     0.059 H 
ATOM     21  C   LIG d   1       5.692  -0.312  -2.594  0.00  0.00     0.003 C 
ATOM     22  H   LIG d   1       5.492  -5.820  -5.410  0.00  0.00     0.027 H 
ATOM     23  H   LIG d   1       6.168  -5.060  -3.930  0.00  0.00     0.027 H 
ATOM     24  H   LIG d   1       4.860  -3.559  -6.256  0.00  0.00     0.027 H 
ATOM     25  H   LIG d   1       4.073  -3.947  -4.689  0.00  0.00     0.027 H 
ATOM     26  H   LIG d   1       9.225  -2.920  -3.598  0.00  0.00     0.029 H 
ATOM     27  H   LIG d   1       7.620  -3.590  -3.150  0.00  0.00     0.029 H 
ATOM     28  H   LIG d   1      10.099  -5.041  -4.161  0.00  0.00     0.027 H 
ATOM     29  H   LIG d   1       8.805  -5.645  -3.071  0.00  0.00     0.027 H 
ATOM     30  H   LIG d   1       7.856  -1.113  -3.654  0.00  0.00     0.027 H 
ATOM     31  H   LIG d   1       8.548  -0.708  -5.261  0.00  0.00     0.027 H 
ATOM     32  H   LIG d   1       7.131   1.148  -4.399  0.00  0.00     0.029 H 
ATOM     33  H   LIG d   1       6.428   0.433  -5.888  0.00  0.00     0.029 H 
ATOM     34  H   LIG d   1       2.734  -0.773  -3.992  0.00  0.00     0.028 H 
ATOM     35  H   LIG d   1       2.958  -2.522  -4.336  0.00  0.00     0.028 H 
ATOM     36  H   LIG d   1       2.820  -2.097  -1.888  0.00  0.00     0.029 H 
ATOM     37  H   LIG d   1       4.439  -2.723  -2.347  0.00  0.00     0.029 H 
ATOM     38  H   LIG d   1       6.383  -1.163  -2.510  0.00  0.00     0.032 H 
ATOM     39  H   LIG d   1       6.162   0.586  -2.165  0.00  0.00     0.032 H 
ENDROOT
BRANCH  16  40
ATOM     40  C   LIG d   1       4.397  -1.061  -6.119  0.00  0.00     0.009 C 
ATOM     41  N   LIG d   1       3.370  -0.369  -6.438  0.00  0.00    -0.284 NA
ATOM     42  H   LIG d   1       5.047  -1.477  -6.904  0.00  0.00     0.079 H 
BRANCH  41  43
ATOM     43  C   LIG d   1       3.059  -0.128  -7.850  0.00  0.00     0.136 C 
ATOM     44  H   LIG d   1       3.652  -0.809  -8.478  0.00  0.00     0.062 H 
ATOM     45  H   LIG d   1       1.988  -0.310  -8.025  0.00  0.00     0.062 H 
BRANCH  43  46
ATOM     46  C   LIG d   1       3.391   1.300  -8.202  0.00  0.00     0.328 C 
ATOM     47  O   LIG d   1       2.819   2.207  -7.646  0.00  0.00    -0.249 OA
BRANCH  46  48
ATOM     48  O   LIG d   1       4.322   1.562  -9.132  0.00  0.00    -0.467 OA
BRANCH  48  49
ATOM     49  C   LIG d   1       3.914   1.453 -10.521  0.00  0.00     0.082 C 
ATOM     50  H   LIG d   1       3.511   2.418 -10.862  0.00  0.00     0.066 H 
ATOM     51  H   LIG d   1       3.139   0.678 -10.617  0.00  0.00     0.066 H 
ATOM     52  H   LIG d   1       4.783   1.182 -11.138  0.00  0.00     0.066 H 
ENDBRANCH  48  49
ENDBRANCH  46  48
ENDBRANCH  43  46
ENDBRANCH  41  43
ENDBRANCH  16  40
BRANCH  15  53
ATOM     53  O   LIG d   1       4.473   1.045  -4.180  0.00  0.00    -0.388 OA
ATOM     54  H   LIG d   1       3.650   1.160  -3.460  0.00  0.00     0.210 HD
ENDBRANCH  15  53
BRANCH   8  55
ATOM     55  O   LIG d   1       9.045  -3.050  -6.126  0.00  0.00    -0.388 OA
ATOM     56  H   LIG d   1       9.369  -2.008  -6.264  0.00  0.00     0.210 HD
ENDBRANCH   8  55
BRANCH  19  57
ATOM     57  O   LIG d   1       3.504   0.483  -1.948  0.00  0.00    -0.392 OA
ATOM     58  H   LIG d   1       3.113   0.968  -1.041  0.00  0.00     0.210 HD
ENDBRANCH  19  57
BRANCH   1  59
ATOM     59  C   LIG d   1       7.133  -4.758  -7.252  0.00  0.00    -0.056 C 
ATOM     60  H   LIG d   1       6.069  -4.645  -7.511  0.00  0.00     0.024 H 
ATOM     61  H   LIG d   1       7.496  -5.732  -7.608  0.00  0.00     0.024 H 
ATOM     62  H   LIG d   1       7.713  -3.953  -7.727  0.00  0.00     0.024 H 
ENDBRANCH   1  59
BRANCH  11  63
ATOM     63  C   LIG d   1       9.304  -6.080  -6.269  0.00  0.00    -0.022 A 
ATOM     64  C   LIG d   1      10.711  -5.544  -6.390  0.00  0.00     0.115 A 
ATOM     65  O   LIG d   1      11.279  -6.170  -7.575  0.00  0.00    -0.457 OA
ATOM     66  H   LIG d   1      10.679  -4.450  -6.495  0.00  0.00     0.075 H 
ATOM     67  H   LIG d   1      11.283  -5.809  -5.488  0.00  0.00     0.075 H 
ATOM     68  C   LIG d   1      10.337  -6.977  -8.099  0.00  0.00     0.332 A 
ATOM     69  C   LIG d   1       9.121  -6.921  -7.284  0.00  0.00     0.025 A 
ATOM     70  O   LIG d   1      10.476  -7.655  -9.098  0.00  0.00    -0.246 OA
ATOM     71  H   LIG d   1       8.160  -7.444  -7.399  0.00  0.00     0.069 H 
ENDBRANCH  11  63
TORSDOF 10
ENDMDL
MODEL 3
REMARK VINA RESULT:      -5.9      3.938      7.477
REMARK  10 active torsions:
REMARK  status: ('A' for Active; 'I' for Inactive)
REMARK    1  A    between atoms: C_1  and  C_2 
REMARK    2  A    between atoms: C_9  and  O_20 
REMARK    3  A    between atoms: C_12  and  C_14 
REMARK    4  A    between atoms: C_23  and  O_38 
REMARK    5  A    between atoms: C_24  and  C_31 
REMARK    6  A    between atoms: C_27  and  O_30 
REMARK    7  A    between atoms: N_32  and  C_33 
REMARK    8  A    between atoms: C_33  and  C_34 
REMARK    9  A    between atoms: C_34  and  O_36 
REMARK   10  A    between atoms: O_36  and  C_37 
ROOT
ATOM      1  C   LIG d   1       8.849   0.710  -6.555  0.00  0.00     0.004 C 
ATOM      2  C   LIG d   1       8.037   0.177  -7.738  0.00  0.00    -0.044 C 
ATOM      3  C   LIG d   1       6.599  -0.115  -7.318  0.00  0.00    -0.048 C 
ATOM      4  C   LIG d   1       6.614  -1.210  -6.247  0.00  0.00    -0.022 C 
ATOM      5  H   LIG d   1       7.117  -2.112  -6.627  0.00  0.00     0.031 H 
ATOM      6  C   LIG d   1       7.356  -0.678  -5.022  0.00  0.00    -0.008 C 
ATOM      7  H   LIG d   1       6.838   0.224  -4.664  0.00  0.00     0.033 H 
ATOM      8  C   LIG d   1       8.764  -0.255  -5.359  0.00  0.00     0.075 C 
ATOM      9  C   LIG d   1       9.652  -1.438  -5.789  0.00  0.00    -0.023 C 
ATOM     10  C   LIG d   1      10.842  -0.756  -6.501  0.00  0.00    -0.043 C 
ATOM     11  C   LIG d   1      10.343   0.624  -6.967  0.00  0.00    -0.008 C 
ATOM     12  H   LIG d   1      10.488   0.766  -8.047  0.00  0.00     0.035 H 
ATOM     13  C   LIG d   1       7.366  -1.747  -3.926  0.00  0.00    -0.045 C 
ATOM     14  C   LIG d   1       5.927  -2.096  -3.541  0.00  0.00    -0.023 C 
ATOM     15  C   LIG d   1       5.185  -2.628  -4.768  0.00  0.00     0.079 C 
ATOM     16  C   LIG d   1       5.175  -1.559  -5.862  0.00  0.00     0.038 C 
ATOM     17  C   LIG d   1       4.434  -2.092  -7.090  0.00  0.00    -0.037 C 
ATOM     18  C   LIG d   1       5.138  -3.346  -7.608  0.00  0.00    -0.026 C 
ATOM     19  C   LIG d   1       5.145  -4.416  -6.514  0.00  0.00     0.058 C 
ATOM     20  H   LIG d   1       5.593  -5.354  -6.875  0.00  0.00     0.059 H 
ATOM     21  C   LIG d   1       5.890  -3.884  -5.287  0.00  0.00     0.003 C 
ATOM     22  H   LIG d   1       8.027   0.927  -8.543  0.00  0.00     0.027 H 
ATOM     23  H   LIG d   1       8.495  -0.752  -8.108  0.00  0.00     0.027 H 
ATOM     24  H   LIG d   1       6.143   0.800  -6.912  0.00  0.00     0.027 H 
ATOM     25  H   LIG d   1       6.023  -0.454  -8.192  0.00  0.00     0.027 H 
ATOM     26  H   LIG d   1       9.964  -2.004  -4.898  0.00  0.00     0.029 H 
ATOM     27  H   LIG d   1       9.084  -2.098  -6.461  0.00  0.00     0.029 H 
ATOM     28  H   LIG d   1      11.681  -0.653  -5.796  0.00  0.00     0.027 H 
ATOM     29  H   LIG d   1      11.157  -1.369  -7.358  0.00  0.00     0.027 H 
ATOM     30  H   LIG d   1       7.874  -2.648  -4.297  0.00  0.00     0.027 H 
ATOM     31  H   LIG d   1       7.898  -1.362  -3.044  0.00  0.00     0.027 H 
ATOM     32  H   LIG d   1       5.934  -2.865  -2.754  0.00  0.00     0.029 H 
ATOM     33  H   LIG d   1       5.418  -1.195  -3.168  0.00  0.00     0.029 H 
ATOM     34  H   LIG d   1       3.399  -2.341  -6.814  0.00  0.00     0.028 H 
ATOM     35  H   LIG d   1       4.429  -1.324  -7.877  0.00  0.00     0.028 H 
ATOM     36  H   LIG d   1       4.603  -3.729  -8.490  0.00  0.00     0.029 H 
ATOM     37  H   LIG d   1       6.172  -3.099  -7.885  0.00  0.00     0.029 H 
ATOM     38  H   LIG d   1       6.924  -3.634  -5.564  0.00  0.00     0.032 H 
ATOM     39  H   LIG d   1       5.896  -4.652  -4.500  0.00  0.00     0.032 H 
ENDROOT
BRANCH  16  40
ATOM     40  C   LIG d   1       4.478  -0.325  -5.351  0.00  0.00     0.009 C 
ATOM     41  N   LIG d   1       3.210  -0.329  -5.184  0.00  0.00    -0.284 NA
ATOM     42  H   LIG d   1       5.061   0.581  -5.122  0.00  0.00     0.079 H 
BRANCH  41  43
ATOM     43  C   LIG d   1       2.532   0.871  -4.688  0.00  0.00     0.136 C 
ATOM     44  H   LIG d   1       2.558   1.653  -5.461  0.00  0.00     0.062 H 
ATOM     45  H   LIG d   1       1.486   0.629  -4.448  0.00  0.00     0.062 H 
BRANCH  43  46
ATOM     46  C   LIG d   1       3.231   1.367  -3.447  0.00  0.00     0.328 C 
ATOM     47  O   LIG d   1       3.671   2.490  -3.410  0.00  0.00    -0.249 OA
BRANCH  46  48
ATOM     48  O   LIG d   1       3.361   0.558  -2.384  0.00  0.00    -0.467 OA
BRANCH  48  49
ATOM     49  C   LIG d   1       4.582   0.683  -1.607  0.00  0.00     0.082 C 
ATOM     50  H   LIG d   1       4.474   0.132  -0.662  0.00  0.00     0.066 H 
ATOM     51  H   LIG d   1       4.774   1.745  -1.393  0.00  0.00     0.066 H 
ATOM     52  H   LIG d   1       5.424   0.266  -2.179  0.00  0.00     0.066 H 
ENDBRANCH  48  49
ENDBRANCH  46  48
ENDBRANCH  43  46
ENDBRANCH  41  43
ENDBRANCH  16  40
BRANCH  15  53
ATOM     53  O   LIG d   1       3.840  -2.952  -4.407  0.00  0.00    -0.388 OA
ATOM     54  H   LIG d   1       3.054  -2.971  -5.175  0.00  0.00     0.210 HD
ENDBRANCH  15  53
BRANCH   8  55
ATOM     55  O   LIG d   1       9.356   0.364  -4.215  0.00  0.00    -0.388 OA
ATOM     56  H   LIG d   1      10.241  -0.087  -3.743  0.00  0.00     0.210 HD
ENDBRANCH   8  55
BRANCH  19  57
ATOM     57  O   LIG d   1       3.801  -4.738  -6.152  0.00  0.00    -0.392 OA
ATOM     58  H   LIG d   1       3.478  -5.789  -6.117  0.00  0.00     0.210 HD
ENDBRANCH  19  57
BRANCH   1  59
ATOM     59  C   LIG d   1       8.439   2.136  -6.180  0.00  0.00    -0.056 C 
ATOM     60  H   LIG d   1       7.360   2.263  -6.351  0.00  0.00     0.024 H 
ATOM     61  H   LIG d   1       8.997   2.852  -6.800  0.00  0.00     0.024 H 
ATOM     62  H   LIG d   1       8.665   2.314  -5.119  0.00  0.00     0.024 H 
ENDBRANCH   1  59
BRANCH  11  63
ATOM     63  C   LIG d   1      11.130   1.715  -6.287  0.00  0.00    -0.022 A 
ATOM     64  C   LIG d   1      12.015   1.564  -5.072  0.00  0.00     0.115 A 
ATOM     65  O   LIG d   1      12.552   2.888  -4.798  0.00  0.00    -0.457 OA
ATOM     66  H   LIG d   1      11.416   1.195  -4.227  0.00  0.00     0.075 H 
ATOM     67  H   LIG d   1      12.819   0.846  -5.292  0.00  0.00     0.075 H 
ATOM     68  C   LIG d   1      12.056   3.728  -5.727  0.00  0.00     0.332 A 
ATOM     69  C   LIG d   1      11.183   2.995  -6.648  0.00  0.00     0.025 A 
ATOM     70  O   LIG d   1      12.300   4.917  -5.795  0.00  0.00    -0.246 OA
ATOM     71  H   LIG d   1      10.615   3.344  -7.523  0.00  0.00     0.069 H 
ENDBRANCH  11  63
TORSDOF 10
ENDMDL
MODEL 4
REMARK VINA RESULT:      -5.8      5.139      9.548
REMARK  10 active torsions:
REMARK  status: ('A' for Active; 'I' for Inactive)
REMARK    1  A    between atoms: C_1  and  C_2 
REMARK    2  A    between atoms: C_9  and  O_20 
REMARK    3  A    between atoms: C_12  and  C_14 
REMARK    4  A    between atoms: C_23  and  O_38 
REMARK    5  A    between atoms: C_24  and  C_31 
REMARK    6  A    between atoms: C_27  and  O_30 
REMARK    7  A    between atoms: N_32  and  C_33 
REMARK    8  A    between atoms: C_33  and  C_34 
REMARK    9  A    between atoms: C_34  and  O_36 
REMARK   10  A    between atoms: O_36  and  C_37 
ROOT
ATOM      1  C   LIG d   1       9.609  -9.448  -2.389  0.00  0.00     0.004 C 
ATOM      2  C   LIG d   1       9.910  -9.865  -3.831  0.00  0.00    -0.044 C 
ATOM      3  C   LIG d   1       8.805  -9.392  -4.771  0.00  0.00    -0.048 C 
ATOM      4  C   LIG d   1       7.493 -10.073  -4.367  0.00  0.00    -0.022 C 
ATOM      5  H   LIG d   1       7.606 -11.167  -4.389  0.00  0.00     0.031 H 
ATOM      6  C   LIG d   1       7.127  -9.616  -2.956  0.00  0.00    -0.008 C 
ATOM      7  H   LIG d   1       7.025  -8.520  -2.958  0.00  0.00     0.033 H 
ATOM      8  C   LIG d   1       8.214  -9.940  -1.962  0.00  0.00     0.075 C 
ATOM      9  C   LIG d   1       8.411 -11.456  -1.772  0.00  0.00    -0.023 C 
ATOM     10  C   LIG d   1       9.806 -11.558  -1.112  0.00  0.00    -0.043 C 
ATOM     11  C   LIG d   1      10.562 -10.268  -1.480  0.00  0.00    -0.008 C 
ATOM     12  H   LIG d   1      11.522 -10.485  -1.970  0.00  0.00     0.035 H 
ATOM     13  C   LIG d   1       5.806 -10.264  -2.535  0.00  0.00    -0.045 C 
ATOM     14  C   LIG d   1       4.701  -9.851  -3.509  0.00  0.00    -0.023 C 
ATOM     15  C   LIG d   1       5.069 -10.308  -4.922  0.00  0.00     0.079 C 
ATOM     16  C   LIG d   1       6.388  -9.659  -5.341  0.00  0.00     0.038 C 
ATOM     17  C   LIG d   1       6.757 -10.118  -6.754  0.00  0.00    -0.037 C 
ATOM     18  C   LIG d   1       6.906 -11.638  -6.775  0.00  0.00    -0.026 C 
ATOM     19  C   LIG d   1       5.585 -12.287  -6.357  0.00  0.00     0.058 C 
ATOM     20  H   LIG d   1       5.642 -13.384  -6.419  0.00  0.00     0.059 H 
ATOM     21  C   LIG d   1       5.219 -11.831  -4.943  0.00  0.00     0.003 C 
ATOM     22  H   LIG d   1      10.863  -9.417  -4.149  0.00  0.00     0.027 H 
ATOM     23  H   LIG d   1       9.982 -10.960  -3.888  0.00  0.00     0.027 H 
ATOM     24  H   LIG d   1       8.700  -8.300  -4.695  0.00  0.00     0.027 H 
ATOM     25  H   LIG d   1       9.064  -9.663  -5.806  0.00  0.00     0.027 H 
ATOM     26  H   LIG d   1       7.612 -11.851  -1.127  0.00  0.00     0.029 H 
ATOM     27  H   LIG d   1       8.373 -11.956  -2.750  0.00  0.00     0.029 H 
ATOM     28  H   LIG d   1       9.690 -11.648  -0.022  0.00  0.00     0.027 H 
ATOM     29  H   LIG d   1      10.330 -12.445  -1.499  0.00  0.00     0.027 H 
ATOM     30  H   LIG d   1       5.914 -11.358  -2.548  0.00  0.00     0.027 H 
ATOM     31  H   LIG d   1       5.542  -9.933  -1.520  0.00  0.00     0.027 H 
ATOM     32  H   LIG d   1       3.752 -10.318  -3.207  0.00  0.00     0.029 H 
ATOM     33  H   LIG d   1       4.591  -8.756  -3.495  0.00  0.00     0.029 H 
ATOM     34  H   LIG d   1       5.964  -9.818  -7.455  0.00  0.00     0.028 H 
ATOM     35  H   LIG d   1       7.707  -9.652  -7.054  0.00  0.00     0.028 H 
ATOM     36  H   LIG d   1       7.170 -11.967  -7.791  0.00  0.00     0.029 H 
ATOM     37  H   LIG d   1       7.700 -11.939  -6.075  0.00  0.00     0.029 H 
ATOM     38  H   LIG d   1       6.013 -12.130  -4.243  0.00  0.00     0.032 H 
ATOM     39  H   LIG d   1       4.270 -12.297  -4.642  0.00  0.00     0.032 H 
ENDROOT
BRANCH  16  40
ATOM     40  C   LIG d   1       6.238  -8.159  -5.323  0.00  0.00     0.009 C 
ATOM     41  N   LIG d   1       5.895  -7.538  -6.387  0.00  0.00    -0.284 NA
ATOM     42  H   LIG d   1       6.424  -7.599  -4.394  0.00  0.00     0.079 H 
BRANCH  41  43
ATOM     43  C   LIG d   1       5.749  -6.080  -6.370  0.00  0.00     0.136 C 
ATOM     44  H   LIG d   1       6.395  -5.657  -5.586  0.00  0.00     0.062 H 
ATOM     45  H   LIG d   1       6.045  -5.671  -7.347  0.00  0.00     0.062 H 
BRANCH  43  46
ATOM     46  C   LIG d   1       4.313  -5.722  -6.088  0.00  0.00     0.328 C 
ATOM     47  O   LIG d   1       3.933  -5.602  -4.948  0.00  0.00    -0.249 OA
BRANCH  46  48
ATOM     48  O   LIG d   1       3.456  -5.535  -7.104  0.00  0.00    -0.467 OA
BRANCH  48  49
ATOM     49  C   LIG d   1       3.774  -4.477  -8.048  0.00  0.00     0.082 C 
ATOM     50  H   LIG d   1       4.233  -3.634  -7.512  0.00  0.00     0.066 H 
ATOM     51  H   LIG d   1       2.851  -4.139  -8.543  0.00  0.00     0.066 H 
ATOM     52  H   LIG d   1       4.477  -4.858  -8.802  0.00  0.00     0.066 H 
ENDBRANCH  48  49
ENDBRANCH  46  48
ENDBRANCH  43  46
ENDBRANCH  41  43
ENDBRANCH  16  40
BRANCH  15  53
ATOM     53  O   LIG d   1       4.037  -9.919  -5.831  0.00  0.00    -0.388 OA
ATOM     54  H   LIG d   1       4.277  -9.289  -6.699  0.00  0.00     0.210 HD
ENDBRANCH  15  53
BRANCH   8  55
ATOM     55  O   LIG d   1       7.882  -9.365  -0.697  0.00  0.00    -0.388 OA
ATOM     56  H   LIG d   1       7.992  -9.957   0.223  0.00  0.00     0.210 HD
ENDBRANCH   8  55
BRANCH  19  57
ATOM     57  O   LIG d   1       4.554 -11.897  -7.265  0.00  0.00    -0.392 OA
ATOM     58  H   LIG d   1       3.563 -11.612  -6.883  0.00  0.00     0.210 HD
ENDBRANCH  19  57
BRANCH   1  59
ATOM     59  C   LIG d   1       9.779  -7.941  -2.185  0.00  0.00    -0.056 C 
ATOM     60  H   LIG d   1      10.382  -7.759  -1.282  0.00  0.00     0.024 H 
ATOM     61  H   LIG d   1       8.792  -7.473  -2.067  0.00  0.00     0.024 H 
ATOM     62  H   LIG d   1      10.289  -7.509  -3.059  0.00  0.00     0.024 H 
ENDBRANCH   1  59
BRANCH  11  63
ATOM     63  C   LIG d   1      10.889  -9.486  -0.234  0.00  0.00    -0.022 A 
ATOM     64  C   LIG d   1      11.789  -8.277  -0.140  0.00  0.00     0.115 A 
ATOM     65  O   LIG d   1      11.788  -7.883   1.260  0.00  0.00    -0.457 OA
ATOM     66  H   LIG d   1      12.801  -8.547  -0.476  0.00  0.00     0.075 H 
ATOM     67  H   LIG d   1      11.392  -7.475  -0.780  0.00  0.00     0.075 H 
ATOM     68  C   LIG d   1      10.991  -8.741   1.924  0.00  0.00     0.332 A 
ATOM     69  C   LIG d   1      10.433  -9.726   0.993  0.00  0.00     0.025 A 
ATOM     70  O   LIG d   1      10.763  -8.703   3.117  0.00  0.00    -0.246 OA
ATOM     71  H   LIG d   1       9.746 -10.567   1.171  0.00  0.00     0.069 H 
ENDBRANCH  11  63
TORSDOF 10
ENDMDL
MODEL 5
REMARK VINA RESULT:      -5.8      2.363      3.143
REMARK  10 active torsions:
REMARK  status: ('A' for Active; 'I' for Inactive)
REMARK    1  A    between atoms: C_1  and  C_2 
REMARK    2  A    between atoms: C_9  and  O_20 
REMARK    3  A    between atoms: C_12  and  C_14 
REMARK    4  A    between atoms: C_23  and  O_38 
REMARK    5  A    between atoms: C_24  and  C_31 
REMARK    6  A    between atoms: C_27  and  O_30 
REMARK    7  A    between atoms: N_32  and  C_33 
REMARK    8  A    between atoms: C_33  and  C_34 
REMARK    9  A    between atoms: C_34  and  O_36 
REMARK   10  A    between atoms: O_36  and  C_37 
ROOT
ATOM      1  C   LIG d   1       3.996  -4.663  -9.554  0.00  0.00     0.004 C 
ATOM      2  C   LIG d   1       5.388  -4.033  -9.469  0.00  0.00    -0.044 C 
ATOM      3  C   LIG d   1       5.381  -2.834  -8.525  0.00  0.00    -0.048 C 
ATOM      4  C   LIG d   1       4.434  -1.770  -9.091  0.00  0.00    -0.022 C 
ATOM      5  H   LIG d   1       4.743  -1.485 -10.108  0.00  0.00     0.031 H 
ATOM      6  C   LIG d   1       3.020  -2.346  -9.118  0.00  0.00    -0.008 C 
ATOM      7  H   LIG d   1       2.738  -2.628  -8.092  0.00  0.00     0.033 H 
ATOM      8  C   LIG d   1       2.945  -3.608  -9.942  0.00  0.00     0.075 C 
ATOM      9  C   LIG d   1       3.222  -3.357 -11.436  0.00  0.00    -0.023 C 
ATOM     10  C   LIG d   1       3.543  -4.766 -11.985  0.00  0.00    -0.043 C 
ATOM     11  C   LIG d   1       4.010  -5.610 -10.784  0.00  0.00    -0.008 C 
ATOM     12  H   LIG d   1       5.001  -6.053 -10.958  0.00  0.00     0.035 H 
ATOM     13  C   LIG d   1       2.049  -1.294  -9.659  0.00  0.00    -0.045 C 
ATOM     14  C   LIG d   1       2.081  -0.059  -8.757  0.00  0.00    -0.023 C 
ATOM     15  C   LIG d   1       3.497   0.518  -8.730  0.00  0.00     0.079 C 
ATOM     16  C   LIG d   1       4.466  -0.535  -8.188  0.00  0.00     0.038 C 
ATOM     17  C   LIG d   1       5.884   0.042  -8.163  0.00  0.00    -0.037 C 
ATOM     18  C   LIG d   1       6.300   0.439  -9.579  0.00  0.00    -0.026 C 
ATOM     19  C   LIG d   1       5.331   1.492 -10.119  0.00  0.00     0.058 C 
ATOM     20  H   LIG d   1       5.637   1.844 -11.116  0.00  0.00     0.059 H 
ATOM     21  C   LIG d   1       3.915   0.915 -10.148  0.00  0.00     0.003 C 
ATOM     22  H   LIG d   1       6.104  -4.778  -9.092  0.00  0.00     0.027 H 
ATOM     23  H   LIG d   1       5.699  -3.696 -10.469  0.00  0.00     0.027 H 
ATOM     24  H   LIG d   1       5.036  -3.152  -7.530  0.00  0.00     0.027 H 
ATOM     25  H   LIG d   1       6.399  -2.424  -8.444  0.00  0.00     0.027 H 
ATOM     26  H   LIG d   1       2.329  -2.918 -11.906  0.00  0.00     0.029 H 
ATOM     27  H   LIG d   1       4.069  -2.664 -11.541  0.00  0.00     0.029 H 
ATOM     28  H   LIG d   1       2.638  -5.197 -12.439  0.00  0.00     0.027 H 
ATOM     29  H   LIG d   1       4.336  -4.693 -12.744  0.00  0.00     0.027 H 
ATOM     30  H   LIG d   1       2.347  -1.010 -10.678  0.00  0.00     0.027 H 
ATOM     31  H   LIG d   1       1.031  -1.709  -9.675  0.00  0.00     0.027 H 
ATOM     32  H   LIG d   1       1.384   0.698  -9.146  0.00  0.00     0.029 H 
ATOM     33  H   LIG d   1       1.781  -0.342  -7.737  0.00  0.00     0.029 H 
ATOM     34  H   LIG d   1       5.907   0.928  -7.512  0.00  0.00     0.028 H 
ATOM     35  H   LIG d   1       6.580  -0.716  -7.775  0.00  0.00     0.028 H 
ATOM     36  H   LIG d   1       7.318   0.854  -9.559  0.00  0.00     0.029 H 
ATOM     37  H   LIG d   1       6.278  -0.447 -10.230  0.00  0.00     0.029 H 
ATOM     38  H   LIG d   1       3.892   0.028 -10.797  0.00  0.00     0.032 H 
ATOM     39  H   LIG d   1       3.217   1.672 -10.536  0.00  0.00     0.032 H 
ENDROOT
BRANCH  16  40
ATOM     40  C   LIG d   1       4.057  -0.923  -6.791  0.00  0.00     0.009 C 
ATOM     41  N   LIG d   1       4.383  -0.183  -5.800  0.00  0.00    -0.284 NA
ATOM     42  H   LIG d   1       3.476  -1.843  -6.623  0.00  0.00     0.079 H 
BRANCH  41  43
ATOM     43  C   LIG d   1       3.986  -0.560  -4.441  0.00  0.00     0.136 C 
ATOM     44  H   LIG d   1       3.284  -1.407  -4.486  0.00  0.00     0.062 H 
ATOM     45  H   LIG d   1       4.876  -0.854  -3.867  0.00  0.00     0.062 H 
BRANCH  43  46
ATOM     46  C   LIG d   1       3.318   0.612  -3.769  0.00  0.00     0.328 C 
ATOM     47  O   LIG d   1       2.819   1.487  -4.436  0.00  0.00    -0.249 OA
BRANCH  46  48
ATOM     48  O   LIG d   1       3.278   0.683  -2.430  0.00  0.00    -0.467 OA
BRANCH  48  49
ATOM     49  C   LIG d   1       4.540   0.555  -1.724  0.00  0.00     0.082 C 
ATOM     50  H   LIG d   1       4.887  -0.487  -1.777  0.00  0.00     0.066 H 
ATOM     51  H   LIG d   1       4.402   0.843  -0.671  0.00  0.00     0.066 H 
ATOM     52  H   LIG d   1       5.288   1.214  -2.189  0.00  0.00     0.066 H 
ENDBRANCH  48  49
ENDBRANCH  46  48
ENDBRANCH  43  46
ENDBRANCH  41  43
ENDBRANCH  16  40
BRANCH  15  53
ATOM     53  O   LIG d   1       3.526   1.670  -7.885  0.00  0.00    -0.388 OA
ATOM     54  H   LIG d   1       2.603   2.241  -7.703  0.00  0.00     0.210 HD
ENDBRANCH  15  53
BRANCH   8  55
ATOM     55  O   LIG d   1       1.640  -4.176  -9.813  0.00  0.00    -0.388 OA
ATOM     56  H   LIG d   1       1.048  -4.404 -10.711  0.00  0.00     0.210 HD
ENDBRANCH   8  55
BRANCH  19  57
ATOM     57  O   LIG d   1       5.359   2.644  -9.274  0.00  0.00    -0.392 OA
ATOM     58  H   LIG d   1       4.544   2.819  -8.556  0.00  0.00     0.210 HD
ENDBRANCH  19  57
BRANCH   1  59
ATOM     59  C   LIG d   1       3.627  -5.403  -8.266  0.00  0.00    -0.056 C 
ATOM     60  H   LIG d   1       4.047  -6.419  -8.294  0.00  0.00     0.024 H 
ATOM     61  H   LIG d   1       2.533  -5.461  -8.177  0.00  0.00     0.024 H 
ATOM     62  H   LIG d   1       4.037  -4.860  -7.402  0.00  0.00     0.024 H 
ENDBRANCH   1  59
BRANCH  11  63
ATOM     63  C   LIG d   1       3.064  -6.761 -10.561  0.00  0.00    -0.022 A 
ATOM     64  C   LIG d   1       3.367  -8.046  -9.826  0.00  0.00     0.115 A 
ATOM     65  O   LIG d   1       2.147  -8.836  -9.878  0.00  0.00    -0.457 OA
ATOM     66  H   LIG d   1       4.199  -8.566 -10.324  0.00  0.00     0.075 H 
ATOM     67  H   LIG d   1       3.648  -7.816  -8.787  0.00  0.00     0.075 H 
ATOM     68  C   LIG d   1       1.228  -8.122 -10.555  0.00  0.00     0.332 A 
ATOM     69  C   LIG d   1       1.800  -6.838 -10.969  0.00  0.00     0.025 A 
ATOM     70  O   LIG d   1       0.091  -8.485 -10.785  0.00  0.00    -0.246 OA
ATOM     71  H   LIG d   1       1.350  -6.003 -11.528  0.00  0.00     0.069 H 
ENDBRANCH  11  63
TORSDOF 10
ENDMDL
MODEL 6
REMARK VINA RESULT:      -5.7      9.255     13.606
REMARK  10 active torsions:
REMARK  status: ('A' for Active; 'I' for Inactive)
REMARK    1  A    between atoms: C_1  and  C_2 
REMARK    2  A    between atoms: C_9  and  O_20 
REMARK    3  A    between atoms: C_12  and  C_14 
REMARK    4  A    between atoms: C_23  and  O_38 
REMARK    5  A    between atoms: C_24  and  C_31 
REMARK    6  A    between atoms: C_27  and  O_30 
REMARK    7  A    between atoms: N_32  and  C_33 
REMARK    8  A    between atoms: C_33  and  C_34 
REMARK    9  A    between atoms: C_34  and  O_36 
REMARK   10  A    between atoms: O_36  and  C_37 
ROOT
ATOM      1  C   LIG d   1      10.010   8.139  -5.759  0.00  0.00     0.004 C 
ATOM      2  C   LIG d   1       8.875   7.334  -5.121  0.00  0.00    -0.044 C 
ATOM      3  C   LIG d   1       9.421   6.374  -4.068  0.00  0.00    -0.048 C 
ATOM      4  C   LIG d   1      10.359   5.374  -4.754  0.00  0.00    -0.022 C 
ATOM      5  H   LIG d   1       9.828   4.839  -5.556  0.00  0.00     0.031 H 
ATOM      6  C   LIG d   1      11.543   6.144  -5.338  0.00  0.00    -0.008 C 
ATOM      7  H   LIG d   1      12.053   6.674  -4.519  0.00  0.00     0.033 H 
ATOM      8  C   LIG d   1      11.096   7.202  -6.316  0.00  0.00     0.075 C 
ATOM      9  C   LIG d   1      10.443   6.605  -7.577  0.00  0.00    -0.023 C 
ATOM     10  C   LIG d   1       9.679   7.802  -8.188  0.00  0.00    -0.043 C 
ATOM     11  C   LIG d   1       9.425   8.795  -7.038  0.00  0.00    -0.008 C 
ATOM     12  H   LIG d   1       8.357   9.033  -6.935  0.00  0.00     0.035 H 
ATOM     13  C   LIG d   1      12.508   5.165  -6.011  0.00  0.00    -0.045 C 
ATOM     14  C   LIG d   1      13.013   4.156  -4.978  0.00  0.00    -0.023 C 
ATOM     15  C   LIG d   1      11.827   3.386  -4.394  0.00  0.00     0.079 C 
ATOM     16  C   LIG d   1      10.864   4.365  -3.722  0.00  0.00     0.038 C 
ATOM     17  C   LIG d   1       9.677   3.595  -3.139  0.00  0.00    -0.037 C 
ATOM     18  C   LIG d   1       8.950   2.851  -4.259  0.00  0.00    -0.026 C 
ATOM     19  C   LIG d   1       9.913   1.871  -4.930  0.00  0.00     0.058 C 
ATOM     20  H   LIG d   1       9.404   1.276  -5.704  0.00  0.00     0.059 H 
ATOM     21  C   LIG d   1      11.098   2.642  -5.516  0.00  0.00     0.003 C 
ATOM     22  H   LIG d   1       8.163   8.021  -4.641  0.00  0.00     0.027 H 
ATOM     23  H   LIG d   1       8.358   6.752  -5.898  0.00  0.00     0.027 H 
ATOM     24  H   LIG d   1       9.973   6.941  -3.304  0.00  0.00     0.027 H 
ATOM     25  H   LIG d   1       8.586   5.837  -3.592  0.00  0.00     0.027 H 
ATOM     26  H   LIG d   1      11.226   6.221  -8.248  0.00  0.00     0.029 H 
ATOM     27  H   LIG d   1       9.772   5.783  -7.289  0.00  0.00     0.029 H 
ATOM     28  H   LIG d   1      10.291   8.263  -8.978  0.00  0.00     0.027 H 
ATOM     29  H   LIG d   1       8.729   7.450  -8.619  0.00  0.00     0.027 H 
ATOM     30  H   LIG d   1      11.985   4.632  -6.818  0.00  0.00     0.027 H 
ATOM     31  H   LIG d   1      13.360   5.720  -6.428  0.00  0.00     0.027 H 
ATOM     32  H   LIG d   1      13.705   3.451  -5.462  0.00  0.00     0.029 H 
ATOM     33  H   LIG d   1      13.537   4.688  -4.171  0.00  0.00     0.029 H 
ATOM     34  H   LIG d   1      10.040   2.871  -2.394  0.00  0.00     0.028 H 
ATOM     35  H   LIG d   1       8.984   4.299  -2.657  0.00  0.00     0.028 H 
ATOM     36  H   LIG d   1       8.098   2.297  -3.838  0.00  0.00     0.029 H 
ATOM     37  H   LIG d   1       8.585   3.574  -5.003  0.00  0.00     0.029 H 
ATOM     38  H   LIG d   1      10.735   3.366  -6.259  0.00  0.00     0.032 H 
ATOM     39  H   LIG d   1      11.792   1.937  -5.999  0.00  0.00     0.032 H 
ENDROOT
BRANCH  16  40
ATOM     40  C   LIG d   1      11.582   5.094  -2.615  0.00  0.00     0.009 C 
ATOM     41  N   LIG d   1      11.398   4.749  -1.398  0.00  0.00    -0.284 NA
ATOM     42  H   LIG d   1      12.264   5.924  -2.855  0.00  0.00     0.079 H 
BRANCH  41  43
ATOM     43  C   LIG d   1      12.095   5.459  -0.322  0.00  0.00     0.136 C 
ATOM     44  H   LIG d   1      12.635   4.734   0.306  0.00  0.00     0.062 H 
ATOM     45  H   LIG d   1      12.813   6.170  -0.756  0.00  0.00     0.062 H 
BRANCH  43  46
ATOM     46  C   LIG d   1      11.092   6.206   0.520  0.00  0.00     0.328 C 
ATOM     47  O   LIG d   1      11.281   6.342   1.705  0.00  0.00    -0.249 OA
BRANCH  46  48
ATOM     48  O   LIG d   1       9.991   6.720  -0.049  0.00  0.00    -0.467 OA
BRANCH  48  49
ATOM     49  C   LIG d   1      10.086   8.074  -0.565  0.00  0.00     0.082 C 
ATOM     50  H   LIG d   1      10.204   8.043  -1.658  0.00  0.00     0.066 H 
ATOM     51  H   LIG d   1      10.957   8.577  -0.117  0.00  0.00     0.066 H 
ATOM     52  H   LIG d   1       9.171   8.629  -0.311  0.00  0.00     0.066 H 
ENDBRANCH  48  49
ENDBRANCH  46  48
ENDBRANCH  43  46
ENDBRANCH  41  43
ENDBRANCH  16  40
BRANCH  15  53
ATOM     53  O   LIG d   1      12.301   2.444  -3.428  0.00  0.00    -0.388 OA
ATOM     54  H   LIG d   1      11.993   2.534  -2.376  0.00  0.00     0.210 HD
ENDBRANCH  15  53
BRANCH   8  55
ATOM     55  O   LIG d   1      12.226   7.980  -6.716  0.00  0.00    -0.388 OA
ATOM     56  H   LIG d   1      12.128   8.712  -7.531  0.00  0.00     0.210 HD
ENDBRANCH   8  55
BRANCH  19  57
ATOM     57  O   LIG d   1      10.387   0.931  -3.964  0.00  0.00    -0.392 OA
ATOM     58  H   LIG d   1       9.894  -0.046  -3.860  0.00  0.00     0.210 HD
ENDBRANCH  19  57
BRANCH   1  59
ATOM     59  C   LIG d   1      10.581   9.180  -4.793  0.00  0.00    -0.056 C 
ATOM     60  H   LIG d   1       9.862   9.359  -3.980  0.00  0.00     0.024 H 
ATOM     61  H   LIG d   1      10.767  10.119  -5.333  0.00  0.00     0.024 H 
ATOM     62  H   LIG d   1      11.526   8.806  -4.370  0.00  0.00     0.024 H 
ENDBRANCH   1  59
BRANCH  11  63
ATOM     63  C   LIG d   1      10.125  10.100  -7.318  0.00  0.00    -0.022 A 
ATOM     64  C   LIG d   1       9.900  11.412  -6.605  0.00  0.00     0.115 A 
ATOM     65  O   LIG d   1      10.804  12.368  -7.227  0.00  0.00    -0.457 OA
ATOM     66  H   LIG d   1       8.852  11.720  -6.726  0.00  0.00     0.075 H 
ATOM     67  H   LIG d   1      10.125  11.291  -5.534  0.00  0.00     0.075 H 
ATOM     68  C   LIG d   1      11.485  11.717  -8.189  0.00  0.00     0.332 A 
ATOM     69  C   LIG d   1      11.065  10.314  -8.236  0.00  0.00     0.025 A 
ATOM     70  O   LIG d   1      12.327  12.217  -8.909  0.00  0.00    -0.246 OA
ATOM     71  H   LIG d   1      11.401   9.489  -8.881  0.00  0.00     0.069 H 
ENDBRANCH  11  63
TORSDOF 10
ENDMDL
MODEL 7
REMARK VINA RESULT:      -5.7      2.706      3.447
REMARK  10 active torsions:
REMARK  status: ('A' for Active; 'I' for Inactive)
REMARK    1  A    between atoms: C_1  and  C_2 
REMARK    2  A    between atoms: C_9  and  O_20 
REMARK    3  A    between atoms: C_12  and  C_14 
REMARK    4  A    between atoms: C_23  and  O_38 
REMARK    5  A    between atoms: C_24  and  C_31 
REMARK    6  A    between atoms: C_27  and  O_30 
REMARK    7  A    between atoms: N_32  and  C_33 
REMARK    8  A    between atoms: C_33  and  C_34 
REMARK    9  A    between atoms: C_34  and  O_36 
REMARK   10  A    between atoms: O_36  and  C_37 
ROOT
ATOM      1  C   LIG d   1       7.890  -2.537  -5.308  0.00  0.00     0.004 C 
ATOM      2  C   LIG d   1       8.106  -1.093  -5.766  0.00  0.00    -0.044 C 
ATOM      3  C   LIG d   1       6.773  -0.425  -6.094  0.00  0.00    -0.048 C 
ATOM      4  C   LIG d   1       6.120  -1.179  -7.257  0.00  0.00    -0.022 C 
ATOM      5  H   LIG d   1       6.792  -1.195  -8.129  0.00  0.00     0.031 H 
ATOM      6  C   LIG d   1       5.824  -2.607  -6.803  0.00  0.00    -0.008 C 
ATOM      7  H   LIG d   1       5.156  -2.565  -5.929  0.00  0.00     0.033 H 
ATOM      8  C   LIG d   1       7.073  -3.322  -6.350  0.00  0.00     0.075 C 
ATOM      9  C   LIG d   1       8.076  -3.547  -7.497  0.00  0.00    -0.023 C 
ATOM     10  C   LIG d   1       9.402  -3.850  -6.762  0.00  0.00    -0.043 C 
ATOM     11  C   LIG d   1       9.277  -3.232  -5.357  0.00  0.00    -0.008 C 
ATOM     12  H   LIG d   1      10.100  -2.536  -5.143  0.00  0.00     0.035 H 
ATOM     13  C   LIG d   1       5.149  -3.377  -7.941  0.00  0.00    -0.045 C 
ATOM     14  C   LIG d   1       3.842  -2.680  -8.323  0.00  0.00    -0.023 C 
ATOM     15  C   LIG d   1       4.140  -1.250  -8.778  0.00  0.00     0.079 C 
ATOM     16  C   LIG d   1       4.813  -0.482  -7.640  0.00  0.00     0.038 C 
ATOM     17  C   LIG d   1       5.112   0.948  -8.095  0.00  0.00    -0.037 C 
ATOM     18  C   LIG d   1       6.041   0.915  -9.308  0.00  0.00    -0.026 C 
ATOM     19  C   LIG d   1       5.366   0.148 -10.447  0.00  0.00     0.058 C 
ATOM     20  H   LIG d   1       5.985   0.156 -11.357  0.00  0.00     0.059 H 
ATOM     21  C   LIG d   1       5.071  -1.283  -9.993  0.00  0.00     0.003 C 
ATOM     22  H   LIG d   1       8.601  -0.525  -4.965  0.00  0.00     0.027 H 
ATOM     23  H   LIG d   1       8.738  -1.085  -6.666  0.00  0.00     0.027 H 
ATOM     24  H   LIG d   1       6.118  -0.460  -5.211  0.00  0.00     0.027 H 
ATOM     25  H   LIG d   1       6.948   0.623  -6.378  0.00  0.00     0.027 H 
ATOM     26  H   LIG d   1       7.738  -4.391  -8.118  0.00  0.00     0.029 H 
ATOM     27  H   LIG d   1       8.137  -2.640  -8.115  0.00  0.00     0.029 H 
ATOM     28  H   LIG d   1       9.547  -4.939  -6.701  0.00  0.00     0.027 H 
ATOM     29  H   LIG d   1      10.239  -3.400  -7.316  0.00  0.00     0.027 H 
ATOM     30  H   LIG d   1       5.819  -3.403  -8.813  0.00  0.00     0.027 H 
ATOM     31  H   LIG d   1       4.934  -4.404  -7.612  0.00  0.00     0.027 H 
ATOM     32  H   LIG d   1       3.358  -3.232  -9.142  0.00  0.00     0.029 H 
ATOM     33  H   LIG d   1       3.171  -2.655  -7.452  0.00  0.00     0.029 H 
ATOM     34  H   LIG d   1       4.172   1.450  -8.367  0.00  0.00     0.028 H 
ATOM     35  H   LIG d   1       5.598   1.499  -7.277  0.00  0.00     0.028 H 
ATOM     36  H   LIG d   1       6.254   1.943  -9.636  0.00  0.00     0.029 H 
ATOM     37  H   LIG d   1       6.982   0.414  -9.037  0.00  0.00     0.029 H 
ATOM     38  H   LIG d   1       6.011  -1.784  -9.719  0.00  0.00     0.032 H 
ATOM     39  H   LIG d   1       4.585  -1.835 -10.811  0.00  0.00     0.032 H 
ENDROOT
BRANCH  16  40
ATOM     40  C   LIG d   1       3.894  -0.447  -6.446  0.00  0.00     0.009 C 
ATOM     41  N   LIG d   1       3.271   0.629  -6.150  0.00  0.00    -0.284 NA
ATOM     42  H   LIG d   1       3.760  -1.349  -5.828  0.00  0.00     0.079 H 
BRANCH  41  43
ATOM     43  C   LIG d   1       2.378   0.663  -4.989  0.00  0.00     0.136 C 
ATOM     44  H   LIG d   1       1.794   1.596  -5.002  0.00  0.00     0.062 H 
ATOM     45  H   LIG d   1       1.693  -0.197  -5.027  0.00  0.00     0.062 H 
BRANCH  43  46
ATOM     46  C   LIG d   1       3.195   0.599  -3.724  0.00  0.00     0.328 C 
ATOM     47  O   LIG d   1       2.972  -0.260  -2.904  0.00  0.00    -0.249 OA
BRANCH  46  48
ATOM     48  O   LIG d   1       4.170   1.496  -3.510  0.00  0.00    -0.467 OA
BRANCH  48  49
ATOM     49  C   LIG d   1       5.361   1.024  -2.826  0.00  0.00     0.082 C 
ATOM     50  H   LIG d   1       5.076   0.299  -2.050  0.00  0.00     0.066 H 
ATOM     51  H   LIG d   1       5.878   1.876  -2.359  0.00  0.00     0.066 H 
ATOM     52  H   LIG d   1       6.032   0.540  -3.550  0.00  0.00     0.066 H 
ENDBRANCH  48  49
ENDBRANCH  46  48
ENDBRANCH  43  46
ENDBRANCH  41  43
ENDBRANCH  16  40
BRANCH  15  53
ATOM     53  O   LIG d   1       2.917  -0.600  -9.133  0.00  0.00    -0.388 OA
ATOM     54  H   LIG d   1       2.576  -0.603 -10.179  0.00  0.00     0.210 HD
ENDBRANCH  15  53
BRANCH   8  55
ATOM     55  O   LIG d   1       6.716  -4.593  -5.804  0.00  0.00    -0.388 OA
ATOM     56  H   LIG d   1       6.895  -5.510  -6.384  0.00  0.00     0.210 HD
ENDBRANCH   8  55
BRANCH  19  57
ATOM     57  O   LIG d   1       4.144   0.797 -10.801  0.00  0.00    -0.392 OA
ATOM     58  H   LIG d   1       3.497   1.217 -10.017  0.00  0.00     0.210 HD
ENDBRANCH  19  57
BRANCH   1  59
ATOM     59  C   LIG d   1       7.266  -2.603  -3.912  0.00  0.00    -0.056 C 
ATOM     60  H   LIG d   1       7.030  -3.650  -3.666  0.00  0.00     0.024 H 
ATOM     61  H   LIG d   1       6.344  -2.005  -3.894  0.00  0.00     0.024 H 
ATOM     62  H   LIG d   1       7.977  -2.204  -3.174  0.00  0.00     0.024 H 
ENDBRANCH   1  59
BRANCH  11  63
ATOM     63  C   LIG d   1       9.352  -4.311  -4.308  0.00  0.00    -0.022 A 
ATOM     64  C   LIG d   1       9.182  -5.796  -4.531  0.00  0.00     0.115 A 
ATOM     65  O   LIG d   1       9.340  -6.419  -3.226  0.00  0.00    -0.457 OA
ATOM     66  H   LIG d   1       8.183  -5.992  -4.946  0.00  0.00     0.075 H 
ATOM     67  H   LIG d   1       9.948  -6.150  -5.236  0.00  0.00     0.075 H 
ATOM     68  C   LIG d   1       9.575  -5.439  -2.333  0.00  0.00     0.332 A 
ATOM     69  C   LIG d   1       9.587  -4.139  -3.010  0.00  0.00     0.025 A 
ATOM     70  O   LIG d   1       9.755  -5.607  -1.143  0.00  0.00    -0.246 OA
ATOM     71  H   LIG d   1       9.751  -3.127  -2.610  0.00  0.00     0.069 H 
ENDBRANCH  11  63
TORSDOF 10
ENDMDL
MODEL 8
REMARK VINA RESULT:      -5.6      3.221      5.177
REMARK  10 active torsions:
REMARK  status: ('A' for Active; 'I' for Inactive)
REMARK    1  A    between atoms: C_1  and  C_2 
REMARK    2  A    between atoms: C_9  and  O_20 
REMARK    3  A    between atoms: C_12  and  C_14 
REMARK    4  A    between atoms: C_23  and  O_38 
REMARK    5  A    between atoms: C_24  and  C_31 
REMARK    6  A    between atoms: C_27  and  O_30 
REMARK    7  A    between atoms: N_32  and  C_33 
REMARK    8  A    between atoms: C_33  and  C_34 
REMARK    9  A    between atoms: C_34  and  O_36 
REMARK   10  A    between atoms: O_36  and  C_37 
ROOT
ATOM      1  C   LIG d   1       2.510  -3.697 -11.130  0.00  0.00     0.004 C 
ATOM      2  C   LIG d   1       4.029  -3.572 -11.269  0.00  0.00    -0.044 C 
ATOM      3  C   LIG d   1       4.658  -3.130  -9.950  0.00  0.00    -0.048 C 
ATOM      4  C   LIG d   1       4.119  -1.741  -9.591  0.00  0.00    -0.022 C 
ATOM      5  H   LIG d   1       4.330  -1.027 -10.401  0.00  0.00     0.031 H 
ATOM      6  C   LIG d   1       2.611  -1.850  -9.372  0.00  0.00    -0.008 C 
ATOM      7  H   LIG d   1       2.426  -2.572  -8.563  0.00  0.00     0.033 H 
ATOM      8  C   LIG d   1       1.905  -2.388 -10.592  0.00  0.00     0.075 C 
ATOM      9  C   LIG d   1       1.990  -1.432 -11.797  0.00  0.00    -0.023 C 
ATOM     10  C   LIG d   1       1.633  -2.334 -13.000  0.00  0.00    -0.043 C 
ATOM     11  C   LIG d   1       1.937  -3.781 -12.569  0.00  0.00    -0.008 C 
ATOM     12  H   LIG d   1       2.629  -4.277 -13.266  0.00  0.00     0.035 H 
ATOM     13  C   LIG d   1       2.049  -0.478  -8.990  0.00  0.00    -0.045 C 
ATOM     14  C   LIG d   1       2.719   0.006  -7.703  0.00  0.00    -0.023 C 
ATOM     15  C   LIG d   1       4.229   0.115  -7.922  0.00  0.00     0.079 C 
ATOM     16  C   LIG d   1       4.789  -1.257  -8.304  0.00  0.00     0.038 C 
ATOM     17  C   LIG d   1       6.299  -1.148  -8.525  0.00  0.00    -0.037 C 
ATOM     18  C   LIG d   1       6.581  -0.151  -9.648  0.00  0.00    -0.026 C 
ATOM     19  C   LIG d   1       6.022   1.221  -9.265  0.00  0.00     0.058 C 
ATOM     20  H   LIG d   1       6.261   1.977 -10.028  0.00  0.00     0.059 H 
ATOM     21  C   LIG d   1       4.512   1.113  -9.048  0.00  0.00     0.003 C 
ATOM     22  H   LIG d   1       4.452  -4.546 -11.554  0.00  0.00     0.027 H 
ATOM     23  H   LIG d   1       4.267  -2.827 -12.042  0.00  0.00     0.027 H 
ATOM     24  H   LIG d   1       4.396  -3.849  -9.159  0.00  0.00     0.027 H 
ATOM     25  H   LIG d   1       5.752  -3.090 -10.060  0.00  0.00     0.027 H 
ATOM     26  H   LIG d   1       1.273  -0.608 -11.663  0.00  0.00     0.029 H 
ATOM     27  H   LIG d   1       3.008  -1.022 -11.868  0.00  0.00     0.029 H 
ATOM     28  H   LIG d   1       0.568  -2.213 -13.246  0.00  0.00     0.027 H 
ATOM     29  H   LIG d   1       2.245  -2.047 -13.869  0.00  0.00     0.027 H 
ATOM     30  H   LIG d   1       2.250   0.239  -9.799  0.00  0.00     0.027 H 
ATOM     31  H   LIG d   1       0.964  -0.558  -8.831  0.00  0.00     0.027 H 
ATOM     32  H   LIG d   1       2.316   0.993  -7.429  0.00  0.00     0.029 H 
ATOM     33  H   LIG d   1       2.517  -0.709  -6.893  0.00  0.00     0.029 H 
ATOM     34  H   LIG d   1       6.781  -0.803  -7.599  0.00  0.00     0.028 H 
ATOM     35  H   LIG d   1       6.701  -2.134  -8.801  0.00  0.00     0.028 H 
ATOM     36  H   LIG d   1       7.667  -0.073  -9.805  0.00  0.00     0.029 H 
ATOM     37  H   LIG d   1       6.101  -0.496 -10.575  0.00  0.00     0.029 H 
ATOM     38  H   LIG d   1       4.031   0.766  -9.974  0.00  0.00     0.032 H 
ATOM     39  H   LIG d   1       4.109   2.099  -8.772  0.00  0.00     0.032 H 
ENDROOT
BRANCH  16  40
ATOM     40  C   LIG d   1       4.513  -2.238  -7.193  0.00  0.00     0.009 C 
ATOM     41  N   LIG d   1       5.193  -2.188  -6.112  0.00  0.00    -0.284 NA
ATOM     42  H   LIG d   1       3.725  -2.998  -7.314  0.00  0.00     0.079 H 
BRANCH  41  43
ATOM     43  C   LIG d   1       4.925  -3.142  -5.033  0.00  0.00     0.136 C 
ATOM     44  H   LIG d   1       4.218  -3.907  -5.387  0.00  0.00     0.062 H 
ATOM     45  H   LIG d   1       5.865  -3.626  -4.730  0.00  0.00     0.062 H 
BRANCH  43  46
ATOM     46  C   LIG d   1       4.332  -2.414  -3.854  0.00  0.00     0.328 C 
ATOM     47  O   LIG d   1       3.933  -3.037  -2.899  0.00  0.00    -0.249 OA
BRANCH  46  48
ATOM     48  O   LIG d   1       4.248  -1.075  -3.866  0.00  0.00    -0.467 OA
BRANCH  48  49
ATOM     49  C   LIG d   1       2.926  -0.495  -3.704  0.00  0.00     0.082 C 
ATOM     50  H   LIG d   1       3.014   0.596  -3.601  0.00  0.00     0.066 H 
ATOM     51  H   LIG d   1       2.452  -0.912  -2.802  0.00  0.00     0.066 H 
ATOM     52  H   LIG d   1       2.311  -0.732  -4.584  0.00  0.00     0.066 H 
ENDBRANCH  48  49
ENDBRANCH  46  48
ENDBRANCH  43  46
ENDBRANCH  41  43
ENDBRANCH  16  40
BRANCH  15  53
ATOM     53  O   LIG d   1       4.853   0.566  -6.718  0.00  0.00    -0.388 OA
ATOM     54  H   LIG d   1       4.809   1.629  -6.441  0.00  0.00     0.210 HD
ENDBRANCH  15  53
BRANCH   8  55
ATOM     55  O   LIG d   1       0.527  -2.602 -10.282  0.00  0.00    -0.388 OA
ATOM     56  H   LIG d   1       0.192  -3.584  -9.917  0.00  0.00     0.210 HD
ENDBRANCH   8  55
BRANCH  19  57
ATOM     57  O   LIG d   1       6.646   1.671  -8.061  0.00  0.00    -0.392 OA
ATOM     58  H   LIG d   1       6.662   1.021  -7.174  0.00  0.00     0.210 HD
ENDBRANCH  19  57
BRANCH   1  59
ATOM     59  C   LIG d   1       2.114  -4.909 -10.283  0.00  0.00    -0.056 C 
ATOM     60  H   LIG d   1       3.017  -5.477 -10.012  0.00  0.00     0.024 H 
ATOM     61  H   LIG d   1       1.435  -5.552 -10.860  0.00  0.00     0.024 H 
ATOM     62  H   LIG d   1       1.608  -4.567  -9.369  0.00  0.00     0.024 H 
ENDBRANCH   1  59
BRANCH  11  63
ATOM     63  C   LIG d   1       0.672  -4.600 -12.575  0.00  0.00    -0.022 A 
ATOM     64  C   LIG d   1      -0.743  -4.069 -12.582  0.00  0.00     0.115 A 
ATOM     65  O   LIG d   1      -1.610  -5.237 -12.586  0.00  0.00    -0.457 OA
ATOM     66  H   LIG d   1      -0.908  -3.454 -11.686  0.00  0.00     0.075 H 
ATOM     67  H   LIG d   1      -0.899  -3.455 -13.482  0.00  0.00     0.075 H 
ATOM     68  C   LIG d   1      -0.822  -6.329 -12.581  0.00  0.00     0.332 A 
ATOM     69  C   LIG d   1       0.587  -5.928 -12.581  0.00  0.00     0.025 A 
ATOM     70  O   LIG d   1      -1.220  -7.478 -12.582  0.00  0.00    -0.246 OA
ATOM     71  H   LIG d   1       1.503  -6.537 -12.583  0.00  0.00     0.069 H 
ENDBRANCH  11  63
TORSDOF 10
ENDMDL
MODEL 9
REMARK VINA RESULT:      -5.5     10.792     15.400
REMARK  10 active torsions:
REMARK  status: ('A' for Active; 'I' for Inactive)
REMARK    1  A    between atoms: C_1  and  C_2 
REMARK    2  A    between atoms: C_9  and  O_20 
REMARK    3  A    between atoms: C_12  and  C_14 
REMARK    4  A    between atoms: C_23  and  O_38 
REMARK    5  A    between atoms: C_24  and  C_31 
REMARK    6  A    between atoms: C_27  and  O_30 
REMARK    7  A    between atoms: N_32  and  C_33 
REMARK    8  A    between atoms: C_33  and  C_34 
REMARK    9  A    between atoms: C_34  and  O_36 
REMARK   10  A    between atoms: O_36  and  C_37 
ROOT
ATOM      1  C   LIG d   1      11.282  10.320  -4.929  0.00  0.00     0.004 C 
ATOM      2  C   LIG d   1      12.495   9.389  -4.858  0.00  0.00    -0.044 C 
ATOM      3  C   LIG d   1      12.076   7.989  -4.416  0.00  0.00    -0.048 C 
ATOM      4  C   LIG d   1      11.487   8.077  -3.004  0.00  0.00    -0.022 C 
ATOM      5  H   LIG d   1      12.217   8.520  -2.311  0.00  0.00     0.031 H 
ATOM      6  C   LIG d   1      10.228   8.942  -3.058  0.00  0.00    -0.008 C 
ATOM      7  H   LIG d   1       9.517   8.481  -3.761  0.00  0.00     0.033 H 
ATOM      8  C   LIG d   1      10.520  10.323  -3.592  0.00  0.00     0.075 C 
ATOM      9  C   LIG d   1      11.435  11.138  -2.659  0.00  0.00    -0.023 C 
ATOM     10  C   LIG d   1      11.958  12.273  -3.568  0.00  0.00    -0.043 C 
ATOM     11  C   LIG d   1      11.837  11.766  -5.017  0.00  0.00    -0.008 C 
ATOM     12  H   LIG d   1      12.799  11.814  -5.547  0.00  0.00     0.035 H 
ATOM     13  C   LIG d   1       9.606   9.027  -1.663  0.00  0.00    -0.045 C 
ATOM     14  C   LIG d   1       9.240   7.623  -1.180  0.00  0.00    -0.023 C 
ATOM     15  C   LIG d   1      10.501   6.757  -1.126  0.00  0.00     0.079 C 
ATOM     16  C   LIG d   1      11.121   6.672  -2.521  0.00  0.00     0.038 C 
ATOM     17  C   LIG d   1      12.383   5.807  -2.468  0.00  0.00    -0.037 C 
ATOM     18  C   LIG d   1      13.388   6.429  -1.498  0.00  0.00    -0.026 C 
ATOM     19  C   LIG d   1      12.767   6.512  -0.103  0.00  0.00     0.058 C 
ATOM     20  H   LIG d   1      13.487   6.902   0.633  0.00  0.00     0.059 H 
ATOM     21  C   LIG d   1      11.508   7.380  -0.157  0.00  0.00     0.003 C 
ATOM     22  H   LIG d   1      12.965   9.322  -5.850  0.00  0.00     0.027 H 
ATOM     23  H   LIG d   1      13.221   9.788  -4.134  0.00  0.00     0.027 H 
ATOM     24  H   LIG d   1      11.322   7.595  -5.113  0.00  0.00     0.027 H 
ATOM     25  H   LIG d   1      12.955   7.327  -4.414  0.00  0.00     0.027 H 
ATOM     26  H   LIG d   1      10.847  11.518  -1.810  0.00  0.00     0.029 H 
ATOM     27  H   LIG d   1      12.245  10.494  -2.284  0.00  0.00     0.029 H 
ATOM     28  H   LIG d   1      11.348  13.176  -3.415  0.00  0.00     0.027 H 
ATOM     29  H   LIG d   1      13.006  12.492  -3.315  0.00  0.00     0.027 H 
ATOM     30  H   LIG d   1      10.328   9.477  -0.966  0.00  0.00     0.027 H 
ATOM     31  H   LIG d   1       8.699   9.648  -1.703  0.00  0.00     0.027 H 
ATOM     32  H   LIG d   1       8.794   7.684  -0.177  0.00  0.00     0.029 H 
ATOM     33  H   LIG d   1       8.517   7.173  -1.876  0.00  0.00     0.029 H 
ATOM     34  H   LIG d   1      12.119   4.797  -2.123  0.00  0.00     0.028 H 
ATOM     35  H   LIG d   1      12.829   5.748  -3.470  0.00  0.00     0.028 H 
ATOM     36  H   LIG d   1      14.293   5.806  -1.459  0.00  0.00     0.029 H 
ATOM     37  H   LIG d   1      13.653   7.439  -1.843  0.00  0.00     0.029 H 
ATOM     38  H   LIG d   1      11.771   8.390  -0.502  0.00  0.00     0.032 H 
ATOM     39  H   LIG d   1      11.060   7.440   0.847  0.00  0.00     0.032 H 
ENDROOT
BRANCH  16  40
ATOM     40  C   LIG d   1      10.130   6.055  -3.475  0.00  0.00     0.009 C 
ATOM     41  N   LIG d   1      10.131   4.791  -3.669  0.00  0.00    -0.284 NA
ATOM     42  H   LIG d   1       9.405   6.693  -4.004  0.00  0.00     0.079 H 
BRANCH  41  43
ATOM     43  C   LIG d   1       9.168   4.192  -4.596  0.00  0.00     0.136 C 
ATOM     44  H   LIG d   1       8.268   4.823  -4.649  0.00  0.00     0.062 H 
ATOM     45  H   LIG d   1       9.620   4.116  -5.596  0.00  0.00     0.062 H 
BRANCH  43  46
ATOM     46  C   LIG d   1       8.790   2.816  -4.109  0.00  0.00     0.328 C 
ATOM     47  O   LIG d   1       9.525   2.219  -3.359  0.00  0.00    -0.249 OA
BRANCH  46  48
ATOM     48  O   LIG d   1       7.638   2.256  -4.509  0.00  0.00    -0.467 OA
BRANCH  48  49
ATOM     49  C   LIG d   1       7.152   1.125  -3.738  0.00  0.00     0.082 C 
ATOM     50  H   LIG d   1       6.590   1.490  -2.866  0.00  0.00     0.066 H 
ATOM     51  H   LIG d   1       8.006   0.521  -3.397  0.00  0.00     0.066 H 
ATOM     52  H   LIG d   1       6.494   0.509  -4.367  0.00  0.00     0.066 H 
ENDBRANCH  48  49
ENDBRANCH  46  48
ENDBRANCH  43  46
ENDBRANCH  41  43
ENDBRANCH  16  40
BRANCH  15  53
ATOM     53  O   LIG d   1      10.157   5.444  -0.677  0.00  0.00    -0.388 OA
ATOM     54  H   LIG d   1      10.788   4.934   0.065  0.00  0.00     0.210 HD
ENDBRANCH  15  53
BRANCH   8  55
ATOM     55  O   LIG d   1       9.291  11.033  -3.755  0.00  0.00    -0.388 OA
ATOM     56  H   LIG d   1       8.629  11.192  -2.891  0.00  0.00     0.210 HD
ENDBRANCH   8  55
BRANCH  19  57
ATOM     57  O   LIG d   1      12.422   5.200   0.345  0.00  0.00    -0.392 OA
ATOM     58  H   LIG d   1      11.381   4.965   0.608  0.00  0.00     0.210 HD
ENDBRANCH  19  57
BRANCH   1  59
ATOM     59  C   LIG d   1      10.374   9.981  -6.113  0.00  0.00    -0.056 C 
ATOM     60  H   LIG d   1      10.719   9.047  -6.583  0.00  0.00     0.024 H 
ATOM     61  H   LIG d   1      10.411  10.797  -6.848  0.00  0.00     0.024 H 
ATOM     62  H   LIG d   1       9.342   9.853  -5.758  0.00  0.00     0.024 H 
ENDBRANCH   1  59
BRANCH  11  63
ATOM     63  C   LIG d   1      10.884  12.639  -5.793  0.00  0.00    -0.022 A 
ATOM     64  C   LIG d   1       9.967  13.697  -5.224  0.00  0.00     0.115 A 
ATOM     65  O   LIG d   1       9.251  14.260  -6.359  0.00  0.00    -0.457 OA
ATOM     66  H   LIG d   1       9.274  13.235  -4.507  0.00  0.00     0.075 H 
ATOM     67  H   LIG d   1      10.567  14.464  -4.712  0.00  0.00     0.075 H 
ATOM     68  C   LIG d   1       9.680  13.626  -7.466  0.00  0.00     0.332 A 
ATOM     69  C   LIG d   1      10.693  12.629  -7.110  0.00  0.00     0.025 A 
ATOM     70  O   LIG d   1       9.288  13.849  -8.595  0.00  0.00    -0.246 OA
ATOM     71  H   LIG d   1      11.265  11.934  -7.743  0.00  0.00     0.069 H 
ENDBRANCH  11  63
TORSDOF 10
ENDMDL
